REMARK SMILES O=C1NC(=S)S/C1=C\c1ccc(OCc2cn(-c3ccc(C(=O)OCCOCCOCCOC(=O)c4ccc(-c5c6nc(c(-c7c(F)c(F)c(F)c(F)c7F)c7ccc([nH]7)c(-c7c(F)c(F)c(F)c(F)c7F)c7nc(c(-c8c(F)c(F)c(F)c(F)c8F)c8ccc5[nH]8)C=C7)C=C6)cc4)cc3)nn2)cc1
REMARK SMILES IDX 27 1 26 2 25 3 24 4 22 5 23 6 21 7 18 8 19 9 100 10 20 11
REMARK SMILES IDX 99 12 17 13 15 14 16 15 102 16 101 17 14 18 13 19 12 20 9 21
REMARK SMILES IDX 10 22 104 23 11 24 103 25 8 26 1 27 2 28 3 29 7 30 4 31 6 33
REMARK SMILES IDX 5 34 28 35 29 36 30 37 31 38 32 39 33 40 34 41 35 42 36 43
REMARK SMILES IDX 37 44 98 45 38 46 97 47 39 48 40 49 41 50 91 51 42 52 96 53
REMARK SMILES IDX 90 54 92 55 43 56 95 57 89 58 88 59 44 61 76 62 56 63 75 64
REMARK SMILES IDX 57 65 60 66 74 67 93 68 58 69 59 70 73 72 94 73 61 74 45 75
REMARK SMILES IDX 46 76 54 77 47 78 48 79 52 80 55 81 49 82 50 83 53 84 51 85
REMARK SMILES IDX 77 86 78 87 86 88 79 89 80 90 84 91 87 92 81 93 82 94 85 95
REMARK SMILES IDX 83 96 62 97 63 98 71 99 64 100 65 101 69 102 72 103 66 104
REMARK SMILES IDX 67 105 70 106 68 107
REMARK H PARENT 3 32 92 60 60 71
REMARK Flexibility Score: inf
ROOT
ATOM      1  O   UNL     1       9.339   8.641  -0.761  1.00  0.00    -0.376 OA
ENDROOT
BRANCH   1   2
ATOM      2  C   UNL     1       9.400  10.051  -0.900  1.00  0.00     0.202 C 
BRANCH   2   3
ATOM      3  C   UNL     1       8.195  11.010  -0.765  1.00  0.00     0.261 C 
BRANCH   3   4
ATOM      4  O   UNL     1       6.890  10.444  -0.635  1.00  0.00    -0.460 OA
BRANCH   4   5
ATOM      5  C   UNL     1       6.139  10.413  -1.759  1.00  0.00     0.338 C 
ATOM      6  O   UNL     1       6.469  10.796  -2.871  1.00  0.00    -0.246 OA
BRANCH   5   7
ATOM      7  C   UNL     1       4.900   9.652  -1.500  1.00  0.00     0.060 A 
ATOM      8  C   UNL     1       2.521   8.235  -1.173  1.00  0.00     0.066 A 
ATOM      9  C   UNL     1       3.404   7.889  -2.207  1.00  0.00     0.029 A 
ATOM     10  C   UNL     1       2.871   9.230  -0.249  1.00  0.00     0.029 A 
ATOM     11  C   UNL     1       4.572   8.624  -2.391  1.00  0.00     0.018 A 
ATOM     12  C   UNL     1       4.078   9.923  -0.400  1.00  0.00     0.018 A 
BRANCH   8  13
ATOM     13  N   UNL     1       1.239   7.636  -1.155  1.00  0.00    -0.220 N 
ATOM     14  C   UNL     1      -0.923   7.329  -1.150  1.00  0.00     0.120 A 
ATOM     15  C   UNL     1       0.066   8.150  -0.646  1.00  0.00     0.144 A 
ATOM     16  N   UNL     1      -0.332   6.321  -1.863  1.00  0.00    -0.131 NA
ATOM     17  N   UNL     1       0.975   6.510  -1.856  1.00  0.00    -0.062 NA
BRANCH  14  18
ATOM     18  C   UNL     1      -2.410   7.469  -1.126  1.00  0.00     0.289 C 
BRANCH  18  19
ATOM     19  O   UNL     1      -3.078   6.727  -0.095  1.00  0.00    -0.487 OA
BRANCH  19  20
ATOM     20  C   UNL     1      -3.087   5.362  -0.188  1.00  0.00     0.119 A 
ATOM     21  C   UNL     1      -2.903   2.566  -0.028  1.00  0.00    -0.024 A 
ATOM     22  C   UNL     1      -3.362   3.301   1.067  1.00  0.00     0.012 A 
ATOM     23  C   UNL     1      -2.630   3.227  -1.228  1.00  0.00     0.012 A 
ATOM     24  C   UNL     1      -3.451   4.695   0.984  1.00  0.00     0.047 A 
ATOM     25  C   UNL     1      -2.741   4.616  -1.312  1.00  0.00     0.047 A 
BRANCH  21  26
ATOM     26  C   UNL     1      -2.677   1.123   0.079  1.00  0.00     0.029 C 
ATOM     27  O   UNL     1      -2.200  -1.749   0.166  1.00  0.00    -0.268 OA
ATOM     28  C   UNL     1      -1.297  -0.931   0.119  1.00  0.00     0.263 C 
ATOM     29  N   UNL     1       0.034  -1.241   0.076  1.00  0.00    -0.307 N 
ATOM     30  C   UNL     1      -1.468   0.545   0.081  1.00  0.00     0.080 C 
ATOM     31  C   UNL     1       0.931  -0.218   0.021  1.00  0.00     0.145 C 
ATOM     32  H   UNL     1       0.336  -2.178   0.085  1.00  0.00     0.171 HD
ATOM     33  S   UNL     1       0.083   1.309   0.022  1.00  0.00    -0.055 SA
ATOM     34  S   UNL     1       2.571  -0.438  -0.041  1.00  0.00    -0.052 S 
ENDBRANCH  21  26
ENDBRANCH  19  20
ENDBRANCH  18  19
ENDBRANCH  14  18
ENDBRANCH   8  13
ENDBRANCH   5   7
ENDBRANCH   4   5
ENDBRANCH   3   4
ENDBRANCH   2   3
ENDBRANCH   1   2
BRANCH   1  35
ATOM     35  C   UNL     1       8.148   7.955  -1.071  1.00  0.00     0.188 C 
BRANCH  35  36
ATOM     36  C   UNL     1       7.265   7.630   0.152  1.00  0.00     0.188 C 
BRANCH  36  37
ATOM     37  O   UNL     1       7.391   8.345   1.373  1.00  0.00    -0.376 OA
BRANCH  37  38
ATOM     38  C   UNL     1       8.639   8.537   2.022  1.00  0.00     0.202 C 
BRANCH  38  39
ATOM     39  C   UNL     1       9.702   7.448   2.135  1.00  0.00     0.261 C 
BRANCH  39  40
ATOM     40  O   UNL     1       9.797   6.566   1.036  1.00  0.00    -0.460 OA
BRANCH  40  41
ATOM     41  C   UNL     1       9.126   5.413   1.220  1.00  0.00     0.338 C 
ATOM     42  O   UNL     1       8.272   5.170   2.055  1.00  0.00    -0.246 OA
BRANCH  41  43
ATOM     43  C   UNL     1       9.702   4.402   0.338  1.00  0.00     0.060 A 
ATOM     44  C   UNL     1       8.991   3.208   0.206  1.00  0.00     0.016 A 
ATOM     45  C   UNL     1      11.053   4.523  -0.019  1.00  0.00     0.016 A 
ATOM     46  C   UNL     1       9.700   2.067  -0.080  1.00  0.00     0.010 A 
ATOM     47  C   UNL     1      11.764   3.379  -0.270  1.00  0.00     0.010 A 
ATOM     48  C   UNL     1      11.090   2.162  -0.216  1.00  0.00    -0.014 A 
BRANCH  48  49
ATOM     49  C   UNL     1      11.834   0.939  -0.398  1.00  0.00     0.031 A 
ATOM     50  C   UNL     1      11.750   0.431  -1.780  1.00  0.00     0.074 A 
ATOM     51  C   UNL     1      12.592   0.411   0.579  1.00  0.00     0.049 A 
ATOM     52  N   UNL     1      11.182  -0.653  -2.184  1.00  0.00    -0.248 NA
ATOM     53  C   UNL     1      12.198   1.322  -2.863  1.00  0.00     0.031 C 
ATOM     54  C   UNL     1      12.951   1.022   1.862  1.00  0.00     0.029 A 
ATOM     55  N   UNL     1      13.301  -0.749   0.581  1.00  0.00    -0.354 N 
ATOM     56  C   UNL     1      11.383  -0.680  -3.558  1.00  0.00     0.074 A 
ATOM     57  C   UNL     1      11.810   0.638  -3.938  1.00  0.00     0.031 C 
ATOM     58  C   UNL     1      13.980   0.333   2.406  1.00  0.00     0.029 A 
ATOM     59  C   UNL     1      14.270  -0.822   1.572  1.00  0.00     0.049 A 
ATOM     60  H   UNL     1      13.142  -1.474  -0.066  1.00  0.00     0.167 HD
ATOM     61  C   UNL     1      11.482  -1.867  -4.210  1.00  0.00     0.037 A 
ATOM     62  C   UNL     1      15.281  -1.724   1.636  1.00  0.00     0.037 A 
ATOM     63  C   UNL     1      10.907  -2.933  -3.426  1.00  0.00     0.049 A 
ATOM     64  C   UNL     1      14.927  -2.856   0.743  1.00  0.00     0.074 A 
ATOM     65  C   UNL     1       9.653  -3.201  -2.914  1.00  0.00     0.029 A 
ATOM     66  N   UNL     1      11.778  -3.748  -2.749  1.00  0.00    -0.354 N 
ATOM     67  N   UNL     1      13.981  -3.717   0.989  1.00  0.00    -0.248 NA
ATOM     68  C   UNL     1      15.370  -2.800  -0.643  1.00  0.00     0.031 C 
ATOM     69  C   UNL     1       9.884  -3.864  -1.673  1.00  0.00     0.029 A 
ATOM     70  C   UNL     1      11.262  -4.012  -1.510  1.00  0.00     0.049 A 
ATOM     71  H   UNL     1      12.634  -4.087  -3.098  1.00  0.00     0.167 HD
ATOM     72  C   UNL     1      13.409  -3.970  -0.248  1.00  0.00     0.074 A 
ATOM     73  C   UNL     1      14.385  -3.492  -1.221  1.00  0.00     0.031 C 
ATOM     74  C   UNL     1      12.081  -4.267  -0.347  1.00  0.00     0.037 A 
BRANCH  61  75
ATOM     75  C   UNL     1      12.491  -2.130  -5.308  1.00  0.00     0.064 A 
ATOM     76  C   UNL     1      12.472  -3.387  -5.944  1.00  0.00     0.173 A 
ATOM     77  C   UNL     1      13.652  -1.355  -5.535  1.00  0.00     0.173 A 
ATOM     78  F   UNL     1      11.427  -4.215  -5.791  1.00  0.00    -0.203 F 
ATOM     79  C   UNL     1      13.571  -3.869  -6.659  1.00  0.00     0.198 A 
ATOM     80  C   UNL     1      14.722  -1.817  -6.296  1.00  0.00     0.198 A 
ATOM     81  F   UNL     1      13.862  -0.175  -4.944  1.00  0.00    -0.203 F 
ATOM     82  F   UNL     1      13.563  -5.127  -7.119  1.00  0.00    -0.200 F 
ATOM     83  C   UNL     1      14.699  -3.087  -6.826  1.00  0.00     0.200 A 
ATOM     84  F   UNL     1      15.812  -1.049  -6.430  1.00  0.00    -0.200 F 
ATOM     85  F   UNL     1      15.780  -3.573  -7.450  1.00  0.00    -0.200 F 
ENDBRANCH  61  75
BRANCH  62  86
ATOM     86  C   UNL     1      16.651  -1.561   2.180  1.00  0.00     0.064 A 
ATOM     87  C   UNL     1      17.470  -2.681   2.408  1.00  0.00     0.173 A 
ATOM     88  C   UNL     1      17.288  -0.306   2.219  1.00  0.00     0.173 A 
ATOM     89  F   UNL     1      16.954  -3.918   2.350  1.00  0.00    -0.203 F 
ATOM     90  C   UNL     1      18.846  -2.555   2.623  1.00  0.00     0.198 A 
ATOM     91  C   UNL     1      18.660  -0.181   2.445  1.00  0.00     0.198 A 
ATOM     92  F   UNL     1      16.615   0.819   1.939  1.00  0.00    -0.203 F 
ATOM     93  F   UNL     1      19.604  -3.652   2.762  1.00  0.00    -0.200 F 
ATOM     94  C   UNL     1      19.442  -1.306   2.630  1.00  0.00     0.200 A 
ATOM     95  F   UNL     1      19.229   1.032   2.416  1.00  0.00    -0.200 F 
ATOM     96  F   UNL     1      20.769  -1.187   2.770  1.00  0.00    -0.200 F 
ENDBRANCH  62  86
BRANCH  74  97
ATOM     97  C   UNL     1      11.371  -4.693   0.906  1.00  0.00     0.064 A 
ATOM     98  C   UNL     1      11.223  -3.892   2.053  1.00  0.00     0.173 A 
ATOM     99  C   UNL     1      10.725  -5.937   0.899  1.00  0.00     0.173 A 
ATOM    100  F   UNL     1      11.724  -2.651   2.100  1.00  0.00    -0.203 F 
ATOM    101  C   UNL     1      10.508  -4.348   3.159  1.00  0.00     0.198 A 
ATOM    102  C   UNL     1       9.975  -6.369   1.987  1.00  0.00     0.198 A 
ATOM    103  F   UNL     1      10.790  -6.722  -0.188  1.00  0.00    -0.203 F 
ATOM    104  F   UNL     1      10.404  -3.581   4.255  1.00  0.00    -0.200 F 
ATOM    105  C   UNL     1       9.880  -5.582   3.123  1.00  0.00     0.200 A 
ATOM    106  F   UNL     1       9.330  -7.542   1.927  1.00  0.00    -0.200 F 
ATOM    107  F   UNL     1       9.163  -6.005   4.173  1.00  0.00    -0.200 F 
ENDBRANCH  74  97
ENDBRANCH  48  49
ENDBRANCH  41  43
ENDBRANCH  40  41
ENDBRANCH  39  40
ENDBRANCH  38  39
ENDBRANCH  37  38
ENDBRANCH  36  37
ENDBRANCH  35  36
ENDBRANCH   1  35
TORSDOF 22
