REMARK SMILES COc1cc(/C=N/[NH+]=C2\NC(=O)[C@@H](CC(=O)OCCOCCOCCOC(=O)c3ccc(-c4c5nc(c(-c6c(F)c(F)c(F)c(F)c6F)c6ccc([nH]6)c(-c6c(F)c(F)c(F)c(F)c6F)c6nc(c(-c7c(F)c(F)c(F)c(F)c7F)c7ccc4[nH]7)C=C6)C=C5)cc3)S2)cc(I)c1OC
REMARK SMILES IDX 21 1 20 2 19 3 18 4 17 5 15 6 16 7 14 8 13 9 8 10 9 11 10 13
REMARK SMILES IDX 92 14 11 15 12 17 7 18 6 19 5 20 3 21 4 22 96 23 94 24 93 25
REMARK SMILES IDX 95 26 2 27 1 28 97 29 98 30 22 31 23 32 24 33 25 34 26 35
REMARK SMILES IDX 27 36 28 37 29 38 30 39 91 40 31 41 90 42 32 43 33 44 34 45
REMARK SMILES IDX 84 46 35 47 89 48 83 49 85 50 36 51 88 52 82 53 81 54 37 56
REMARK SMILES IDX 69 57 49 58 68 59 50 60 53 61 67 62 86 63 51 64 52 65 66 67
REMARK SMILES IDX 87 68 54 69 38 70 39 71 47 72 40 73 41 74 45 75 48 76 42 77
REMARK SMILES IDX 43 78 46 79 44 80 70 81 71 82 79 83 72 84 73 85 77 86 80 87
REMARK SMILES IDX 74 88 75 89 78 90 76 91 55 92 56 93 64 94 57 95 58 96 62 97
REMARK SMILES IDX 65 98 59 99 60 100 63 101 61 102
REMARK H PARENT 8 12 10 16 85 55 53 66
REMARK Flexibility Score: inf
ROOT
ATOM      1  C   UNL     1       8.752   0.080  10.069  1.00  0.00     0.188 C 
ENDROOT
BRANCH   1   2
ATOM      2  O   UNL     1       9.913   0.800  10.466  1.00  0.00    -0.376 OA
BRANCH   2   3
ATOM      3  C   UNL     1      10.596   1.608   9.504  1.00  0.00     0.202 C 
BRANCH   3   4
ATOM      4  C   UNL     1      10.974   0.990   8.150  1.00  0.00     0.261 C 
BRANCH   4   5
ATOM      5  O   UNL     1       9.821   0.559   7.412  1.00  0.00    -0.463 OA
BRANCH   5   6
ATOM      6  C   UNL     1       9.825  -0.707   6.925  1.00  0.00     0.307 C 
ATOM      7  O   UNL     1      10.759  -1.494   7.009  1.00  0.00    -0.252 OA
BRANCH   6   8
ATOM      8  C   UNL     1       8.469  -1.112   6.402  1.00  0.00     0.150 C 
BRANCH   8   9
ATOM      9  C   UNL     1       7.582   0.051   6.003  1.00  0.00     0.184 C 
ATOM     10  N   UNL     1       5.919   1.777   3.077  1.00  0.00    -0.142 N 
ATOM     11  C   UNL     1       6.340   0.992   4.006  1.00  0.00     0.337 C 
ATOM     12  H   UNL     1       6.500   2.416   2.605  1.00  0.00     0.343 HD
ATOM     13  N   UNL     1       5.558   0.206   4.784  1.00  0.00    -0.202 N 
ATOM     14  S   UNL     1       8.012   0.839   4.427  1.00  0.00    -0.020 SA
ATOM     15  C   UNL     1       6.132  -0.366   5.876  1.00  0.00     0.322 C 
ATOM     16  H   UNL     1       4.610   0.055   4.567  1.00  0.00     0.316 HD
ATOM     17  O   UNL     1       5.520  -1.039   6.696  1.00  0.00    -0.246 OA
BRANCH  10  18
ATOM     18  N   UNL     1       4.565   1.634   2.807  1.00  0.00    -0.093 NA
ATOM     19  C   UNL     1       3.809   2.522   3.366  1.00  0.00     0.166 C 
BRANCH  19  20
ATOM     20  C   UNL     1       2.371   2.501   3.062  1.00  0.00     0.002 A 
ATOM     21  C   UNL     1       0.611   1.845   1.557  1.00  0.00     0.162 A 
ATOM     22  C   UNL     1       1.966   1.947   1.854  1.00  0.00     0.060 A 
ATOM     23  C   UNL     1      -0.374   2.329   2.452  1.00  0.00     0.174 A 
ATOM     24  C   UNL     1       0.056   2.892   3.672  1.00  0.00     0.060 A 
ATOM     25  C   UNL     1       1.433   2.985   3.967  1.00  0.00     0.028 A 
ATOM     26  I   UNL     1      -1.165   3.551   5.263  1.00  0.00    -0.040 I 
BRANCH  21  27
ATOM     27  O   UNL     1       0.202   1.337   0.344  1.00  0.00    -0.493 OA
ATOM     28  C   UNL     1       0.825   0.101  -0.005  1.00  0.00     0.278 C 
ENDBRANCH  21  27
BRANCH  23  29
ATOM     29  O   UNL     1      -1.641   2.073   2.007  1.00  0.00    -0.492 OA
ATOM     30  C   UNL     1      -2.737   2.874   2.398  1.00  0.00     0.278 C 
ENDBRANCH  23  29
ENDBRANCH  19  20
ENDBRANCH  10  18
ENDBRANCH   8   9
ENDBRANCH   6   8
ENDBRANCH   5   6
ENDBRANCH   4   5
ENDBRANCH   3   4
ENDBRANCH   2   3
ENDBRANCH   1   2
BRANCH   1  31
ATOM     31  C   UNL     1       7.574   0.850   9.451  1.00  0.00     0.188 C 
BRANCH  31  32
ATOM     32  O   UNL     1       7.901   2.139   8.989  1.00  0.00    -0.376 OA
BRANCH  32  33
ATOM     33  C   UNL     1       7.374   3.269   9.676  1.00  0.00     0.202 C 
BRANCH  33  34
ATOM     34  C   UNL     1       7.237   3.339  11.216  1.00  0.00     0.261 C 
BRANCH  34  35
ATOM     35  O   UNL     1       7.009   2.113  11.925  1.00  0.00    -0.460 OA
BRANCH  35  36
ATOM     36  C   UNL     1       5.722   1.696  12.018  1.00  0.00     0.338 C 
ATOM     37  O   UNL     1       4.737   2.255  11.580  1.00  0.00    -0.246 OA
BRANCH  36  38
ATOM     38  C   UNL     1       5.732   0.301  12.522  1.00  0.00     0.060 A 
ATOM     39  C   UNL     1       5.212  -0.705  11.696  1.00  0.00     0.016 A 
ATOM     40  C   UNL     1       6.245  -0.015  13.782  1.00  0.00     0.016 A 
ATOM     41  C   UNL     1       5.167  -2.024  12.144  1.00  0.00     0.010 A 
ATOM     42  C   UNL     1       6.180  -1.338  14.238  1.00  0.00     0.010 A 
ATOM     43  C   UNL     1       5.606  -2.341  13.435  1.00  0.00    -0.014 A 
BRANCH  43  44
ATOM     44  C   UNL     1       5.284  -3.678  13.996  1.00  0.00     0.031 A 
ATOM     45  C   UNL     1       4.094  -3.812  14.907  1.00  0.00     0.074 A 
ATOM     46  C   UNL     1       5.995  -4.769  13.658  1.00  0.00     0.049 A 
ATOM     47  N   UNL     1       3.597  -4.878  15.481  1.00  0.00    -0.248 NA
ATOM     48  C   UNL     1       3.368  -2.570  15.214  1.00  0.00     0.031 C 
ATOM     49  C   UNL     1       7.151  -4.779  12.766  1.00  0.00     0.029 A 
ATOM     50  N   UNL     1       5.841  -6.082  14.029  1.00  0.00    -0.354 N 
ATOM     51  C   UNL     1       2.507  -4.436  16.219  1.00  0.00     0.074 A 
ATOM     52  C   UNL     1       2.438  -3.000  16.052  1.00  0.00     0.031 C 
ATOM     53  C   UNL     1       7.608  -6.040  12.662  1.00  0.00     0.029 A 
ATOM     54  C   UNL     1       6.791  -6.919  13.499  1.00  0.00     0.049 A 
ATOM     55  H   UNL     1       5.118  -6.394  14.620  1.00  0.00     0.167 HD
ATOM     56  C   UNL     1       1.636  -5.161  16.961  1.00  0.00     0.037 A 
ATOM     57  C   UNL     1       6.986  -8.240  13.679  1.00  0.00     0.037 A 
ATOM     58  C   UNL     1       1.706  -6.589  17.128  1.00  0.00     0.049 A 
ATOM     59  C   UNL     1       6.031  -9.020  14.547  1.00  0.00     0.074 A 
ATOM     60  C   UNL     1       0.852  -7.418  17.833  1.00  0.00     0.029 A 
ATOM     61  N   UNL     1       2.699  -7.400  16.595  1.00  0.00    -0.354 N 
ATOM     62  N   UNL     1       4.976  -8.603  15.206  1.00  0.00    -0.248 NA
ATOM     63  C   UNL     1       6.286 -10.462  14.682  1.00  0.00     0.031 C 
ATOM     64  C   UNL     1       1.366  -8.719  17.786  1.00  0.00     0.029 A 
ATOM     65  C   UNL     1       2.496  -8.715  16.984  1.00  0.00     0.049 A 
ATOM     66  H   UNL     1       3.438  -7.087  16.024  1.00  0.00     0.167 HD
ATOM     67  C   UNL     1       4.424  -9.731  15.803  1.00  0.00     0.074 A 
ATOM     68  C   UNL     1       5.254 -10.852  15.416  1.00  0.00     0.031 C 
ATOM     69  C   UNL     1       3.326  -9.828  16.594  1.00  0.00     0.037 A 
BRANCH  56  70
ATOM     70  C   UNL     1       0.552  -4.411  17.684  1.00  0.00     0.064 A 
ATOM     71  C   UNL     1      -0.497  -3.774  17.002  1.00  0.00     0.173 A 
ATOM     72  C   UNL     1       0.555  -4.345  19.086  1.00  0.00     0.173 A 
ATOM     73  F   UNL     1      -0.541  -3.793  15.661  1.00  0.00    -0.203 F 
ATOM     74  C   UNL     1      -1.479  -3.070  17.694  1.00  0.00     0.198 A 
ATOM     75  C   UNL     1      -0.450  -3.672  19.776  1.00  0.00     0.198 A 
ATOM     76  F   UNL     1       1.531  -4.939  19.789  1.00  0.00    -0.203 F 
ATOM     77  F   UNL     1      -2.436  -2.418  17.018  1.00  0.00    -0.200 F 
ATOM     78  C   UNL     1      -1.459  -3.026  19.080  1.00  0.00     0.200 A 
ATOM     79  F   UNL     1      -0.436  -3.644  21.116  1.00  0.00    -0.200 F 
ATOM     80  F   UNL     1      -2.408  -2.353  19.745  1.00  0.00    -0.200 F 
ENDBRANCH  56  70
BRANCH  57  81
ATOM     81  C   UNL     1       8.139  -8.912  13.022  1.00  0.00     0.064 A 
ATOM     82  C   UNL     1       7.950  -9.853  12.000  1.00  0.00     0.173 A 
ATOM     83  C   UNL     1       9.457  -8.630  13.413  1.00  0.00     0.173 A 
ATOM     84  F   UNL     1       6.709 -10.178  11.610  1.00  0.00    -0.203 F 
ATOM     85  C   UNL     1       9.034 -10.498  11.406  1.00  0.00     0.198 A 
ATOM     86  C   UNL     1      10.541  -9.251  12.796  1.00  0.00     0.198 A 
ATOM     87  F   UNL     1       9.692  -7.741  14.389  1.00  0.00    -0.203 F 
ATOM     88  F   UNL     1       8.823 -11.429  10.466  1.00  0.00    -0.200 F 
ATOM     89  C   UNL     1      10.328 -10.190  11.799  1.00  0.00     0.200 A 
ATOM     90  F   UNL     1      11.789  -8.942  13.170  1.00  0.00    -0.200 F 
ATOM     91  F   UNL     1      11.370 -10.805  11.222  1.00  0.00    -0.200 F 
ENDBRANCH  57  81
BRANCH  69  92
ATOM     92  C   UNL     1       2.923 -11.203  17.055  1.00  0.00     0.064 A 
ATOM     93  C   UNL     1       3.693 -11.940  17.968  1.00  0.00     0.173 A 
ATOM     94  C   UNL     1       1.732 -11.783  16.590  1.00  0.00     0.173 A 
ATOM     95  F   UNL     1       4.845 -11.439  18.439  1.00  0.00    -0.203 F 
ATOM     96  C   UNL     1       3.309 -13.220  18.362  1.00  0.00     0.198 A 
ATOM     97  C   UNL     1       1.331 -13.047  17.017  1.00  0.00     0.198 A 
ATOM     98  F   UNL     1       0.948 -11.121  15.726  1.00  0.00    -0.203 F 
ATOM     99  F   UNL     1       4.096 -13.930  19.183  1.00  0.00    -0.200 F 
ATOM    100  C   UNL     1       2.127 -13.770  17.891  1.00  0.00     0.200 A 
ATOM    101  F   UNL     1       0.177 -13.567  16.575  1.00  0.00    -0.200 F 
ATOM    102  F   UNL     1       1.758 -15.000  18.273  1.00  0.00    -0.200 F 
ENDBRANCH  69  92
ENDBRANCH  43  44
ENDBRANCH  36  38
ENDBRANCH  35  36
ENDBRANCH  34  35
ENDBRANCH  33  34
ENDBRANCH  32  33
ENDBRANCH  31  32
ENDBRANCH   1  31
TORSDOF 22
