REMARK SMILES Cc1cc(OC(F)(F)F)cc2c1O[C@H](C(F)(F)F)C(C(=O)OCCOCCOCCOC(=O)c1ccc(-c3c4nc(c(-c5c(F)c(F)c(F)c(F)c5F)c5ccc([nH]5)c(-c5c(F)c(F)c(F)c(F)c5F)c5nc(c(-c6c(F)c(F)c(F)c(F)c6F)c6ccc3[nH]6)C=C5)C=C4)cc1)=C2
REMARK SMILES IDX 26 1 25 2 24 3 23 4 22 5 20 6 21 7 19 8 1 9 2 10 3 11 12 12
REMARK SMILES IDX 4 13 11 14 13 15 10 16 97 17 14 18 5 19 6 20 7 21 8 22 9 23
REMARK SMILES IDX 15 24 16 25 17 26 18 27 27 28 28 29 29 30 30 31 31 32 32 33
REMARK SMILES IDX 33 34 34 35 35 36 96 37 36 38 95 39 37 40 38 41 39 42 89 43
REMARK SMILES IDX 40 44 94 45 88 46 90 47 41 48 93 49 87 50 86 51 42 53 74 54
REMARK SMILES IDX 54 55 73 56 55 57 58 58 72 59 91 60 56 61 57 62 71 64 92 65
REMARK SMILES IDX 59 66 43 67 44 68 52 69 45 70 46 71 50 72 53 73 47 74 48 75
REMARK SMILES IDX 51 76 49 77 75 78 76 79 84 80 77 81 78 82 82 83 85 84 79 85
REMARK SMILES IDX 80 86 83 87 81 88 60 89 61 90 69 91 62 92 63 93 67 94 70 95
REMARK SMILES IDX 64 96 65 97 68 98 66 99
REMARK H PARENT 90 52 58 63
REMARK Flexibility Score: inf
ROOT
ATOM      1  C   UNL     1       1.692  -6.380   5.009  1.00  0.00     0.188 C 
ENDROOT
BRANCH   1   2
ATOM      2  O   UNL     1       1.648  -7.784   5.094  1.00  0.00    -0.376 OA
BRANCH   2   3
ATOM      3  C   UNL     1       1.027  -8.565   4.089  1.00  0.00     0.202 C 
BRANCH   3   4
ATOM      4  C   UNL     1       0.179  -8.023   2.925  1.00  0.00     0.261 C 
BRANCH   4   5
ATOM      5  O   UNL     1       0.386  -6.663   2.535  1.00  0.00    -0.460 OA
BRANCH   5   6
ATOM      6  C   UNL     1      -0.625  -5.811   2.834  1.00  0.00     0.338 C 
ATOM      7  O   UNL     1      -1.665  -6.086   3.408  1.00  0.00    -0.246 OA
BRANCH   6   8
ATOM      8  C   UNL     1      -0.219  -4.431   2.498  1.00  0.00     0.087 C 
ATOM      9  C   UNL     1       1.107  -0.129   0.071  1.00  0.00     0.048 C 
ATOM     10  C   UNL     1       0.560  -0.476   1.429  1.00  0.00    -0.005 A 
ATOM     11  C   UNL     1       0.221   0.555   2.322  1.00  0.00     0.054 A 
ATOM     12  C   UNL     1       0.395  -1.812   1.824  1.00  0.00     0.131 A 
ATOM     13  C   UNL     1      -0.289   0.264   3.587  1.00  0.00     0.130 A 
ATOM     14  C   UNL     1      -0.154  -2.110   3.073  1.00  0.00     0.021 A 
ATOM     15  O   UNL     1       0.796  -2.772   0.939  1.00  0.00    -0.475 OA
ATOM     16  C   UNL     1      -0.466  -1.072   3.959  1.00  0.00     0.058 A 
ATOM     17  C   UNL     1      -0.465  -3.488   3.417  1.00  0.00     0.027 C 
ATOM     18  C   UNL     1       0.443  -4.160   1.175  1.00  0.00     0.316 C 
BRANCH  13  19
ATOM     19  O   UNL     1      -0.659   1.171   4.539  1.00  0.00    -0.406 OA
BRANCH  19  20
ATOM     20  C   UNL     1      -0.729   2.536   4.158  1.00  0.00     0.573 C 
ATOM     21  F   UNL     1       0.493   3.015   3.844  1.00  0.00    -0.132 F 
ATOM     22  F   UNL     1      -1.564   2.708   3.111  1.00  0.00    -0.132 F 
ATOM     23  F   UNL     1      -1.207   3.253   5.198  1.00  0.00    -0.132 F 
ENDBRANCH  19  20
ENDBRANCH  13  19
BRANCH  18  24
ATOM     24  C   UNL     1      -0.399  -4.651  -0.009  1.00  0.00     0.430 C 
ATOM     25  F   UNL     1       0.183  -4.339  -1.191  1.00  0.00    -0.167 F 
ATOM     26  F   UNL     1      -0.550  -5.996   0.007  1.00  0.00    -0.167 F 
ATOM     27  F   UNL     1      -1.637  -4.105  -0.008  1.00  0.00    -0.167 F 
ENDBRANCH  18  24
ENDBRANCH   6   8
ENDBRANCH   5   6
ENDBRANCH   4   5
ENDBRANCH   3   4
ENDBRANCH   2   3
ENDBRANCH   1   2
BRANCH   1  28
ATOM     28  C   UNL     1       2.710  -5.738   4.041  1.00  0.00     0.188 C 
BRANCH  28  29
ATOM     29  O   UNL     1       3.481  -6.548   3.179  1.00  0.00    -0.376 OA
BRANCH  29  30
ATOM     30  C   UNL     1       4.315  -7.550   3.744  1.00  0.00     0.202 C 
BRANCH  30  31
ATOM     31  C   UNL     1       5.137  -7.313   5.026  1.00  0.00     0.261 C 
BRANCH  31  32
ATOM     32  O   UNL     1       4.457  -6.650   6.103  1.00  0.00    -0.460 OA
BRANCH  32  33
ATOM     33  C   UNL     1       4.919  -5.412   6.424  1.00  0.00     0.338 C 
ATOM     34  O   UNL     1       5.833  -4.801   5.910  1.00  0.00    -0.246 OA
BRANCH  33  35
ATOM     35  C   UNL     1       4.004  -4.818   7.419  1.00  0.00     0.060 A 
ATOM     36  C   UNL     1       3.114  -3.810   7.018  1.00  0.00     0.016 A 
ATOM     37  C   UNL     1       4.034  -5.251   8.743  1.00  0.00     0.016 A 
ATOM     38  C   UNL     1       2.220  -3.261   7.936  1.00  0.00     0.010 A 
ATOM     39  C   UNL     1       3.169  -4.668   9.673  1.00  0.00     0.010 A 
ATOM     40  C   UNL     1       2.264  -3.669   9.275  1.00  0.00    -0.014 A 
BRANCH  40  41
ATOM     41  C   UNL     1       1.482  -2.923  10.288  1.00  0.00     0.031 A 
ATOM     42  C   UNL     1       2.138  -1.766  10.982  1.00  0.00     0.074 A 
ATOM     43  C   UNL     1       0.210  -3.254  10.570  1.00  0.00     0.049 A 
ATOM     44  N   UNL     1       1.655  -0.963  11.894  1.00  0.00    -0.248 NA
ATOM     45  C   UNL     1       3.527  -1.472  10.594  1.00  0.00     0.031 C 
ATOM     46  C   UNL     1      -0.542  -4.332   9.935  1.00  0.00     0.029 A 
ATOM     47  N   UNL     1      -0.673  -2.710  11.470  1.00  0.00    -0.354 N 
ATOM     48  C   UNL     1       2.671  -0.062  12.175  1.00  0.00     0.074 A 
ATOM     49  C   UNL     1       3.814  -0.440  11.373  1.00  0.00     0.031 C 
ATOM     50  C   UNL     1      -1.775  -4.375  10.470  1.00  0.00     0.029 A 
ATOM     51  C   UNL     1      -1.891  -3.343  11.500  1.00  0.00     0.049 A 
ATOM     52  H   UNL     1      -0.454  -1.938  12.040  1.00  0.00     0.167 HD
ATOM     53  C   UNL     1       2.646   0.999  13.014  1.00  0.00     0.037 A 
ATOM     54  C   UNL     1      -2.970  -3.118  12.279  1.00  0.00     0.037 A 
ATOM     55  C   UNL     1       1.515   1.360  13.824  1.00  0.00     0.049 A 
ATOM     56  C   UNL     1      -2.936  -1.992  13.284  1.00  0.00     0.074 A 
ATOM     57  C   UNL     1       1.393   2.420  14.703  1.00  0.00     0.029 A 
ATOM     58  N   UNL     1       0.317   0.662  13.865  1.00  0.00    -0.354 N 
ATOM     59  N   UNL     1      -1.988  -1.116  13.513  1.00  0.00    -0.248 NA
ATOM     60  C   UNL     1      -4.123  -1.821  14.138  1.00  0.00     0.031 C 
ATOM     61  C   UNL     1       0.144   2.330  15.322  1.00  0.00     0.029 A 
ATOM     62  C   UNL     1      -0.539   1.254  14.779  1.00  0.00     0.049 A 
ATOM     63  H   UNL     1       0.106  -0.134  13.325  1.00  0.00     0.167 HD
ATOM     64  C   UNL     1      -2.475  -0.272  14.504  1.00  0.00     0.074 A 
ATOM     65  C   UNL     1      -3.804  -0.737  14.834  1.00  0.00     0.031 C 
ATOM     66  C   UNL     1      -1.871   0.795  15.082  1.00  0.00     0.037 A 
BRANCH  53  67
ATOM     67  C   UNL     1       3.879   1.847  13.106  1.00  0.00     0.064 A 
ATOM     68  C   UNL     1       4.268   2.686  12.051  1.00  0.00     0.173 A 
ATOM     69  C   UNL     1       4.638   1.877  14.284  1.00  0.00     0.173 A 
ATOM     70  F   UNL     1       3.582   2.683  10.897  1.00  0.00    -0.203 F 
ATOM     71  C   UNL     1       5.379   3.515  12.169  1.00  0.00     0.198 A 
ATOM     72  C   UNL     1       5.731   2.730  14.410  1.00  0.00     0.198 A 
ATOM     73  F   UNL     1       4.306   1.096  15.324  1.00  0.00    -0.203 F 
ATOM     74  F   UNL     1       5.752   4.283  11.136  1.00  0.00    -0.200 F 
ATOM     75  C   UNL     1       6.102   3.545  13.352  1.00  0.00     0.200 A 
ATOM     76  F   UNL     1       6.418   2.770  15.560  1.00  0.00    -0.200 F 
ATOM     77  F   UNL     1       7.159   4.360  13.472  1.00  0.00    -0.200 F 
ENDBRANCH  53  67
BRANCH  54  78
ATOM     78  C   UNL     1      -4.184  -3.963  12.123  1.00  0.00     0.064 A 
ATOM     79  C   UNL     1      -5.373  -3.426  11.611  1.00  0.00     0.173 A 
ATOM     80  C   UNL     1      -4.182  -5.321  12.476  1.00  0.00     0.173 A 
ATOM     81  F   UNL     1      -5.435  -2.127  11.284  1.00  0.00    -0.203 F 
ATOM     82  C   UNL     1      -6.515  -4.212  11.465  1.00  0.00     0.198 A 
ATOM     83  C   UNL     1      -5.316  -6.113  12.303  1.00  0.00     0.198 A 
ATOM     84  F   UNL     1      -3.072  -5.884  12.976  1.00  0.00    -0.203 F 
ATOM     85  F   UNL     1      -7.649  -3.663  11.008  1.00  0.00    -0.200 F 
ATOM     86  C   UNL     1      -6.483  -5.556  11.802  1.00  0.00     0.200 A 
ATOM     87  F   UNL     1      -5.277  -7.414  12.620  1.00  0.00    -0.200 F 
ATOM     88  F   UNL     1      -7.578  -6.314  11.651  1.00  0.00    -0.200 F 
ENDBRANCH  54  78
BRANCH  66  89
ATOM     89  C   UNL     1      -2.635   1.578  16.113  1.00  0.00     0.064 A 
ATOM     90  C   UNL     1      -2.841   1.081  17.407  1.00  0.00     0.173 A 
ATOM     91  C   UNL     1      -3.034   2.897  15.843  1.00  0.00     0.173 A 
ATOM     92  F   UNL     1      -2.485  -0.176  17.712  1.00  0.00    -0.203 F 
ATOM     93  C   UNL     1      -3.413   1.878  18.395  1.00  0.00     0.198 A 
ATOM     94  C   UNL     1      -3.578   3.700  16.841  1.00  0.00     0.198 A 
ATOM     95  F   UNL     1      -2.848   3.424  14.623  1.00  0.00    -0.203 F 
ATOM     96  F   UNL     1      -3.612   1.380  19.623  1.00  0.00    -0.200 F 
ATOM     97  C   UNL     1      -3.765   3.191  18.117  1.00  0.00     0.200 A 
ATOM     98  F   UNL     1      -3.896   4.975  16.575  1.00  0.00    -0.200 F 
ATOM     99  F   UNL     1      -4.280   3.968  19.080  1.00  0.00    -0.200 F 
ENDBRANCH  66  89
ENDBRANCH  40  41
ENDBRANCH  33  35
ENDBRANCH  32  33
ENDBRANCH  31  32
ENDBRANCH  30  31
ENDBRANCH  29  30
ENDBRANCH  28  29
ENDBRANCH   1  28
TORSDOF 20
