REMARK SMILES COc1cccc(-c2nn(-c3cc4c(cc3C(N)=O)OCO4)cc2C(=O)OCCOCCOCCOC(=O)c2ccc(-c3c4nc(c(-c5c(F)c(F)c(F)c(F)c5F)c5ccc([nH]5)c(-c5c(F)c(F)c(F)c(F)c5F)c5nc(c(-c6c(F)c(F)c(F)c(F)c6F)c6ccc3[nH]6)C=C5)C=C4)cc2)c1
REMARK SMILES IDX 31 1 30 2 29 3 28 4 27 5 25 6 26 7 24 8 8 9 9 10 10 11 23 12
REMARK SMILES IDX 7 13 3 14 4 15 102 16 5 17 6 18 2 19 1 20 11 21 12 22 16 23
REMARK SMILES IDX 13 24 15 25 14 26 22 27 20 28 21 29 17 30 18 31 19 32 32 35
REMARK SMILES IDX 33 36 34 37 35 38 36 39 37 40 38 41 39 42 40 43 101 44 41 45
REMARK SMILES IDX 100 46 42 47 43 48 44 49 94 50 45 51 99 52 93 53 95 54 46 55
REMARK SMILES IDX 98 56 92 57 91 58 47 60 79 61 59 62 78 63 60 64 63 65 77 66
REMARK SMILES IDX 96 67 61 68 62 69 76 71 97 72 64 73 48 74 49 75 57 76 50 77
REMARK SMILES IDX 51 78 55 79 58 80 52 81 53 82 56 83 54 84 80 85 81 86 89 87
REMARK SMILES IDX 82 88 83 89 87 90 90 91 84 92 85 93 88 94 86 95 65 96 66 97
REMARK SMILES IDX 74 98 67 99 68 100 72 101 75 102 69 103 70 104 73 105 71 106
REMARK H PARENT 18 33 18 34 95 59 63 70
REMARK Flexibility Score: inf
ROOT
ATOM      1  C   UNL     1       1.942  -0.045   7.415  1.00  0.00     0.188 C 
ENDROOT
BRANCH   1   2
ATOM      2  O   UNL     1       1.837  -1.123   8.318  1.00  0.00    -0.376 OA
BRANCH   2   3
ATOM      3  C   UNL     1       2.105  -2.429   7.836  1.00  0.00     0.202 C 
BRANCH   3   4
ATOM      4  C   UNL     1       3.348  -2.764   6.984  1.00  0.00     0.261 C 
BRANCH   4   5
ATOM      5  O   UNL     1       4.054  -1.682   6.373  1.00  0.00    -0.460 OA
BRANCH   5   6
ATOM      6  C   UNL     1       3.707  -1.337   5.100  1.00  0.00     0.342 C 
ATOM      7  O   UNL     1       2.804  -1.871   4.464  1.00  0.00    -0.246 OA
BRANCH   6   8
ATOM      8  C   UNL     1       4.457  -0.192   4.632  1.00  0.00     0.106 A 
ATOM      9  C   UNL     1       4.035   0.928   3.859  1.00  0.00     0.107 A 
ATOM     10  N   UNL     1       5.060   1.766   3.611  1.00  0.00    -0.167 NA
ATOM     11  N   UNL     1       6.143   1.081   4.059  1.00  0.00    -0.239 N 
ATOM     12  C   UNL     1       5.768   0.104   4.946  1.00  0.00     0.131 A 
BRANCH   9  13
ATOM     13  C   UNL     1       2.671   1.242   3.458  1.00  0.00     0.007 A 
ATOM     14  C   UNL     1       0.876   1.103   1.841  1.00  0.00     0.119 A 
ATOM     15  C   UNL     1       0.009   1.695   2.765  1.00  0.00     0.046 A 
ATOM     16  C   UNL     1       2.209   0.875   2.190  1.00  0.00     0.056 A 
ATOM     17  C   UNL     1       0.465   2.073   4.026  1.00  0.00     0.005 A 
ATOM     18  C   UNL     1       1.800   1.865   4.364  1.00  0.00     0.011 A 
BRANCH  14  19
ATOM     19  O   UNL     1       0.314   0.830   0.624  1.00  0.00    -0.497 OA
ATOM     20  C   UNL     1       0.941  -0.192  -0.140  1.00  0.00     0.278 C 
ENDBRANCH  14  19
ENDBRANCH   9  13
BRANCH  11  21
ATOM     21  C   UNL     1       7.468   1.409   3.674  1.00  0.00     0.081 A 
ATOM     22  C   UNL     1       7.775   2.766   3.443  1.00  0.00     0.079 A 
ATOM     23  C   UNL     1       8.468   0.399   3.524  1.00  0.00     0.069 A 
ATOM     24  C   UNL     1       9.084   3.081   3.145  1.00  0.00     0.167 A 
ATOM     25  C   UNL     1       9.805   0.790   3.343  1.00  0.00     0.066 A 
ATOM     26  C   UNL     1      10.069   2.124   3.132  1.00  0.00     0.166 A 
ATOM     27  O   UNL     1       9.571   4.310   2.822  1.00  0.00    -0.454 OA
ATOM     28  O   UNL     1      11.290   2.630   2.806  1.00  0.00    -0.454 OA
ATOM     29  C   UNL     1      10.912   3.964   2.411  1.00  0.00     0.468 C 
BRANCH  23  30
ATOM     30  C   UNL     1       8.111  -1.048   3.276  1.00  0.00     0.251 C 
ATOM     31  N   UNL     1       9.104  -1.943   2.990  1.00  0.00    -0.366 N 
ATOM     32  O   UNL     1       6.963  -1.469   3.217  1.00  0.00    -0.269 OA
ATOM     33  H   UNL     1      10.046  -1.659   3.022  1.00  0.00     0.159 HD
ATOM     34  H   UNL     1       8.876  -2.871   2.752  1.00  0.00     0.159 HD
ENDBRANCH  23  30
ENDBRANCH  11  21
ENDBRANCH   6   8
ENDBRANCH   5   6
ENDBRANCH   4   5
ENDBRANCH   3   4
ENDBRANCH   2   3
ENDBRANCH   1   2
BRANCH   1  35
ATOM     35  C   UNL     1       3.191   0.830   7.651  1.00  0.00     0.188 C 
BRANCH  35  36
ATOM     36  O   UNL     1       4.174   0.491   8.620  1.00  0.00    -0.376 OA
BRANCH  36  37
ATOM     37  C   UNL     1       3.809  -0.057   9.876  1.00  0.00     0.202 C 
BRANCH  37  38
ATOM     38  C   UNL     1       2.766   0.637  10.747  1.00  0.00     0.261 C 
BRANCH  38  39
ATOM     39  O   UNL     1       1.773   1.357  10.043  1.00  0.00    -0.460 OA
BRANCH  39  40
ATOM     40  C   UNL     1       2.088   2.649   9.818  1.00  0.00     0.338 C 
ATOM     41  O   UNL     1       3.174   3.188   9.937  1.00  0.00    -0.246 OA
BRANCH  40  42
ATOM     42  C   UNL     1       0.852   3.369   9.511  1.00  0.00     0.060 A 
ATOM     43  C   UNL     1       0.970   4.675   9.030  1.00  0.00     0.016 A 
ATOM     44  C   UNL     1      -0.355   2.857  10.005  1.00  0.00     0.016 A 
ATOM     45  C   UNL     1      -0.076   5.542   9.251  1.00  0.00     0.010 A 
ATOM     46  C   UNL     1      -1.377   3.730  10.263  1.00  0.00     0.010 A 
ATOM     47  C   UNL     1      -1.191   5.074   9.954  1.00  0.00    -0.014 A 
BRANCH  47  48
ATOM     48  C   UNL     1      -2.243   6.008  10.285  1.00  0.00     0.031 A 
ATOM     49  C   UNL     1      -3.150   6.240   9.145  1.00  0.00     0.074 A 
ATOM     50  C   UNL     1      -2.404   6.484  11.535  1.00  0.00     0.049 A 
ATOM     51  N   UNL     1      -3.263   7.318   8.446  1.00  0.00    -0.248 NA
ATOM     52  C   UNL     1      -3.871   5.085   8.583  1.00  0.00     0.031 C 
ATOM     53  C   UNL     1      -1.703   6.047  12.747  1.00  0.00     0.029 A 
ATOM     54  N   UNL     1      -3.303   7.393  12.010  1.00  0.00    -0.354 N 
ATOM     55  C   UNL     1      -4.251   7.042   7.507  1.00  0.00     0.074 A 
ATOM     56  C   UNL     1      -4.397   5.615   7.479  1.00  0.00     0.031 C 
ATOM     57  C   UNL     1      -2.349   6.526  13.835  1.00  0.00     0.029 A 
ATOM     58  C   UNL     1      -3.422   7.402  13.396  1.00  0.00     0.049 A 
ATOM     59  H   UNL     1      -3.822   7.990  11.424  1.00  0.00     0.167 HD
ATOM     60  C   UNL     1      -5.101   8.029   7.117  1.00  0.00     0.037 A 
ATOM     61  C   UNL     1      -4.375   8.047  14.114  1.00  0.00     0.037 A 
ATOM     62  C   UNL     1      -4.564   9.317   7.479  1.00  0.00     0.049 A 
ATOM     63  C   UNL     1      -4.952   9.098  13.244  1.00  0.00     0.074 A 
ATOM     64  C   UNL     1      -3.554  10.140   7.032  1.00  0.00     0.029 A 
ATOM     65  N   UNL     1      -4.879   9.707   8.754  1.00  0.00    -0.354 N 
ATOM     66  N   UNL     1      -4.298  10.163  12.875  1.00  0.00    -0.248 NA
ATOM     67  C   UNL     1      -6.157   8.807  12.473  1.00  0.00     0.031 C 
ATOM     68  C   UNL     1      -3.174  10.945   8.147  1.00  0.00     0.029 A 
ATOM     69  C   UNL     1      -3.986  10.623   9.234  1.00  0.00     0.049 A 
ATOM     70  H   UNL     1      -5.652   9.370   9.261  1.00  0.00     0.167 HD
ATOM     71  C   UNL     1      -4.743  10.406  11.591  1.00  0.00     0.074 A 
ATOM     72  C   UNL     1      -5.996   9.674  11.470  1.00  0.00     0.031 C 
ATOM     73  C   UNL     1      -3.887  10.894  10.649  1.00  0.00     0.037 A 
BRANCH  60  74
ATOM     74  C   UNL     1      -6.597   7.845   6.925  1.00  0.00     0.064 A 
ATOM     75  C   UNL     1      -7.361   8.969   6.542  1.00  0.00     0.173 A 
ATOM     76  C   UNL     1      -7.348   6.746   7.399  1.00  0.00     0.173 A 
ATOM     77  F   UNL     1      -6.763  10.078   6.080  1.00  0.00    -0.203 F 
ATOM     78  C   UNL     1      -8.748   9.018   6.712  1.00  0.00     0.198 A 
ATOM     79  C   UNL     1      -8.736   6.782   7.522  1.00  0.00     0.198 A 
ATOM     80  F   UNL     1      -6.785   5.629   7.867  1.00  0.00    -0.203 F 
ATOM     81  F   UNL     1      -9.410  10.154   6.455  1.00  0.00    -0.200 F 
ATOM     82  C   UNL     1      -9.433   7.928   7.212  1.00  0.00     0.200 A 
ATOM     83  F   UNL     1      -9.378   5.719   8.028  1.00  0.00    -0.200 F 
ATOM     84  F   UNL     1     -10.752   7.993   7.437  1.00  0.00    -0.200 F 
ENDBRANCH  60  74
BRANCH  61  85
ATOM     85  C   UNL     1      -4.988   7.695  15.416  1.00  0.00     0.064 A 
ATOM     86  C   UNL     1      -5.703   8.648  16.162  1.00  0.00     0.173 A 
ATOM     87  C   UNL     1      -5.137   6.352  15.810  1.00  0.00     0.173 A 
ATOM     88  F   UNL     1      -5.644   9.947  15.833  1.00  0.00    -0.203 F 
ATOM     89  C   UNL     1      -6.552   8.275  17.210  1.00  0.00     0.198 A 
ATOM     90  C   UNL     1      -5.981   5.982  16.859  1.00  0.00     0.198 A 
ATOM     91  F   UNL     1      -4.548   5.366  15.119  1.00  0.00    -0.203 F 
ATOM     92  F   UNL     1      -7.274   9.207  17.850  1.00  0.00    -0.200 F 
ATOM     93  C   UNL     1      -6.701   6.941  17.547  1.00  0.00     0.200 A 
ATOM     94  F   UNL     1      -6.144   4.684  17.153  1.00  0.00    -0.200 F 
ATOM     95  F   UNL     1      -7.568   6.576  18.502  1.00  0.00    -0.200 F 
ENDBRANCH  61  85
BRANCH  73  96
ATOM     96  C   UNL     1      -2.682  11.631  11.142  1.00  0.00     0.064 A 
ATOM     97  C   UNL     1      -1.625  11.043  11.855  1.00  0.00     0.173 A 
ATOM     98  C   UNL     1      -2.568  12.986  10.804  1.00  0.00     0.173 A 
ATOM     99  F   UNL     1      -1.630   9.735  12.145  1.00  0.00    -0.203 F 
ATOM    100  C   UNL     1      -0.520  11.798  12.246  1.00  0.00     0.198 A 
ATOM    101  C   UNL     1      -1.448  13.725  11.161  1.00  0.00     0.198 A 
ATOM    102  F   UNL     1      -3.535  13.583  10.090  1.00  0.00    -0.203 F 
ATOM    103  F   UNL     1       0.470  11.227  12.947  1.00  0.00    -0.200 F 
ATOM    104  C   UNL     1      -0.430  13.135  11.892  1.00  0.00     0.200 A 
ATOM    105  F   UNL     1      -1.347  15.005  10.778  1.00  0.00    -0.200 F 
ATOM    106  F   UNL     1       0.649  13.852  12.237  1.00  0.00    -0.200 F 
ENDBRANCH  73  96
ENDBRANCH  47  48
ENDBRANCH  40  42
ENDBRANCH  39  40
ENDBRANCH  38  39
ENDBRANCH  37  38
ENDBRANCH  36  37
ENDBRANCH  35  36
ENDBRANCH   1  35
TORSDOF 21
