REMARK SMILES C[N@@H+](Cc1ncccc1C(=O)OCCOCCOCCOC(=O)c1ccc(-c2c3nc(c(-c4c(F)c(F)c(F)c(F)c4F)c4ccc([nH]4)c(-c4c(F)c(F)c(F)c(F)c4F)c4nc(c(-c5c(F)c(F)c(F)c(F)c5F)c5ccc2[nH]5)C=C4)C=C3)cc1)C[C@@H]1CCN(c2ccccc2)C1
REMARK SMILES IDX 15 1 14 2 13 3 12 4 10 5 11 6 9 7 4 8 5 9 6 10 8 11 7 12
REMARK SMILES IDX 3 13 2 14 1 15 87 17 88 18 89 19 98 20 90 21 91 22 92 23
REMARK SMILES IDX 93 24 97 25 94 26 96 27 95 28 16 29 17 30 18 31 19 32 20 33
REMARK SMILES IDX 21 34 22 35 23 36 24 37 25 38 86 39 26 40 85 41 27 42 28 43
REMARK SMILES IDX 29 44 79 45 30 46 84 47 78 48 80 49 31 50 83 51 77 52 76 53
REMARK SMILES IDX 32 55 64 56 44 57 63 58 45 59 48 60 62 61 81 62 46 63 47 64
REMARK SMILES IDX 61 66 82 67 49 68 33 69 34 70 42 71 35 72 36 73 40 74 43 75
REMARK SMILES IDX 37 76 38 77 41 78 39 79 65 80 66 81 74 82 67 83 68 84 72 85
REMARK SMILES IDX 75 86 69 87 70 88 73 89 71 90 50 91 51 92 59 93 52 94 53 95
REMARK SMILES IDX 57 96 60 97 54 98 55 99 58 100 56 101
REMARK H PARENT 2 16 80 54 48 65
REMARK Flexibility Score: inf
ROOT
ATOM      1  O   UNL     1      -3.426   3.462   0.265  1.00  0.00    -0.376 OA
ENDROOT
BRANCH   1   2
ATOM      2  C   UNL     1      -2.158   3.876  -0.233  1.00  0.00     0.202 C 
BRANCH   2   3
ATOM      3  C   UNL     1      -1.979   3.530  -1.711  1.00  0.00     0.261 C 
BRANCH   3   4
ATOM      4  O   UNL     1      -1.999   2.115  -1.952  1.00  0.00    -0.460 OA
BRANCH   4   5
ATOM      5  C   UNL     1      -0.918   1.401  -1.558  1.00  0.00     0.340 C 
ATOM      6  O   UNL     1       0.114   1.849  -1.099  1.00  0.00    -0.246 OA
BRANCH   5   7
ATOM      7  C   UNL     1      -1.320  -0.019  -1.631  1.00  0.00     0.087 A 
ATOM      8  C   UNL     1      -1.270  -0.868  -0.522  1.00  0.00     0.109 A 
ATOM      9  N   UNL     1      -1.913  -2.078  -0.535  1.00  0.00    -0.254 NA
ATOM     10  C   UNL     1      -2.525  -2.474  -1.676  1.00  0.00     0.111 A 
ATOM     11  C   UNL     1      -1.946  -0.471  -2.805  1.00  0.00     0.019 A 
ATOM     12  C   UNL     1      -2.546  -1.724  -2.833  1.00  0.00     0.021 A 
BRANCH   8  13
ATOM     13  C   UNL     1      -0.516  -0.556   0.762  1.00  0.00     0.320 C 
BRANCH  13  14
ATOM     14  N   UNL     1       0.882  -1.022   0.893  1.00  0.00    -0.332 N 
ATOM     15  C   UNL     1       1.844  -0.244   0.134  1.00  0.00     0.333 C 
ATOM     16  H   UNL     1       1.101  -0.817   1.868  1.00  0.00     0.348 HD
BRANCH  14  17
ATOM     17  C   UNL     1       1.079  -2.477   0.820  1.00  0.00     0.267 C 
BRANCH  17  18
ATOM     18  C   UNL     1       0.999  -3.134  -0.573  1.00  0.00     0.065 C 
ATOM     19  C   UNL     1       0.286  -4.493  -0.521  1.00  0.00     0.032 C 
ATOM     20  C   UNL     1       2.363  -3.443  -1.216  1.00  0.00     0.126 C 
ATOM     21  C   UNL     1       1.417  -5.492  -0.376  1.00  0.00     0.117 C 
ATOM     22  N   UNL     1       2.478  -4.907  -1.183  1.00  0.00    -0.371 N 
BRANCH  22  23
ATOM     23  C   UNL     1       2.982  -5.515  -2.322  1.00  0.00     0.037 A 
ATOM     24  C   UNL     1       4.300  -5.253  -2.720  1.00  0.00     0.026 A 
ATOM     25  C   UNL     1       2.219  -6.365  -3.134  1.00  0.00     0.026 A 
ATOM     26  C   UNL     1       4.845  -5.831  -3.870  1.00  0.00     0.002 A 
ATOM     27  C   UNL     1       2.753  -6.939  -4.293  1.00  0.00     0.002 A 
ATOM     28  C   UNL     1       4.069  -6.675  -4.659  1.00  0.00     0.000 A 
ENDBRANCH  22  23
ENDBRANCH  17  18
ENDBRANCH  14  17
ENDBRANCH  13  14
ENDBRANCH   8  13
ENDBRANCH   5   7
ENDBRANCH   4   5
ENDBRANCH   3   4
ENDBRANCH   2   3
ENDBRANCH   1   2
BRANCH   1  29
ATOM     29  C   UNL     1      -3.520   2.108   0.688  1.00  0.00     0.188 C 
BRANCH  29  30
ATOM     30  C   UNL     1      -4.447   1.231  -0.176  1.00  0.00     0.188 C 
BRANCH  30  31
ATOM     31  O   UNL     1      -5.574   1.791  -0.839  1.00  0.00    -0.376 OA
BRANCH  31  32
ATOM     32  C   UNL     1      -6.248   2.892  -0.254  1.00  0.00     0.202 C 
BRANCH  32  33
ATOM     33  C   UNL     1      -7.041   2.618   1.026  1.00  0.00     0.261 C 
BRANCH  33  34
ATOM     34  O   UNL     1      -6.274   1.973   2.057  1.00  0.00    -0.460 OA
BRANCH  34  35
ATOM     35  C   UNL     1      -6.627   0.690   2.313  1.00  0.00     0.338 C 
ATOM     36  O   UNL     1      -7.544   0.061   1.813  1.00  0.00    -0.246 OA
BRANCH  35  37
ATOM     37  C   UNL     1      -5.651   0.054   3.222  1.00  0.00     0.060 A 
ATOM     38  C   UNL     1      -5.107  -1.174   2.826  1.00  0.00     0.016 A 
ATOM     39  C   UNL     1      -5.360   0.581   4.483  1.00  0.00     0.016 A 
ATOM     40  C   UNL     1      -4.322  -1.910   3.712  1.00  0.00     0.010 A 
ATOM     41  C   UNL     1      -4.582  -0.167   5.378  1.00  0.00     0.010 A 
ATOM     42  C   UNL     1      -4.097  -1.436   5.011  1.00  0.00    -0.014 A 
BRANCH  42  43
ATOM     43  C   UNL     1      -3.509  -2.358   6.014  1.00  0.00     0.031 A 
ATOM     44  C   UNL     1      -4.428  -3.150   6.907  1.00  0.00     0.074 A 
ATOM     45  C   UNL     1      -2.180  -2.550   6.086  1.00  0.00     0.049 A 
ATOM     46  N   UNL     1      -4.140  -4.074   7.790  1.00  0.00    -0.248 NA
ATOM     47  C   UNL     1      -5.866  -2.865   6.782  1.00  0.00     0.031 C 
ATOM     48  C   UNL     1      -1.182  -1.869   5.266  1.00  0.00     0.029 A 
ATOM     49  N   UNL     1      -1.446  -3.387   6.890  1.00  0.00    -0.354 N 
ATOM     50  C   UNL     1      -5.358  -4.488   8.315  1.00  0.00     0.074 A 
ATOM     51  C   UNL     1      -6.385  -3.687   7.682  1.00  0.00     0.031 C 
ATOM     52  C   UNL     1       0.040  -2.313   5.611  1.00  0.00     0.029 A 
ATOM     53  C   UNL     1      -0.092  -3.301   6.681  1.00  0.00     0.049 A 
ATOM     54  H   UNL     1      -1.852  -3.991   7.553  1.00  0.00     0.167 HD
ATOM     55  C   UNL     1      -5.603  -5.458   9.227  1.00  0.00     0.037 A 
ATOM     56  C   UNL     1       0.922  -3.949   7.286  1.00  0.00     0.037 A 
ATOM     57  C   UNL     1      -4.589  -6.254   9.868  1.00  0.00     0.049 A 
ATOM     58  C   UNL     1       0.627  -4.988   8.337  1.00  0.00     0.074 A 
ATOM     59  C   UNL     1      -4.744  -7.271  10.794  1.00  0.00     0.029 A 
ATOM     60  N   UNL     1      -3.226  -6.115   9.653  1.00  0.00    -0.354 N 
ATOM     61  N   UNL     1      -0.530  -5.406   8.791  1.00  0.00    -0.248 NA
ATOM     62  C   UNL     1       1.785  -5.658   8.947  1.00  0.00     0.031 C 
ATOM     63  C   UNL     1      -3.473  -7.719  11.172  1.00  0.00     0.029 A 
ATOM     64  C   UNL     1      -2.528  -7.012  10.446  1.00  0.00     0.049 A 
ATOM     65  H   UNL     1      -2.815  -5.473   9.030  1.00  0.00     0.167 HD
ATOM     66  C   UNL     1      -0.241  -6.402   9.715  1.00  0.00     0.074 A 
ATOM     67  C   UNL     1       1.200  -6.538   9.747  1.00  0.00     0.031 C 
ATOM     68  C   UNL     1      -1.094  -7.141  10.469  1.00  0.00     0.037 A 
BRANCH  55  69
ATOM     69  C   UNL     1      -7.035  -5.706   9.600  1.00  0.00     0.064 A 
ATOM     70  C   UNL     1      -7.921  -6.345   8.720  1.00  0.00     0.173 A 
ATOM     71  C   UNL     1      -7.519  -5.326  10.860  1.00  0.00     0.173 A 
ATOM     72  F   UNL     1      -7.509  -6.715   7.498  1.00  0.00    -0.203 F 
ATOM     73  C   UNL     1      -9.246  -6.575   9.080  1.00  0.00     0.198 A 
ATOM     74  C   UNL     1      -8.838  -5.580  11.226  1.00  0.00     0.198 A 
ATOM     75  F   UNL     1      -6.711  -4.715  11.739  1.00  0.00    -0.203 F 
ATOM     76  F   UNL     1     -10.086  -7.151   8.208  1.00  0.00    -0.200 F 
ATOM     77  C   UNL     1      -9.702  -6.198  10.334  1.00  0.00     0.200 A 
ATOM     78  F   UNL     1      -9.275  -5.223  12.442  1.00  0.00    -0.200 F 
ATOM     79  F   UNL     1     -10.976  -6.424  10.681  1.00  0.00    -0.200 F 
ENDBRANCH  55  69
BRANCH  56  80
ATOM     80  C   UNL     1       2.325  -3.644   6.904  1.00  0.00     0.064 A 
ATOM     81  C   UNL     1       3.103  -4.574   6.202  1.00  0.00     0.173 A 
ATOM     82  C   UNL     1       2.923  -2.428   7.264  1.00  0.00     0.173 A 
ATOM     83  F   UNL     1       2.582  -5.763   5.864  1.00  0.00    -0.203 F 
ATOM     84  C   UNL     1       4.434  -4.307   5.891  1.00  0.00     0.198 A 
ATOM     85  C   UNL     1       4.247  -2.153   6.931  1.00  0.00     0.198 A 
ATOM     86  F   UNL     1       2.221  -1.510   7.945  1.00  0.00    -0.203 F 
ATOM     87  F   UNL     1       5.172  -5.234   5.265  1.00  0.00    -0.200 F 
ATOM     88  C   UNL     1       5.004  -3.095   6.252  1.00  0.00     0.200 A 
ATOM     89  F   UNL     1       4.793  -0.979   7.279  1.00  0.00    -0.200 F 
ATOM     90  F   UNL     1       6.286  -2.842   5.958  1.00  0.00    -0.200 F 
ENDBRANCH  56  80
BRANCH  68  91
ATOM     91  C   UNL     1      -0.491  -8.182  11.368  1.00  0.00     0.064 A 
ATOM     92  C   UNL     1       0.220  -7.833  12.526  1.00  0.00     0.173 A 
ATOM     93  C   UNL     1      -0.642  -9.546  11.077  1.00  0.00     0.173 A 
ATOM     94  F   UNL     1       0.404  -6.542  12.841  1.00  0.00    -0.203 F 
ATOM     95  C   UNL     1       0.787  -8.810  13.340  1.00  0.00     0.198 A 
ATOM     96  C   UNL     1      -0.099 -10.522  11.909  1.00  0.00     0.198 A 
ATOM     97  F   UNL     1      -1.321  -9.935   9.987  1.00  0.00    -0.203 F 
ATOM     98  F   UNL     1       1.508  -8.452  14.411  1.00  0.00    -0.200 F 
ATOM     99  C   UNL     1       0.624 -10.153  13.034  1.00  0.00     0.200 A 
ATOM    100  F   UNL     1      -0.267 -11.819  11.618  1.00  0.00    -0.200 F 
ATOM    101  F   UNL     1       1.171 -11.092  13.818  1.00  0.00    -0.200 F 
ENDBRANCH  68  91
ENDBRANCH  42  43
ENDBRANCH  35  37
ENDBRANCH  34  35
ENDBRANCH  33  34
ENDBRANCH  32  33
ENDBRANCH  31  32
ENDBRANCH  30  31
ENDBRANCH  29  30
ENDBRANCH   1  29
TORSDOF 22
