REMARK SMILES O=C(/C=C/c1ccc(O)c(O)c1)OCCOCCOCCOC(=O)c1ccc(-c2c3nc(c(-c4c(F)c(F)c(F)c(F)c4F)c4ccc([nH]4)c(-c4c(F)c(F)c(F)c(F)c4F)c4nc(c(-c5c(F)c(F)c(F)c(F)c5F)c5ccc2[nH]5)C=C4)C=C3)cc1
REMARK SMILES IDX 17 1 16 2 15 3 14 4 13 5 2 6 1 7 3 8 4 9 5 10 6 11 12 12
REMARK SMILES IDX 7 13 10 14 8 15 11 16 9 18 18 20 19 21 20 22 21 23 22 24
REMARK SMILES IDX 23 25 24 26 25 27 26 28 87 29 27 30 86 31 28 32 29 33 30 34
REMARK SMILES IDX 80 35 31 36 85 37 79 38 81 39 32 40 84 41 78 42 77 43 33 45
REMARK SMILES IDX 65 46 45 47 64 48 46 49 49 50 63 51 82 52 47 53 48 54 62 56
REMARK SMILES IDX 83 57 50 58 34 59 35 60 43 61 36 62 37 63 41 64 44 65 38 66
REMARK SMILES IDX 39 67 42 68 40 69 66 70 67 71 75 72 68 73 69 74 73 75 76 76
REMARK SMILES IDX 70 77 71 78 74 79 72 80 51 81 52 82 60 83 53 84 54 85 58 86
REMARK SMILES IDX 61 87 55 88 56 89 59 90 57 91
REMARK H PARENT 11 17 9 19 81 44 49 55
REMARK Flexibility Score: inf
ROOT
ATOM      1  C   UNL     1       2.789  -0.930  -1.172  1.00  0.00     0.188 C 
ENDROOT
BRANCH   1   2
ATOM      2  O   UNL     1       4.167  -0.608  -1.182  1.00  0.00    -0.376 OA
BRANCH   2   3
ATOM      3  C   UNL     1       4.921  -0.760   0.016  1.00  0.00     0.202 C 
BRANCH   3   4
ATOM      4  C   UNL     1       4.254  -0.645   1.388  1.00  0.00     0.261 C 
BRANCH   4   5
ATOM      5  O   UNL     1       3.389   0.455   1.773  1.00  0.00    -0.460 OA
BRANCH   5   6
ATOM      6  C   UNL     1       2.887   1.519   1.129  1.00  0.00     0.330 C 
ATOM      7  O   UNL     1       1.819   2.019   1.473  1.00  0.00    -0.247 OA
BRANCH   6   8
ATOM      8  C   UNL     1       3.602   2.114   0.006  1.00  0.00     0.094 C 
ATOM      9  C   UNL     1       4.894   2.452   0.060  1.00  0.00     0.016 C 
BRANCH   9  10
ATOM     10  C   UNL     1       5.537   3.108  -1.078  1.00  0.00    -0.021 A 
ATOM     11  C   UNL     1       5.194   4.423  -1.431  1.00  0.00     0.012 A 
ATOM     12  C   UNL     1       6.506   2.421  -1.817  1.00  0.00     0.058 A 
ATOM     13  C   UNL     1       5.833   5.061  -2.499  1.00  0.00     0.051 A 
ATOM     14  C   UNL     1       7.133   3.062  -2.874  1.00  0.00     0.157 A 
ATOM     15  C   UNL     1       6.809   4.374  -3.210  1.00  0.00     0.157 A 
BRANCH  14  16
ATOM     16  O   UNL     1       8.090   2.393  -3.583  1.00  0.00    -0.504 OA
ATOM     17  H   UNL     1       8.522   2.814  -4.300  1.00  0.00     0.293 HD
ENDBRANCH  14  16
BRANCH  15  18
ATOM     18  O   UNL     1       7.488   4.951  -4.246  1.00  0.00    -0.504 OA
ATOM     19  H   UNL     1       7.296   5.832  -4.499  1.00  0.00     0.293 HD
ENDBRANCH  15  18
ENDBRANCH   9  10
ENDBRANCH   6   8
ENDBRANCH   5   6
ENDBRANCH   4   5
ENDBRANCH   3   4
ENDBRANCH   2   3
ENDBRANCH   1   2
BRANCH   1  20
ATOM     20  C   UNL     1       2.358  -2.350  -1.554  1.00  0.00     0.188 C 
BRANCH  20  21
ATOM     21  O   UNL     1       3.263  -3.411  -1.313  1.00  0.00    -0.376 OA
BRANCH  21  22
ATOM     22  C   UNL     1       4.410  -3.503  -2.160  1.00  0.00     0.202 C 
BRANCH  22  23
ATOM     23  C   UNL     1       4.204  -3.437  -3.678  1.00  0.00     0.261 C 
BRANCH  23  24
ATOM     24  O   UNL     1       3.873  -2.105  -4.122  1.00  0.00    -0.460 OA
BRANCH  24  25
ATOM     25  C   UNL     1       2.836  -2.030  -4.991  1.00  0.00     0.338 C 
ATOM     26  O   UNL     1       2.159  -2.944  -5.424  1.00  0.00    -0.246 OA
BRANCH  25  27
ATOM     27  C   UNL     1       2.537  -0.622  -5.298  1.00  0.00     0.060 A 
ATOM     28  C   UNL     1       1.337  -0.071  -4.832  1.00  0.00     0.016 A 
ATOM     29  C   UNL     1       3.363   0.098  -6.162  1.00  0.00     0.016 A 
ATOM     30  C   UNL     1       0.951   1.206  -5.247  1.00  0.00     0.010 A 
ATOM     31  C   UNL     1       2.968   1.370  -6.585  1.00  0.00     0.010 A 
ATOM     32  C   UNL     1       1.751   1.923  -6.149  1.00  0.00    -0.014 A 
BRANCH  32  33
ATOM     33  C   UNL     1       1.290   3.219  -6.704  1.00  0.00     0.031 A 
ATOM     34  C   UNL     1       0.620   3.257  -8.049  1.00  0.00     0.074 A 
ATOM     35  C   UNL     1       1.497   4.359  -6.022  1.00  0.00     0.049 A 
ATOM     36  N   UNL     1       0.242   4.291  -8.757  1.00  0.00    -0.248 NA
ATOM     37  C   UNL     1       0.339   1.959  -8.682  1.00  0.00     0.031 C 
ATOM     38  C   UNL     1       2.104   4.450  -4.696  1.00  0.00     0.029 A 
ATOM     39  N   UNL     1       1.236   5.663  -6.365  1.00  0.00    -0.354 N 
ATOM     40  C   UNL     1      -0.313   3.772  -9.919  1.00  0.00     0.074 A 
ATOM     41  C   UNL     1      -0.213   2.330  -9.829  1.00  0.00     0.031 C 
ATOM     42  C   UNL     1       2.193   5.744  -4.347  1.00  0.00     0.029 A 
ATOM     43  C   UNL     1       1.690   6.572  -5.443  1.00  0.00     0.049 A 
ATOM     44  H   UNL     1       0.769   5.921  -7.193  1.00  0.00     0.167 HD
ATOM     45  C   UNL     1      -0.856   4.439 -10.965  1.00  0.00     0.037 A 
ATOM     46  C   UNL     1       1.734   7.918  -5.496  1.00  0.00     0.037 A 
ATOM     47  C   UNL     1      -0.965   5.871 -11.053  1.00  0.00     0.049 A 
ATOM     48  C   UNL     1       1.199   8.633  -6.711  1.00  0.00     0.074 A 
ATOM     49  C   UNL     1      -1.557   6.632 -12.047  1.00  0.00     0.029 A 
ATOM     50  N   UNL     1      -0.459   6.759 -10.117  1.00  0.00    -0.354 N 
ATOM     51  N   UNL     1       0.637   8.135  -7.785  1.00  0.00    -0.248 NA
ATOM     52  C   UNL     1       1.315  10.100  -6.724  1.00  0.00     0.031 C 
ATOM     53  C   UNL     1      -1.363   7.982 -11.738  1.00  0.00     0.029 A 
ATOM     54  C   UNL     1      -0.687   8.061 -10.532  1.00  0.00     0.049 A 
ATOM     55  H   UNL     1      -0.004   6.503  -9.283  1.00  0.00     0.167 HD
ATOM     56  C   UNL     1       0.320   9.221  -8.590  1.00  0.00     0.074 A 
ATOM     57  C   UNL     1       0.735  10.409  -7.875  1.00  0.00     0.031 C 
ATOM     58  C   UNL     1      -0.262   9.234  -9.814  1.00  0.00     0.037 A 
BRANCH  45  59
ATOM     59  C   UNL     1      -1.365   3.635 -12.122  1.00  0.00     0.064 A 
ATOM     60  C   UNL     1      -2.586   2.950 -12.058  1.00  0.00     0.173 A 
ATOM     61  C   UNL     1      -0.662   3.621 -13.336  1.00  0.00     0.173 A 
ATOM     62  F   UNL     1      -3.291   2.929 -10.917  1.00  0.00    -0.203 F 
ATOM     63  C   UNL     1      -3.083   2.272 -13.169  1.00  0.00     0.198 A 
ATOM     64  C   UNL     1      -1.171   2.959 -14.449  1.00  0.00     0.198 A 
ATOM     65  F   UNL     1       0.508   4.268 -13.446  1.00  0.00    -0.203 F 
ATOM     66  F   UNL     1      -4.244   1.609 -13.084  1.00  0.00    -0.200 F 
ATOM     67  C   UNL     1      -2.380   2.284 -14.365  1.00  0.00     0.200 A 
ATOM     68  F   UNL     1      -0.496   2.981 -15.607  1.00  0.00    -0.200 F 
ATOM     69  F   UNL     1      -2.868   1.646 -15.438  1.00  0.00    -0.200 F 
ENDBRANCH  45  59
BRANCH  46  70
ATOM     70  C   UNL     1       2.357   8.685  -4.386  1.00  0.00     0.064 A 
ATOM     71  C   UNL     1       1.591   9.526  -3.567  1.00  0.00     0.173 A 
ATOM     72  C   UNL     1       3.738   8.622  -4.149  1.00  0.00     0.173 A 
ATOM     73  F   UNL     1       0.271   9.639  -3.772  1.00  0.00    -0.203 F 
ATOM     74  C   UNL     1       2.188  10.293  -2.568  1.00  0.00     0.198 A 
ATOM     75  C   UNL     1       4.328   9.367  -3.131  1.00  0.00     0.198 A 
ATOM     76  F   UNL     1       4.518   7.828  -4.898  1.00  0.00    -0.203 F 
ATOM     77  F   UNL     1       1.442  11.128  -1.833  1.00  0.00    -0.200 F 
ATOM     78  C   UNL     1       3.555  10.210  -2.349  1.00  0.00     0.200 A 
ATOM     79  F   UNL     1       5.646   9.265  -2.914  1.00  0.00    -0.200 F 
ATOM     80  F   UNL     1       4.129  10.949  -1.390  1.00  0.00    -0.200 F 
ENDBRANCH  46  70
BRANCH  58  81
ATOM     81  C   UNL     1      -0.491  10.570 -10.457  1.00  0.00     0.064 A 
ATOM     82  C   UNL     1       0.569  11.303 -11.009  1.00  0.00     0.173 A 
ATOM     83  C   UNL     1      -1.785  11.100 -10.565  1.00  0.00     0.173 A 
ATOM     84  F   UNL     1       1.827  10.846 -10.915  1.00  0.00    -0.203 F 
ATOM     85  C   UNL     1       0.343  12.527 -11.633  1.00  0.00     0.198 A 
ATOM     86  C   UNL     1      -2.011  12.312 -11.211  1.00  0.00     0.198 A 
ATOM     87  F   UNL     1      -2.833  10.434 -10.057  1.00  0.00    -0.203 F 
ATOM     88  F   UNL     1       1.375  13.229 -12.121  1.00  0.00    -0.200 F 
ATOM     89  C   UNL     1      -0.947  13.027 -11.740  1.00  0.00     0.200 A 
ATOM     90  F   UNL     1      -3.258  12.789 -11.323  1.00  0.00    -0.200 F 
ATOM     91  F   UNL     1      -1.163  14.202 -12.348  1.00  0.00    -0.200 F 
ENDBRANCH  58  81
ENDBRANCH  32  33
ENDBRANCH  25  27
ENDBRANCH  24  25
ENDBRANCH  23  24
ENDBRANCH  22  23
ENDBRANCH  21  22
ENDBRANCH  20  21
ENDBRANCH   1  20
TORSDOF 20
