REMARK SMILES O=C(CNC(=O)[C@H]1CC[C@@H](Cn2cnc3ccccc3c2=O)CC1)OCCOCCOCCOC(=O)c1ccc(-c2c3nc(c(-c4c(F)c(F)c(F)c(F)c4F)c4ccc([nH]4)c(-c4c(F)c(F)c(F)c(F)c4F)c4nc(c(-c5c(F)c(F)c(F)c(F)c5F)c5ccc2[nH]5)C=C4)C=C3)cc1
REMARK SMILES IDX 29 1 28 2 27 3 26 4 25 5 2 6 1 7 3 8 4 9 5 10 6 12 7 13
REMARK SMILES IDX 24 14 8 15 23 16 9 17 10 18 11 19 12 20 13 21 21 22 14 23
REMARK SMILES IDX 20 24 22 25 15 26 19 27 16 28 18 29 17 30 30 31 31 32 32 33
REMARK SMILES IDX 33 34 34 35 35 36 36 37 37 38 38 39 99 40 39 41 98 42 40 43
REMARK SMILES IDX 41 44 42 45 92 46 43 47 97 48 91 49 93 50 44 51 96 52 90 53
REMARK SMILES IDX 89 54 45 56 77 57 57 58 76 59 58 60 61 61 75 62 94 63 59 64
REMARK SMILES IDX 60 65 74 67 95 68 62 69 46 70 47 71 55 72 48 73 49 74 53 75
REMARK SMILES IDX 56 76 50 77 51 78 54 79 52 80 78 81 79 82 87 83 80 84 81 85
REMARK SMILES IDX 85 86 88 87 82 88 83 89 86 90 84 91 63 92 64 93 72 94 65 95
REMARK SMILES IDX 66 96 70 97 73 98 67 99 68 100 71 101 69 102
REMARK H PARENT 4 11 93 55 61 66
REMARK Flexibility Score: inf
ROOT
ATOM      1  C   UNL     1       2.119   1.282   0.593  1.00  0.00     0.188 C 
ENDROOT
BRANCH   1   2
ATOM      2  O   UNL     1       3.530   1.137   0.441  1.00  0.00    -0.376 OA
BRANCH   2   3
ATOM      3  C   UNL     1       4.015   1.636  -0.802  1.00  0.00     0.202 C 
BRANCH   3   4
ATOM      4  C   UNL     1       4.141   0.523  -1.849  1.00  0.00     0.261 C 
BRANCH   4   5
ATOM      5  O   UNL     1       2.930  -0.233  -2.032  1.00  0.00    -0.462 OA
BRANCH   5   6
ATOM      6  C   UNL     1       2.490  -1.165  -1.149  1.00  0.00     0.325 C 
ATOM      7  O   UNL     1       1.279  -1.374  -1.059  1.00  0.00    -0.250 OA
BRANCH   6   8
ATOM      8  C   UNL     1       3.488  -1.857  -0.204  1.00  0.00     0.238 C 
BRANCH   8   9
ATOM      9  N   UNL     1       4.669  -2.448  -0.813  1.00  0.00    -0.345 N 
ATOM     10  C   UNL     1       5.955  -2.590  -0.401  1.00  0.00     0.223 C 
ATOM     11  H   UNL     1       4.502  -2.823  -1.708  1.00  0.00     0.164 HD
ATOM     12  O   UNL     1       6.670  -3.273  -1.145  1.00  0.00    -0.275 OA
BRANCH  10  13
ATOM     13  C   UNL     1       6.595  -1.931   0.840  1.00  0.00     0.078 C 
ATOM     14  C   UNL     1       6.697  -0.414   0.698  1.00  0.00     0.014 C 
ATOM     15  C   UNL     1       6.044  -2.402   2.185  1.00  0.00     0.014 C 
ATOM     16  C   UNL     1       7.255   0.310   1.929  1.00  0.00     0.006 C 
ATOM     17  C   UNL     1       6.578  -1.613   3.387  1.00  0.00     0.006 C 
ATOM     18  C   UNL     1       6.548  -0.089   3.241  1.00  0.00     0.009 C 
BRANCH  18  19
ATOM     19  C   UNL     1       5.171   0.576   3.239  1.00  0.00     0.130 C 
BRANCH  19  20
ATOM     20  N   UNL     1       4.233   0.253   4.292  1.00  0.00    -0.298 N 
ATOM     21  C   UNL     1       4.230   1.102   5.883  1.00  0.00     0.203 A 
ATOM     22  C   UNL     1       3.083  -0.954   3.747  1.00  0.00     0.261 A 
ATOM     23  N   UNL     1       3.205   0.885   6.986  1.00  0.00    -0.238 NA
ATOM     24  C   UNL     1       1.798  -1.397   5.017  1.00  0.00     0.066 A 
ATOM     25  O   UNL     1       3.049  -1.460   2.639  1.00  0.00    -0.269 OA
ATOM     26  C   UNL     1       1.850  -0.356   6.786  1.00  0.00     0.077 A 
ATOM     27  C   UNL     1       0.569  -2.682   4.766  1.00  0.00     0.016 A 
ATOM     28  C   UNL     1       0.615  -0.750   8.025  1.00  0.00     0.029 A 
ATOM     29  C   UNL     1      -0.561  -3.029   6.120  1.00  0.00     0.001 A 
ATOM     30  C   UNL     1      -0.541  -2.097   7.684  1.00  0.00     0.002 A 
ENDBRANCH  19  20
ENDBRANCH  18  19
ENDBRANCH  10  13
ENDBRANCH   8   9
ENDBRANCH   6   8
ENDBRANCH   5   6
ENDBRANCH   4   5
ENDBRANCH   3   4
ENDBRANCH   2   3
ENDBRANCH   1   2
BRANCH   1  31
ATOM     31  C   UNL     1       1.757   2.395   1.558  1.00  0.00     0.188 C 
BRANCH  31  32
ATOM     32  O   UNL     1       2.439   3.631   1.377  1.00  0.00    -0.376 OA
BRANCH  32  33
ATOM     33  C   UNL     1       3.721   3.745   1.999  1.00  0.00     0.202 C 
BRANCH  33  34
ATOM     34  C   UNL     1       3.704   3.847   3.531  1.00  0.00     0.261 C 
BRANCH  34  35
ATOM     35  O   UNL     1       3.492   2.544   4.104  1.00  0.00    -0.460 OA
BRANCH  35  36
ATOM     36  C   UNL     1       2.339   2.168   4.698  1.00  0.00     0.338 C 
ATOM     37  O   UNL     1       1.393   2.932   4.830  1.00  0.00    -0.246 OA
BRANCH  36  38
ATOM     38  C   UNL     1       2.256   0.568   5.090  1.00  0.00     0.060 A 
ATOM     39  C   UNL     1       3.494  -0.828   5.834  1.00  0.00     0.016 A 
ATOM     40  C   UNL     1       0.592   0.387   5.165  1.00  0.00     0.016 A 
ATOM     41  C   UNL     1       3.122  -2.152   6.600  1.00  0.00     0.010 A 
ATOM     42  C   UNL     1       0.173  -1.004   5.982  1.00  0.00     0.010 A 
ATOM     43  C   UNL     1       1.485  -2.328   6.734  1.00  0.00    -0.014 A 
BRANCH  43  44
ATOM     44  C   UNL     1       1.558  -3.714   7.472  1.00  0.00     0.031 A 
ATOM     45  C   UNL     1       1.737  -4.998   6.690  1.00  0.00     0.074 A 
ATOM     46  C   UNL     1       1.801  -3.730   8.797  1.00  0.00     0.049 A 
ATOM     47  N   UNL     1       1.431  -6.221   7.027  1.00  0.00    -0.248 NA
ATOM     48  C   UNL     1       2.319  -4.903   5.338  1.00  0.00     0.031 C 
ATOM     49  C   UNL     1       2.121  -2.563   9.620  1.00  0.00     0.029 A 
ATOM     50  N   UNL     1       1.708  -4.742   9.703  1.00  0.00    -0.354 N 
ATOM     51  C   UNL     1       1.659  -6.994   5.891  1.00  0.00     0.074 A 
ATOM     52  C   UNL     1       2.070  -6.104   4.838  1.00  0.00     0.031 C 
ATOM     53  C   UNL     1       1.901  -2.851  10.904  1.00  0.00     0.029 A 
ATOM     54  C   UNL     1       1.548  -4.255  10.979  1.00  0.00     0.049 A 
ATOM     55  H   UNL     1       1.750  -5.699   9.474  1.00  0.00     0.167 HD
ATOM     56  C   UNL     1       1.581  -8.341   5.785  1.00  0.00     0.037 A 
ATOM     57  C   UNL     1       1.121  -4.881  12.082  1.00  0.00     0.037 A 
ATOM     58  C   UNL     1       1.406  -9.162   6.955  1.00  0.00     0.049 A 
ATOM     59  C   UNL     1       0.985  -6.359  11.969  1.00  0.00     0.074 A 
ATOM     60  C   UNL     1       1.411 -10.537   7.062  1.00  0.00     0.029 A 
ATOM     61  N   UNL     1       1.268  -8.653   8.245  1.00  0.00    -0.354 N 
ATOM     62  N   UNL     1       1.054  -7.097  10.884  1.00  0.00    -0.248 NA
ATOM     63  C   UNL     1       0.817  -7.102  13.213  1.00  0.00     0.031 C 
ATOM     64  C   UNL     1       1.233 -10.859   8.411  1.00  0.00     0.029 A 
ATOM     65  C   UNL     1       1.172  -9.687   9.155  1.00  0.00     0.049 A 
ATOM     66  H   UNL     1       1.242  -7.696   8.475  1.00  0.00     0.167 HD
ATOM     67  C   UNL     1       0.994  -8.405  11.313  1.00  0.00     0.074 A 
ATOM     68  C   UNL     1       0.883  -8.349  12.764  1.00  0.00     0.031 C 
ATOM     69  C   UNL     1       1.042  -9.549  10.587  1.00  0.00     0.037 A 
BRANCH  56  70
ATOM     70  C   UNL     1       1.699  -8.996   4.429  1.00  0.00     0.064 A 
ATOM     71  C   UNL     1       2.851  -8.918   3.629  1.00  0.00     0.173 A 
ATOM     72  C   UNL     1       0.632  -9.769   3.933  1.00  0.00     0.173 A 
ATOM     73  F   UNL     1       3.914  -8.209   4.038  1.00  0.00    -0.203 F 
ATOM     74  C   UNL     1       2.915  -9.543   2.382  1.00  0.00     0.198 A 
ATOM     75  C   UNL     1       0.717 -10.433   2.709  1.00  0.00     0.198 A 
ATOM     76  F   UNL     1      -0.498  -9.897   4.644  1.00  0.00    -0.203 F 
ATOM     77  F   UNL     1       4.005  -9.395   1.616  1.00  0.00    -0.200 F 
ATOM     78  C   UNL     1       1.854 -10.310   1.928  1.00  0.00     0.200 A 
ATOM     79  F   UNL     1      -0.302 -11.196   2.289  1.00  0.00    -0.200 F 
ATOM     80  F   UNL     1       1.927 -10.929   0.742  1.00  0.00    -0.200 F 
ENDBRANCH  56  70
BRANCH  57  81
ATOM     81  C   UNL     1       0.972  -4.089  13.321  1.00  0.00     0.064 A 
ATOM     82  C   UNL     1       2.004  -4.070  14.264  1.00  0.00     0.173 A 
ATOM     83  C   UNL     1      -0.075  -3.163  13.472  1.00  0.00     0.173 A 
ATOM     84  F   UNL     1       3.041  -4.910  14.133  1.00  0.00    -0.203 F 
ATOM     85  C   UNL     1       2.002  -3.153  15.312  1.00  0.00     0.198 A 
ATOM     86  C   UNL     1      -0.069  -2.236  14.514  1.00  0.00     0.198 A 
ATOM     87  F   UNL     1      -1.058  -3.104  12.561  1.00  0.00    -0.203 F 
ATOM     88  F   UNL     1       3.020  -3.137  16.182  1.00  0.00    -0.200 F 
ATOM     89  C   UNL     1       0.973  -2.231  15.430  1.00  0.00     0.200 A 
ATOM     90  F   UNL     1      -1.042  -1.319  14.602  1.00  0.00    -0.200 F 
ATOM     91  F   UNL     1       0.998  -1.320  16.413  1.00  0.00    -0.200 F 
ENDBRANCH  57  81
BRANCH  69  92
ATOM     92  C   UNL     1       0.941 -10.816  11.366  1.00  0.00     0.064 A 
ATOM     93  C   UNL     1      -0.273 -11.197  11.950  1.00  0.00     0.173 A 
ATOM     94  C   UNL     1       2.038 -11.684  11.460  1.00  0.00     0.173 A 
ATOM     95  F   UNL     1      -1.336 -10.380  11.894  1.00  0.00    -0.203 F 
ATOM     96  C   UNL     1      -0.382 -12.405  12.622  1.00  0.00     0.198 A 
ATOM     97  C   UNL     1       1.911 -12.911  12.094  1.00  0.00     0.198 A 
ATOM     98  F   UNL     1       3.214 -11.354  10.905  1.00  0.00    -0.203 F 
ATOM     99  F   UNL     1      -1.536 -12.731  13.218  1.00  0.00    -0.200 F 
ATOM    100  C   UNL     1       0.704 -13.267  12.680  1.00  0.00     0.200 A 
ATOM    101  F   UNL     1       2.951 -13.755  12.129  1.00  0.00    -0.200 F 
ATOM    102  F   UNL     1       0.587 -14.446  13.305  1.00  0.00    -0.200 F 
ENDBRANCH  69  92
ENDBRANCH  43  44
ENDBRANCH  36  38
ENDBRANCH  35  36
ENDBRANCH  34  35
ENDBRANCH  33  34
ENDBRANCH  32  33
ENDBRANCH  31  32
ENDBRANCH   1  31
TORSDOF 21
