REMARK SMILES CCN1C(=O)[C@H](CC(=O)Nc2ccc(C(=O)OCCOCCOCCOC(=O)c3ccc(-c4c5nc(c(-c6c(F)c(F)c(F)c(F)c6F)c6ccc([nH]6)c(-c6c(F)c(F)c(F)c(F)c6F)c6nc(c(-c7c(F)c(F)c(F)c(F)c7F)c7ccc4[nH]7)C=C6)C=C5)cc3)cc2)S/C1=[NH+]\c1ccc(Cl)cc1
REMARK SMILES IDX 21 1 20 2 19 3 18 4 17 5 15 6 16 7 14 8 11 9 12 10 93 11
REMARK SMILES IDX 13 12 92 13 10 14 8 15 9 16 7 18 6 19 3 20 4 21 95 22 5 23
REMARK SMILES IDX 94 24 96 25 2 27 1 28 97 29 98 30 103 31 99 32 102 33 100 34
REMARK SMILES IDX 101 35 22 36 23 37 24 38 25 39 26 40 27 41 28 42 29 43 30 44
REMARK SMILES IDX 91 45 31 46 90 47 32 48 33 49 34 50 84 51 35 52 89 53 83 54
REMARK SMILES IDX 85 55 36 56 88 57 82 58 81 59 37 61 69 62 49 63 68 64 50 65
REMARK SMILES IDX 53 66 67 67 86 68 51 69 52 70 66 72 87 73 54 74 38 75 39 76
REMARK SMILES IDX 47 77 40 78 41 79 45 80 48 81 42 82 43 83 46 84 44 85 70 86
REMARK SMILES IDX 71 87 79 88 72 89 73 90 77 91 80 92 74 93 75 94 78 95 76 96
REMARK SMILES IDX 55 97 56 98 64 99 57 100 58 101 62 102 65 103 59 104 60 105
REMARK SMILES IDX 63 106 61 107
REMARK H PARENT 10 17 96 26 85 60 53 71
REMARK Flexibility Score: inf
ROOT
ATOM      1  C   UNL     1       1.230  -2.858   2.461  1.00  0.00     0.188 C 
ENDROOT
BRANCH   1   2
ATOM      2  O   UNL     1       1.321  -2.662   3.870  1.00  0.00    -0.376 OA
BRANCH   2   3
ATOM      3  C   UNL     1       0.517  -1.682   4.497  1.00  0.00     0.202 C 
BRANCH   3   4
ATOM      4  C   UNL     1       1.033  -0.243   4.421  1.00  0.00     0.261 C 
BRANCH   4   5
ATOM      5  O   UNL     1       1.624   0.137   3.174  1.00  0.00    -0.460 OA
BRANCH   5   6
ATOM      6  C   UNL     1       2.971  -0.024   3.074  1.00  0.00     0.338 C 
ATOM      7  O   UNL     1       3.731  -0.544   3.855  1.00  0.00    -0.246 OA
BRANCH   6   8
ATOM      8  C   UNL     1       3.367   0.549   1.773  1.00  0.00     0.060 A 
ATOM      9  C   UNL     1       3.844   1.618  -0.784  1.00  0.00     0.041 A 
ATOM     10  C   UNL     1       4.208   0.294  -0.471  1.00  0.00     0.027 A 
ATOM     11  C   UNL     1       3.343   2.417   0.240  1.00  0.00     0.027 A 
ATOM     12  C   UNL     1       3.984  -0.240   0.805  1.00  0.00     0.018 A 
ATOM     13  C   UNL     1       3.078   1.884   1.504  1.00  0.00     0.018 A 
BRANCH   9  14
ATOM     14  N   UNL     1       3.957   1.999  -2.133  1.00  0.00    -0.326 N 
ATOM     15  C   UNL     1       3.631   3.100  -2.867  1.00  0.00     0.226 C 
ATOM     16  O   UNL     1       3.810   3.036  -4.089  1.00  0.00    -0.275 OA
ATOM     17  H   UNL     1       4.375   1.297  -2.683  1.00  0.00     0.169 HD
BRANCH  15  18
ATOM     18  C   UNL     1       3.094   4.380  -2.275  1.00  0.00     0.128 C 
BRANCH  18  19
ATOM     19  C   UNL     1       1.572   4.466  -2.176  1.00  0.00     0.183 C 
ATOM     20  N   UNL     1       0.279   2.985  -0.789  1.00  0.00    -0.190 N 
ATOM     21  C   UNL     1       0.834   3.153  -2.042  1.00  0.00     0.324 C 
ATOM     22  C   UNL     1       0.196   4.110  -0.004  1.00  0.00     0.319 C 
ATOM     23  O   UNL     1       0.708   2.376  -2.982  1.00  0.00    -0.245 OA
ATOM     24  S   UNL     1       1.039   5.451  -0.739  1.00  0.00    -0.022 SA
ATOM     25  N   UNL     1      -0.458   4.112   1.110  1.00  0.00    -0.235 N 
ATOM     26  H   UNL     1      -0.781   3.255   1.470  1.00  0.00     0.313 HD
BRANCH  20  27
ATOM     27  C   UNL     1      -0.485   1.781  -0.463  1.00  0.00     0.243 C 
ATOM     28  C   UNL     1       0.215   0.465  -0.768  1.00  0.00     0.054 C 
ENDBRANCH  20  27
BRANCH  25  29
ATOM     29  C   UNL     1      -0.728   5.285   1.826  1.00  0.00     0.125 A 
ATOM     30  C   UNL     1      -0.238   5.454   3.124  1.00  0.00     0.053 A 
ATOM     31  C   UNL     1      -1.640   6.222   1.321  1.00  0.00     0.053 A 
ATOM     32  C   UNL     1      -0.640   6.550   3.898  1.00  0.00     0.025 A 
ATOM     33  C   UNL     1      -2.038   7.321   2.085  1.00  0.00     0.025 A 
ATOM     34  C   UNL     1      -1.540   7.478   3.374  1.00  0.00     0.041 A 
ATOM     35  Cl  UNL     1      -2.064   8.805   4.334  1.00  0.00    -0.084 Cl
ENDBRANCH  25  29
ENDBRANCH  18  19
ENDBRANCH  15  18
ENDBRANCH   9  14
ENDBRANCH   6   8
ENDBRANCH   5   6
ENDBRANCH   4   5
ENDBRANCH   3   4
ENDBRANCH   2   3
ENDBRANCH   1   2
BRANCH   1  36
ATOM     36  C   UNL     1       0.177  -2.128   1.611  1.00  0.00     0.188 C 
BRANCH  36  37
ATOM     37  O   UNL     1      -1.135  -2.156   2.159  1.00  0.00    -0.376 OA
BRANCH  37  38
ATOM     38  C   UNL     1      -2.130  -2.791   1.365  1.00  0.00     0.202 C 
BRANCH  38  39
ATOM     39  C   UNL     1      -2.184  -4.297   1.636  1.00  0.00     0.261 C 
BRANCH  39  40
ATOM     40  O   UNL     1      -0.970  -4.985   1.290  1.00  0.00    -0.460 OA
BRANCH  40  41
ATOM     41  C   UNL     1      -0.653  -5.018  -0.024  1.00  0.00     0.338 C 
ATOM     42  O   UNL     1      -1.315  -4.589  -0.952  1.00  0.00    -0.246 OA
BRANCH  41  43
ATOM     43  C   UNL     1       0.746  -5.479  -0.140  1.00  0.00     0.060 A 
ATOM     44  C   UNL     1       1.647  -4.699  -0.875  1.00  0.00     0.016 A 
ATOM     45  C   UNL     1       1.173  -6.652   0.487  1.00  0.00     0.016 A 
ATOM     46  C   UNL     1       2.979  -5.102  -1.000  1.00  0.00     0.010 A 
ATOM     47  C   UNL     1       2.502  -7.062   0.348  1.00  0.00     0.010 A 
ATOM     48  C   UNL     1       3.406  -6.302  -0.415  1.00  0.00    -0.014 A 
BRANCH  48  49
ATOM     49  C   UNL     1       4.744  -6.859  -0.737  1.00  0.00     0.031 A 
ATOM     50  C   UNL     1       4.843  -7.894  -1.824  1.00  0.00     0.074 A 
ATOM     51  C   UNL     1       5.848  -6.477  -0.072  1.00  0.00     0.049 A 
ATOM     52  N   UNL     1       5.879  -8.589  -2.220  1.00  0.00    -0.248 NA
ATOM     53  C   UNL     1       3.603  -8.188  -2.561  1.00  0.00     0.031 C 
ATOM     54  C   UNL     1       5.898  -5.469   0.985  1.00  0.00     0.029 A 
ATOM     55  N   UNL     1       7.147  -6.917  -0.179  1.00  0.00    -0.354 N 
ATOM     56  C   UNL     1       5.413  -9.410  -3.239  1.00  0.00     0.074 A 
ATOM     57  C   UNL     1       4.000  -9.140  -3.392  1.00  0.00     0.031 C 
ATOM     58  C   UNL     1       7.158  -5.386   1.448  1.00  0.00     0.029 A 
ATOM     59  C   UNL     1       7.996  -6.358   0.745  1.00  0.00     0.049 A 
ATOM     60  H   UNL     1       7.440  -7.572  -0.854  1.00  0.00     0.167 HD
ATOM     61  C   UNL     1       6.102 -10.307  -3.982  1.00  0.00     0.037 A 
ATOM     62  C   UNL     1       9.290  -6.627   1.013  1.00  0.00     0.037 A 
ATOM     63  C   UNL     1       7.509 -10.573  -3.843  1.00  0.00     0.049 A 
ATOM     64  C   UNL     1      10.020  -7.676   0.205  1.00  0.00     0.074 A 
ATOM     65  C   UNL     1       8.298 -11.435  -4.584  1.00  0.00     0.029 A 
ATOM     66  N   UNL     1       8.333  -9.990  -2.894  1.00  0.00    -0.354 N 
ATOM     67  N   UNL     1       9.585  -8.411  -0.789  1.00  0.00    -0.248 NA
ATOM     68  C   UNL     1      11.425  -7.931   0.561  1.00  0.00     0.031 C 
ATOM     69  C   UNL     1       9.589 -11.416  -4.048  1.00  0.00     0.029 A 
ATOM     70  C   UNL     1       9.617 -10.498  -3.011  1.00  0.00     0.049 A 
ATOM     71  H   UNL     1       8.049  -9.316  -2.235  1.00  0.00     0.167 HD
ATOM     72  C   UNL     1      10.666  -9.185  -1.196  1.00  0.00     0.074 A 
ATOM     73  C   UNL     1      11.783  -8.822  -0.352  1.00  0.00     0.031 C 
ATOM     74  C   UNL     1      10.727 -10.116  -2.179  1.00  0.00     0.037 A 
BRANCH  61  75
ATOM     75  C   UNL     1       5.343 -11.094  -5.006  1.00  0.00     0.064 A 
ATOM     76  C   UNL     1       4.903 -10.513  -6.204  1.00  0.00     0.173 A 
ATOM     77  C   UNL     1       5.118 -12.465  -4.816  1.00  0.00     0.173 A 
ATOM     78  F   UNL     1       5.082  -9.202  -6.425  1.00  0.00    -0.203 F 
ATOM     79  C   UNL     1       4.255 -11.277  -7.171  1.00  0.00     0.198 A 
ATOM     80  C   UNL     1       4.494 -13.231  -5.796  1.00  0.00     0.198 A 
ATOM     81  F   UNL     1       5.522 -13.066  -3.687  1.00  0.00    -0.203 F 
ATOM     82  F   UNL     1       3.816 -10.697  -8.297  1.00  0.00    -0.200 F 
ATOM     83  C   UNL     1       4.061 -12.636  -6.971  1.00  0.00     0.200 A 
ATOM     84  F   UNL     1       4.318 -14.546  -5.606  1.00  0.00    -0.200 F 
ATOM     85  F   UNL     1       3.454 -13.373  -7.912  1.00  0.00    -0.200 F 
ENDBRANCH  61  75
BRANCH  62  86
ATOM     86  C   UNL     1       9.991  -5.926   2.123  1.00  0.00     0.064 A 
ATOM     87  C   UNL     1      11.062  -5.056   1.872  1.00  0.00     0.173 A 
ATOM     88  C   UNL     1       9.652  -6.170   3.462  1.00  0.00     0.173 A 
ATOM     89  F   UNL     1      11.448  -4.817   0.610  1.00  0.00    -0.203 F 
ATOM     90  C   UNL     1      11.788  -4.486   2.916  1.00  0.00     0.198 A 
ATOM     91  C   UNL     1      10.357  -5.573   4.505  1.00  0.00     0.198 A 
ATOM     92  F   UNL     1       8.643  -7.002   3.759  1.00  0.00    -0.203 F 
ATOM     93  F   UNL     1      12.852  -3.717   2.648  1.00  0.00    -0.200 F 
ATOM     94  C   UNL     1      11.433  -4.742   4.232  1.00  0.00     0.200 A 
ATOM     95  F   UNL     1      10.008  -5.820   5.775  1.00  0.00    -0.200 F 
ATOM     96  F   UNL     1      12.139  -4.204   5.236  1.00  0.00    -0.200 F 
ENDBRANCH  62  86
BRANCH  74  97
ATOM     97  C   UNL     1      12.052 -10.777  -2.437  1.00  0.00     0.064 A 
ATOM     98  C   UNL     1      12.600 -11.710  -1.544  1.00  0.00     0.173 A 
ATOM     99  C   UNL     1      12.757 -10.512  -3.622  1.00  0.00     0.173 A 
ATOM    100  F   UNL     1      11.972 -11.990  -0.392  1.00  0.00    -0.203 F 
ATOM    101  C   UNL     1      13.815 -12.334  -1.816  1.00  0.00     0.198 A 
ATOM    102  C   UNL     1      13.956 -11.162  -3.905  1.00  0.00     0.198 A 
ATOM    103  F   UNL     1      12.274  -9.636  -4.516  1.00  0.00    -0.203 F 
ATOM    104  F   UNL     1      14.341 -13.188  -0.927  1.00  0.00    -0.200 F 
ATOM    105  C   UNL     1      14.487 -12.066  -2.999  1.00  0.00     0.200 A 
ATOM    106  F   UNL     1      14.595 -10.914  -5.057  1.00  0.00    -0.200 F 
ATOM    107  F   UNL     1      15.651 -12.677  -3.264  1.00  0.00    -0.200 F 
ENDBRANCH  74  97
ENDBRANCH  48  49
ENDBRANCH  41  43
ENDBRANCH  40  41
ENDBRANCH  39  40
ENDBRANCH  38  39
ENDBRANCH  37  38
ENDBRANCH  36  37
ENDBRANCH   1  36
TORSDOF 22
