REMARK SMILES O=C(OCCOCCOCCOC(=O)c1cc(Br)ccc1NC(=O)c1ccc(Br)s1)c1ccc(-c2c3nc(c(-c4c(F)c(F)c(F)c(F)c4F)c4ccc([nH]4)c(-c4c(F)c(F)c(F)c(F)c4F)c4nc(c(-c5c(F)c(F)c(F)c(F)c5F)c5ccc2[nH]5)C=C4)C=C3)cc1
REMARK SMILES IDX 7 1 6 2 5 3 4 4 3 5 2 6 1 7 31 8 32 9 93 10 33 11 92 12
REMARK SMILES IDX 34 13 35 14 36 15 86 16 37 17 91 18 85 19 87 20 38 21 90 22
REMARK SMILES IDX 84 23 83 24 39 26 71 27 51 28 70 29 52 30 55 31 69 32 88 33
REMARK SMILES IDX 53 34 54 35 68 37 89 38 56 39 40 40 41 41 49 42 42 43 43 44
REMARK SMILES IDX 47 45 50 46 44 47 45 48 48 49 46 50 72 51 73 52 81 53 74 54
REMARK SMILES IDX 75 55 79 56 82 57 76 58 77 59 80 60 78 61 57 62 58 63 66 64
REMARK SMILES IDX 59 65 60 66 64 67 67 68 61 69 62 70 65 71 63 72 8 73 9 74
REMARK SMILES IDX 10 75 11 76 12 77 13 78 14 79 15 80 16 81 21 82 17 83 20 84
REMARK SMILES IDX 18 85 19 86 22 87 23 88 24 90 25 91 26 92 30 93 27 94 28 95
REMARK SMILES IDX 29 96
REMARK H PARENT 87 25 55 36 22 89
REMARK Flexibility Score: inf
ROOT
ATOM      1  C   UNL     1       2.522   2.205  -0.350  1.00  0.00     0.188 C 
ENDROOT
BRANCH   1   2
ATOM      2  O   UNL     1       3.769   1.594   0.011  1.00  0.00    -0.376 OA
BRANCH   2   3
ATOM      3  C   UNL     1       4.631   1.377  -1.110  1.00  0.00     0.202 C 
BRANCH   3   4
ATOM      4  C   UNL     1       4.429   0.018  -1.791  1.00  0.00     0.261 C 
BRANCH   4   5
ATOM      5  O   UNL     1       3.064  -0.424  -1.718  1.00  0.00    -0.460 OA
BRANCH   5   6
ATOM      6  C   UNL     1       2.502  -1.294  -0.841  1.00  0.00     0.338 C 
ATOM      7  O   UNL     1       1.346  -1.658  -1.043  1.00  0.00    -0.246 OA
BRANCH   6   8
ATOM      8  C   UNL     1       3.233  -1.902   0.320  1.00  0.00     0.060 A 
ATOM      9  C   UNL     1       4.379  -1.379   0.915  1.00  0.00     0.016 A 
ATOM     10  C   UNL     1       2.709  -3.092   0.860  1.00  0.00     0.016 A 
ATOM     11  C   UNL     1       5.081  -2.091   1.883  1.00  0.00     0.010 A 
ATOM     12  C   UNL     1       3.368  -3.780   1.889  1.00  0.00     0.010 A 
ATOM     13  C   UNL     1       4.596  -3.309   2.363  1.00  0.00    -0.014 A 
BRANCH  13  14
ATOM     14  C   UNL     1       5.463  -4.093   3.274  1.00  0.00     0.031 A 
ATOM     15  C   UNL     1       6.171  -5.310   2.748  1.00  0.00     0.074 A 
ATOM     16  C   UNL     1       5.747  -3.614   4.500  1.00  0.00     0.049 A 
ATOM     17  N   UNL     1       7.061  -6.068   3.337  1.00  0.00    -0.248 NA
ATOM     18  C   UNL     1       5.857  -5.714   1.369  1.00  0.00     0.031 C 
ATOM     19  C   UNL     1       5.179  -2.396   5.079  1.00  0.00     0.029 A 
ATOM     20  N   UNL     1       6.621  -4.061   5.457  1.00  0.00    -0.354 N 
ATOM     21  C   UNL     1       7.415  -7.030   2.400  1.00  0.00     0.074 A 
ATOM     22  C   UNL     1       6.626  -6.781   1.214  1.00  0.00     0.031 C 
ATOM     23  C   UNL     1       5.746  -2.174   6.275  1.00  0.00     0.029 A 
ATOM     24  C   UNL     1       6.685  -3.249   6.562  1.00  0.00     0.049 A 
ATOM     25  H   UNL     1       7.152  -4.884   5.360  1.00  0.00     0.167 HD
ATOM     26  C   UNL     1       8.326  -8.024   2.515  1.00  0.00     0.037 A 
ATOM     27  C   UNL     1       7.419  -3.364   7.684  1.00  0.00     0.037 A 
ATOM     28  C   UNL     1       9.097  -8.279   3.701  1.00  0.00     0.049 A 
ATOM     29  C   UNL     1       8.374  -4.515   7.809  1.00  0.00     0.074 A 
ATOM     30  C   UNL     1       9.978  -9.313   3.959  1.00  0.00     0.029 A 
ATOM     31  N   UNL     1       9.076  -7.477   4.834  1.00  0.00    -0.354 N 
ATOM     32  N   UNL     1       8.652  -5.455   6.939  1.00  0.00    -0.248 NA
ATOM     33  C   UNL     1       9.116  -4.622   9.072  1.00  0.00     0.031 C 
ATOM     34  C   UNL     1      10.472  -9.151   5.260  1.00  0.00     0.029 A 
ATOM     35  C   UNL     1       9.925  -7.997   5.796  1.00  0.00     0.049 A 
ATOM     36  H   UNL     1       8.538  -6.660   4.937  1.00  0.00     0.167 HD
ATOM     37  C   UNL     1       9.590  -6.271   7.551  1.00  0.00     0.074 A 
ATOM     38  C   UNL     1       9.865  -5.692   8.850  1.00  0.00     0.031 C 
ATOM     39  C   UNL     1      10.163  -7.408   7.087  1.00  0.00     0.037 A 
BRANCH  26  40
ATOM     40  C   UNL     1       8.503  -8.926   1.330  1.00  0.00     0.064 A 
ATOM     41  C   UNL     1       9.197  -8.504   0.186  1.00  0.00     0.173 A 
ATOM     42  C   UNL     1       7.966 -10.220   1.335  1.00  0.00     0.173 A 
ATOM     43  F   UNL     1       9.708  -7.265   0.126  1.00  0.00    -0.203 F 
ATOM     44  C   UNL     1       9.327  -9.340  -0.920  1.00  0.00     0.198 A 
ATOM     45  C   UNL     1       8.115 -11.061   0.235  1.00  0.00     0.198 A 
ATOM     46  F   UNL     1       7.290 -10.668   2.403  1.00  0.00    -0.203 F 
ATOM     47  F   UNL     1       9.955  -8.901  -2.020  1.00  0.00    -0.200 F 
ATOM     48  C   UNL     1       8.790 -10.618  -0.893  1.00  0.00     0.200 A 
ATOM     49  F   UNL     1       7.597 -12.297   0.262  1.00  0.00    -0.200 F 
ATOM     50  F   UNL     1       8.911 -11.420  -1.960  1.00  0.00    -0.200 F 
ENDBRANCH  26  40
BRANCH  27  51
ATOM     51  C   UNL     1       7.255  -2.395   8.796  1.00  0.00     0.064 A 
ATOM     52  C   UNL     1       8.252  -1.461   9.107  1.00  0.00     0.173 A 
ATOM     53  C   UNL     1       6.112  -2.428   9.607  1.00  0.00     0.173 A 
ATOM     54  F   UNL     1       9.376  -1.415   8.377  1.00  0.00    -0.203 F 
ATOM     55  C   UNL     1       8.118  -0.606  10.199  1.00  0.00     0.198 A 
ATOM     56  C   UNL     1       5.977  -1.568  10.694  1.00  0.00     0.198 A 
ATOM     57  F   UNL     1       5.126  -3.298   9.342  1.00  0.00    -0.203 F 
ATOM     58  F   UNL     1       9.103   0.251  10.501  1.00  0.00    -0.200 F 
ATOM     59  C   UNL     1       6.980  -0.659  10.991  1.00  0.00     0.200 A 
ATOM     60  F   UNL     1       4.872  -1.619  11.452  1.00  0.00    -0.200 F 
ATOM     61  F   UNL     1       6.855   0.160  12.044  1.00  0.00    -0.200 F 
ENDBRANCH  27  51
BRANCH  39  62
ATOM     62  C   UNL     1      11.124  -8.096   8.006  1.00  0.00     0.064 A 
ATOM     63  C   UNL     1      10.670  -8.815   9.121  1.00  0.00     0.173 A 
ATOM     64  C   UNL     1      12.503  -8.045   7.764  1.00  0.00     0.173 A 
ATOM     65  F   UNL     1       9.359  -8.872   9.401  1.00  0.00    -0.203 F 
ATOM     66  C   UNL     1      11.569  -9.441   9.978  1.00  0.00     0.198 A 
ATOM     67  C   UNL     1      13.398  -8.692   8.611  1.00  0.00     0.198 A 
ATOM     68  F   UNL     1      12.981  -7.367   6.710  1.00  0.00    -0.203 F 
ATOM     69  F   UNL     1      11.120 -10.084  11.065  1.00  0.00    -0.200 F 
ATOM     70  C   UNL     1      12.931  -9.383   9.720  1.00  0.00     0.200 A 
ATOM     71  F   UNL     1      14.713  -8.639   8.360  1.00  0.00    -0.200 F 
ATOM     72  F   UNL     1      13.796  -9.984  10.548  1.00  0.00    -0.200 F 
ENDBRANCH  39  62
ENDBRANCH  13  14
ENDBRANCH   6   8
ENDBRANCH   5   6
ENDBRANCH   4   5
ENDBRANCH   3   4
ENDBRANCH   2   3
ENDBRANCH   1   2
BRANCH   1  73
ATOM     73  C   UNL     1       2.045   3.150   0.754  1.00  0.00     0.188 C 
BRANCH  73  74
ATOM     74  O   UNL     1       2.846   4.319   0.920  1.00  0.00    -0.376 OA
BRANCH  74  75
ATOM     75  C   UNL     1       4.133   4.141   1.508  1.00  0.00     0.202 C 
BRANCH  75  76
ATOM     76  C   UNL     1       4.146   3.920   3.023  1.00  0.00     0.261 C 
BRANCH  76  77
ATOM     77  O   UNL     1       3.715   2.612   3.452  1.00  0.00    -0.460 OA
BRANCH  77  78
ATOM     78  C   UNL     1       2.552   2.588   4.148  1.00  0.00     0.340 C 
ATOM     79  O   UNL     1       1.721   3.471   4.248  1.00  0.00    -0.246 OA
BRANCH  78  80
ATOM     80  C   UNL     1       2.477   1.347   4.931  1.00  0.00     0.084 A 
ATOM     81  C   UNL     1       3.114   1.401   6.179  1.00  0.00     0.033 A 
ATOM     82  C   UNL     1       1.673   0.250   4.570  1.00  0.00     0.056 A 
ATOM     83  C   UNL     1       2.971   0.345   7.067  1.00  0.00     0.018 A 
ATOM     84  C   UNL     1       1.639  -0.845   5.444  1.00  0.00     0.028 A 
ATOM     85  Br  UNL     1       3.716   0.483   8.792  1.00  0.00    -0.051 Br
ATOM     86  C   UNL     1       2.262  -0.791   6.696  1.00  0.00     0.018 A 
BRANCH  82  87
ATOM     87  N   UNL     1       0.954   0.263   3.358  1.00  0.00    -0.320 N 
ATOM     88  C   UNL     1      -0.139  -0.458   2.914  1.00  0.00     0.265 C 
ATOM     89  H   UNL     1       1.295   0.912   2.701  1.00  0.00     0.170 HD
ATOM     90  O   UNL     1      -0.403  -0.373   1.714  1.00  0.00    -0.268 OA
BRANCH  88  91
ATOM     91  C   UNL     1      -0.971  -1.188   3.851  1.00  0.00     0.093 A 
ATOM     92  C   UNL     1      -1.520  -0.770   5.053  1.00  0.00     0.027 A 
ATOM     93  S   UNL     1      -1.435  -2.797   3.479  1.00  0.00    -0.123 S 
ATOM     94  C   UNL     1      -2.252  -1.809   5.704  1.00  0.00     0.028 A 
ATOM     95  C   UNL     1      -2.263  -2.953   4.948  1.00  0.00     0.071 A 
ATOM     96  Br  UNL     1      -3.113  -4.535   5.482  1.00  0.00    -0.039 Br
ENDBRANCH  88  91
ENDBRANCH  82  87
ENDBRANCH  78  80
ENDBRANCH  77  78
ENDBRANCH  76  77
ENDBRANCH  75  76
ENDBRANCH  74  75
ENDBRANCH  73  74
ENDBRANCH   1  73
TORSDOF 19
