REMARK SMILES COCC[C@]1(C(=O)OCCOCCOCCOC(=O)c2ccc(-c3c4nc(c(-c5c(F)c(F)c(F)c(F)c5F)c5ccc([nH]5)c(-c5c(F)c(F)c(F)c(F)c5F)c5nc(c(-c6c(F)c(F)c(F)c(F)c6F)c6ccc3[nH]6)C=C5)C=C4)cc2)CCCN(C(=O)c2ccc(=O)[nH]c2)C1
REMARK SMILES IDX 12 1 11 2 10 3 9 4 8 5 6 6 7 7 5 8 83 9 96 10 84 11 86 12
REMARK SMILES IDX 85 13 4 14 3 15 2 16 1 17 87 18 88 19 89 20 90 21 95 22
REMARK SMILES IDX 91 23 94 24 92 25 93 27 13 28 14 29 15 30 16 31 17 32 18 33
REMARK SMILES IDX 19 34 20 35 21 36 82 37 22 38 81 39 23 40 24 41 25 42 75 43
REMARK SMILES IDX 26 44 80 45 74 46 76 47 27 48 79 49 73 50 72 51 28 53 60 54
REMARK SMILES IDX 40 55 59 56 41 57 44 58 58 59 77 60 42 61 43 62 57 64 78 65
REMARK SMILES IDX 45 66 29 67 30 68 38 69 31 70 32 71 36 72 39 73 33 74 34 75
REMARK SMILES IDX 37 76 35 77 61 78 62 79 70 80 63 81 64 82 68 83 71 84 65 85
REMARK SMILES IDX 66 86 69 87 67 88 46 89 47 90 55 91 48 92 49 93 53 94 56 95
REMARK SMILES IDX 50 96 51 97 54 98 52 99
REMARK H PARENT 94 26 76 52 44 63
REMARK Flexibility Score: inf
ROOT
ATOM      1  C   UNL     1      -2.132  -2.408   0.792  1.00  0.00     0.188 C 
ENDROOT
BRANCH   1   2
ATOM      2  O   UNL     1      -2.195  -3.452  -0.148  1.00  0.00    -0.376 OA
BRANCH   2   3
ATOM      3  C   UNL     1      -1.079  -3.612  -1.012  1.00  0.00     0.202 C 
BRANCH   3   4
ATOM      4  C   UNL     1       0.383  -3.289  -0.606  1.00  0.00     0.261 C 
BRANCH   4   5
ATOM      5  O   UNL     1       0.587  -2.585   0.632  1.00  0.00    -0.463 OA
BRANCH   5   6
ATOM      6  C   UNL     1       1.472  -1.550   0.653  1.00  0.00     0.314 C 
ATOM      7  O   UNL     1       2.081  -1.164  -0.336  1.00  0.00    -0.252 OA
BRANCH   6   8
ATOM      8  C   UNL     1       1.642  -0.938   2.066  1.00  0.00     0.088 C 
ATOM      9  C   UNL     1       1.664  -2.074   3.146  1.00  0.00     0.022 C 
ATOM     10  C   UNL     1       3.057  -0.314   2.135  1.00  0.00     0.138 C 
ATOM     11  C   UNL     1       2.004  -1.577   4.550  1.00  0.00     0.023 C 
ATOM     12  N   UNL     1       3.362   0.177   3.489  1.00  0.00    -0.337 N 
ATOM     13  C   UNL     1       3.331  -0.838   4.545  1.00  0.00     0.120 C 
BRANCH   8  14
ATOM     14  C   UNL     1       0.536   0.137   2.352  1.00  0.00     0.049 C 
BRANCH  14  15
ATOM     15  C   UNL     1       0.594   1.439   1.546  1.00  0.00     0.161 C 
BRANCH  15  16
ATOM     16  O   UNL     1       0.243   1.179   0.194  1.00  0.00    -0.385 OA
ATOM     17  C   UNL     1       1.168   1.765  -0.717  1.00  0.00     0.194 C 
ENDBRANCH  15  16
ENDBRANCH  14  15
ENDBRANCH   8  14
BRANCH  12  18
ATOM     18  C   UNL     1       3.627   1.526   3.672  1.00  0.00     0.255 C 
ATOM     19  O   UNL     1       3.614   2.352   2.762  1.00  0.00    -0.269 OA
BRANCH  18  20
ATOM     20  C   UNL     1       3.892   1.995   5.056  1.00  0.00     0.056 A 
ATOM     21  C   UNL     1       5.096   1.637   5.775  1.00  0.00     0.021 A 
ATOM     22  C   UNL     1       2.997   2.823   5.617  1.00  0.00     0.099 A 
ATOM     23  C   UNL     1       5.310   2.099   7.016  1.00  0.00     0.072 A 
ATOM     24  N   UNL     1       3.208   3.306   6.887  1.00  0.00    -0.328 N 
ATOM     25  C   UNL     1       4.313   3.004   7.649  1.00  0.00     0.247 A 
ATOM     26  H   UNL     1       2.527   3.904   7.274  1.00  0.00     0.169 HD
ATOM     27  O   UNL     1       4.483   3.443   8.780  1.00  0.00    -0.270 OA
ENDBRANCH  18  20
ENDBRANCH  12  18
ENDBRANCH   6   8
ENDBRANCH   5   6
ENDBRANCH   4   5
ENDBRANCH   3   4
ENDBRANCH   2   3
ENDBRANCH   1   2
BRANCH   1  28
ATOM     28  C   UNL     1      -1.663  -2.894   2.163  1.00  0.00     0.188 C 
BRANCH  28  29
ATOM     29  O   UNL     1      -1.149  -4.199   2.360  1.00  0.00    -0.376 OA
BRANCH  29  30
ATOM     30  C   UNL     1      -1.955  -5.306   1.980  1.00  0.00     0.202 C 
BRANCH  30  31
ATOM     31  C   UNL     1      -3.454  -5.381   2.352  1.00  0.00     0.261 C 
BRANCH  31  32
ATOM     32  O   UNL     1      -4.151  -4.138   2.539  1.00  0.00    -0.460 OA
BRANCH  32  33
ATOM     33  C   UNL     1      -4.278  -3.725   3.827  1.00  0.00     0.338 C 
ATOM     34  O   UNL     1      -3.933  -4.326   4.834  1.00  0.00    -0.246 OA
BRANCH  33  35
ATOM     35  C   UNL     1      -4.676  -2.296   3.840  1.00  0.00     0.060 A 
ATOM     36  C   UNL     1      -3.790  -1.359   4.401  1.00  0.00     0.016 A 
ATOM     37  C   UNL     1      -5.890  -1.877   3.299  1.00  0.00     0.016 A 
ATOM     38  C   UNL     1      -4.113  -0.004   4.424  1.00  0.00     0.010 A 
ATOM     39  C   UNL     1      -6.235  -0.522   3.368  1.00  0.00     0.010 A 
ATOM     40  C   UNL     1      -5.360   0.415   3.951  1.00  0.00    -0.014 A 
BRANCH  40  41
ATOM     41  C   UNL     1      -5.832   1.787   4.255  1.00  0.00     0.031 A 
ATOM     42  C   UNL     1      -6.725   1.984   5.448  1.00  0.00     0.074 A 
ATOM     43  C   UNL     1      -5.470   2.841   3.505  1.00  0.00     0.049 A 
ATOM     44  N   UNL     1      -7.324   3.066   5.874  1.00  0.00    -0.248 NA
ATOM     45  C   UNL     1      -6.979   0.790   6.269  1.00  0.00     0.031 C 
ATOM     46  C   UNL     1      -4.569   2.793   2.358  1.00  0.00     0.029 A 
ATOM     47  N   UNL     1      -5.837   4.161   3.595  1.00  0.00    -0.354 N 
ATOM     48  C   UNL     1      -8.039   2.680   7.000  1.00  0.00     0.074 A 
ATOM     49  C   UNL     1      -7.820   1.261   7.176  1.00  0.00     0.031 C 
ATOM     50  C   UNL     1      -4.473   4.026   1.830  1.00  0.00     0.029 A 
ATOM     51  C   UNL     1      -5.335   4.939   2.582  1.00  0.00     0.049 A 
ATOM     52  H   UNL     1      -6.406   4.516   4.316  1.00  0.00     0.167 HD
ATOM     53  C   UNL     1      -8.808   3.441   7.815  1.00  0.00     0.037 A 
ATOM     54  C   UNL     1      -5.572   6.231   2.279  1.00  0.00     0.037 A 
ATOM     55  C   UNL     1      -9.030   4.852   7.632  1.00  0.00     0.049 A 
ATOM     56  C   UNL     1      -6.493   7.044   3.154  1.00  0.00     0.074 A 
ATOM     57  C   UNL     1      -9.767   5.718   8.420  1.00  0.00     0.029 A 
ATOM     58  N   UNL     1      -8.530   5.600   6.576  1.00  0.00    -0.354 N 
ATOM     59  N   UNL     1      -7.144   6.684   4.233  1.00  0.00    -0.248 NA
ATOM     60  C   UNL     1      -6.707   8.446   2.767  1.00  0.00     0.031 C 
ATOM     61  C   UNL     1      -9.773   6.973   7.801  1.00  0.00     0.029 A 
ATOM     62  C   UNL     1      -8.976   6.910   6.669  1.00  0.00     0.049 A 
ATOM     63  H   UNL     1      -7.945   5.252   5.864  1.00  0.00     0.167 HD
ATOM     64  C   UNL     1      -7.824   7.816   4.668  1.00  0.00     0.074 A 
ATOM     65  C   UNL     1      -7.492   8.880   3.744  1.00  0.00     0.031 C 
ATOM     66  C   UNL     1      -8.647   7.961   5.738  1.00  0.00     0.037 A 
BRANCH  53  67
ATOM     67  C   UNL     1      -9.507   2.745   8.949  1.00  0.00     0.064 A 
ATOM     68  C   UNL     1      -8.807   2.204  10.038  1.00  0.00     0.173 A 
ATOM     69  C   UNL     1     -10.905   2.618   8.942  1.00  0.00     0.173 A 
ATOM     70  F   UNL     1      -7.468   2.284  10.087  1.00  0.00    -0.203 F 
ATOM     71  C   UNL     1      -9.475   1.526  11.055  1.00  0.00     0.198 A 
ATOM     72  C   UNL     1     -11.573   1.973   9.979  1.00  0.00     0.198 A 
ATOM     73  F   UNL     1     -11.626   3.119   7.928  1.00  0.00    -0.203 F 
ATOM     74  F   UNL     1      -8.778   0.959  12.050  1.00  0.00    -0.200 F 
ATOM     75  C   UNL     1     -10.857   1.416  11.028  1.00  0.00     0.200 A 
ATOM     76  F   UNL     1     -12.910   1.881   9.958  1.00  0.00    -0.200 F 
ATOM     77  F   UNL     1     -11.498   0.764  12.008  1.00  0.00    -0.200 F 
ENDBRANCH  53  67
BRANCH  54  78
ATOM     78  C   UNL     1      -4.937   6.830   1.075  1.00  0.00     0.064 A 
ATOM     79  C   UNL     1      -3.947   7.815   1.191  1.00  0.00     0.173 A 
ATOM     80  C   UNL     1      -5.308   6.427  -0.216  1.00  0.00     0.173 A 
ATOM     81  F   UNL     1      -3.581   8.256   2.403  1.00  0.00    -0.203 F 
ATOM     82  C   UNL     1      -3.358   8.379   0.061  1.00  0.00     0.198 A 
ATOM     83  C   UNL     1      -4.697   6.969  -1.345  1.00  0.00     0.198 A 
ATOM     84  F   UNL     1      -6.256   5.493  -0.382  1.00  0.00    -0.203 F 
ATOM     85  F   UNL     1      -2.443   9.348   0.199  1.00  0.00    -0.200 F 
ATOM     86  C   UNL     1      -3.726   7.948  -1.205  1.00  0.00     0.200 A 
ATOM     87  F   UNL     1      -5.048   6.542  -2.565  1.00  0.00    -0.200 F 
ATOM     88  F   UNL     1      -3.150   8.483  -2.291  1.00  0.00    -0.200 F 
ENDBRANCH  54  78
BRANCH  66  89
ATOM     89  C   UNL     1      -9.224   9.328   5.989  1.00  0.00     0.064 A 
ATOM     90  C   UNL     1     -10.189   9.893   5.142  1.00  0.00     0.173 A 
ATOM     91  C   UNL     1      -8.832  10.068   7.117  1.00  0.00     0.173 A 
ATOM     92  F   UNL     1     -10.592   9.235   4.044  1.00  0.00    -0.203 F 
ATOM     93  C   UNL     1     -10.713  11.159   5.394  1.00  0.00     0.198 A 
ATOM     94  C   UNL     1      -9.386  11.317   7.386  1.00  0.00     0.198 A 
ATOM     95  F   UNL     1      -7.920   9.574   7.968  1.00  0.00    -0.203 F 
ATOM     96  F   UNL     1     -11.591  11.701   4.538  1.00  0.00    -0.200 F 
ATOM     97  C   UNL     1     -10.318  11.866   6.519  1.00  0.00     0.200 A 
ATOM     98  F   UNL     1      -9.015  11.991   8.484  1.00  0.00    -0.200 F 
ATOM     99  F   UNL     1     -10.828  13.081   6.764  1.00  0.00    -0.200 F 
ENDBRANCH  66  89
ENDBRANCH  40  41
ENDBRANCH  33  35
ENDBRANCH  32  33
ENDBRANCH  31  32
ENDBRANCH  30  31
ENDBRANCH  29  30
ENDBRANCH  28  29
ENDBRANCH   1  28
TORSDOF 22
