REMARK SMILES C[C@H](C(=O)OCCOCCOCCOC(=O)c1ccc(-c2c3nc(c(-c4c(F)c(F)c(F)c(F)c4F)c4ccc([nH]4)c(-c4c(F)c(F)c(F)c(F)c4F)c4nc(c(-c5c(F)c(F)c(F)c(F)c5F)c5ccc2[nH]5)C=C4)C=C3)cc1)c1ccc2c3cc(Cl)ccc3n(C(=O)c3cocn3)c2c1
REMARK SMILES IDX 9 1 8 2 7 3 6 4 5 5 3 6 4 7 2 8 1 9 80 10 81 11 100 12 82 13
REMARK SMILES IDX 99 14 83 15 91 16 84 17 90 18 85 19 89 20 86 21 88 22 87 23
REMARK SMILES IDX 92 24 93 25 94 26 95 27 98 28 96 29 97 30 10 31 11 32 12 33
REMARK SMILES IDX 13 34 14 35 15 36 16 37 17 38 18 39 79 40 19 41 78 42 20 43
REMARK SMILES IDX 21 44 22 45 72 46 23 47 77 48 71 49 73 50 24 51 76 52 70 53
REMARK SMILES IDX 69 54 25 56 57 57 37 58 56 59 38 60 41 61 55 62 74 63 39 64
REMARK SMILES IDX 40 65 54 67 75 68 42 69 26 70 27 71 35 72 28 73 29 74 33 75
REMARK SMILES IDX 36 76 30 77 31 78 34 79 32 80 58 81 59 82 67 83 60 84 61 85
REMARK SMILES IDX 65 86 68 87 62 88 63 89 66 90 64 91 43 92 44 93 52 94 45 95
REMARK SMILES IDX 46 96 50 97 53 98 47 99 48 100 51 101 49 102
REMARK H PARENT 73 55 41 66
REMARK Flexibility Score: inf
ROOT
ATOM      1  C   UNL     1       0.468   1.484  -1.512  1.00  0.00     0.188 C 
ENDROOT
BRANCH   1   2
ATOM      2  O   UNL     1       1.692   1.095  -2.139  1.00  0.00    -0.376 OA
BRANCH   2   3
ATOM      3  C   UNL     1       1.870  -0.279  -2.453  1.00  0.00     0.202 C 
BRANCH   3   4
ATOM      4  C   UNL     1       2.227  -1.173  -1.265  1.00  0.00     0.261 C 
BRANCH   4   5
ATOM      5  O   UNL     1       1.376  -0.950  -0.122  1.00  0.00    -0.463 OA
BRANCH   5   6
ATOM      6  C   UNL     1       2.023  -0.674   1.039  1.00  0.00     0.313 C 
ATOM      7  O   UNL     1       3.247  -0.677   1.154  1.00  0.00    -0.252 OA
BRANCH   6   8
ATOM      8  C   UNL     1       1.114  -0.378   2.228  1.00  0.00     0.126 C 
ATOM      9  C   UNL     1       1.694   0.849   2.952  1.00  0.00     0.025 C 
BRANCH   8  10
ATOM     10  C   UNL     1      -0.396  -0.268   1.991  1.00  0.00    -0.032 A 
ATOM     11  C   UNL     1      -1.056   0.962   1.919  1.00  0.00     0.005 A 
ATOM     12  C   UNL     1      -1.176  -1.445   1.982  1.00  0.00     0.032 A 
ATOM     13  C   UNL     1      -2.450   1.032   1.819  1.00  0.00     0.011 A 
ATOM     14  C   UNL     1      -2.592  -1.365   1.934  1.00  0.00     0.058 A 
ATOM     15  C   UNL     1      -3.224  -0.139   1.778  1.00  0.00     0.008 A 
ATOM     16  N   UNL     1      -3.593  -2.349   2.058  1.00  0.00    -0.274 N 
ATOM     17  C   UNL     1      -4.614  -0.374   1.615  1.00  0.00     0.009 A 
ATOM     18  C   UNL     1      -4.846  -1.731   1.874  1.00  0.00     0.057 A 
ATOM     19  C   UNL     1      -5.695   0.486   1.318  1.00  0.00     0.031 A 
ATOM     20  C   UNL     1      -6.175  -2.199   1.980  1.00  0.00     0.029 A 
ATOM     21  C   UNL     1      -6.995  -0.012   1.330  1.00  0.00     0.041 A 
ATOM     22  C   UNL     1      -7.235  -1.331   1.681  1.00  0.00     0.023 A 
ATOM     23  Cl  UNL     1      -8.310   1.029   0.945  1.00  0.00    -0.084 Cl
BRANCH  16  24
ATOM     24  C   UNL     1      -3.325  -3.708   2.391  1.00  0.00     0.284 C 
ATOM     25  O   UNL     1      -2.242  -3.924   2.935  1.00  0.00    -0.266 OA
BRANCH  24  26
ATOM     26  C   UNL     1      -4.215  -4.834   2.130  1.00  0.00     0.167 A 
ATOM     27  C   UNL     1      -5.064  -5.041   1.065  1.00  0.00     0.231 A 
ATOM     28  N   UNL     1      -4.220  -5.974   2.923  1.00  0.00    -0.211 NA
ATOM     29  O   UNL     1      -5.627  -6.277   1.194  1.00  0.00    -0.451 OA
ATOM     30  C   UNL     1      -5.060  -6.782   2.322  1.00  0.00     0.308 A 
ENDBRANCH  24  26
ENDBRANCH  16  24
ENDBRANCH   8  10
ENDBRANCH   6   8
ENDBRANCH   5   6
ENDBRANCH   4   5
ENDBRANCH   3   4
ENDBRANCH   2   3
ENDBRANCH   1   2
BRANCH   1  31
ATOM     31  C   UNL     1      -0.782   0.610  -1.694  1.00  0.00     0.188 C 
BRANCH  31  32
ATOM     32  O   UNL     1      -1.032   0.368  -3.078  1.00  0.00    -0.376 OA
BRANCH  32  33
ATOM     33  C   UNL     1      -2.401   0.487  -3.449  1.00  0.00     0.202 C 
BRANCH  33  34
ATOM     34  C   UNL     1      -2.603   1.810  -4.192  1.00  0.00     0.261 C 
BRANCH  34  35
ATOM     35  O   UNL     1      -2.203   2.966  -3.429  1.00  0.00    -0.460 OA
BRANCH  35  36
ATOM     36  C   UNL     1      -2.962   3.241  -2.348  1.00  0.00     0.338 C 
ATOM     37  O   UNL     1      -3.948   2.637  -1.966  1.00  0.00    -0.246 OA
BRANCH  36  38
ATOM     38  C   UNL     1      -2.321   4.317  -1.569  1.00  0.00     0.060 A 
ATOM     39  C   UNL     1      -2.089   4.078  -0.214  1.00  0.00     0.016 A 
ATOM     40  C   UNL     1      -2.013   5.557  -2.124  1.00  0.00     0.016 A 
ATOM     41  C   UNL     1      -1.599   5.082   0.617  1.00  0.00     0.010 A 
ATOM     42  C   UNL     1      -1.527   6.573  -1.294  1.00  0.00     0.010 A 
ATOM     43  C   UNL     1      -1.349   6.351   0.086  1.00  0.00    -0.014 A 
BRANCH  43  44
ATOM     44  C   UNL     1      -1.066   7.490   0.992  1.00  0.00     0.031 A 
ATOM     45  C   UNL     1      -2.186   8.429   1.340  1.00  0.00     0.074 A 
ATOM     46  C   UNL     1       0.158   7.679   1.515  1.00  0.00     0.049 A 
ATOM     47  N   UNL     1      -2.151   9.560   1.997  1.00  0.00    -0.248 NA
ATOM     48  C   UNL     1      -3.529   8.036   0.885  1.00  0.00     0.031 C 
ATOM     49  C   UNL     1       1.308   6.802   1.320  1.00  0.00     0.029 A 
ATOM     50  N   UNL     1       0.634   8.691   2.313  1.00  0.00    -0.354 N 
ATOM     51  C   UNL     1      -3.459  10.023   2.016  1.00  0.00     0.074 A 
ATOM     52  C   UNL     1      -4.264   9.058   1.299  1.00  0.00     0.031 C 
ATOM     53  C   UNL     1       2.367   7.324   1.964  1.00  0.00     0.029 A 
ATOM     54  C   UNL     1       1.977   8.593   2.577  1.00  0.00     0.049 A 
ATOM     55  H   UNL     1       0.067   9.416   2.661  1.00  0.00     0.167 HD
ATOM     56  C   UNL     1      -3.946  11.153   2.581  1.00  0.00     0.037 A 
ATOM     57  C   UNL     1       2.803   9.452   3.207  1.00  0.00     0.037 A 
ATOM     58  C   UNL     1      -3.149  12.112   3.299  1.00  0.00     0.049 A 
ATOM     59  C   UNL     1       2.254  10.744   3.756  1.00  0.00     0.074 A 
ATOM     60  C   UNL     1      -3.549  13.295   3.894  1.00  0.00     0.029 A 
ATOM     61  N   UNL     1      -1.785  11.993   3.519  1.00  0.00    -0.354 N 
ATOM     62  N   UNL     1       1.023  11.193   3.745  1.00  0.00    -0.248 NA
ATOM     63  C   UNL     1       3.216  11.654   4.397  1.00  0.00     0.031 C 
ATOM     64  C   UNL     1      -2.419  13.910   4.445  1.00  0.00     0.029 A 
ATOM     65  C   UNL     1      -1.324  13.089   4.228  1.00  0.00     0.049 A 
ATOM     66  H   UNL     1      -1.227  11.240   3.216  1.00  0.00     0.167 HD
ATOM     67  C   UNL     1       1.057  12.422   4.393  1.00  0.00     0.074 A 
ATOM     68  C   UNL     1       2.430  12.644   4.796  1.00  0.00     0.031 C 
ATOM     69  C   UNL     1       0.043  13.289   4.631  1.00  0.00     0.037 A 
BRANCH  56  70
ATOM     70  C   UNL     1      -5.408  11.431   2.410  1.00  0.00     0.064 A 
ATOM     71  C   UNL     1      -6.380  10.717   3.125  1.00  0.00     0.173 A 
ATOM     72  C   UNL     1      -5.839  12.438   1.534  1.00  0.00     0.173 A 
ATOM     73  F   UNL     1      -6.017   9.732   3.960  1.00  0.00    -0.203 F 
ATOM     74  C   UNL     1      -7.735  10.988   2.953  1.00  0.00     0.198 A 
ATOM     75  C   UNL     1      -7.193  12.722   1.382  1.00  0.00     0.198 A 
ATOM     76  F   UNL     1      -4.947  13.147   0.828  1.00  0.00    -0.203 F 
ATOM     77  F   UNL     1      -8.651  10.266   3.613  1.00  0.00    -0.200 F 
ATOM     78  C   UNL     1      -8.140  11.993   2.086  1.00  0.00     0.200 A 
ATOM     79  F   UNL     1      -7.582  13.697   0.550  1.00  0.00    -0.200 F 
ATOM     80  F   UNL     1      -9.444  12.254   1.923  1.00  0.00    -0.200 F 
ENDBRANCH  56  70
BRANCH  57  81
ATOM     81  C   UNL     1       4.251   9.142   3.320  1.00  0.00     0.064 A 
ATOM     82  C   UNL     1       4.833   8.846   4.560  1.00  0.00     0.173 A 
ATOM     83  C   UNL     1       5.088   9.165   2.195  1.00  0.00     0.173 A 
ATOM     84  F   UNL     1       4.078   8.844   5.669  1.00  0.00    -0.203 F 
ATOM     85  C   UNL     1       6.200   8.601   4.673  1.00  0.00     0.198 A 
ATOM     86  C   UNL     1       6.450   8.895   2.304  1.00  0.00     0.198 A 
ATOM     87  F   UNL     1       4.581   9.452   0.987  1.00  0.00    -0.203 F 
ATOM     88  F   UNL     1       6.739   8.370   5.878  1.00  0.00    -0.200 F 
ATOM     89  C   UNL     1       7.006   8.621   3.545  1.00  0.00     0.200 A 
ATOM     90  F   UNL     1       7.224   8.910   1.211  1.00  0.00    -0.200 F 
ATOM     91  F   UNL     1       8.321   8.388   3.654  1.00  0.00    -0.200 F 
ENDBRANCH  57  81
BRANCH  69  92
ATOM     92  C   UNL     1       0.369  14.542   5.390  1.00  0.00     0.064 A 
ATOM     93  C   UNL     1       1.058  15.605   4.790  1.00  0.00     0.173 A 
ATOM     94  C   UNL     1      -0.060  14.699   6.717  1.00  0.00     0.173 A 
ATOM     95  F   UNL     1       1.500  15.497   3.528  1.00  0.00    -0.203 F 
ATOM     96  C   UNL     1       1.324  16.775   5.498  1.00  0.00     0.198 A 
ATOM     97  C   UNL     1       0.186  15.879   7.413  1.00  0.00     0.198 A 
ATOM     98  F   UNL     1      -0.729  13.713   7.332  1.00  0.00    -0.203 F 
ATOM     99  F   UNL     1       2.016  17.765   4.918  1.00  0.00    -0.200 F 
ATOM    100  C   UNL     1       0.881  16.913   6.806  1.00  0.00     0.200 A 
ATOM    101  F   UNL     1      -0.252  16.015   8.673  1.00  0.00    -0.200 F 
ATOM    102  F   UNL     1       1.131  18.043   7.482  1.00  0.00    -0.200 F 
ENDBRANCH  69  92
ENDBRANCH  43  44
ENDBRANCH  36  38
ENDBRANCH  35  36
ENDBRANCH  34  35
ENDBRANCH  33  34
ENDBRANCH  32  33
ENDBRANCH  31  32
ENDBRANCH   1  31
TORSDOF 20
