REMARK SMILES O=C(CCC(=O)N1CCc2sccc2C1)NC1(C(=O)OCCOCCOCCOC(=O)c2ccc(-c3c4nc(c(-c5c(F)c(F)c(F)c(F)c5F)c5ccc([nH]5)c(-c5c(F)c(F)c(F)c(F)c5F)c5nc(c(-c6c(F)c(F)c(F)c(F)c6F)c6ccc3[nH]6)C=C5)C=C4)cc2)CCCCC1
REMARK SMILES IDX 23 1 22 2 21 3 20 4 18 5 19 6 17 7 95 8 99 9 96 10 98 11
REMARK SMILES IDX 97 12 16 13 1 14 2 15 3 17 4 18 5 19 6 20 7 21 8 22 15 23
REMARK SMILES IDX 9 24 14 25 10 26 13 27 11 28 12 29 24 30 25 31 26 32 27 33
REMARK SMILES IDX 28 34 29 35 30 36 31 37 32 38 33 39 94 40 34 41 93 42 35 43
REMARK SMILES IDX 36 44 37 45 87 46 38 47 92 48 86 49 88 50 39 51 91 52 85 53
REMARK SMILES IDX 84 54 40 56 72 57 52 58 71 59 53 60 56 61 70 62 89 63 54 64
REMARK SMILES IDX 55 65 69 67 90 68 57 69 41 70 42 71 50 72 43 73 44 74 48 75
REMARK SMILES IDX 51 76 45 77 46 78 49 79 47 80 73 81 74 82 82 83 75 84 76 85
REMARK SMILES IDX 80 86 83 87 77 88 78 89 81 90 79 91 58 92 59 93 67 94 60 95
REMARK SMILES IDX 61 96 65 97 68 98 62 99 63 100 66 101 64 102
REMARK H PARENT 16 16 88 55 56 66
REMARK Flexibility Score: inf
ROOT
ATOM      1  O   UNL     1       3.658   1.327  -5.912  1.00  0.00    -0.376 OA
ENDROOT
BRANCH   1   2
ATOM      2  C   UNL     1       2.363   1.549  -6.468  1.00  0.00     0.202 C 
BRANCH   2   3
ATOM      3  C   UNL     1       1.185   0.872  -5.730  1.00  0.00     0.261 C 
BRANCH   3   4
ATOM      4  O   UNL     1       0.922   1.422  -4.414  1.00  0.00    -0.461 OA
BRANCH   4   5
ATOM      5  C   UNL     1       1.109   0.626  -3.317  1.00  0.00     0.331 C 
ATOM      6  O   UNL     1       1.471  -0.541  -3.392  1.00  0.00    -0.249 OA
BRANCH   5   7
ATOM      7  C   UNL     1       0.790   1.385  -1.963  1.00  0.00     0.138 C 
ATOM      8  C   UNL     1      -0.731   1.438  -1.758  1.00  0.00     0.040 C 
ATOM      9  C   UNL     1       1.371   2.830  -1.940  1.00  0.00     0.040 C 
ATOM     10  C   UNL     1      -1.426   2.416  -2.711  1.00  0.00     0.003 C 
ATOM     11  C   UNL     1       0.662   3.864  -2.807  1.00  0.00     0.003 C 
ATOM     12  C   UNL     1      -0.848   3.825  -2.628  1.00  0.00     0.000 C 
BRANCH   7  13
ATOM     13  N   UNL     1       1.485   0.708  -0.812  1.00  0.00    -0.340 N 
ATOM     14  O   UNL     1       0.366  -1.297  -0.716  1.00  0.00    -0.275 OA
ATOM     15  C   UNL     1       1.281  -0.575  -0.346  1.00  0.00     0.221 C 
ATOM     16  H   UNL     1       2.163   1.242  -0.337  1.00  0.00     0.164 HD
BRANCH  15  17
ATOM     17  C   UNL     1       2.311  -1.025   0.703  1.00  0.00     0.110 C 
BRANCH  17  18
ATOM     18  C   UNL     1       3.013  -2.334   0.344  1.00  0.00     0.110 C 
BRANCH  18  19
ATOM     19  C   UNL     1       4.246  -2.549  -0.559  1.00  0.00     0.223 C 
ATOM     20  O   UNL     1       4.790  -3.663  -0.474  1.00  0.00    -0.275 OA
BRANCH  19  21
ATOM     21  N   UNL     1       4.740  -1.638  -1.464  1.00  0.00    -0.338 N 
ATOM     22  C   UNL     1       4.316  -0.258  -1.590  1.00  0.00     0.125 C 
ATOM     23  C   UNL     1       5.662  -2.142  -2.517  1.00  0.00     0.156 C 
ATOM     24  C   UNL     1       5.479   0.726  -1.637  1.00  0.00     0.068 C 
ATOM     25  C   UNL     1       6.427  -1.030  -3.180  1.00  0.00    -0.015 A 
ATOM     26  C   UNL     1       6.379   0.267  -2.723  1.00  0.00     0.011 A 
ATOM     27  C   UNL     1       7.206  -1.107  -4.386  1.00  0.00     0.017 A 
ATOM     28  S   UNL     1       7.365   1.284  -3.611  1.00  0.00    -0.149 S 
ATOM     29  C   UNL     1       7.724   0.112  -4.760  1.00  0.00     0.065 A 
ENDBRANCH  19  21
ENDBRANCH  18  19
ENDBRANCH  17  18
ENDBRANCH  15  17
ENDBRANCH   7  13
ENDBRANCH   5   7
ENDBRANCH   4   5
ENDBRANCH   3   4
ENDBRANCH   2   3
ENDBRANCH   1   2
BRANCH   1  30
ATOM     30  C   UNL     1       3.838   1.931  -4.645  1.00  0.00     0.188 C 
BRANCH  30  31
ATOM     31  C   UNL     1       4.794   3.105  -4.586  1.00  0.00     0.188 C 
BRANCH  31  32
ATOM     32  O   UNL     1       4.490   4.213  -5.419  1.00  0.00    -0.376 OA
BRANCH  32  33
ATOM     33  C   UNL     1       5.717   4.778  -5.928  1.00  0.00     0.202 C 
BRANCH  33  34
ATOM     34  C   UNL     1       6.662   5.404  -4.859  1.00  0.00     0.261 C 
BRANCH  34  35
ATOM     35  O   UNL     1       7.314   4.444  -3.969  1.00  0.00    -0.460 OA
BRANCH  35  36
ATOM     36  C   UNL     1       7.714   4.929  -2.748  1.00  0.00     0.338 C 
ATOM     37  O   UNL     1       7.589   6.076  -2.374  1.00  0.00    -0.246 OA
BRANCH  36  38
ATOM     38  C   UNL     1       8.187   3.846  -1.813  1.00  0.00     0.060 A 
ATOM     39  C   UNL     1       7.454   3.624  -0.639  1.00  0.00     0.016 A 
ATOM     40  C   UNL     1       9.310   3.039  -2.049  1.00  0.00     0.016 A 
ATOM     41  C   UNL     1       7.786   2.572   0.244  1.00  0.00     0.010 A 
ATOM     42  C   UNL     1       9.614   1.950  -1.181  1.00  0.00     0.010 A 
ATOM     43  C   UNL     1       8.854   1.697  -0.018  1.00  0.00    -0.014 A 
BRANCH  43  44
ATOM     44  C   UNL     1       9.338   0.773   1.078  1.00  0.00     0.031 A 
ATOM     45  C   UNL     1      10.407   1.327   1.987  1.00  0.00     0.074 A 
ATOM     46  C   UNL     1       8.847  -0.454   1.377  1.00  0.00     0.049 A 
ATOM     47  N   UNL     1      10.919   0.835   3.088  1.00  0.00    -0.248 NA
ATOM     48  C   UNL     1      10.967   2.628   1.593  1.00  0.00     0.031 C 
ATOM     49  C   UNL     1       7.829  -1.176   0.628  1.00  0.00     0.029 A 
ATOM     50  N   UNL     1       9.144  -1.321   2.419  1.00  0.00    -0.354 N 
ATOM     51  C   UNL     1      11.838   1.778   3.525  1.00  0.00     0.074 A 
ATOM     52  C   UNL     1      11.855   2.842   2.546  1.00  0.00     0.031 C 
ATOM     53  C   UNL     1       7.559  -2.346   1.238  1.00  0.00     0.029 A 
ATOM     54  C   UNL     1       8.405  -2.489   2.420  1.00  0.00     0.049 A 
ATOM     55  H   UNL     1       9.824  -1.121   3.101  1.00  0.00     0.167 HD
ATOM     56  C   UNL     1      12.599   1.784   4.644  1.00  0.00     0.037 A 
ATOM     57  C   UNL     1       8.404  -3.554   3.259  1.00  0.00     0.037 A 
ATOM     58  C   UNL     1      12.657   0.723   5.609  1.00  0.00     0.049 A 
ATOM     59  C   UNL     1       9.332  -3.570   4.457  1.00  0.00     0.074 A 
ATOM     60  C   UNL     1      13.436   0.641   6.749  1.00  0.00     0.029 A 
ATOM     61  N   UNL     1      11.930  -0.454   5.534  1.00  0.00    -0.354 N 
ATOM     62  N   UNL     1      10.159  -2.644   4.880  1.00  0.00    -0.248 NA
ATOM     63  C   UNL     1       9.323  -4.780   5.299  1.00  0.00     0.031 C 
ATOM     64  C   UNL     1      13.228  -0.613   7.332  1.00  0.00     0.029 A 
ATOM     65  C   UNL     1      12.264  -1.281   6.596  1.00  0.00     0.049 A 
ATOM     66  H   UNL     1      11.275  -0.671   4.832  1.00  0.00     0.167 HD
ATOM     67  C   UNL     1      10.741  -3.146   6.040  1.00  0.00     0.074 A 
ATOM     68  C   UNL     1      10.156  -4.447   6.275  1.00  0.00     0.031 C 
ATOM     69  C   UNL     1      11.680  -2.577   6.837  1.00  0.00     0.037 A 
BRANCH  56  70
ATOM     70  C   UNL     1      13.476   2.985   4.837  1.00  0.00     0.064 A 
ATOM     71  C   UNL     1      12.939   4.247   5.135  1.00  0.00     0.173 A 
ATOM     72  C   UNL     1      14.863   2.881   4.664  1.00  0.00     0.173 A 
ATOM     73  F   UNL     1      11.613   4.402   5.274  1.00  0.00    -0.203 F 
ATOM     74  C   UNL     1      13.757   5.370   5.210  1.00  0.00     0.198 A 
ATOM     75  C   UNL     1      15.681   4.000   4.776  1.00  0.00     0.198 A 
ATOM     76  F   UNL     1      15.421   1.698   4.368  1.00  0.00    -0.203 F 
ATOM     77  F   UNL     1      13.215   6.579   5.415  1.00  0.00    -0.200 F 
ATOM     78  C   UNL     1      15.127   5.245   5.035  1.00  0.00     0.200 A 
ATOM     79  F   UNL     1      17.005   3.877   4.610  1.00  0.00    -0.200 F 
ATOM     80  F   UNL     1      15.912   6.329   5.096  1.00  0.00    -0.200 F 
ENDBRANCH  56  70
BRANCH  57  81
ATOM     81  C   UNL     1       7.505  -4.732   3.021  1.00  0.00     0.064 A 
ATOM     82  C   UNL     1       6.499  -5.084   3.938  1.00  0.00     0.173 A 
ATOM     83  C   UNL     1       7.699  -5.591   1.928  1.00  0.00     0.173 A 
ATOM     84  F   UNL     1       6.301  -4.337   5.035  1.00  0.00    -0.203 F 
ATOM     85  C   UNL     1       5.746  -6.251   3.784  1.00  0.00     0.198 A 
ATOM     86  C   UNL     1       6.923  -6.739   1.756  1.00  0.00     0.198 A 
ATOM     87  F   UNL     1       8.671  -5.335   1.040  1.00  0.00    -0.203 F 
ATOM     88  F   UNL     1       4.854  -6.600   4.723  1.00  0.00    -0.200 F 
ATOM     89  C   UNL     1       5.954  -7.074   2.689  1.00  0.00     0.200 A 
ATOM     90  F   UNL     1       7.142  -7.544   0.707  1.00  0.00    -0.200 F 
ATOM     91  F   UNL     1       5.247  -8.206   2.554  1.00  0.00    -0.200 F 
ENDBRANCH  57  81
BRANCH  69  92
ATOM     92  C   UNL     1      12.113  -3.330   8.066  1.00  0.00     0.064 A 
ATOM     93  C   UNL     1      12.853  -4.520   7.990  1.00  0.00     0.173 A 
ATOM     94  C   UNL     1      11.810  -2.833   9.345  1.00  0.00     0.173 A 
ATOM     95  F   UNL     1      13.169  -5.044   6.796  1.00  0.00    -0.203 F 
ATOM     96  C   UNL     1      13.236  -5.204   9.143  1.00  0.00     0.198 A 
ATOM     97  C   UNL     1      12.226  -3.499  10.495  1.00  0.00     0.198 A 
ATOM     98  F   UNL     1      11.118  -1.692   9.481  1.00  0.00    -0.203 F 
ATOM     99  F   UNL     1      13.890  -6.369   9.043  1.00  0.00    -0.200 F 
ATOM    100  C   UNL     1      12.927  -4.690  10.394  1.00  0.00     0.200 A 
ATOM    101  F   UNL     1      11.944  -2.989  11.702  1.00  0.00    -0.200 F 
ATOM    102  F   UNL     1      13.299  -5.347  11.501  1.00  0.00    -0.200 F 
ENDBRANCH  69  92
ENDBRANCH  43  44
ENDBRANCH  36  38
ENDBRANCH  35  36
ENDBRANCH  34  35
ENDBRANCH  33  34
ENDBRANCH  32  33
ENDBRANCH  31  32
ENDBRANCH  30  31
ENDBRANCH   1  30
TORSDOF 22
