REMARK SMILES N#Cc1ccccc1S(=O)(=O)N1CCC(C(=O)OCCOCCOCCOC(=O)c2ccc(-c3c4nc(c(-c5c(F)c(F)c(F)c(F)c5F)c5ccc([nH]5)c(-c5c(F)c(F)c(F)c(F)c5F)c5nc(c(-c6c(F)c(F)c(F)c(F)c6F)c6ccc3[nH]6)C=C5)C=C4)cc2)CC1
REMARK SMILES IDX 22 1 21 2 20 3 19 4 18 5 16 6 17 7 15 8 12 9 13 10 94 11
REMARK SMILES IDX 14 12 93 13 9 14 10 15 11 16 8 17 3 18 4 19 5 20 7 21 6 22
REMARK SMILES IDX 2 23 1 24 23 25 24 26 25 27 26 28 27 29 28 30 29 31 30 32
REMARK SMILES IDX 31 33 92 34 32 35 91 36 33 37 34 38 35 39 85 40 36 41 90 42
REMARK SMILES IDX 84 43 86 44 37 45 89 46 83 47 82 48 38 50 70 51 50 52 69 53
REMARK SMILES IDX 51 54 54 55 68 56 87 57 52 58 53 59 67 61 88 62 55 63 39 64
REMARK SMILES IDX 40 65 48 66 41 67 42 68 46 69 49 70 43 71 44 72 47 73 45 74
REMARK SMILES IDX 71 75 72 76 80 77 73 78 74 79 78 80 81 81 75 82 76 83 79 84
REMARK SMILES IDX 77 85 56 86 57 87 65 88 58 89 59 90 63 91 66 92 60 93 61 94
REMARK SMILES IDX 64 95 62 96
REMARK H PARENT 86 49 54 60
REMARK Flexibility Score: inf
ROOT
ATOM      1  C   UNL     1      -7.478   0.690   0.474  1.00  0.00     0.188 C 
ENDROOT
BRANCH   1   2
ATOM      2  O   UNL     1      -8.757   0.607  -0.145  1.00  0.00    -0.376 OA
BRANCH   2   3
ATOM      3  C   UNL     1      -9.284  -0.700  -0.369  1.00  0.00     0.202 C 
BRANCH   3   4
ATOM      4  C   UNL     1      -8.472  -1.632  -1.284  1.00  0.00     0.261 C 
BRANCH   4   5
ATOM      5  O   UNL     1      -7.099  -1.833  -0.883  1.00  0.00    -0.463 OA
BRANCH   5   6
ATOM      6  C   UNL     1      -6.164  -1.245  -1.670  1.00  0.00     0.309 C 
ATOM      7  O   UNL     1      -6.415  -0.642  -2.710  1.00  0.00    -0.252 OA
BRANCH   6   8
ATOM      8  C   UNL     1      -4.745  -1.307  -1.123  1.00  0.00     0.102 C 
ATOM      9  N   UNL     1      -2.101  -2.323  -0.502  1.00  0.00    -0.198 NA
ATOM     10  C   UNL     1      -3.054  -2.184   0.618  1.00  0.00     0.103 C 
ATOM     11  C   UNL     1      -2.427  -1.866  -1.858  1.00  0.00     0.103 C 
ATOM     12  C   UNL     1      -4.519  -1.975   0.230  1.00  0.00     0.032 C 
ATOM     13  C   UNL     1      -3.897  -1.995  -2.176  1.00  0.00     0.032 C 
BRANCH   9  14
ATOM     14  S   UNL     1      -0.473  -2.557  -0.123  1.00  0.00     0.244 S 
ATOM     15  O   UNL     1       0.116  -3.237  -1.261  1.00  0.00    -0.207 OA
ATOM     16  O   UNL     1      -0.394  -3.128   1.204  1.00  0.00    -0.207 OA
BRANCH  14  17
ATOM     17  C   UNL     1       0.392  -0.998  -0.024  1.00  0.00     0.100 A 
ATOM     18  C   UNL     1      -0.154   0.285   0.051  1.00  0.00     0.072 A 
ATOM     19  C   UNL     1       0.714   1.399   0.055  1.00  0.00     0.021 A 
ATOM     20  C   UNL     1       2.098   1.244   0.029  1.00  0.00     0.001 A 
ATOM     21  C   UNL     1       1.798  -1.139  -0.038  1.00  0.00     0.023 A 
ATOM     22  C   UNL     1       2.642  -0.030  -0.003  1.00  0.00     0.001 A 
BRANCH  18  23
ATOM     23  C   UNL     1      -1.540   0.618   0.173  1.00  0.00     0.101 C 
ATOM     24  N   UNL     1      -2.628   0.993   0.292  1.00  0.00    -0.192 NA
ENDBRANCH  18  23
ENDBRANCH  14  17
ENDBRANCH   9  14
ENDBRANCH   6   8
ENDBRANCH   5   6
ENDBRANCH   4   5
ENDBRANCH   3   4
ENDBRANCH   2   3
ENDBRANCH   1   2
BRANCH   1  25
ATOM     25  C   UNL     1      -7.330  -0.077   1.782  1.00  0.00     0.188 C 
BRANCH  25  26
ATOM     26  O   UNL     1      -7.732  -1.428   1.786  1.00  0.00    -0.376 OA
BRANCH  26  27
ATOM     27  C   UNL     1      -8.306  -1.970   2.976  1.00  0.00     0.202 C 
BRANCH  27  28
ATOM     28  C   UNL     1      -8.965  -1.121   4.105  1.00  0.00     0.261 C 
BRANCH  28  29
ATOM     29  O   UNL     1      -8.499   0.218   4.383  1.00  0.00    -0.460 OA
BRANCH  29  30
ATOM     30  C   UNL     1      -7.205   0.382   4.747  1.00  0.00     0.338 C 
ATOM     31  O   UNL     1      -6.439  -0.510   5.067  1.00  0.00    -0.246 OA
BRANCH  30  32
ATOM     32  C   UNL     1      -6.768   1.780   4.414  1.00  0.00     0.060 A 
ATOM     33  C   UNL     1      -5.535   1.945   3.760  1.00  0.00     0.016 A 
ATOM     34  C   UNL     1      -7.551   2.909   4.672  1.00  0.00     0.016 A 
ATOM     35  C   UNL     1      -5.065   3.216   3.406  1.00  0.00     0.010 A 
ATOM     36  C   UNL     1      -7.062   4.190   4.349  1.00  0.00     0.010 A 
ATOM     37  C   UNL     1      -5.799   4.357   3.747  1.00  0.00    -0.014 A 
BRANCH  37  38
ATOM     38  C   UNL     1      -5.167   5.708   3.662  1.00  0.00     0.031 A 
ATOM     39  C   UNL     1      -4.649   6.340   4.930  1.00  0.00     0.074 A 
ATOM     40  C   UNL     1      -5.021   6.367   2.496  1.00  0.00     0.049 A 
ATOM     41  N   UNL     1      -4.132   7.527   5.127  1.00  0.00    -0.248 NA
ATOM     42  C   UNL     1      -4.731   5.513   6.144  1.00  0.00     0.031 C 
ATOM     43  C   UNL     1      -5.413   5.864   1.184  1.00  0.00     0.029 A 
ATOM     44  N   UNL     1      -4.508   7.619   2.236  1.00  0.00    -0.354 N 
ATOM     45  C   UNL     1      -3.846   7.595   6.486  1.00  0.00     0.074 A 
ATOM     46  C   UNL     1      -4.276   6.343   7.070  1.00  0.00     0.031 C 
ATOM     47  C   UNL     1      -5.147   6.803   0.259  1.00  0.00     0.029 A 
ATOM     48  C   UNL     1      -4.601   7.991   0.916  1.00  0.00     0.049 A 
ATOM     49  H   UNL     1      -4.112   8.194   2.931  1.00  0.00     0.167 HD
ATOM     50  C   UNL     1      -3.272   8.604   7.186  1.00  0.00     0.037 A 
ATOM     51  C   UNL     1      -4.310   9.163   0.312  1.00  0.00     0.037 A 
ATOM     52  C   UNL     1      -2.845   9.854   6.611  1.00  0.00     0.049 A 
ATOM     53  C   UNL     1      -3.760  10.310   1.128  1.00  0.00     0.074 A 
ATOM     54  C   UNL     1      -2.235  10.928   7.237  1.00  0.00     0.029 A 
ATOM     55  N   UNL     1      -2.997  10.206   5.278  1.00  0.00    -0.354 N 
ATOM     56  N   UNL     1      -3.471  10.358   2.406  1.00  0.00    -0.248 NA
ATOM     57  C   UNL     1      -3.494  11.568   0.412  1.00  0.00     0.031 C 
ATOM     58  C   UNL     1      -2.091  11.957   6.302  1.00  0.00     0.029 A 
ATOM     59  C   UNL     1      -2.529  11.495   5.072  1.00  0.00     0.049 A 
ATOM     60  H   UNL     1      -3.380   9.626   4.580  1.00  0.00     0.167 HD
ATOM     61  C   UNL     1      -2.959  11.630   2.638  1.00  0.00     0.074 A 
ATOM     62  C   UNL     1      -2.960  12.318   1.365  1.00  0.00     0.031 C 
ATOM     63  C   UNL     1      -2.524  12.177   3.801  1.00  0.00     0.037 A 
BRANCH  50  64
ATOM     64  C   UNL     1      -3.108   8.417   8.670  1.00  0.00     0.064 A 
ATOM     65  C   UNL     1      -2.219   7.474   9.209  1.00  0.00     0.173 A 
ATOM     66  C   UNL     1      -3.833   9.217   9.569  1.00  0.00     0.173 A 
ATOM     67  F   UNL     1      -1.506   6.677   8.399  1.00  0.00    -0.203 F 
ATOM     68  C   UNL     1      -2.092   7.312  10.587  1.00  0.00     0.198 A 
ATOM     69  C   UNL     1      -3.673   9.080  10.945  1.00  0.00     0.198 A 
ATOM     70  F   UNL     1      -4.690  10.142   9.112  1.00  0.00    -0.203 F 
ATOM     71  F   UNL     1      -1.284   6.362  11.076  1.00  0.00    -0.200 F 
ATOM     72  C   UNL     1      -2.813   8.120  11.453  1.00  0.00     0.200 A 
ATOM     73  F   UNL     1      -4.356   9.877  11.779  1.00  0.00    -0.200 F 
ATOM     74  F   UNL     1      -2.684   7.968  12.778  1.00  0.00    -0.200 F 
ENDBRANCH  50  64
BRANCH  51  75
ATOM     75  C   UNL     1      -4.551   9.331  -1.149  1.00  0.00     0.064 A 
ATOM     76  C   UNL     1      -3.489   9.537  -2.042  1.00  0.00     0.173 A 
ATOM     77  C   UNL     1      -5.850   9.327  -1.679  1.00  0.00     0.173 A 
ATOM     78  F   UNL     1      -2.229   9.585  -1.584  1.00  0.00    -0.203 F 
ATOM     79  C   UNL     1      -3.718   9.752  -3.401  1.00  0.00     0.198 A 
ATOM     80  C   UNL     1      -6.076   9.505  -3.043  1.00  0.00     0.198 A 
ATOM     81  F   UNL     1      -6.905   9.147  -0.871  1.00  0.00    -0.203 F 
ATOM     82  F   UNL     1      -2.687  10.006  -4.219  1.00  0.00    -0.200 F 
ATOM     83  C   UNL     1      -5.010   9.727  -3.901  1.00  0.00     0.200 A 
ATOM     84  F   UNL     1      -7.326   9.470  -3.524  1.00  0.00    -0.200 F 
ATOM     85  F   UNL     1      -5.229   9.930  -5.208  1.00  0.00    -0.200 F 
ENDBRANCH  51  75
BRANCH  63  86
ATOM     86  C   UNL     1      -1.963  13.573   3.755  1.00  0.00     0.064 A 
ATOM     87  C   UNL     1      -2.767  14.693   3.491  1.00  0.00     0.173 A 
ATOM     88  C   UNL     1      -0.602  13.798   4.021  1.00  0.00     0.173 A 
ATOM     89  F   UNL     1      -4.072  14.538   3.221  1.00  0.00    -0.203 F 
ATOM     90  C   UNL     1      -2.225  15.976   3.462  1.00  0.00     0.198 A 
ATOM     91  C   UNL     1      -0.072  15.086   4.031  1.00  0.00     0.198 A 
ATOM     92  F   UNL     1       0.215  12.768   4.290  1.00  0.00    -0.203 F 
ATOM     93  F   UNL     1      -3.002  17.022   3.149  1.00  0.00    -0.200 F 
ATOM     94  C   UNL     1      -0.881  16.173   3.740  1.00  0.00     0.200 A 
ATOM     95  F   UNL     1       1.223  15.274   4.322  1.00  0.00    -0.200 F 
ATOM     96  F   UNL     1      -0.363  17.409   3.721  1.00  0.00    -0.200 F 
ENDBRANCH  63  86
ENDBRANCH  37  38
ENDBRANCH  30  32
ENDBRANCH  29  30
ENDBRANCH  28  29
ENDBRANCH  27  28
ENDBRANCH  26  27
ENDBRANCH  25  26
ENDBRANCH   1  25
TORSDOF 20
