REMARK SMILES COc1cc([C@H]([NH3+])CC(=O)OCCOCCOCCOC(=O)c2ccc(-c3c4nc(c(-c5c(F)c(F)c(F)c(F)c5F)c5ccc([nH]5)c(-c5c(F)c(F)c(F)c(F)c5F)c5nc(c(-c6c(F)c(F)c(F)c(F)c6F)c6ccc3[nH]6)C=C5)C=C4)cc2)c([N+](=O)[O-])cc1OC
REMARK SMILES IDX 15 1 14 2 13 3 12 4 11 5 9 6 10 7 8 8 6 9 5 10 3 11 4 12
REMARK SMILES IDX 91 13 90 14 86 15 2 16 1 17 92 18 93 19 87 20 88 21 89 22
REMARK SMILES IDX 7 23 16 27 17 28 18 29 19 30 20 31 21 32 22 33 23 34 24 35
REMARK SMILES IDX 85 36 25 37 84 38 26 39 27 40 28 41 78 42 29 43 83 44 77 45
REMARK SMILES IDX 79 46 30 47 82 48 76 49 75 50 31 52 63 53 43 54 62 55 44 56
REMARK SMILES IDX 47 57 61 58 80 59 45 60 46 61 60 63 81 64 48 65 32 66 33 67
REMARK SMILES IDX 41 68 34 69 35 70 39 71 42 72 36 73 37 74 40 75 38 76 64 77
REMARK SMILES IDX 65 78 73 79 66 80 67 81 71 82 74 83 68 84 69 85 72 86 70 87
REMARK SMILES IDX 49 88 50 89 58 90 51 91 52 92 56 93 59 94 53 95 54 96 57 97
REMARK SMILES IDX 55 98
REMARK H PARENT 7 24 7 25 7 26 79 51 47 62
REMARK Flexibility Score: inf
ROOT
ATOM      1  C   UNL     1      -0.380   7.121   4.674  1.00  0.00     0.188 C 
ENDROOT
BRANCH   1   2
ATOM      2  O   UNL     1      -0.657   6.382   5.860  1.00  0.00    -0.376 OA
BRANCH   2   3
ATOM      3  C   UNL     1      -0.338   4.996   5.891  1.00  0.00     0.202 C 
BRANCH   3   4
ATOM      4  C   UNL     1      -1.090   4.100   4.899  1.00  0.00     0.261 C 
BRANCH   4   5
ATOM      5  O   UNL     1      -1.010   4.559   3.532  1.00  0.00    -0.463 OA
BRANCH   5   6
ATOM      6  C   UNL     1      -2.168   4.701   2.853  1.00  0.00     0.312 C 
ATOM      7  O   UNL     1      -3.269   4.410   3.318  1.00  0.00    -0.252 OA
BRANCH   6   8
ATOM      8  C   UNL     1      -2.072   5.388   1.493  1.00  0.00     0.193 C 
BRANCH   8   9
ATOM      9  C   UNL     1      -0.764   5.511   0.669  1.00  0.00     0.230 C 
BRANCH   9  10
ATOM     10  C   UNL     1      -0.974   5.660  -0.849  1.00  0.00     0.091 A 
ATOM     11  C   UNL     1      -0.374   6.864  -2.935  1.00  0.00     0.161 A 
ATOM     12  C   UNL     1      -0.335   6.730  -1.527  1.00  0.00     0.067 A 
ATOM     13  C   UNL     1      -1.070   5.933  -3.710  1.00  0.00     0.167 A 
ATOM     14  C   UNL     1      -1.725   4.884  -3.059  1.00  0.00     0.136 A 
ATOM     15  C   UNL     1      -1.657   4.733  -1.664  1.00  0.00     0.282 A 
BRANCH  11  16
ATOM     16  O   UNL     1       0.461   7.795  -3.496  1.00  0.00    -0.493 OA
ATOM     17  C   UNL     1      -0.133   9.087  -3.618  1.00  0.00     0.278 C 
ENDBRANCH  11  16
BRANCH  13  18
ATOM     18  O   UNL     1      -1.168   5.824  -5.067  1.00  0.00    -0.493 OA
ATOM     19  C   UNL     1      -0.725   6.882  -5.897  1.00  0.00     0.278 C 
ENDBRANCH  13  18
BRANCH  15  20
ATOM     20  N   UNL     1      -2.254   3.508  -1.137  1.00  0.00     0.063 N 
ATOM     21  O   UNL     1      -1.580   2.831  -0.349  1.00  0.00    -0.258 OA
ATOM     22  O   UNL     1      -3.392   3.222  -1.530  1.00  0.00    -0.258 OA
ENDBRANCH  15  20
ENDBRANCH   9  10
BRANCH   9  23
ATOM     23  N   UNL     1       0.262   4.505   0.908  1.00  0.00    -0.351 N 
ATOM     24  H   UNL     1      -0.053   3.605   0.546  1.00  0.00     0.345 HD
ATOM     25  H   UNL     1       0.433   4.426   1.911  1.00  0.00     0.345 HD
ATOM     26  H   UNL     1       1.123   4.779   0.436  1.00  0.00     0.345 HD
ENDBRANCH   9  23
ENDBRANCH   8   9
ENDBRANCH   6   8
ENDBRANCH   5   6
ENDBRANCH   4   5
ENDBRANCH   3   4
ENDBRANCH   2   3
ENDBRANCH   1   2
BRANCH   1  27
ATOM     27  C   UNL     1       0.811   6.727   3.789  1.00  0.00     0.188 C 
BRANCH  27  28
ATOM     28  O   UNL     1       1.869   6.135   4.519  1.00  0.00    -0.376 OA
BRANCH  28  29
ATOM     29  C   UNL     1       3.167   6.486   4.067  1.00  0.00     0.202 C 
BRANCH  29  30
ATOM     30  C   UNL     1       3.636   7.704   4.864  1.00  0.00     0.261 C 
BRANCH  30  31
ATOM     31  O   UNL     1       2.780   8.858   4.717  1.00  0.00    -0.460 OA
BRANCH  31  32
ATOM     32  C   UNL     1       2.717   9.414   3.487  1.00  0.00     0.338 C 
ATOM     33  O   UNL     1       3.363   9.095   2.502  1.00  0.00    -0.246 OA
BRANCH  32  34
ATOM     34  C   UNL     1       1.562  10.341   3.450  1.00  0.00     0.060 A 
ATOM     35  C   UNL     1       0.640  10.234   2.397  1.00  0.00     0.016 A 
ATOM     36  C   UNL     1       1.387  11.308   4.441  1.00  0.00     0.016 A 
ATOM     37  C   UNL     1      -0.439  11.119   2.315  1.00  0.00     0.010 A 
ATOM     38  C   UNL     1       0.317  12.203   4.348  1.00  0.00     0.010 A 
ATOM     39  C   UNL     1      -0.583  12.136   3.268  1.00  0.00    -0.014 A 
BRANCH  39  40
ATOM     40  C   UNL     1      -1.548  13.244   3.050  1.00  0.00     0.031 A 
ATOM     41  C   UNL     1      -1.030  14.546   2.499  1.00  0.00     0.074 A 
ATOM     42  C   UNL     1      -2.855  13.119   3.344  1.00  0.00     0.049 A 
ATOM     43  N   UNL     1      -1.652  15.682   2.314  1.00  0.00    -0.248 NA
ATOM     44  C   UNL     1       0.390  14.567   2.110  1.00  0.00     0.031 C 
ATOM     45  C   UNL     1      -3.497  11.909   3.850  1.00  0.00     0.029 A 
ATOM     46  N   UNL     1      -3.874  14.040   3.277  1.00  0.00    -0.354 N 
ATOM     47  C   UNL     1      -0.699  16.555   1.806  1.00  0.00     0.074 A 
ATOM     48  C   UNL     1       0.548  15.826   1.731  1.00  0.00     0.031 C 
ATOM     49  C   UNL     1      -4.799  12.167   4.069  1.00  0.00     0.029 A 
ATOM     50  C   UNL     1      -5.073  13.570   3.755  1.00  0.00     0.049 A 
ATOM     51  H   UNL     1      -3.755  14.950   2.920  1.00  0.00     0.167 HD
ATOM     52  C   UNL     1      -0.850  17.847   1.429  1.00  0.00     0.037 A 
ATOM     53  C   UNL     1      -6.246  14.208   3.946  1.00  0.00     0.037 A 
ATOM     54  C   UNL     1      -2.088  18.576   1.500  1.00  0.00     0.049 A 
ATOM     55  C   UNL     1      -6.370  15.669   3.584  1.00  0.00     0.074 A 
ATOM     56  C   UNL     1      -2.343  19.880   1.110  1.00  0.00     0.029 A 
ATOM     57  N   UNL     1      -3.277  18.071   2.004  1.00  0.00    -0.354 N 
ATOM     58  N   UNL     1      -5.476  16.477   3.068  1.00  0.00    -0.248 NA
ATOM     59  C   UNL     1      -7.673  16.306   3.832  1.00  0.00     0.031 C 
ATOM     60  C   UNL     1      -3.669  20.183   1.436  1.00  0.00     0.029 A 
ATOM     61  C   UNL     1      -4.260  19.047   1.964  1.00  0.00     0.049 A 
ATOM     62  H   UNL     1      -3.403  17.154   2.341  1.00  0.00     0.167 HD
ATOM     63  C   UNL     1      -6.115  17.701   2.899  1.00  0.00     0.074 A 
ATOM     64  C   UNL     1      -7.477  17.527   3.355  1.00  0.00     0.031 C 
ATOM     65  C   UNL     1      -5.618  18.863   2.407  1.00  0.00     0.037 A 
BRANCH  52  66
ATOM     66  C   UNL     1       0.367  18.572   0.932  1.00  0.00     0.064 A 
ATOM     67  C   UNL     1       0.949  18.276  -0.309  1.00  0.00     0.173 A 
ATOM     68  C   UNL     1       0.931  19.609   1.691  1.00  0.00     0.173 A 
ATOM     69  F   UNL     1       0.457  17.284  -1.067  1.00  0.00    -0.203 F 
ATOM     70  C   UNL     1       2.064  18.976  -0.762  1.00  0.00     0.198 A 
ATOM     71  C   UNL     1       2.026  20.327   1.222  1.00  0.00     0.198 A 
ATOM     72  F   UNL     1       0.410  19.934   2.884  1.00  0.00    -0.203 F 
ATOM     73  F   UNL     1       2.632  18.645  -1.930  1.00  0.00    -0.200 F 
ATOM     74  C   UNL     1       2.596  20.006  -0.001  1.00  0.00     0.200 A 
ATOM     75  F   UNL     1       2.530  21.332   1.952  1.00  0.00    -0.200 F 
ATOM     76  F   UNL     1       3.663  20.686  -0.443  1.00  0.00    -0.200 F 
ENDBRANCH  52  66
BRANCH  53  77
ATOM     77  C   UNL     1      -7.404  13.482   4.535  1.00  0.00     0.064 A 
ATOM     78  C   UNL     1      -8.564  13.238   3.785  1.00  0.00     0.173 A 
ATOM     79  C   UNL     1      -7.393  13.059   5.872  1.00  0.00     0.173 A 
ATOM     80  F   UNL     1      -8.637  13.653   2.511  1.00  0.00    -0.203 F 
ATOM     81  C   UNL     1      -9.675  12.620   4.356  1.00  0.00     0.198 A 
ATOM     82  C   UNL     1      -8.493  12.412   6.433  1.00  0.00     0.198 A 
ATOM     83  F   UNL     1      -6.313  13.275   6.636  1.00  0.00    -0.203 F 
ATOM     84  F   UNL     1     -10.791  12.454   3.634  1.00  0.00    -0.200 F 
ATOM     85  C   UNL     1      -9.636  12.202   5.678  1.00  0.00     0.200 A 
ATOM     86  F   UNL     1      -8.448  12.003   7.708  1.00  0.00    -0.200 F 
ATOM     87  F   UNL     1     -10.706  11.611   6.227  1.00  0.00    -0.200 F 
ENDBRANCH  53  77
BRANCH  65  88
ATOM     88  C   UNL     1      -6.558  20.031   2.284  1.00  0.00     0.064 A 
ATOM     89  C   UNL     1      -7.042  20.716   3.408  1.00  0.00     0.173 A 
ATOM     90  C   UNL     1      -6.939  20.501   1.017  1.00  0.00     0.173 A 
ATOM     91  F   UNL     1      -6.718  20.302   4.643  1.00  0.00    -0.203 F 
ATOM     92  C   UNL     1      -7.893  21.811   3.269  1.00  0.00     0.198 A 
ATOM     93  C   UNL     1      -7.762  21.616   0.881  1.00  0.00     0.198 A 
ATOM     94  F   UNL     1      -6.498  19.890  -0.092  1.00  0.00    -0.203 F 
ATOM     95  F   UNL     1      -8.381  22.420   4.359  1.00  0.00    -0.200 F 
ATOM     96  C   UNL     1      -8.245  22.265   2.007  1.00  0.00     0.200 A 
ATOM     97  F   UNL     1      -8.086  22.063  -0.340  1.00  0.00    -0.200 F 
ATOM     98  F   UNL     1      -9.055  23.325   1.876  1.00  0.00    -0.200 F 
ENDBRANCH  65  88
ENDBRANCH  39  40
ENDBRANCH  32  34
ENDBRANCH  31  32
ENDBRANCH  30  31
ENDBRANCH  29  30
ENDBRANCH  28  29
ENDBRANCH  27  28
ENDBRANCH   1  27
TORSDOF 23
