REMARK SMILES C[C@@H]1[C@H](C(=O)OCCOCCOCCOC(=O)c2ccc(-c3c4nc(c(-c5c(F)c(F)c(F)c(F)c5F)c5ccc([nH]5)c(-c5c(F)c(F)c(F)c(F)c5F)c5nc(c(-c6c(F)c(F)c(F)c(F)c6F)c6ccc3[nH]6)C=C5)C=C4)cc2)CC[N@@H+]1[C@@H](C)c1cccc(C(F)(F)F)c1
REMARK SMILES IDX 10 1 9 2 8 3 7 4 6 5 4 6 5 7 3 8 1 9 2 10 83 11 81 12 82 13
REMARK SMILES IDX 84 15 85 16 86 17 87 18 95 19 88 20 90 21 89 22 91 23 92 24
REMARK SMILES IDX 93 25 94 26 11 27 12 28 13 29 14 30 15 31 16 32 17 33 18 34
REMARK SMILES IDX 19 35 80 36 20 37 79 38 21 39 22 40 23 41 73 42 24 43 78 44
REMARK SMILES IDX 72 45 74 46 25 47 77 48 71 49 70 50 26 52 58 53 38 54 57 55
REMARK SMILES IDX 39 56 42 57 56 58 75 59 40 60 41 61 55 63 76 64 43 65 27 66
REMARK SMILES IDX 28 67 36 68 29 69 30 70 34 71 37 72 31 73 32 74 35 75 33 76
REMARK SMILES IDX 59 77 60 78 68 79 61 80 62 81 66 82 69 83 63 84 64 85 67 86
REMARK SMILES IDX 65 87 44 88 45 89 53 90 46 91 47 92 51 93 54 94 48 95 49 96
REMARK SMILES IDX 52 97 50 98
REMARK H PARENT 83 14 74 51 42 62
REMARK Flexibility Score: inf
ROOT
ATOM      1  C   UNL     1       2.122   3.839  -1.511  1.00  0.00     0.188 C 
ENDROOT
BRANCH   1   2
ATOM      2  O   UNL     1       2.644   4.919  -0.768  1.00  0.00    -0.376 OA
BRANCH   2   3
ATOM      3  C   UNL     1       2.556   4.845   0.652  1.00  0.00     0.202 C 
BRANCH   3   4
ATOM      4  C   UNL     1       1.253   4.354   1.287  1.00  0.00     0.261 C 
BRANCH   4   5
ATOM      5  O   UNL     1       0.988   2.978   0.950  1.00  0.00    -0.463 OA
BRANCH   5   6
ATOM      6  C   UNL     1      -0.290   2.662   0.650  1.00  0.00     0.315 C 
ATOM      7  O   UNL     1      -1.210   3.475   0.676  1.00  0.00    -0.252 OA
BRANCH   6   8
ATOM      8  C   UNL     1      -0.512   1.230   0.183  1.00  0.00     0.162 C 
ATOM      9  C   UNL     1       1.659   0.300   1.290  1.00  0.00     0.076 C 
ATOM     10  C   UNL     1       0.507   0.076   0.326  1.00  0.00     0.196 C 
ATOM     11  N   UNL     1      -0.317  -1.131   0.568  1.00  0.00    -0.326 N 
ATOM     12  C   UNL     1      -1.743   0.708   0.911  1.00  0.00     0.083 C 
ATOM     13  C   UNL     1      -1.724  -0.780   0.674  1.00  0.00     0.264 C 
ATOM     14  H   UNL     1      -0.150  -1.665  -0.285  1.00  0.00     0.348 HD
BRANCH  11  15
ATOM     15  C   UNL     1       0.170  -2.306   1.304  1.00  0.00     0.212 C 
ATOM     16  C   UNL     1       0.582  -2.042   2.769  1.00  0.00     0.081 C 
BRANCH  15  17
ATOM     17  C   UNL     1      -0.800  -3.504   1.232  1.00  0.00     0.010 A 
ATOM     18  C   UNL     1      -1.548  -3.920   2.351  1.00  0.00     0.010 A 
ATOM     19  C   UNL     1      -0.946  -4.230   0.037  1.00  0.00     0.023 A 
ATOM     20  C   UNL     1      -2.346  -5.061   2.312  1.00  0.00     0.001 A 
ATOM     21  C   UNL     1      -1.774  -5.368  -0.023  1.00  0.00     0.056 A 
ATOM     22  C   UNL     1      -2.451  -5.787   1.134  1.00  0.00     0.013 A 
BRANCH  21  23
ATOM     23  C   UNL     1      -1.948  -6.157  -1.295  1.00  0.00     0.416 C 
ATOM     24  F   UNL     1      -1.461  -7.426  -1.190  1.00  0.00    -0.166 F 
ATOM     25  F   UNL     1      -3.259  -6.293  -1.645  1.00  0.00    -0.166 F 
ATOM     26  F   UNL     1      -1.330  -5.607  -2.376  1.00  0.00    -0.166 F 
ENDBRANCH  21  23
ENDBRANCH  15  17
ENDBRANCH  11  15
ENDBRANCH   6   8
ENDBRANCH   5   6
ENDBRANCH   4   5
ENDBRANCH   3   4
ENDBRANCH   2   3
ENDBRANCH   1   2
BRANCH   1  27
ATOM     27  C   UNL     1       2.853   2.493  -1.488  1.00  0.00     0.188 C 
BRANCH  27  28
ATOM     28  O   UNL     1       3.748   2.095  -0.470  1.00  0.00    -0.376 OA
BRANCH  28  29
ATOM     29  C   UNL     1       5.048   2.656  -0.365  1.00  0.00     0.202 C 
BRANCH  29  30
ATOM     30  C   UNL     1       6.058   2.623  -1.525  1.00  0.00     0.261 C 
BRANCH  30  31
ATOM     31  O   UNL     1       5.503   2.755  -2.833  1.00  0.00    -0.460 OA
BRANCH  31  32
ATOM     32  C   UNL     1       5.278   1.581  -3.477  1.00  0.00     0.338 C 
ATOM     33  O   UNL     1       5.580   0.459  -3.105  1.00  0.00    -0.246 OA
BRANCH  32  34
ATOM     34  C   UNL     1       4.359   1.857  -4.603  1.00  0.00     0.060 A 
ATOM     35  C   UNL     1       3.179   1.103  -4.696  1.00  0.00     0.016 A 
ATOM     36  C   UNL     1       4.605   2.904  -5.493  1.00  0.00     0.016 A 
ATOM     37  C   UNL     1       2.251   1.376  -5.699  1.00  0.00     0.010 A 
ATOM     38  C   UNL     1       3.689   3.159  -6.513  1.00  0.00     0.010 A 
ATOM     39  C   UNL     1       2.525   2.377  -6.639  1.00  0.00    -0.014 A 
BRANCH  39  40
ATOM     40  C   UNL     1       1.741   2.452  -7.893  1.00  0.00     0.031 A 
ATOM     41  C   UNL     1       2.301   1.756  -9.102  1.00  0.00     0.074 A 
ATOM     42  C   UNL     1       0.576   3.118  -7.971  1.00  0.00     0.049 A 
ATOM     43  N   UNL     1       1.882   1.766 -10.341  1.00  0.00    -0.248 NA
ATOM     44  C   UNL     1       3.509   0.944  -8.880  1.00  0.00     0.031 C 
ATOM     45  C   UNL     1      -0.098   3.784  -6.860  1.00  0.00     0.029 A 
ATOM     46  N   UNL     1      -0.237   3.353  -9.052  1.00  0.00    -0.354 N 
ATOM     47  C   UNL     1       2.777   0.970 -11.043  1.00  0.00     0.074 A 
ATOM     48  C   UNL     1       3.782   0.523 -10.104  1.00  0.00     0.031 C 
ATOM     49  C   UNL     1      -1.218   4.370  -7.321  1.00  0.00     0.029 A 
ATOM     50  C   UNL     1      -1.315   4.154  -8.765  1.00  0.00     0.049 A 
ATOM     51  H   UNL     1      -0.064   2.983  -9.947  1.00  0.00     0.167 HD
ATOM     52  C   UNL     1       2.759   0.634 -12.353  1.00  0.00     0.037 A 
ATOM     53  C   UNL     1      -2.251   4.673  -9.585  1.00  0.00     0.037 A 
ATOM     54  C   UNL     1       1.764   1.087 -13.287  1.00  0.00     0.049 A 
ATOM     55  C   UNL     1      -2.190   4.367 -11.064  1.00  0.00     0.074 A 
ATOM     56  C   UNL     1       1.658   0.807 -14.637  1.00  0.00     0.029 A 
ATOM     57  N   UNL     1       0.706   1.924 -12.966  1.00  0.00    -0.354 N 
ATOM     58  N   UNL     1      -1.350   3.606 -11.723  1.00  0.00    -0.248 NA
ATOM     59  C   UNL     1      -3.213   4.997 -11.913  1.00  0.00     0.031 C 
ATOM     60  C   UNL     1       0.568   1.518 -15.145  1.00  0.00     0.029 A 
ATOM     61  C   UNL     1      -0.045   2.189 -14.099  1.00  0.00     0.049 A 
ATOM     62  H   UNL     1       0.516   2.276 -12.066  1.00  0.00     0.167 HD
ATOM     63  C   UNL     1      -1.765   3.634 -13.050  1.00  0.00     0.074 A 
ATOM     64  C   UNL     1      -2.939   4.479 -13.101  1.00  0.00     0.031 C 
ATOM     65  C   UNL     1      -1.225   3.015 -14.130  1.00  0.00     0.037 A 
BRANCH  52  66
ATOM     66  C   UNL     1       3.865  -0.245 -12.856  1.00  0.00     0.064 A 
ATOM     67  C   UNL     1       3.957  -1.597 -12.489  1.00  0.00     0.173 A 
ATOM     68  C   UNL     1       4.832   0.264 -13.736  1.00  0.00     0.173 A 
ATOM     69  F   UNL     1       3.069  -2.127 -11.633  1.00  0.00    -0.203 F 
ATOM     70  C   UNL     1       4.990  -2.399 -12.966  1.00  0.00     0.198 A 
ATOM     71  C   UNL     1       5.843  -0.550 -14.237  1.00  0.00     0.198 A 
ATOM     72  F   UNL     1       4.790   1.549 -14.116  1.00  0.00    -0.203 F 
ATOM     73  F   UNL     1       5.087  -3.673 -12.562  1.00  0.00    -0.200 F 
ATOM     74  C   UNL     1       5.926  -1.878 -13.846  1.00  0.00     0.200 A 
ATOM     75  F   UNL     1       6.740  -0.048 -15.097  1.00  0.00    -0.200 F 
ATOM     76  F   UNL     1       6.914  -2.654 -14.313  1.00  0.00    -0.200 F 
ENDBRANCH  52  66
BRANCH  53  77
ATOM     77  C   UNL     1      -3.321   5.556  -9.046  1.00  0.00     0.064 A 
ATOM     78  C   UNL     1      -4.667   5.164  -9.084  1.00  0.00     0.173 A 
ATOM     79  C   UNL     1      -3.030   6.829  -8.535  1.00  0.00     0.173 A 
ATOM     80  F   UNL     1      -5.002   3.969  -9.593  1.00  0.00    -0.203 F 
ATOM     81  C   UNL     1      -5.681   6.021  -8.659  1.00  0.00     0.198 A 
ATOM     82  C   UNL     1      -4.041   7.672  -8.078  1.00  0.00     0.198 A 
ATOM     83  F   UNL     1      -1.760   7.258  -8.483  1.00  0.00    -0.203 F 
ATOM     84  F   UNL     1      -6.962   5.645  -8.767  1.00  0.00    -0.200 F 
ATOM     85  C   UNL     1      -5.367   7.272  -8.152  1.00  0.00     0.200 A 
ATOM     86  F   UNL     1      -3.732   8.878  -7.582  1.00  0.00    -0.200 F 
ATOM     87  F   UNL     1      -6.341   8.098  -7.748  1.00  0.00    -0.200 F 
ENDBRANCH  53  77
BRANCH  65  88
ATOM     88  C   UNL     1      -1.926   3.176 -15.449  1.00  0.00     0.064 A 
ATOM     89  C   UNL     1      -1.926   4.392 -16.148  1.00  0.00     0.173 A 
ATOM     90  C   UNL     1      -2.565   2.077 -16.047  1.00  0.00     0.173 A 
ATOM     91  F   UNL     1      -1.339   5.475 -15.617  1.00  0.00    -0.203 F 
ATOM     92  C   UNL     1      -2.562   4.510 -17.381  1.00  0.00     0.198 A 
ATOM     93  C   UNL     1      -3.170   2.190 -17.296  1.00  0.00     0.198 A 
ATOM     94  F   UNL     1      -2.587   0.887 -15.428  1.00  0.00    -0.203 F 
ATOM     95  F   UNL     1      -2.592   5.695 -18.007  1.00  0.00    -0.200 F 
ATOM     96  C   UNL     1      -3.176   3.408 -17.958  1.00  0.00     0.200 A 
ATOM     97  F   UNL     1      -3.745   1.118 -17.859  1.00  0.00    -0.200 F 
ATOM     98  F   UNL     1      -3.778   3.521 -19.150  1.00  0.00    -0.200 F 
ENDBRANCH  65  88
ENDBRANCH  39  40
ENDBRANCH  32  34
ENDBRANCH  31  32
ENDBRANCH  30  31
ENDBRANCH  29  30
ENDBRANCH  28  29
ENDBRANCH  27  28
ENDBRANCH   1  27
TORSDOF 20
