REMARK SMILES C[C@@H]1[C@@H](C(=O)OCCOCCOCCOC(=O)c2ccc(-c3c4nc(c(-c5c(F)c(F)c(F)c(F)c5F)c5ccc([nH]5)c(-c5c(F)c(F)c(F)c(F)c5F)c5nc(c(-c6c(F)c(F)c(F)c(F)c6F)c6ccc3[nH]6)C=C5)C=C4)cc2)CC[N@@H+]1C[C@H]1Cc2ccccc2O1
REMARK SMILES IDX 10 1 9 2 8 3 7 4 6 5 4 6 5 7 3 8 1 9 2 10 83 11 81 12 82 13
REMARK SMILES IDX 84 15 85 16 86 17 93 18 87 19 92 20 88 21 91 22 89 23 90 24
REMARK SMILES IDX 11 25 12 26 13 27 14 28 15 29 16 30 17 31 18 32 19 33 80 34
REMARK SMILES IDX 20 35 79 36 21 37 22 38 23 39 73 40 24 41 78 42 72 43 74 44
REMARK SMILES IDX 25 45 77 46 71 47 70 48 26 50 58 51 38 52 57 53 39 54 42 55
REMARK SMILES IDX 56 56 75 57 40 58 41 59 55 61 76 62 43 63 27 64 28 65 36 66
REMARK SMILES IDX 29 67 30 68 34 69 37 70 31 71 32 72 35 73 33 74 59 75 60 76
REMARK SMILES IDX 68 77 61 78 62 79 66 80 69 81 63 82 64 83 67 84 65 85 44 86
REMARK SMILES IDX 45 87 53 88 46 89 47 90 51 91 54 92 48 93 49 94 52 95 50 96
REMARK H PARENT 83 14 74 49 42 60
REMARK Flexibility Score: inf
ROOT
ATOM      1  C   UNL     1      -2.300   2.453  -2.381  1.00  0.00     0.188 C 
ENDROOT
BRANCH   1   2
ATOM      2  O   UNL     1      -1.917   2.930  -3.653  1.00  0.00    -0.376 OA
BRANCH   2   3
ATOM      3  C   UNL     1      -1.266   2.117  -4.614  1.00  0.00     0.202 C 
BRANCH   3   4
ATOM      4  C   UNL     1      -0.358   0.924  -4.285  1.00  0.00     0.261 C 
BRANCH   4   5
ATOM      5  O   UNL     1      -0.604   0.279  -3.044  1.00  0.00    -0.463 OA
BRANCH   5   6
ATOM      6  C   UNL     1       0.220   0.648  -2.020  1.00  0.00     0.315 C 
ATOM      7  O   UNL     1       1.121   1.466  -2.101  1.00  0.00    -0.252 OA
BRANCH   6   8
ATOM      8  C   UNL     1      -0.254  -0.044  -0.761  1.00  0.00     0.162 C 
ATOM      9  C   UNL     1      -0.516   0.675   1.620  1.00  0.00     0.076 C 
ATOM     10  C   UNL     1       0.498   0.389   0.501  1.00  0.00     0.195 C 
ATOM     11  N   UNL     1       1.480  -0.685   0.703  1.00  0.00    -0.329 N 
ATOM     12  C   UNL     1      -0.010  -1.532  -0.878  1.00  0.00     0.083 C 
ATOM     13  C   UNL     1       1.420  -1.632  -0.401  1.00  0.00     0.263 C 
ATOM     14  H   UNL     1       2.373  -0.193   0.677  1.00  0.00     0.348 HD
BRANCH  11  15
ATOM     15  C   UNL     1       1.765  -1.213   2.027  1.00  0.00     0.308 C 
BRANCH  15  16
ATOM     16  C   UNL     1       0.751  -2.155   2.698  1.00  0.00     0.232 C 
ATOM     17  C   UNL     1       0.496  -3.492   1.991  1.00  0.00     0.090 C 
ATOM     18  O   UNL     1       1.216  -2.475   4.045  1.00  0.00    -0.484 OA
ATOM     19  C   UNL     1       0.059  -4.266   3.171  1.00  0.00    -0.002 A 
ATOM     20  C   UNL     1       0.551  -3.647   4.310  1.00  0.00     0.123 A 
ATOM     21  C   UNL     1      -0.689  -5.424   3.243  1.00  0.00     0.007 A 
ATOM     22  C   UNL     1       0.348  -4.170   5.565  1.00  0.00     0.047 A 
ATOM     23  C   UNL     1      -0.940  -5.952   4.509  1.00  0.00     0.001 A 
ATOM     24  C   UNL     1      -0.418  -5.334   5.661  1.00  0.00     0.004 A 
ENDBRANCH  15  16
ENDBRANCH  11  15
ENDBRANCH   6   8
ENDBRANCH   5   6
ENDBRANCH   4   5
ENDBRANCH   3   4
ENDBRANCH   2   3
ENDBRANCH   1   2
BRANCH   1  25
ATOM     25  C   UNL     1      -3.321   1.306  -2.238  1.00  0.00     0.188 C 
BRANCH  25  26
ATOM     26  O   UNL     1      -3.647   0.566  -3.385  1.00  0.00    -0.376 OA
BRANCH  26  27
ATOM     27  C   UNL     1      -4.535   1.128  -4.335  1.00  0.00     0.202 C 
BRANCH  27  28
ATOM     28  C   UNL     1      -5.396   2.394  -4.117  1.00  0.00     0.261 C 
BRANCH  28  29
ATOM     29  O   UNL     1      -4.965   3.364  -3.148  1.00  0.00    -0.460 OA
BRANCH  29  30
ATOM     30  C   UNL     1      -5.715   3.456  -2.021  1.00  0.00     0.338 C 
ATOM     31  O   UNL     1      -6.711   2.800  -1.742  1.00  0.00    -0.246 OA
BRANCH  30  32
ATOM     32  C   UNL     1      -5.048   4.338  -1.040  1.00  0.00     0.060 A 
ATOM     33  C   UNL     1      -4.542   3.781   0.146  1.00  0.00     0.016 A 
ATOM     34  C   UNL     1      -4.958   5.711  -1.264  1.00  0.00     0.016 A 
ATOM     35  C   UNL     1      -3.957   4.599   1.117  1.00  0.00     0.010 A 
ATOM     36  C   UNL     1      -4.399   6.532  -0.276  1.00  0.00     0.010 A 
ATOM     37  C   UNL     1      -3.920   5.986   0.931  1.00  0.00    -0.014 A 
BRANCH  37  38
ATOM     38  C   UNL     1      -3.564   6.889   2.057  1.00  0.00     0.031 A 
ATOM     39  C   UNL     1      -4.679   7.528   2.841  1.00  0.00     0.074 A 
ATOM     40  C   UNL     1      -2.285   7.151   2.383  1.00  0.00     0.049 A 
ATOM     41  N   UNL     1      -4.627   8.434   3.785  1.00  0.00    -0.248 NA
ATOM     42  C   UNL     1      -6.043   7.086   2.507  1.00  0.00     0.031 C 
ATOM     43  C   UNL     1      -1.111   6.561   1.748  1.00  0.00     0.029 A 
ATOM     44  N   UNL     1      -1.765   8.003   3.329  1.00  0.00    -0.354 N 
ATOM     45  C   UNL     1      -5.946   8.674   4.150  1.00  0.00     0.074 A 
ATOM     46  C   UNL     1      -6.778   7.845   3.305  1.00  0.00     0.031 C 
ATOM     47  C   UNL     1      -0.004   7.083   2.308  1.00  0.00     0.029 A 
ATOM     48  C   UNL     1      -0.393   8.074   3.312  1.00  0.00     0.049 A 
ATOM     49  H   UNL     1      -2.323   8.515   3.958  1.00  0.00     0.167 HD
ATOM     50  C   UNL     1      -6.422   9.505   5.109  1.00  0.00     0.037 A 
ATOM     51  C   UNL     1       0.448   8.870   4.004  1.00  0.00     0.037 A 
ATOM     52  C   UNL     1      -5.598  10.338   5.944  1.00  0.00     0.049 A 
ATOM     53  C   UNL     1      -0.114   9.864   4.993  1.00  0.00     0.074 A 
ATOM     54  C   UNL     1      -5.988  11.213   6.944  1.00  0.00     0.029 A 
ATOM     55  N   UNL     1      -4.214  10.405   5.872  1.00  0.00    -0.354 N 
ATOM     56  N   UNL     1      -1.359  10.078   5.344  1.00  0.00    -0.248 NA
ATOM     57  C   UNL     1       0.854  10.731   5.684  1.00  0.00     0.031 C 
ATOM     58  C   UNL     1      -4.846  11.852   7.436  1.00  0.00     0.029 A 
ATOM     59  C   UNL     1      -3.738  11.327   6.792  1.00  0.00     0.049 A 
ATOM     60  H   UNL     1      -3.654   9.877   5.259  1.00  0.00     0.167 HD
ATOM     61  C   UNL     1      -1.321  11.068   6.320  1.00  0.00     0.074 A 
ATOM     62  C   UNL     1       0.072  11.406   6.515  1.00  0.00     0.031 C 
ATOM     63  C   UNL     1      -2.347  11.643   6.995  1.00  0.00     0.037 A 
BRANCH  50  64
ATOM     64  C   UNL     1      -7.912   9.575   5.289  1.00  0.00     0.064 A 
ATOM     65  C   UNL     1      -8.640   8.504   5.828  1.00  0.00     0.173 A 
ATOM     66  C   UNL     1      -8.614  10.742   4.953  1.00  0.00     0.173 A 
ATOM     67  F   UNL     1      -8.019   7.360   6.153  1.00  0.00    -0.203 F 
ATOM     68  C   UNL     1     -10.020   8.589   5.999  1.00  0.00     0.198 A 
ATOM     69  C   UNL     1      -9.988  10.836   5.157  1.00  0.00     0.198 A 
ATOM     70  F   UNL     1      -7.966  11.798   4.438  1.00  0.00    -0.203 F 
ATOM     71  F   UNL     1     -10.701   7.536   6.470  1.00  0.00    -0.200 F 
ATOM     72  C   UNL     1     -10.691   9.758   5.672  1.00  0.00     0.200 A 
ATOM     73  F   UNL     1     -10.633  11.972   4.854  1.00  0.00    -0.200 F 
ATOM     74  F   UNL     1     -12.017   9.842   5.847  1.00  0.00    -0.200 F 
ENDBRANCH  50  64
BRANCH  51  75
ATOM     75  C   UNL     1       1.918   8.787   3.782  1.00  0.00     0.064 A 
ATOM     76  C   UNL     1       2.780   8.358   4.802  1.00  0.00     0.173 A 
ATOM     77  C   UNL     1       2.498   9.188   2.569  1.00  0.00     0.173 A 
ATOM     78  F   UNL     1       2.278   7.997   5.993  1.00  0.00    -0.203 F 
ATOM     79  C   UNL     1       4.162   8.358   4.628  1.00  0.00     0.198 A 
ATOM     80  C   UNL     1       3.879   9.155   2.384  1.00  0.00     0.198 A 
ATOM     81  F   UNL     1       1.723   9.618   1.563  1.00  0.00    -0.203 F 
ATOM     82  F   UNL     1       4.963   8.007   5.643  1.00  0.00    -0.200 F 
ATOM     83  C   UNL     1       4.711   8.752   3.417  1.00  0.00     0.200 A 
ATOM     84  F   UNL     1       4.404   9.530   1.209  1.00  0.00    -0.200 F 
ATOM     85  F   UNL     1       6.041   8.758   3.252  1.00  0.00    -0.200 F 
ENDBRANCH  51  75
BRANCH  63  86
ATOM     86  C   UNL     1      -2.007  12.657   8.053  1.00  0.00     0.064 A 
ATOM     87  C   UNL     1      -1.501  13.925   7.732  1.00  0.00     0.173 A 
ATOM     88  C   UNL     1      -2.237  12.368   9.408  1.00  0.00     0.173 A 
ATOM     89  F   UNL     1      -1.252  14.249   6.455  1.00  0.00    -0.203 F 
ATOM     90  C   UNL     1      -1.211  14.854   8.729  1.00  0.00     0.198 A 
ATOM     91  C   UNL     1      -1.980  13.312  10.398  1.00  0.00     0.198 A 
ATOM     92  F   UNL     1      -2.730  11.174   9.771  1.00  0.00    -0.203 F 
ATOM     93  F   UNL     1      -0.679  16.040   8.402  1.00  0.00    -0.200 F 
ATOM     94  C   UNL     1      -1.458  14.550  10.059  1.00  0.00     0.200 A 
ATOM     95  F   UNL     1      -2.238  13.022  11.681  1.00  0.00    -0.200 F 
ATOM     96  F   UNL     1      -1.189  15.450  11.016  1.00  0.00    -0.200 F 
ENDBRANCH  63  86
ENDBRANCH  37  38
ENDBRANCH  30  32
ENDBRANCH  29  30
ENDBRANCH  28  29
ENDBRANCH  27  28
ENDBRANCH  26  27
ENDBRANCH  25  26
ENDBRANCH   1  25
TORSDOF 19
