REMARK SMILES CC(=O)NS(=O)(=O)c1cc(-c2ccn(C(F)F)c(=O)c2)ccc1C(=O)OCCOCCOCCOC(=O)c1ccc(-c2c3nc(c(-c4c(F)c(F)c(F)c(F)c4F)c4ccc([nH]4)c(-c4c(F)c(F)c(F)c(F)c4F)c4nc(c(-c5c(F)c(F)c(F)c(F)c5F)c5ccc2[nH]5)C=C4)C=C3)cc1
REMARK SMILES IDX 30 1 29 2 28 3 27 4 26 5 24 6 25 7 23 8 8 9 9 10 10 11 22 12
REMARK SMILES IDX 21 13 5 14 6 15 7 16 4 17 1 18 2 19 3 20 11 22 12 23 20 24
REMARK SMILES IDX 13 25 18 26 14 27 19 28 15 29 16 30 17 31 31 32 32 33 33 34
REMARK SMILES IDX 34 35 35 36 36 37 37 38 38 39 39 40 100 41 40 42 99 43 41 44
REMARK SMILES IDX 42 45 43 46 93 47 44 48 98 49 92 50 94 51 45 52 97 53 91 54
REMARK SMILES IDX 90 55 46 57 78 58 58 59 77 60 59 61 62 62 76 63 95 64 60 65
REMARK SMILES IDX 61 66 75 68 96 69 63 70 47 71 48 72 56 73 49 74 50 75 54 76
REMARK SMILES IDX 57 77 51 78 52 79 55 80 53 81 79 82 80 83 88 84 81 85 82 86
REMARK SMILES IDX 86 87 89 88 83 89 84 90 87 91 85 92 64 93 65 94 73 95 66 96
REMARK SMILES IDX 67 97 71 98 74 99 68 100 69 101 72 102 70 103
REMARK H PARENT 4 21 94 56 62 67
REMARK Flexibility Score: inf
ROOT
ATOM      1  C   UNL     1       0.694   4.980  -3.420  1.00  0.00     0.188 C 
ENDROOT
BRANCH   1   2
ATOM      2  O   UNL     1       1.070   4.996  -4.790  1.00  0.00    -0.376 OA
BRANCH   2   3
ATOM      3  C   UNL     1       2.469   4.978  -5.052  1.00  0.00     0.202 C 
BRANCH   3   4
ATOM      4  C   UNL     1       3.067   3.573  -4.990  1.00  0.00     0.261 C 
BRANCH   4   5
ATOM      5  O   UNL     1       2.876   2.946  -3.711  1.00  0.00    -0.460 OA
BRANCH   5   6
ATOM      6  C   UNL     1       3.776   3.187  -2.750  1.00  0.00     0.339 C 
ATOM      7  O   UNL     1       4.729   3.944  -2.831  1.00  0.00    -0.246 OA
BRANCH   6   8
ATOM      8  C   UNL     1       3.355   2.555  -1.473  1.00  0.00     0.080 A 
ATOM      9  C   UNL     1       2.997   1.213  -1.292  1.00  0.00     0.103 A 
ATOM     10  C   UNL     1       2.846   0.710   0.009  1.00  0.00     0.032 A 
ATOM     11  C   UNL     1       2.862   1.557   1.123  1.00  0.00    -0.017 A 
ATOM     12  C   UNL     1       3.401   3.400  -0.346  1.00  0.00     0.018 A 
ATOM     13  C   UNL     1       3.113   2.915   0.935  1.00  0.00     0.010 A 
BRANCH   9  14
ATOM     14  S   UNL     1       2.580   0.146  -2.646  1.00  0.00     0.264 S 
ATOM     15  O   UNL     1       3.828  -0.309  -3.215  1.00  0.00    -0.201 OA
ATOM     16  O   UNL     1       1.537   0.749  -3.431  1.00  0.00    -0.201 OA
BRANCH  14  17
ATOM     17  N   UNL     1       1.868  -1.211  -1.937  1.00  0.00    -0.249 N 
ATOM     18  C   UNL     1      -0.101  -0.417  -0.630  1.00  0.00     0.115 C 
ATOM     19  C   UNL     1       0.471  -1.290  -1.718  1.00  0.00     0.230 C 
ATOM     20  O   UNL     1      -0.170  -2.196  -2.232  1.00  0.00    -0.274 OA
ATOM     21  H   UNL     1       2.439  -1.967  -1.669  1.00  0.00     0.183 HD
ENDBRANCH  14  17
ENDBRANCH   9  14
BRANCH  11  22
ATOM     22  C   UNL     1       2.517   1.002   2.444  1.00  0.00    -0.011 A 
ATOM     23  C   UNL     1       1.268   1.309   3.116  1.00  0.00     0.027 A 
ATOM     24  C   UNL     1       3.354   0.109   2.999  1.00  0.00     0.080 A 
ATOM     25  C   UNL     1       0.943   0.694   4.259  1.00  0.00     0.095 A 
ATOM     26  C   UNL     1       3.010  -0.576   4.276  1.00  0.00     0.255 A 
ATOM     27  N   UNL     1       1.789  -0.236   4.834  1.00  0.00    -0.258 N 
ATOM     28  O   UNL     1       3.804  -1.393   4.730  1.00  0.00    -0.269 OA
BRANCH  27  29
ATOM     29  C   UNL     1       1.424  -0.903   6.058  1.00  0.00     0.451 C 
ATOM     30  F   UNL     1       1.360  -2.245   5.878  1.00  0.00    -0.185 F 
ATOM     31  F   UNL     1       2.327  -0.652   7.036  1.00  0.00    -0.185 F 
ENDBRANCH  27  29
ENDBRANCH  11  22
ENDBRANCH   6   8
ENDBRANCH   5   6
ENDBRANCH   4   5
ENDBRANCH   3   4
ENDBRANCH   2   3
ENDBRANCH   1   2
BRANCH   1  32
ATOM     32  C   UNL     1      -0.018   3.695  -2.954  1.00  0.00     0.188 C 
BRANCH  32  33
ATOM     33  O   UNL     1      -0.864   2.929  -3.799  1.00  0.00    -0.376 OA
BRANCH  33  34
ATOM     34  C   UNL     1      -1.424   3.501  -4.966  1.00  0.00     0.202 C 
BRANCH  34  35
ATOM     35  C   UNL     1      -2.628   4.416  -4.742  1.00  0.00     0.261 C 
BRANCH  35  36
ATOM     36  O   UNL     1      -2.404   5.420  -3.742  1.00  0.00    -0.460 OA
BRANCH  36  37
ATOM     37  C   UNL     1      -2.932   5.140  -2.527  1.00  0.00     0.338 C 
ATOM     38  O   UNL     1      -3.607   4.176  -2.208  1.00  0.00    -0.246 OA
BRANCH  37  39
ATOM     39  C   UNL     1      -2.448   6.123  -1.539  1.00  0.00     0.060 A 
ATOM     40  C   UNL     1      -1.954   5.634  -0.322  1.00  0.00     0.016 A 
ATOM     41  C   UNL     1      -2.524   7.499  -1.772  1.00  0.00     0.016 A 
ATOM     42  C   UNL     1      -1.563   6.518   0.679  1.00  0.00     0.010 A 
ATOM     43  C   UNL     1      -2.156   8.386  -0.757  1.00  0.00     0.010 A 
ATOM     44  C   UNL     1      -1.703   7.897   0.481  1.00  0.00    -0.014 A 
BRANCH  44  45
ATOM     45  C   UNL     1      -1.548   8.810   1.636  1.00  0.00     0.031 A 
ATOM     46  C   UNL     1      -2.763   9.138   2.457  1.00  0.00     0.074 A 
ATOM     47  C   UNL     1      -0.346   9.310   1.967  1.00  0.00     0.049 A 
ATOM     48  N   UNL     1      -2.872   9.909   3.508  1.00  0.00    -0.248 NA
ATOM     49  C   UNL     1      -4.024   8.506   2.039  1.00  0.00     0.031 C 
ATOM     50  C   UNL     1       0.906   9.032   1.269  1.00  0.00     0.029 A 
ATOM     51  N   UNL     1       0.011  10.166   2.978  1.00  0.00    -0.354 N 
ATOM     52  C   UNL     1      -4.208   9.850   3.879  1.00  0.00     0.074 A 
ATOM     53  C   UNL     1      -4.878   8.989   2.929  1.00  0.00     0.031 C 
ATOM     54  C   UNL     1       1.897   9.720   1.864  1.00  0.00     0.029 A 
ATOM     55  C   UNL     1       1.341  10.502   2.968  1.00  0.00     0.049 A 
ATOM     56  H   UNL     1      -0.626  10.506   3.647  1.00  0.00     0.167 HD
ATOM     57  C   UNL     1      -4.821  10.457   4.922  1.00  0.00     0.037 A 
ATOM     58  C   UNL     1       2.022  11.362   3.750  1.00  0.00     0.037 A 
ATOM     59  C   UNL     1      -4.160  11.330   5.854  1.00  0.00     0.049 A 
ATOM     60  C   UNL     1       1.298  12.090   4.854  1.00  0.00     0.074 A 
ATOM     61  C   UNL     1      -4.692  11.986   6.950  1.00  0.00     0.029 A 
ATOM     62  N   UNL     1      -2.820  11.680   5.787  1.00  0.00    -0.354 N 
ATOM     63  N   UNL     1       0.043  12.002   5.220  1.00  0.00    -0.248 NA
ATOM     64  C   UNL     1       2.090  13.037   5.653  1.00  0.00     0.031 C 
ATOM     65  C   UNL     1      -3.682  12.768   7.521  1.00  0.00     0.029 A 
ATOM     66  C   UNL     1      -2.512  12.564   6.808  1.00  0.00     0.049 A 
ATOM     67  H   UNL     1      -2.182  11.349   5.114  1.00  0.00     0.167 HD
ATOM     68  C   UNL     1      -0.101  12.861   6.302  1.00  0.00     0.074 A 
ATOM     69  C   UNL     1       1.199  13.452   6.542  1.00  0.00     0.031 C 
ATOM     70  C   UNL     1      -1.210  13.137   7.032  1.00  0.00     0.037 A 
BRANCH  57  71
ATOM     71  C   UNL     1      -6.290  10.214   5.090  1.00  0.00     0.064 A 
ATOM     72  C   UNL     1      -6.780   8.988   5.562  1.00  0.00     0.173 A 
ATOM     73  C   UNL     1      -7.216  11.224   4.792  1.00  0.00     0.173 A 
ATOM     74  F   UNL     1      -5.934   7.985   5.842  1.00  0.00    -0.203 F 
ATOM     75  C   UNL     1      -8.148   8.775   5.711  1.00  0.00     0.198 A 
ATOM     76  C   UNL     1      -8.582  11.016   4.964  1.00  0.00     0.198 A 
ATOM     77  F   UNL     1      -6.796  12.413   4.335  1.00  0.00    -0.203 F 
ATOM     78  F   UNL     1      -8.598   7.582   6.125  1.00  0.00    -0.200 F 
ATOM     79  C   UNL     1      -9.047   9.790   5.417  1.00  0.00     0.200 A 
ATOM     80  F   UNL     1      -9.448  11.999   4.685  1.00  0.00    -0.200 F 
ATOM     81  F   UNL     1     -10.363   9.584   5.563  1.00  0.00    -0.200 F 
ENDBRANCH  57  71
BRANCH  58  82
ATOM     82  C   UNL     1       3.469  11.598   3.512  1.00  0.00     0.064 A 
ATOM     83  C   UNL     1       4.434  11.153   4.425  1.00  0.00     0.173 A 
ATOM     84  C   UNL     1       3.912  12.295   2.378  1.00  0.00     0.173 A 
ATOM     85  F   UNL     1       4.055  10.504   5.535  1.00  0.00    -0.203 F 
ATOM     86  C   UNL     1       5.788  11.411   4.221  1.00  0.00     0.198 A 
ATOM     87  C   UNL     1       5.268  12.531   2.164  1.00  0.00     0.198 A 
ATOM     88  F   UNL     1       3.027  12.744   1.477  1.00  0.00    -0.203 F 
ATOM     89  F   UNL     1       6.687  11.012   5.131  1.00  0.00    -0.200 F 
ATOM     90  C   UNL     1       6.205  12.095   3.089  1.00  0.00     0.200 A 
ATOM     91  F   UNL     1       5.667  13.185   1.064  1.00  0.00    -0.200 F 
ATOM     92  F   UNL     1       7.507  12.343   2.894  1.00  0.00    -0.200 F 
ENDBRANCH  58  82
BRANCH  70  93
ATOM     93  C   UNL     1      -1.061  14.098   8.175  1.00  0.00     0.064 A 
ATOM     94  C   UNL     1      -0.913  15.476   7.960  1.00  0.00     0.173 A 
ATOM     95  C   UNL     1      -1.113  13.640   9.499  1.00  0.00     0.173 A 
ATOM     96  F   UNL     1      -0.843  15.960   6.711  1.00  0.00    -0.203 F 
ATOM     97  C   UNL     1      -0.802  16.358   9.031  1.00  0.00     0.198 A 
ATOM     98  C   UNL     1      -1.028  14.528  10.568  1.00  0.00     0.198 A 
ATOM     99  F   UNL     1      -1.260  12.332   9.757  1.00  0.00    -0.203 F 
ATOM    100  F   UNL     1      -0.620  17.666   8.803  1.00  0.00    -0.200 F 
ATOM    101  C   UNL     1      -0.867  15.885  10.334  1.00  0.00     0.200 A 
ATOM    102  F   UNL     1      -1.102  14.069  11.825  1.00  0.00    -0.200 F 
ATOM    103  F   UNL     1      -0.766  16.736  11.363  1.00  0.00    -0.200 F 
ENDBRANCH  70  93
ENDBRANCH  44  45
ENDBRANCH  37  39
ENDBRANCH  36  37
ENDBRANCH  35  36
ENDBRANCH  34  35
ENDBRANCH  33  34
ENDBRANCH  32  33
ENDBRANCH   1  32
TORSDOF 21
