REMARK SMILES O=C(N[C@@H](Cc1ccccc1)C(=O)N[C@@H](CS)C(=O)N[C@@H](CO)C(=O)OCCOCCOCCOC(=O)c1ccc(-c2c3nc(c(-c4c(F)c(F)c(F)c(F)c4F)c4ccc([nH]4)c(-c4c(F)c(F)c(F)c(F)c4F)c4nc(c(-c5c(F)c(F)c(F)c(F)c5F)c5ccc2[nH]5)C=C4)C=C3)cc1)c1ccc(F)cc1
REMARK SMILES IDX 28 1 27 2 26 3 24 4 25 5 21 6 20 7 18 8 19 9 15 11 14 12
REMARK SMILES IDX 12 13 13 14 4 16 3 17 1 18 2 19 101 21 102 22 107 23 103 24
REMARK SMILES IDX 106 25 104 26 105 27 5 28 6 29 7 30 11 31 8 32 10 33 9 34
REMARK SMILES IDX 16 35 17 36 22 38 23 39 29 41 30 42 31 43 32 44 33 45 34 46
REMARK SMILES IDX 35 47 36 48 37 49 38 50 39 51 100 52 40 53 99 54 41 55 42 56
REMARK SMILES IDX 43 57 93 58 44 59 98 60 92 61 94 62 45 63 97 64 91 65 90 66
REMARK SMILES IDX 46 68 78 69 58 70 77 71 59 72 62 73 76 74 95 75 60 76 61 77
REMARK SMILES IDX 75 79 96 80 63 81 47 82 48 83 56 84 49 85 50 86 54 87 57 88
REMARK SMILES IDX 51 89 52 90 55 91 53 92 79 93 80 94 88 95 81 96 82 97 86 98
REMARK SMILES IDX 89 99 83 100 84 101 87 102 85 103 64 104 65 105 73 106
REMARK SMILES IDX 66 107 67 108 71 109 74 110 68 111 69 112 72 113 70 114
REMARK H PARENT 20 10 14 15 3 20 17 37 23 40 94 67 62 78
REMARK Flexibility Score: inf
ROOT
ATOM      1  C   UNL     1       2.332  -4.932   9.446  1.00  0.00     0.202 C 
ENDROOT
BRANCH   1   2
ATOM      2  C   UNL     1       3.619  -5.592   8.939  1.00  0.00     0.261 C 
BRANCH   2   3
ATOM      3  O   UNL     1       4.259  -4.863   7.878  1.00  0.00    -0.462 OA
BRANCH   3   4
ATOM      4  C   UNL     1       4.864  -5.638   6.934  1.00  0.00     0.331 C 
ATOM      5  O   UNL     1       4.969  -6.858   7.000  1.00  0.00    -0.250 OA
BRANCH   4   6
ATOM      6  C   UNL     1       5.454  -4.823   5.774  1.00  0.00     0.218 C 
BRANCH   6   7
ATOM      7  N   UNL     1       5.054  -3.395   5.704  1.00  0.00    -0.339 N 
ATOM      8  C   UNL     1       5.413  -2.648   4.615  1.00  0.00     0.244 C 
ATOM      9  O   UNL     1       6.579  -2.248   4.557  1.00  0.00    -0.273 OA
ATOM     10  H   UNL     1       4.534  -2.989   6.435  1.00  0.00     0.164 HD
BRANCH   8  11
ATOM     11  C   UNL     1       4.344  -2.219   3.558  1.00  0.00     0.181 C 
BRANCH  11  12
ATOM     12  N   UNL     1       5.047  -2.180   2.266  1.00  0.00    -0.342 N 
ATOM     13  C   UNL     1       5.503  -1.104   1.560  1.00  0.00     0.243 C 
ATOM     14  O   UNL     1       6.598  -1.246   1.002  1.00  0.00    -0.273 OA
ATOM     15  H   UNL     1       5.212  -3.057   1.850  1.00  0.00     0.164 HD
BRANCH  13  16
ATOM     16  C   UNL     1       4.739   0.235   1.412  1.00  0.00     0.176 C 
BRANCH  16  17
ATOM     17  N   UNL     1       3.287   0.083   1.354  1.00  0.00    -0.340 N 
ATOM     18  O   UNL     1       1.260  -0.024   0.382  1.00  0.00    -0.269 OA
ATOM     19  C   UNL     1       2.475   0.071   0.240  1.00  0.00     0.251 C 
ATOM     20  H   UNL     1       2.830  -0.025   2.220  1.00  0.00     0.164 HD
BRANCH  19  21
ATOM     21  C   UNL     1       3.056   0.262  -1.115  1.00  0.00     0.040 A 
ATOM     22  C   UNL     1       4.031  -0.604  -1.629  1.00  0.00     0.017 A 
ATOM     23  C   UNL     1       2.630   1.364  -1.871  1.00  0.00     0.017 A 
ATOM     24  C   UNL     1       4.637  -0.318  -2.857  1.00  0.00     0.040 A 
ATOM     25  C   UNL     1       3.230   1.637  -3.103  1.00  0.00     0.040 A 
ATOM     26  C   UNL     1       4.239   0.804  -3.576  1.00  0.00     0.123 A 
ATOM     27  F   UNL     1       4.838   1.087  -4.740  1.00  0.00    -0.207 F 
ENDBRANCH  19  21
ENDBRANCH  16  17
BRANCH  16  28
ATOM     28  C   UNL     1       5.242   1.429   2.248  1.00  0.00     0.070 C 
BRANCH  28  29
ATOM     29  C   UNL     1       4.688   1.624   3.638  1.00  0.00    -0.045 A 
ATOM     30  C   UNL     1       3.728   2.613   3.898  1.00  0.00     0.004 A 
ATOM     31  C   UNL     1       5.176   0.872   4.709  1.00  0.00     0.004 A 
ATOM     32  C   UNL     1       3.232   2.799   5.191  1.00  0.00     0.000 A 
ATOM     33  C   UNL     1       4.643   1.018   5.991  1.00  0.00     0.000 A 
ATOM     34  C   UNL     1       3.668   1.982   6.231  1.00  0.00     0.000 A 
ENDBRANCH  28  29
ENDBRANCH  16  28
ENDBRANCH  13  16
ENDBRANCH  11  12
BRANCH  11  35
ATOM     35  C   UNL     1       3.017  -2.981   3.521  1.00  0.00     0.101 C 
BRANCH  35  36
ATOM     36  S   UNL     1       3.079  -4.743   3.082  1.00  0.00    -0.177 SA
ATOM     37  H   UNL     1       3.524  -4.877   1.804  1.00  0.00     0.102 HD
ENDBRANCH  35  36
ENDBRANCH  11  35
ENDBRANCH   8  11
ENDBRANCH   6   7
BRANCH   6  38
ATOM     38  C   UNL     1       6.984  -4.976   5.853  1.00  0.00     0.193 C 
BRANCH  38  39
ATOM     39  O   UNL     1       7.520  -4.085   6.834  1.00  0.00    -0.394 OA
ATOM     40  H   UNL     1       7.310  -3.171   6.590  1.00  0.00     0.210 HD
ENDBRANCH  38  39
ENDBRANCH   6  38
ENDBRANCH   4   6
ENDBRANCH   3   4
ENDBRANCH   2   3
ENDBRANCH   1   2
BRANCH   1  41
ATOM     41  O   UNL     1       1.398  -4.477   8.474  1.00  0.00    -0.376 OA
BRANCH  41  42
ATOM     42  C   UNL     1       1.824  -3.522   7.509  1.00  0.00     0.188 C 
BRANCH  42  43
ATOM     43  C   UNL     1       2.670  -2.309   7.950  1.00  0.00     0.188 C 
BRANCH  43  44
ATOM     44  O   UNL     1       2.832  -2.161   9.348  1.00  0.00    -0.376 OA
BRANCH  44  45
ATOM     45  C   UNL     1       2.222  -1.013   9.923  1.00  0.00     0.202 C 
BRANCH  45  46
ATOM     46  C   UNL     1       0.691  -1.081   9.979  1.00  0.00     0.261 C 
BRANCH  46  47
ATOM     47  O   UNL     1       0.045  -1.173   8.694  1.00  0.00    -0.460 OA
BRANCH  47  48
ATOM     48  C   UNL     1       0.119  -0.084   7.896  1.00  0.00     0.338 C 
ATOM     49  O   UNL     1       0.671   0.972   8.138  1.00  0.00    -0.246 OA
BRANCH  48  50
ATOM     50  C   UNL     1      -0.433  -0.453   6.575  1.00  0.00     0.060 A 
ATOM     51  C   UNL     1       0.415  -0.444   5.461  1.00  0.00     0.016 A 
ATOM     52  C   UNL     1      -1.782  -0.788   6.435  1.00  0.00     0.016 A 
ATOM     53  C   UNL     1      -0.089  -0.762   4.198  1.00  0.00     0.010 A 
ATOM     54  C   UNL     1      -2.288  -1.090   5.165  1.00  0.00     0.010 A 
ATOM     55  C   UNL     1      -1.448  -1.064   4.037  1.00  0.00    -0.014 A 
BRANCH  55  56
ATOM     56  C   UNL     1      -2.022  -1.191   2.673  1.00  0.00     0.031 A 
ATOM     57  C   UNL     1      -2.680   0.010   2.052  1.00  0.00     0.074 A 
ATOM     58  C   UNL     1      -1.940  -2.340   1.978  1.00  0.00     0.049 A 
ATOM     59  N   UNL     1      -3.343   0.113   0.928  1.00  0.00    -0.248 NA
ATOM     60  C   UNL     1      -2.580   1.266   2.811  1.00  0.00     0.031 C 
ATOM     61  C   UNL     1      -1.268  -3.556   2.427  1.00  0.00     0.029 A 
ATOM     62  N   UNL     1      -2.437  -2.665   0.739  1.00  0.00    -0.354 N 
ATOM     63  C   UNL     1      -3.742   1.440   0.847  1.00  0.00     0.074 A 
ATOM     64  C   UNL     1      -3.270   2.099   2.046  1.00  0.00     0.031 C 
ATOM     65  C   UNL     1      -1.398  -4.500   1.476  1.00  0.00     0.029 A 
ATOM     66  C   UNL     1      -2.200  -3.967   0.374  1.00  0.00     0.049 A 
ATOM     67  H   UNL     1      -2.917  -2.025   0.166  1.00  0.00     0.167 HD
ATOM     68  C   UNL     1      -4.438   2.055  -0.138  1.00  0.00     0.037 A 
ATOM     69  C   UNL     1      -2.612  -4.656  -0.709  1.00  0.00     0.037 A 
ATOM     70  C   UNL     1      -4.901   1.407  -1.336  1.00  0.00     0.049 A 
ATOM     71  C   UNL     1      -3.464  -3.972  -1.751  1.00  0.00     0.074 A 
ATOM     72  C   UNL     1      -5.629   1.946  -2.382  1.00  0.00     0.029 A 
ATOM     73  N   UNL     1      -4.677   0.075  -1.648  1.00  0.00    -0.354 N 
ATOM     74  N   UNL     1      -3.865  -2.726  -1.809  1.00  0.00    -0.248 NA
ATOM     75  C   UNL     1      -3.930  -4.800  -2.875  1.00  0.00     0.031 C 
ATOM     76  C   UNL     1      -5.886   0.928  -3.307  1.00  0.00     0.029 A 
ATOM     77  C   UNL     1      -5.275  -0.233  -2.860  1.00  0.00     0.049 A 
ATOM     78  H   UNL     1      -4.169  -0.558  -1.092  1.00  0.00     0.167 HD
ATOM     79  C   UNL     1      -4.604  -2.614  -2.981  1.00  0.00     0.074 A 
ATOM     80  C   UNL     1      -4.587  -3.915  -3.612  1.00  0.00     0.031 C 
ATOM     81  C   UNL     1      -5.241  -1.529  -3.486  1.00  0.00     0.037 A 
BRANCH  68  82
ATOM     82  C   UNL     1      -4.780   3.500   0.063  1.00  0.00     0.064 A 
ATOM     83  C   UNL     1      -3.813   4.511  -0.040  1.00  0.00     0.173 A 
ATOM     84  C   UNL     1      -6.101   3.879   0.344  1.00  0.00     0.173 A 
ATOM     85  F   UNL     1      -2.532   4.199  -0.288  1.00  0.00    -0.203 F 
ATOM     86  C   UNL     1      -4.153   5.847   0.156  1.00  0.00     0.198 A 
ATOM     87  C   UNL     1      -6.442   5.217   0.512  1.00  0.00     0.198 A 
ATOM     88  F   UNL     1      -7.063   2.950   0.451  1.00  0.00    -0.203 F 
ATOM     89  F   UNL     1      -3.205   6.793   0.101  1.00  0.00    -0.200 F 
ATOM     90  C   UNL     1      -5.467   6.199   0.425  1.00  0.00     0.200 A 
ATOM     91  F   UNL     1      -7.715   5.557   0.762  1.00  0.00    -0.200 F 
ATOM     92  F   UNL     1      -5.793   7.486   0.610  1.00  0.00    -0.200 F 
ENDBRANCH  68  82
BRANCH  69  93
ATOM     93  C   UNL     1      -2.263  -6.095  -0.856  1.00  0.00     0.064 A 
ATOM     94  C   UNL     1      -1.410  -6.534  -1.878  1.00  0.00     0.173 A 
ATOM     95  C   UNL     1      -2.814  -7.065  -0.005  1.00  0.00     0.173 A 
ATOM     96  F   UNL     1      -0.886  -5.650  -2.740  1.00  0.00    -0.203 F 
ATOM     97  C   UNL     1      -1.136  -7.889  -2.055  1.00  0.00     0.198 A 
ATOM     98  C   UNL     1      -2.516  -8.416  -0.165  1.00  0.00     0.198 A 
ATOM     99  F   UNL     1      -3.647  -6.699   0.981  1.00  0.00    -0.203 F 
ATOM    100  F   UNL     1      -0.361  -8.287  -3.073  1.00  0.00    -0.200 F 
ATOM    101  C   UNL     1      -1.685  -8.829  -1.194  1.00  0.00     0.200 A 
ATOM    102  F   UNL     1      -3.045  -9.320   0.672  1.00  0.00    -0.200 F 
ATOM    103  F   UNL     1      -1.424 -10.132  -1.367  1.00  0.00    -0.200 F 
ENDBRANCH  69  93
BRANCH  81 104
ATOM    104  C   UNL     1      -5.944  -1.685  -4.804  1.00  0.00     0.064 A 
ATOM    105  C   UNL     1      -7.145  -2.401  -4.919  1.00  0.00     0.173 A 
ATOM    106  C   UNL     1      -5.438  -1.065  -5.957  1.00  0.00     0.173 A 
ATOM    107  F   UNL     1      -7.664  -3.023  -3.850  1.00  0.00    -0.203 F 
ATOM    108  C   UNL     1      -7.801  -2.507  -6.143  1.00  0.00     0.198 A 
ATOM    109  C   UNL     1      -6.111  -1.149  -7.173  1.00  0.00     0.198 A 
ATOM    110  F   UNL     1      -4.297  -0.360  -5.900  1.00  0.00    -0.203 F 
ATOM    111  F   UNL     1      -8.926  -3.229  -6.237  1.00  0.00    -0.200 F 
ATOM    112  C   UNL     1      -7.288  -1.875  -7.266  1.00  0.00     0.200 A 
ATOM    113  F   UNL     1      -5.621  -0.526  -8.254  1.00  0.00    -0.200 F 
ATOM    114  F   UNL     1      -7.927  -1.970  -8.441  1.00  0.00    -0.200 F 
ENDBRANCH  81 104
ENDBRANCH  55  56
ENDBRANCH  48  50
ENDBRANCH  47  48
ENDBRANCH  46  47
ENDBRANCH  45  46
ENDBRANCH  44  45
ENDBRANCH  43  44
ENDBRANCH  42  43
ENDBRANCH  41  42
ENDBRANCH   1  41
TORSDOF 29
