REMARK SMILES O=C(OCCOCCOCCOC(=O)[C@]12CCC[NH2+][C@@H]1CCN(C(=O)Cc1c(F)cccc1Cl)C2)c1ccc(-c2c3nc(c(-c4c(F)c(F)c(F)c(F)c4F)c4ccc([nH]4)c(-c4c(F)c(F)c(F)c(F)c4F)c4nc(c(-c5c(F)c(F)c(F)c(F)c5F)c5ccc2[nH]5)C=C4)C=C3)cc1
REMARK SMILES IDX 8 1 7 2 6 3 5 4 4 5 3 6 2 7 1 8 36 9 37 10 98 11 38 12 97 13
REMARK SMILES IDX 39 14 40 15 41 16 91 17 42 18 96 19 90 20 92 21 43 22 95 23
REMARK SMILES IDX 89 24 88 25 44 27 76 28 56 29 75 30 57 31 60 32 74 33 93 34
REMARK SMILES IDX 58 35 59 36 73 38 94 39 61 40 45 41 46 42 54 43 47 44 48 45
REMARK SMILES IDX 52 46 55 47 49 48 50 49 53 50 51 51 77 52 78 53 86 54 79 55
REMARK SMILES IDX 80 56 84 57 87 58 81 59 82 60 85 61 83 62 62 63 63 64 71 65
REMARK SMILES IDX 64 66 65 67 69 68 72 69 66 70 67 71 70 72 68 73 9 74 10 75
REMARK SMILES IDX 11 76 12 77 13 78 14 79 15 80 16 81 20 82 35 83 17 84 19 85
REMARK SMILES IDX 21 86 23 87 18 88 22 91 24 92 25 93 26 94 27 95 28 96 33 97
REMARK SMILES IDX 29 98 30 99 32 100 34 101 31 102
REMARK H PARENT 92 26 60 37 19 89 19 90
REMARK Flexibility Score: inf
ROOT
ATOM      1  C   UNL     1       2.984   1.891   2.906  1.00  0.00     0.188 C 
ENDROOT
BRANCH   1   2
ATOM      2  C   UNL     1       2.984   1.069   1.624  1.00  0.00     0.188 C 
BRANCH   2   3
ATOM      3  O   UNL     1       4.284   0.727   1.139  1.00  0.00    -0.376 OA
BRANCH   3   4
ATOM      4  C   UNL     1       4.985   1.776   0.480  1.00  0.00     0.202 C 
BRANCH   4   5
ATOM      5  C   UNL     1       4.761   1.794  -1.035  1.00  0.00     0.261 C 
BRANCH   5   6
ATOM      6  O   UNL     1       3.406   1.492  -1.400  1.00  0.00    -0.460 OA
BRANCH   6   7
ATOM      7  C   UNL     1       2.831   0.290  -1.639  1.00  0.00     0.338 C 
ATOM      8  O   UNL     1       1.642   0.287  -1.976  1.00  0.00    -0.246 OA
BRANCH   7   9
ATOM      9  C   UNL     1       3.509  -1.047  -1.522  1.00  0.00     0.060 A 
ATOM     10  C   UNL     1       4.741  -1.302  -0.914  1.00  0.00     0.016 A 
ATOM     11  C   UNL     1       2.797  -2.160  -2.014  1.00  0.00     0.016 A 
ATOM     12  C   UNL     1       5.262  -2.591  -0.809  1.00  0.00     0.010 A 
ATOM     13  C   UNL     1       3.304  -3.462  -1.904  1.00  0.00     0.010 A 
ATOM     14  C   UNL     1       4.558  -3.675  -1.320  1.00  0.00    -0.014 A 
BRANCH  14  15
ATOM     15  C   UNL     1       5.251  -4.975  -1.431  1.00  0.00     0.031 A 
ATOM     16  C   UNL     1       5.867  -5.312  -2.753  1.00  0.00     0.074 A 
ATOM     17  C   UNL     1       5.436  -5.772  -0.363  1.00  0.00     0.049 A 
ATOM     18  N   UNL     1       6.576  -6.355  -3.091  1.00  0.00    -0.248 NA
ATOM     19  C   UNL     1       5.722  -4.309  -3.823  1.00  0.00     0.031 C 
ATOM     20  C   UNL     1       5.066  -5.442   1.008  1.00  0.00     0.029 A 
ATOM     21  N   UNL     1       5.982  -7.024  -0.255  1.00  0.00    -0.354 N 
ATOM     22  C   UNL     1       6.990  -6.115  -4.391  1.00  0.00     0.074 A 
ATOM     23  C   UNL     1       6.417  -4.856  -4.806  1.00  0.00     0.031 C 
ATOM     24  C   UNL     1       5.283  -6.498   1.805  1.00  0.00     0.029 A 
ATOM     25  C   UNL     1       5.857  -7.567   1.003  1.00  0.00     0.049 A 
ATOM     26  H   UNL     1       6.421  -7.489  -1.003  1.00  0.00     0.167 HD
ATOM     27  C   UNL     1       7.802  -6.877  -5.156  1.00  0.00     0.037 A 
ATOM     28  C   UNL     1       6.183  -8.789   1.458  1.00  0.00     0.037 A 
ATOM     29  C   UNL     1       8.337  -8.139  -4.728  1.00  0.00     0.049 A 
ATOM     30  C   UNL     1       6.934  -9.697   0.526  1.00  0.00     0.074 A 
ATOM     31  C   UNL     1       9.133  -9.022  -5.432  1.00  0.00     0.029 A 
ATOM     32  N   UNL     1       8.109  -8.705  -3.479  1.00  0.00    -0.354 N 
ATOM     33  N   UNL     1       7.329  -9.465  -0.704  1.00  0.00    -0.248 NA
ATOM     34  C   UNL     1       7.330 -11.008   1.049  1.00  0.00     0.031 C 
ATOM     35  C   UNL     1       9.331 -10.153  -4.634  1.00  0.00     0.029 A 
ATOM     36  C   UNL     1       8.716  -9.947  -3.407  1.00  0.00     0.049 A 
ATOM     37  H   UNL     1       7.593  -8.285  -2.753  1.00  0.00     0.167 HD
ATOM     38  C   UNL     1       8.061 -10.577  -1.086  1.00  0.00     0.074 A 
ATOM     39  C   UNL     1       8.058 -11.482   0.047  1.00  0.00     0.031 C 
ATOM     40  C   UNL     1       8.690 -10.823  -2.262  1.00  0.00     0.037 A 
BRANCH  27  41
ATOM     41  C   UNL     1       8.101  -6.382  -6.538  1.00  0.00     0.064 A 
ATOM     42  C   UNL     1       8.941  -5.281  -6.766  1.00  0.00     0.173 A 
ATOM     43  C   UNL     1       7.528  -7.014  -7.650  1.00  0.00     0.173 A 
ATOM     44  F   UNL     1       9.487  -4.621  -5.733  1.00  0.00    -0.203 F 
ATOM     45  C   UNL     1       9.183  -4.822  -8.059  1.00  0.00     0.198 A 
ATOM     46  C   UNL     1       7.792  -6.569  -8.941  1.00  0.00     0.198 A 
ATOM     47  F   UNL     1       6.706  -8.061  -7.482  1.00  0.00    -0.203 F 
ATOM     48  F   UNL     1       9.948  -3.739  -8.252  1.00  0.00    -0.200 F 
ATOM     49  C   UNL     1       8.614  -5.471  -9.145  1.00  0.00     0.200 A 
ATOM     50  F   UNL     1       7.243  -7.198  -9.989  1.00  0.00    -0.200 F 
ATOM     51  F   UNL     1       8.848  -5.029 -10.388  1.00  0.00    -0.200 F 
ENDBRANCH  27  41
BRANCH  28  52
ATOM     52  C   UNL     1       5.822  -9.201   2.841  1.00  0.00     0.064 A 
ATOM     53  C   UNL     1       6.798  -9.444   3.817  1.00  0.00     0.173 A 
ATOM     54  C   UNL     1       4.479  -9.398   3.205  1.00  0.00     0.173 A 
ATOM     55  F   UNL     1       8.096  -9.291   3.516  1.00  0.00    -0.203 F 
ATOM     56  C   UNL     1       6.450  -9.910   5.085  1.00  0.00     0.198 A 
ATOM     57  C   UNL     1       4.131  -9.839   4.481  1.00  0.00     0.198 A 
ATOM     58  F   UNL     1       3.503  -9.187   2.309  1.00  0.00    -0.203 F 
ATOM     59  F   UNL     1       7.411 -10.215   5.968  1.00  0.00    -0.200 F 
ATOM     60  C   UNL     1       5.118 -10.108   5.416  1.00  0.00     0.200 A 
ATOM     61  F   UNL     1       2.842 -10.041   4.791  1.00  0.00    -0.200 F 
ATOM     62  F   UNL     1       4.788 -10.596   6.620  1.00  0.00    -0.200 F 
ENDBRANCH  28  52
BRANCH  40  63
ATOM     63  C   UNL     1       9.444 -12.114  -2.368  1.00  0.00     0.064 A 
ATOM     64  C   UNL     1       8.781 -13.347  -2.441  1.00  0.00     0.173 A 
ATOM     65  C   UNL     1      10.845 -12.109  -2.447  1.00  0.00     0.173 A 
ATOM     66  F   UNL     1       7.443 -13.401  -2.356  1.00  0.00    -0.203 F 
ATOM     67  C   UNL     1       9.497 -14.533  -2.561  1.00  0.00     0.198 A 
ATOM     68  C   UNL     1      11.554 -13.294  -2.606  1.00  0.00     0.198 A 
ATOM     69  F   UNL     1      11.523 -10.953  -2.392  1.00  0.00    -0.203 F 
ATOM     70  F   UNL     1       8.847 -15.705  -2.576  1.00  0.00    -0.200 F 
ATOM     71  C   UNL     1      10.880 -14.505  -2.653  1.00  0.00     0.200 A 
ATOM     72  F   UNL     1      12.889 -13.264  -2.715  1.00  0.00    -0.200 F 
ATOM     73  F   UNL     1      11.567 -15.649  -2.784  1.00  0.00    -0.200 F 
ENDBRANCH  40  63
ENDBRANCH  14  15
ENDBRANCH   7   9
ENDBRANCH   6   7
ENDBRANCH   5   6
ENDBRANCH   4   5
ENDBRANCH   3   4
ENDBRANCH   2   3
ENDBRANCH   1   2
BRANCH   1  74
ATOM     74  O   UNL     1       3.551   1.194   4.013  1.00  0.00    -0.376 OA
BRANCH  74  75
ATOM     75  C   UNL     1       4.936   0.885   3.902  1.00  0.00     0.202 C 
BRANCH  75  76
ATOM     76  C   UNL     1       5.276  -0.628   3.904  1.00  0.00     0.261 C 
BRANCH  76  77
ATOM     77  O   UNL     1       4.371  -1.546   3.230  1.00  0.00    -0.463 OA
BRANCH  77  78
ATOM     78  C   UNL     1       3.285  -1.844   3.994  1.00  0.00     0.320 C 
ATOM     79  O   UNL     1       3.050  -1.220   5.028  1.00  0.00    -0.251 OA
BRANCH  78  80
ATOM     80  C   UNL     1       2.433  -3.063   3.566  1.00  0.00     0.137 C 
ATOM     81  C   UNL     1       2.275  -3.312   2.051  1.00  0.00     0.033 C 
ATOM     82  C   UNL     1       0.989  -2.875   4.085  1.00  0.00     0.203 C 
ATOM     83  C   UNL     1       3.085  -4.323   4.189  1.00  0.00     0.144 C 
ATOM     84  C   UNL     1       1.414  -2.307   1.305  1.00  0.00     0.063 C 
ATOM     85  N   UNL     1       0.376  -1.659   3.527  1.00  0.00    -0.343 N 
ATOM     86  C   UNL     1       0.903  -2.950   5.609  1.00  0.00     0.088 C 
ATOM     87  N   UNL     1       2.741  -4.641   5.579  1.00  0.00    -0.341 N 
ATOM     88  C   UNL     1       0.210  -1.774   2.078  1.00  0.00     0.260 C 
ATOM     89  H   UNL     1      -0.538  -1.519   3.958  1.00  0.00     0.346 HD
ATOM     90  H   UNL     1       0.988  -0.867   3.723  1.00  0.00     0.346 HD
ATOM     91  C   UNL     1       1.387  -4.326   6.037  1.00  0.00     0.125 C 
BRANCH  87  92
ATOM     92  C   UNL     1       3.505  -5.646   6.186  1.00  0.00     0.227 C 
ATOM     93  O   UNL     1       4.299  -6.331   5.529  1.00  0.00    -0.275 OA
BRANCH  92  94
ATOM     94  C   UNL     1       3.437  -5.801   7.709  1.00  0.00     0.140 C 
BRANCH  94  95
ATOM     95  C   UNL     1       4.481  -4.910   8.342  1.00  0.00     0.016 A 
ATOM     96  C   UNL     1       5.807  -5.362   8.361  1.00  0.00     0.128 A 
ATOM     97  C   UNL     1       4.236  -3.598   8.769  1.00  0.00     0.047 A 
ATOM     98  F   UNL     1       6.084  -6.625   8.005  1.00  0.00    -0.207 F 
ATOM     99  C   UNL     1       6.862  -4.531   8.722  1.00  0.00     0.039 A 
ATOM    100  C   UNL     1       5.296  -2.747   9.102  1.00  0.00     0.021 A 
ATOM    101  Cl  UNL     1       2.646  -2.959   8.962  1.00  0.00    -0.084 Cl
ATOM    102  C   UNL     1       6.610  -3.208   9.064  1.00  0.00     0.005 A 
ENDBRANCH  94  95
ENDBRANCH  92  94
ENDBRANCH  87  92
ENDBRANCH  78  80
ENDBRANCH  77  78
ENDBRANCH  76  77
ENDBRANCH  75  76
ENDBRANCH  74  75
ENDBRANCH   1  74
TORSDOF 20
