REMARK SMILES O=C(OCCOCCOCCOC(=O)c1ccccc1[C@@H]1SCC(=O)N1NC(=S)Nc1ccccc1)c1ccc(-c2c3nc(c(-c4c(F)c(F)c(F)c(F)c4F)c4ccc([nH]4)c(-c4c(F)c(F)c(F)c(F)c4F)c4nc(c(-c5c(F)c(F)c(F)c(F)c5F)c5ccc2[nH]5)C=C4)C=C3)cc1
REMARK SMILES IDX 9 1 8 2 7 3 6 4 5 5 4 6 3 7 2 8 1 9 37 10 38 11 99 12 39 13
REMARK SMILES IDX 98 14 40 15 41 16 42 17 92 18 43 19 97 20 91 21 93 22 44 23
REMARK SMILES IDX 96 24 90 25 89 26 45 28 77 29 57 30 76 31 58 32 61 33 75 34
REMARK SMILES IDX 94 35 59 36 60 37 74 39 95 40 62 41 46 42 47 43 55 44 48 45
REMARK SMILES IDX 49 46 53 47 56 48 50 49 51 50 54 51 52 52 78 53 79 54 87 55
REMARK SMILES IDX 80 56 81 57 85 58 88 59 82 60 83 61 86 62 84 63 63 64 64 65
REMARK SMILES IDX 72 66 65 67 66 68 70 69 73 70 67 71 68 72 71 73 69 74 10 75
REMARK SMILES IDX 11 76 12 77 13 78 14 79 15 80 16 81 20 82 17 83 19 84 18 85
REMARK SMILES IDX 21 86 22 87 26 88 23 89 24 90 25 91 27 92 28 94 29 95 30 96
REMARK SMILES IDX 31 98 32 99 36 100 33 101 35 102 34 103
REMARK H PARENT 93 27 61 38 27 93 30 97
REMARK Flexibility Score: inf
ROOT
ATOM      1  O   UNL     1       2.138   0.909  -3.914  1.00  0.00    -0.376 OA
ENDROOT
BRANCH   1   2
ATOM      2  C   UNL     1       1.451   1.073  -2.677  1.00  0.00     0.188 C 
BRANCH   2   3
ATOM      3  C   UNL     1       2.035   0.267  -1.521  1.00  0.00     0.188 C 
BRANCH   3   4
ATOM      4  O   UNL     1       3.372   0.642  -1.171  1.00  0.00    -0.376 OA
BRANCH   4   5
ATOM      5  C   UNL     1       4.312  -0.431  -1.309  1.00  0.00     0.202 C 
BRANCH   5   6
ATOM      6  C   UNL     1       4.333  -1.412  -0.124  1.00  0.00     0.261 C 
BRANCH   6   7
ATOM      7  O   UNL     1       3.027  -1.651   0.432  1.00  0.00    -0.460 OA
BRANCH   7   8
ATOM      8  C   UNL     1       2.337  -0.929   1.350  1.00  0.00     0.338 C 
ATOM      9  O   UNL     1       1.171  -1.249   1.582  1.00  0.00    -0.246 OA
BRANCH   8  10
ATOM     10  C   UNL     1       2.913   0.200   2.150  1.00  0.00     0.060 A 
ATOM     11  C   UNL     1       4.057   0.923   1.827  1.00  0.00     0.016 A 
ATOM     12  C   UNL     1       2.234   0.555   3.335  1.00  0.00     0.016 A 
ATOM     13  C   UNL     1       4.605   1.829   2.725  1.00  0.00     0.010 A 
ATOM     14  C   UNL     1       2.753   1.510   4.221  1.00  0.00     0.010 A 
ATOM     15  C   UNL     1       3.988   2.096   3.946  1.00  0.00    -0.014 A 
BRANCH  15  16
ATOM     16  C   UNL     1       4.793   2.800   4.970  1.00  0.00     0.031 A 
ATOM     17  C   UNL     1       5.536   1.962   5.970  1.00  0.00     0.074 A 
ATOM     18  C   UNL     1       5.033   4.119   4.859  1.00  0.00     0.049 A 
ATOM     19  N   UNL     1       6.428   2.319   6.856  1.00  0.00    -0.248 NA
ATOM     20  C   UNL     1       5.245   0.518   5.960  1.00  0.00     0.031 C 
ATOM     21  C   UNL     1       4.443   4.987   3.844  1.00  0.00     0.029 A 
ATOM     22  N   UNL     1       5.908   4.935   5.533  1.00  0.00    -0.354 N 
ATOM     23  C   UNL     1       6.763   1.157   7.537  1.00  0.00     0.074 A 
ATOM     24  C   UNL     1       6.005   0.078   6.948  1.00  0.00     0.031 C 
ATOM     25  C   UNL     1       5.059   6.180   3.884  1.00  0.00     0.029 A 
ATOM     26  C   UNL     1       6.051   6.175   4.954  1.00  0.00     0.049 A 
ATOM     27  H   UNL     1       6.384   4.661   6.349  1.00  0.00     0.167 HD
ATOM     28  C   UNL     1       7.609   1.013   8.583  1.00  0.00     0.037 A 
ATOM     29  C   UNL     1       6.915   7.170   5.235  1.00  0.00     0.037 A 
ATOM     30  C   UNL     1       8.369   2.095   9.144  1.00  0.00     0.049 A 
ATOM     31  C   UNL     1       7.861   6.982   6.394  1.00  0.00     0.074 A 
ATOM     32  C   UNL     1       9.166   2.103  10.273  1.00  0.00     0.029 A 
ATOM     33  N   UNL     1       8.433   3.367   8.593  1.00  0.00    -0.354 N 
ATOM     34  N   UNL     1       8.095   5.907   7.107  1.00  0.00    -0.248 NA
ATOM     35  C   UNL     1       8.636   8.160   6.810  1.00  0.00     0.031 C 
ATOM     36  C   UNL     1       9.683   3.395  10.427  1.00  0.00     0.029 A 
ATOM     37  C   UNL     1       9.245   4.176   9.368  1.00  0.00     0.049 A 
ATOM     38  H   UNL     1       7.969   3.652   7.773  1.00  0.00     0.167 HD
ATOM     39  C   UNL     1       9.036   6.278   8.058  1.00  0.00     0.074 A 
ATOM     40  C   UNL     1       9.369   7.664   7.796  1.00  0.00     0.031 C 
ATOM     41  C   UNL     1       9.555   5.551   9.078  1.00  0.00     0.037 A 
BRANCH  28  42
ATOM     42  C   UNL     1       7.646  -0.332   9.242  1.00  0.00     0.064 A 
ATOM     43  C   UNL     1       8.283  -1.437   8.662  1.00  0.00     0.173 A 
ATOM     44  C   UNL     1       6.975  -0.522  10.460  1.00  0.00     0.173 A 
ATOM     45  F   UNL     1       8.906  -1.315   7.480  1.00  0.00    -0.203 F 
ATOM     46  C   UNL     1       8.221  -2.693   9.264  1.00  0.00     0.198 A 
ATOM     47  C   UNL     1       6.937  -1.772  11.071  1.00  0.00     0.198 A 
ATOM     48  F   UNL     1       6.340   0.502  11.049  1.00  0.00    -0.203 F 
ATOM     49  F   UNL     1       8.783  -3.751   8.663  1.00  0.00    -0.200 F 
ATOM     50  C   UNL     1       7.551  -2.858  10.468  1.00  0.00     0.200 A 
ATOM     51  F   UNL     1       6.288  -1.928  12.233  1.00  0.00    -0.200 F 
ATOM     52  F   UNL     1       7.482  -4.069  11.038  1.00  0.00    -0.200 F 
ENDBRANCH  28  42
BRANCH  29  53
ATOM     53  C   UNL     1       6.959   8.416   4.416  1.00  0.00     0.064 A 
ATOM     54  C   UNL     1       8.122   8.774   3.715  1.00  0.00     0.173 A 
ATOM     55  C   UNL     1       5.866   9.292   4.335  1.00  0.00     0.173 A 
ATOM     56  F   UNL     1       9.206   7.987   3.769  1.00  0.00    -0.203 F 
ATOM     57  C   UNL     1       8.196   9.963   2.989  1.00  0.00     0.198 A 
ATOM     58  C   UNL     1       5.929  10.463   3.580  1.00  0.00     0.198 A 
ATOM     59  F   UNL     1       4.725   9.005   4.978  1.00  0.00    -0.203 F 
ATOM     60  F   UNL     1       9.337  10.300   2.371  1.00  0.00    -0.200 F 
ATOM     61  C   UNL     1       7.097  10.803   2.917  1.00  0.00     0.200 A 
ATOM     62  F   UNL     1       4.854  11.258   3.494  1.00  0.00    -0.200 F 
ATOM     63  F   UNL     1       7.163  11.942   2.213  1.00  0.00    -0.200 F 
ENDBRANCH  29  53
BRANCH  41  64
ATOM     64  C   UNL     1      10.516   6.249   9.991  1.00  0.00     0.064 A 
ATOM     65  C   UNL     1      10.072   7.212  10.910  1.00  0.00     0.173 A 
ATOM     66  C   UNL     1      11.877   5.915   9.988  1.00  0.00     0.173 A 
ATOM     67  F   UNL     1       8.780   7.571  10.941  1.00  0.00    -0.203 F 
ATOM     68  C   UNL     1      10.964   7.833  11.778  1.00  0.00     0.198 A 
ATOM     69  C   UNL     1      12.761   6.520  10.877  1.00  0.00     0.198 A 
ATOM     70  F   UNL     1      12.346   4.994   9.134  1.00  0.00    -0.203 F 
ATOM     71  F   UNL     1      10.526   8.780  12.620  1.00  0.00    -0.200 F 
ATOM     72  C   UNL     1      12.305   7.482  11.766  1.00  0.00     0.200 A 
ATOM     73  F   UNL     1      14.055   6.171  10.873  1.00  0.00    -0.200 F 
ATOM     74  F   UNL     1      13.161   8.075  12.609  1.00  0.00    -0.200 F 
ENDBRANCH  41  64
ENDBRANCH  15  16
ENDBRANCH   8  10
ENDBRANCH   7   8
ENDBRANCH   6   7
ENDBRANCH   5   6
ENDBRANCH   4   5
ENDBRANCH   3   4
ENDBRANCH   2   3
ENDBRANCH   1   2
BRANCH   1  75
ATOM     75  C   UNL     1       3.373   1.617  -4.042  1.00  0.00     0.202 C 
BRANCH  75  76
ATOM     76  C   UNL     1       3.246   3.132  -3.910  1.00  0.00     0.261 C 
BRANCH  76  77
ATOM     77  O   UNL     1       3.129   3.539  -2.526  1.00  0.00    -0.460 OA
BRANCH  77  78
ATOM     78  C   UNL     1       2.635   4.776  -2.345  1.00  0.00     0.338 C 
ATOM     79  O   UNL     1       2.293   5.562  -3.232  1.00  0.00    -0.246 OA
BRANCH  78  80
ATOM     80  C   UNL     1       2.481   5.107  -0.920  1.00  0.00     0.066 A 
ATOM     81  C   UNL     1       1.253   4.687  -0.371  1.00  0.00     0.016 A 
ATOM     82  C   UNL     1       3.332   5.996  -0.216  1.00  0.00     0.001 A 
ATOM     83  C   UNL     1       0.816   5.184   0.852  1.00  0.00     0.001 A 
ATOM     84  C   UNL     1       2.817   6.533   0.985  1.00  0.00     0.008 A 
ATOM     85  C   UNL     1       1.581   6.136   1.511  1.00  0.00     0.000 A 
BRANCH  82  86
ATOM     86  C   UNL     1       4.758   6.400  -0.608  1.00  0.00     0.197 C 
ATOM     87  S   UNL     1       4.898   7.262  -2.175  1.00  0.00    -0.120 SA
ATOM     88  N   UNL     1       5.670   5.277  -0.709  1.00  0.00    -0.236 N 
ATOM     89  C   UNL     1       5.541   5.793  -3.027  1.00  0.00     0.174 C 
ATOM     90  C   UNL     1       5.758   4.707  -1.971  1.00  0.00     0.252 C 
ATOM     91  O   UNL     1       5.987   3.532  -2.233  1.00  0.00    -0.272 OA
BRANCH  88  92
ATOM     92  N   UNL     1       6.254   4.801   0.484  1.00  0.00    -0.270 N 
ATOM     93  H   UNL     1       5.706   4.931   1.292  1.00  0.00     0.191 HD
BRANCH  92  94
ATOM     94  C   UNL     1       7.454   4.191   0.701  1.00  0.00     0.189 C 
ATOM     95  S   UNL     1       7.928   3.905   2.282  1.00  0.00    -0.039 S 
BRANCH  94  96
ATOM     96  N   UNL     1       8.219   3.647  -0.260  1.00  0.00    -0.331 N 
ATOM     97  H   UNL     1       8.526   2.733  -0.061  1.00  0.00     0.169 HD
BRANCH  96  98
ATOM     98  C   UNL     1       8.657   4.143  -1.490  1.00  0.00     0.040 A 
ATOM     99  C   UNL     1       8.958   3.204  -2.484  1.00  0.00     0.026 A 
ATOM    100  C   UNL     1       8.791   5.505  -1.746  1.00  0.00     0.026 A 
ATOM    101  C   UNL     1       9.278   3.631  -3.770  1.00  0.00     0.002 A 
ATOM    102  C   UNL     1       9.165   5.928  -3.023  1.00  0.00     0.002 A 
ATOM    103  C   UNL     1       9.377   4.994  -4.040  1.00  0.00     0.000 A 
ENDBRANCH  96  98
ENDBRANCH  94  96
ENDBRANCH  92  94
ENDBRANCH  88  92
ENDBRANCH  82  86
ENDBRANCH  78  80
ENDBRANCH  77  78
ENDBRANCH  76  77
ENDBRANCH  75  76
ENDBRANCH   1  75
TORSDOF 22
