REMARK SMILES Cc1ccnc(C(=O)c2[nH]c3ccc(C(C)(C)C)cc3c2CC(=O)OCCOCCOCCOC(=O)c2ccc(-c3c4nc(c(-c5c(F)c(F)c(F)c(F)c5F)c5ccc([nH]5)c(-c5c(F)c(F)c(F)c(F)c5F)c5nc(c(-c6c(F)c(F)c(F)c(F)c6F)c6ccc3[nH]6)C=C5)C=C4)cc2)c1
REMARK SMILES IDX 29 1 28 2 27 3 26 4 25 5 23 6 24 7 22 8 21 9 9 10 10 11
REMARK SMILES IDX 11 12 20 14 12 15 19 16 13 17 14 18 7 19 8 20 6 21 1 22 2 23
REMARK SMILES IDX 3 24 100 25 4 26 5 27 15 28 16 29 17 30 18 31 30 32 31 33
REMARK SMILES IDX 32 34 33 35 34 36 35 37 36 38 37 39 38 40 99 41 39 42 98 43
REMARK SMILES IDX 40 44 41 45 42 46 92 47 43 48 97 49 91 50 93 51 44 52 96 53
REMARK SMILES IDX 90 54 89 55 45 57 77 58 57 59 76 60 58 61 61 62 75 63 94 64
REMARK SMILES IDX 59 65 60 66 74 68 95 69 62 70 46 71 47 72 55 73 48 74 49 75
REMARK SMILES IDX 53 76 56 77 50 78 51 79 54 80 52 81 78 82 79 83 87 84 80 85
REMARK SMILES IDX 81 86 85 87 88 88 82 89 83 90 86 91 84 92 63 93 64 94 72 95
REMARK SMILES IDX 65 96 66 97 70 98 73 99 67 100 68 101 71 102 69 103
REMARK H PARENT 10 13 93 56 61 67
REMARK Flexibility Score: inf
ROOT
ATOM      1  C   UNL     1       4.848  -3.271   0.360  1.00  0.00     0.188 C 
ENDROOT
BRANCH   1   2
ATOM      2  O   UNL     1       6.046  -4.027   0.502  1.00  0.00    -0.376 OA
BRANCH   2   3
ATOM      3  C   UNL     1       5.949  -5.443   0.408  1.00  0.00     0.202 C 
BRANCH   3   4
ATOM      4  C   UNL     1       5.128  -6.115   1.510  1.00  0.00     0.261 C 
BRANCH   4   5
ATOM      5  O   UNL     1       3.730  -5.756   1.436  1.00  0.00    -0.463 OA
BRANCH   5   6
ATOM      6  C   UNL     1       3.106  -5.579   2.626  1.00  0.00     0.310 C 
ATOM      7  O   UNL     1       3.643  -5.800   3.711  1.00  0.00    -0.252 OA
BRANCH   6   8
ATOM      8  C   UNL     1       1.705  -5.003   2.563  1.00  0.00     0.161 C 
BRANCH   8   9
ATOM      9  C   UNL     1       0.932  -5.016   1.264  1.00  0.00     0.000 A 
ATOM     10  C   UNL     1       0.526  -3.922   0.489  1.00  0.00     0.093 A 
ATOM     11  N   UNL     1      -0.129  -4.431  -0.613  1.00  0.00    -0.352 N 
ATOM     12  C   UNL     1      -0.504  -5.727  -0.369  1.00  0.00     0.046 A 
ATOM     13  H   UNL     1      -0.302  -3.938  -1.447  1.00  0.00     0.167 HD
ATOM     14  C   UNL     1       0.172  -6.128   0.776  1.00  0.00     0.004 A 
ATOM     15  C   UNL     1      -1.407  -6.549  -1.045  1.00  0.00     0.027 A 
ATOM     16  C   UNL     1      -0.092  -7.410   1.291  1.00  0.00     0.015 A 
ATOM     17  C   UNL     1      -1.718  -7.781  -0.455  1.00  0.00     0.006 A 
ATOM     18  C   UNL     1      -1.107  -8.216   0.731  1.00  0.00    -0.042 A 
BRANCH  10  19
ATOM     19  C   UNL     1       0.706  -2.509   0.754  1.00  0.00     0.227 C 
ATOM     20  O   UNL     1       1.478  -2.084   1.612  1.00  0.00    -0.285 OA
BRANCH  19  21
ATOM     21  C   UNL     1      -0.120  -1.512   0.017  1.00  0.00     0.113 A 
ATOM     22  C   UNL     1      -3.521   0.126   0.224  1.00  0.00     0.044 C 
ATOM     23  C   UNL     1      -2.109  -0.195  -0.167  1.00  0.00    -0.047 A 
ATOM     24  C   UNL     1      -1.398   0.668  -1.006  1.00  0.00     0.023 A 
ATOM     25  C   UNL     1      -1.447  -1.303   0.374  1.00  0.00     0.036 A 
ATOM     26  C   UNL     1      -0.094   0.346  -1.341  1.00  0.00     0.112 A 
ATOM     27  N   UNL     1       0.551  -0.741  -0.871  1.00  0.00    -0.253 NA
ENDBRANCH  19  21
ENDBRANCH  10  19
BRANCH  18  28
ATOM     28  C   UNL     1      -1.559  -9.471   1.496  1.00  0.00    -0.013 C 
ATOM     29  C   UNL     1      -0.377 -10.449   1.644  1.00  0.00     0.016 C 
ATOM     30  C   UNL     1      -2.053  -9.046   2.901  1.00  0.00     0.016 C 
ATOM     31  C   UNL     1      -2.721 -10.230   0.823  1.00  0.00     0.016 C 
ENDBRANCH  18  28
ENDBRANCH   8   9
ENDBRANCH   6   8
ENDBRANCH   5   6
ENDBRANCH   4   5
ENDBRANCH   3   4
ENDBRANCH   2   3
ENDBRANCH   1   2
BRANCH   1  32
ATOM     32  C   UNL     1       3.844  -3.676  -0.739  1.00  0.00     0.188 C 
BRANCH  32  33
ATOM     33  O   UNL     1       4.341  -4.255  -1.939  1.00  0.00    -0.376 OA
BRANCH  33  34
ATOM     34  C   UNL     1       5.367  -3.543  -2.621  1.00  0.00     0.202 C 
BRANCH  34  35
ATOM     35  C   UNL     1       4.936  -2.165  -3.111  1.00  0.00     0.261 C 
BRANCH  35  36
ATOM     36  O   UNL     1       4.823  -1.254  -2.002  1.00  0.00    -0.460 OA
BRANCH  36  37
ATOM     37  C   UNL     1       4.081  -0.156  -2.266  1.00  0.00     0.338 C 
ATOM     38  O   UNL     1       3.606   0.160  -3.346  1.00  0.00    -0.246 OA
BRANCH  37  39
ATOM     39  C   UNL     1       3.874   0.661  -1.053  1.00  0.00     0.060 A 
ATOM     40  C   UNL     1       3.241   0.122   0.061  1.00  0.00     0.016 A 
ATOM     41  C   UNL     1       4.076   2.037  -1.127  1.00  0.00     0.016 A 
ATOM     42  C   UNL     1       2.646   0.965   1.005  1.00  0.00     0.010 A 
ATOM     43  C   UNL     1       3.570   2.874  -0.123  1.00  0.00     0.010 A 
ATOM     44  C   UNL     1       2.771   2.357   0.911  1.00  0.00    -0.014 A 
BRANCH  44  45
ATOM     45  C   UNL     1       1.976   3.262   1.800  1.00  0.00     0.031 A 
ATOM     46  C   UNL     1       1.026   4.276   1.196  1.00  0.00     0.074 A 
ATOM     47  C   UNL     1       2.034   3.157   3.143  1.00  0.00     0.049 A 
ATOM     48  N   UNL     1       0.372   5.256   1.774  1.00  0.00    -0.248 NA
ATOM     49  C   UNL     1       0.772   4.172  -0.251  1.00  0.00     0.031 C 
ATOM     50  C   UNL     1       2.819   2.172   3.885  1.00  0.00     0.029 A 
ATOM     51  N   UNL     1       1.409   3.890   4.127  1.00  0.00    -0.354 N 
ATOM     52  C   UNL     1      -0.331   5.901   0.762  1.00  0.00     0.074 A 
ATOM     53  C   UNL     1      -0.022   5.211  -0.471  1.00  0.00     0.031 C 
ATOM     54  C   UNL     1       2.606   2.338   5.199  1.00  0.00     0.029 A 
ATOM     55  C   UNL     1       1.754   3.504   5.401  1.00  0.00     0.049 A 
ATOM     56  H   UNL     1       0.776   4.620   3.937  1.00  0.00     0.167 HD
ATOM     57  C   UNL     1      -1.157   6.973   0.849  1.00  0.00     0.037 A 
ATOM     58  C   UNL     1       1.470   4.056   6.597  1.00  0.00     0.037 A 
ATOM     59  C   UNL     1      -1.485   7.658   2.073  1.00  0.00     0.049 A 
ATOM     60  C   UNL     1       0.642   5.310   6.655  1.00  0.00     0.074 A 
ATOM     61  C   UNL     1      -2.274   8.783   2.251  1.00  0.00     0.029 A 
ATOM     62  N   UNL     1      -1.048   7.278   3.332  1.00  0.00    -0.354 N 
ATOM     63  N   UNL     1       0.054   5.964   5.684  1.00  0.00    -0.248 NA
ATOM     64  C   UNL     1       0.459   5.917   7.982  1.00  0.00     0.031 C 
ATOM     65  C   UNL     1      -2.279   9.108   3.612  1.00  0.00     0.029 A 
ATOM     66  C   UNL     1      -1.536   8.156   4.288  1.00  0.00     0.049 A 
ATOM     67  H   UNL     1      -0.475   6.500   3.520  1.00  0.00     0.167 HD
ATOM     68  C   UNL     1      -0.574   7.049   6.280  1.00  0.00     0.074 A 
ATOM     69  C   UNL     1      -0.327   6.946   7.702  1.00  0.00     0.031 C 
ATOM     70  C   UNL     1      -1.283   8.049   5.700  1.00  0.00     0.037 A 
BRANCH  57  71
ATOM     71  C   UNL     1      -1.748   7.506  -0.425  1.00  0.00     0.064 A 
ATOM     72  C   UNL     1      -2.795   6.849  -1.087  1.00  0.00     0.173 A 
ATOM     73  C   UNL     1      -1.306   8.731  -0.950  1.00  0.00     0.173 A 
ATOM     74  F   UNL     1      -3.242   5.667  -0.638  1.00  0.00    -0.203 F 
ATOM     75  C   UNL     1      -3.371   7.395  -2.233  1.00  0.00     0.198 A 
ATOM     76  C   UNL     1      -1.900   9.285  -2.080  1.00  0.00     0.198 A 
ATOM     77  F   UNL     1      -0.309   9.402  -0.351  1.00  0.00    -0.203 F 
ATOM     78  F   UNL     1      -4.351   6.736  -2.866  1.00  0.00    -0.200 F 
ATOM     79  C   UNL     1      -2.931   8.616  -2.722  1.00  0.00     0.200 A 
ATOM     80  F   UNL     1      -1.480  10.470  -2.544  1.00  0.00    -0.200 F 
ATOM     81  F   UNL     1      -3.497   9.146  -3.815  1.00  0.00    -0.200 F 
ENDBRANCH  57  71
BRANCH  58  82
ATOM     82  C   UNL     1       2.041   3.472   7.843  1.00  0.00     0.064 A 
ATOM     83  C   UNL     1       1.214   2.934   8.839  1.00  0.00     0.173 A 
ATOM     84  C   UNL     1       3.424   3.479   8.079  1.00  0.00     0.173 A 
ATOM     85  F   UNL     1      -0.117   2.938   8.679  1.00  0.00    -0.203 F 
ATOM     86  C   UNL     1       1.748   2.442  10.029  1.00  0.00     0.198 A 
ATOM     87  C   UNL     1       3.960   2.951   9.251  1.00  0.00     0.198 A 
ATOM     88  F   UNL     1       4.260   3.997   7.167  1.00  0.00    -0.203 F 
ATOM     89  F   UNL     1       0.931   1.993  10.991  1.00  0.00    -0.200 F 
ATOM     90  C   UNL     1       3.121   2.443  10.230  1.00  0.00     0.200 A 
ATOM     91  F   UNL     1       5.287   2.945   9.435  1.00  0.00    -0.200 F 
ATOM     92  F   UNL     1       3.633   1.970  11.374  1.00  0.00    -0.200 F 
ENDBRANCH  58  82
BRANCH  70  93
ATOM     93  C   UNL     1      -1.860   9.091   6.614  1.00  0.00     0.064 A 
ATOM     94  C   UNL     1      -1.045  10.021   7.277  1.00  0.00     0.173 A 
ATOM     95  C   UNL     1      -3.243   9.150   6.843  1.00  0.00     0.173 A 
ATOM     96  F   UNL     1       0.285   9.996   7.103  1.00  0.00    -0.203 F 
ATOM     97  C   UNL     1      -1.588  10.941   8.169  1.00  0.00     0.198 A 
ATOM     98  C   UNL     1      -3.786  10.093   7.712  1.00  0.00     0.198 A 
ATOM     99  F   UNL     1      -4.069   8.290   6.228  1.00  0.00    -0.203 F 
ATOM    100  F   UNL     1      -0.782  11.774   8.843  1.00  0.00    -0.200 F 
ATOM    101  C   UNL     1      -2.957  10.978   8.385  1.00  0.00     0.200 A 
ATOM    102  F   UNL     1      -5.111  10.135   7.910  1.00  0.00    -0.200 F 
ATOM    103  F   UNL     1      -3.477  11.857   9.252  1.00  0.00    -0.200 F 
ENDBRANCH  70  93
ENDBRANCH  44  45
ENDBRANCH  37  39
ENDBRANCH  36  37
ENDBRANCH  35  36
ENDBRANCH  34  35
ENDBRANCH  33  34
ENDBRANCH  32  33
ENDBRANCH   1  32
TORSDOF 21
