REMARK SMILES O=C(COc1cccc(NC(=O)c2ccc3c(c2)C(=O)N(c2ccccc2-c2ccccc2)C3=O)c1)OCCOCCOCCOC(=O)c1ccc(-c2c3nc(c(-c4c(F)c(F)c(F)c(F)c4F)c4ccc([nH]4)c(-c4c(F)c(F)c(F)c(F)c4F)c4nc(c(-c5c(F)c(F)c(F)c(F)c5F)c5ccc2[nH]5)C=C4)C=C3)cc1
REMARK SMILES IDX 39 1 38 2 37 3 2 4 1 5 3 6 4 7 5 8 6 9 36 10 7 11 9 12 8 13
REMARK SMILES IDX 10 14 11 15 12 17 13 18 14 19 18 20 15 21 17 22 16 23 19 24
REMARK SMILES IDX 34 25 20 26 21 27 35 28 22 29 23 30 27 31 24 32 26 33 25 34
REMARK SMILES IDX 28 35 29 36 33 37 30 38 32 39 31 40 40 41 41 42 42 43 43 44
REMARK SMILES IDX 44 45 45 46 46 47 47 48 48 49 49 50 50 51 111 52 51 53
REMARK SMILES IDX 110 54 52 55 53 56 54 57 104 58 55 59 109 60 103 61 105 62
REMARK SMILES IDX 56 63 108 64 102 65 101 66 57 68 89 69 69 70 88 71 70 72
REMARK SMILES IDX 73 73 87 74 106 75 71 76 72 77 86 79 107 80 74 81 58 82
REMARK SMILES IDX 59 83 67 84 60 85 61 86 65 87 68 88 62 89 63 90 66 91 64 92
REMARK SMILES IDX 90 93 91 94 99 95 92 96 93 97 97 98 100 99 94 100 95 101
REMARK SMILES IDX 98 102 96 103 75 104 76 105 84 106 77 107 78 108 82 109
REMARK SMILES IDX 85 110 79 111 80 112 83 113 81 114
REMARK H PARENT 10 16 105 67 73 78
REMARK Flexibility Score: inf
ROOT
ATOM      1  C   UNL     1       5.002  -0.239  -0.156  1.00  0.00     0.202 C 
ENDROOT
BRANCH   1   2
ATOM      2  C   UNL     1       4.156   0.598   0.797  1.00  0.00     0.261 C 
BRANCH   2   3
ATOM      3  O   UNL     1       2.724   0.393   0.697  1.00  0.00    -0.461 OA
BRANCH   3   4
ATOM      4  C   UNL     1       1.917   0.551  -0.371  1.00  0.00     0.344 C 
ATOM      5  O   UNL     1       0.752   0.159  -0.319  1.00  0.00    -0.248 OA
BRANCH   4   6
ATOM      6  C   UNL     1       2.448   1.185  -1.646  1.00  0.00     0.351 C 
BRANCH   6   7
ATOM      7  O   UNL     1       3.559   2.051  -1.587  1.00  0.00    -0.482 OA
BRANCH   7   8
ATOM      8  C   UNL     1       3.276   3.327  -1.191  1.00  0.00     0.122 A 
ATOM      9  C   UNL     1       4.028   4.305  -1.829  1.00  0.00     0.046 A 
ATOM     10  C   UNL     1       2.374   3.670  -0.173  1.00  0.00     0.072 A 
ATOM     11  C   UNL     1       3.880   5.628  -1.451  1.00  0.00     0.006 A 
ATOM     12  C   UNL     1       2.186   5.002   0.190  1.00  0.00     0.045 A 
ATOM     13  C   UNL     1       2.988   5.960  -0.429  1.00  0.00     0.026 A 
BRANCH  12  14
ATOM     14  N   UNL     1       1.243   5.283   1.208  1.00  0.00    -0.322 N 
ATOM     15  C   UNL     1       0.460   6.407   1.437  1.00  0.00     0.255 C 
ATOM     16  H   UNL     1       1.122   4.560   1.865  1.00  0.00     0.170 HD
ATOM     17  O   UNL     1      -0.207   6.539   2.456  1.00  0.00    -0.269 OA
BRANCH  15  18
ATOM     18  C   UNL     1       0.261   7.346   0.318  1.00  0.00     0.041 A 
ATOM     19  C   UNL     1       1.120   8.454   0.159  1.00  0.00     0.015 A 
ATOM     20  C   UNL     1      -0.529   6.870  -0.726  1.00  0.00     0.028 A 
ATOM     21  C   UNL     1       1.410   8.917  -1.135  1.00  0.00     0.015 A 
ATOM     22  C   UNL     1      -0.215   7.358  -1.971  1.00  0.00     0.054 A 
ATOM     23  C   UNL     1       0.786   8.271  -2.190  1.00  0.00     0.053 A 
ATOM     24  C   UNL     1      -0.583   6.780  -3.237  1.00  0.00     0.266 C 
ATOM     25  C   UNL     1       1.149   8.158  -3.608  1.00  0.00     0.266 C 
ATOM     26  O   UNL     1      -1.614   6.137  -3.310  1.00  0.00    -0.268 OA
ATOM     27  N   UNL     1       0.407   7.117  -4.136  1.00  0.00    -0.242 N 
ATOM     28  O   UNL     1       1.943   8.943  -4.090  1.00  0.00    -0.268 OA
BRANCH  27  29
ATOM     29  C   UNL     1       0.565   6.458  -5.406  1.00  0.00     0.060 A 
ATOM     30  C   UNL     1      -0.502   5.638  -5.858  1.00  0.00     0.027 A 
ATOM     31  C   UNL     1       1.729   6.488  -6.220  1.00  0.00     0.006 A 
ATOM     32  C   UNL     1      -0.483   4.944  -7.062  1.00  0.00     0.002 A 
ATOM     33  C   UNL     1       1.705   5.813  -7.466  1.00  0.00     0.011 A 
ATOM     34  C   UNL     1       0.611   5.069  -7.881  1.00  0.00     0.001 A 
BRANCH  31  35
ATOM     35  C   UNL     1       3.054   7.021  -5.864  1.00  0.00    -0.016 A 
ATOM     36  C   UNL     1       3.522   8.227  -6.410  1.00  0.00     0.009 A 
ATOM     37  C   UNL     1       3.951   6.243  -5.112  1.00  0.00     0.009 A 
ATOM     38  C   UNL     1       4.822   8.671  -6.158  1.00  0.00     0.001 A 
ATOM     39  C   UNL     1       5.258   6.679  -4.875  1.00  0.00     0.001 A 
ATOM     40  C   UNL     1       5.688   7.899  -5.388  1.00  0.00     0.000 A 
ENDBRANCH  31  35
ENDBRANCH  27  29
ENDBRANCH  15  18
ENDBRANCH  12  14
ENDBRANCH   7   8
ENDBRANCH   6   7
ENDBRANCH   4   6
ENDBRANCH   3   4
ENDBRANCH   2   3
ENDBRANCH   1   2
BRANCH   1  41
ATOM     41  O   UNL     1       4.834  -1.623   0.101  1.00  0.00    -0.376 OA
BRANCH  41  42
ATOM     42  C   UNL     1       3.701  -2.221  -0.520  1.00  0.00     0.188 C 
BRANCH  42  43
ATOM     43  C   UNL     1       2.715  -2.810   0.502  1.00  0.00     0.188 C 
BRANCH  43  44
ATOM     44  O   UNL     1       3.207  -3.640   1.549  1.00  0.00    -0.376 OA
BRANCH  44  45
ATOM     45  C   UNL     1       4.447  -4.309   1.381  1.00  0.00     0.202 C 
BRANCH  45  46
ATOM     46  C   UNL     1       4.419  -5.541   0.470  1.00  0.00     0.261 C 
BRANCH  46  47
ATOM     47  O   UNL     1       4.104  -5.235  -0.904  1.00  0.00    -0.460 OA
BRANCH  47  48
ATOM     48  C   UNL     1       2.845  -5.540  -1.302  1.00  0.00     0.338 C 
ATOM     49  O   UNL     1       1.989  -6.115  -0.650  1.00  0.00    -0.246 OA
BRANCH  48  50
ATOM     50  C   UNL     1       2.558  -4.950  -2.634  1.00  0.00     0.060 A 
ATOM     51  C   UNL     1       1.328  -4.300  -2.812  1.00  0.00     0.016 A 
ATOM     52  C   UNL     1       3.426  -5.103  -3.718  1.00  0.00     0.016 A 
ATOM     53  C   UNL     1       0.932  -3.864  -4.081  1.00  0.00     0.010 A 
ATOM     54  C   UNL     1       3.021  -4.680  -4.994  1.00  0.00     0.010 A 
ATOM     55  C   UNL     1       1.752  -4.100  -5.192  1.00  0.00    -0.014 A 
BRANCH  55  56
ATOM     56  C   UNL     1       1.195  -3.962  -6.566  1.00  0.00     0.031 A 
ATOM     57  C   UNL     1       0.636  -5.191  -7.240  1.00  0.00     0.074 A 
ATOM     58  C   UNL     1       1.157  -2.783  -7.215  1.00  0.00     0.049 A 
ATOM     59  N   UNL     1       0.150  -5.335  -8.449  1.00  0.00    -0.248 NA
ATOM     60  C   UNL     1       0.627  -6.425  -6.439  1.00  0.00     0.031 C 
ATOM     61  C   UNL     1       1.616  -1.502  -6.686  1.00  0.00     0.029 A 
ATOM     62  N   UNL     1       0.718  -2.484  -8.485  1.00  0.00    -0.354 N 
ATOM     63  C   UNL     1      -0.217  -6.671  -8.552  1.00  0.00     0.074 A 
ATOM     64  C   UNL     1       0.128  -7.303  -7.296  1.00  0.00     0.031 C 
ATOM     65  C   UNL     1       1.460  -0.558  -7.633  1.00  0.00     0.029 A 
ATOM     66  C   UNL     1       0.915  -1.173  -8.844  1.00  0.00     0.049 A 
ATOM     67  H   UNL     1       0.301  -3.148  -9.080  1.00  0.00     0.167 HD
ATOM     68  C   UNL     1      -0.799  -7.318  -9.590  1.00  0.00     0.037 A 
ATOM     69  C   UNL     1       0.705  -0.554 -10.023  1.00  0.00     0.037 A 
ATOM     70  C   UNL     1      -1.154  -6.710 -10.844  1.00  0.00     0.049 A 
ATOM     71  C   UNL     1       0.136  -1.323 -11.195  1.00  0.00     0.074 A 
ATOM     72  C   UNL     1      -1.765  -7.292 -11.943  1.00  0.00     0.029 A 
ATOM     73  N   UNL     1      -0.924  -5.385 -11.170  1.00  0.00    -0.354 N 
ATOM     74  N   UNL     1      -0.261  -2.569 -11.260  1.00  0.00    -0.248 NA
ATOM     75  C   UNL     1      -0.018  -0.586 -12.462  1.00  0.00     0.031 C 
ATOM     76  C   UNL     1      -1.861  -6.329 -12.953  1.00  0.00     0.029 A 
ATOM     77  C   UNL     1      -1.355  -5.138 -12.464  1.00  0.00     0.049 A 
ATOM     78  H   UNL     1      -0.516  -4.718 -10.572  1.00  0.00     0.167 HD
ATOM     79  C   UNL     1      -0.748  -2.748 -12.551  1.00  0.00     0.074 A 
ATOM     80  C   UNL     1      -0.615  -1.481 -13.233  1.00  0.00     0.031 C 
ATOM     81  C   UNL     1      -1.254  -3.865 -13.125  1.00  0.00     0.037 A 
BRANCH  68  82
ATOM     82  C   UNL     1      -1.074  -8.782  -9.423  1.00  0.00     0.064 A 
ATOM     83  C   UNL     1      -2.111  -9.245  -8.600  1.00  0.00     0.173 A 
ATOM     84  C   UNL     1      -0.322  -9.730 -10.132  1.00  0.00     0.173 A 
ATOM     85  F   UNL     1      -2.850  -8.376  -7.893  1.00  0.00    -0.203 F 
ATOM     86  C   UNL     1      -2.370 -10.607  -8.475  1.00  0.00     0.198 A 
ATOM     87  C   UNL     1      -0.601 -11.089 -10.026  1.00  0.00     0.198 A 
ATOM     88  F   UNL     1       0.677  -9.336 -10.937  1.00  0.00    -0.203 F 
ATOM     89  F   UNL     1      -3.339 -11.030  -7.652  1.00  0.00    -0.200 F 
ATOM     90  C   UNL     1      -1.620 -11.527  -9.193  1.00  0.00     0.200 A 
ATOM     91  F   UNL     1       0.116 -11.976 -10.730  1.00  0.00    -0.200 F 
ATOM     92  F   UNL     1      -1.877 -12.837  -9.079  1.00  0.00    -0.200 F 
ENDBRANCH  68  82
BRANCH  69  93
ATOM     93  C   UNL     1       1.066   0.876 -10.214  1.00  0.00     0.064 A 
ATOM     94  C   UNL     1       0.083   1.827 -10.524  1.00  0.00     0.173 A 
ATOM     95  C   UNL     1       2.406   1.291 -10.233  1.00  0.00     0.173 A 
ATOM     96  F   UNL     1      -1.213   1.480 -10.519  1.00  0.00    -0.203 F 
ATOM     97  C   UNL     1       0.432   3.112 -10.924  1.00  0.00     0.198 A 
ATOM     98  C   UNL     1       2.749   2.596 -10.575  1.00  0.00     0.198 A 
ATOM     99  F   UNL     1       3.384   0.422  -9.943  1.00  0.00    -0.203 F 
ATOM    100  F   UNL     1      -0.524   3.988 -11.265  1.00  0.00    -0.200 F 
ATOM    101  C   UNL     1       1.765   3.497 -10.948  1.00  0.00     0.200 A 
ATOM    102  F   UNL     1       4.034   2.977 -10.558  1.00  0.00    -0.200 F 
ATOM    103  F   UNL     1       2.094   4.751 -11.288  1.00  0.00    -0.200 F 
ENDBRANCH  69  93
BRANCH  81 104
ATOM    104  C   UNL     1      -1.758  -3.758 -14.536  1.00  0.00     0.064 A 
ATOM    105  C   UNL     1      -0.886  -3.613 -15.624  1.00  0.00     0.173 A 
ATOM    106  C   UNL     1      -3.134  -3.833 -14.804  1.00  0.00     0.173 A 
ATOM    107  F   UNL     1       0.437  -3.517 -15.421  1.00  0.00    -0.203 F 
ATOM    108  C   UNL     1      -1.373  -3.521 -16.926  1.00  0.00     0.198 A 
ATOM    109  C   UNL     1      -3.616  -3.771 -16.108  1.00  0.00     0.198 A 
ATOM    110  F   UNL     1      -4.012  -3.975 -13.799  1.00  0.00    -0.203 F 
ATOM    111  F   UNL     1      -0.524  -3.333 -17.946  1.00  0.00    -0.200 F 
ATOM    112  C   UNL     1      -2.736  -3.608 -17.168  1.00  0.00     0.200 A 
ATOM    113  F   UNL     1      -4.932  -3.866 -16.341  1.00  0.00    -0.200 F 
ATOM    114  F   UNL     1      -3.202  -3.526 -18.421  1.00  0.00    -0.200 F 
ENDBRANCH  81 104
ENDBRANCH  55  56
ENDBRANCH  48  50
ENDBRANCH  47  48
ENDBRANCH  46  47
ENDBRANCH  45  46
ENDBRANCH  44  45
ENDBRANCH  43  44
ENDBRANCH  42  43
ENDBRANCH  41  42
ENDBRANCH   1  41
TORSDOF 23
