REMARK SMILES N#CCC(=O)NNC(=O)c1ccccc1C(=O)OCCOCCOCCOC(=O)c1ccc(-c2c3nc(c(-c4c(F)c(F)c(F)c(F)c4F)c4ccc([nH]4)c(-c4c(F)c(F)c(F)c(F)c4F)c4nc(c(-c5c(F)c(F)c(F)c(F)c5F)c5ccc2[nH]5)C=C4)C=C3)cc1
REMARK SMILES IDX 22 1 21 2 20 3 19 4 18 5 16 6 17 7 15 8 10 9 11 10 12 11
REMARK SMILES IDX 14 12 13 13 8 14 7 15 9 17 6 18 4 19 5 20 3 22 2 23 1 24
REMARK SMILES IDX 23 25 24 26 25 27 26 28 27 29 28 30 29 31 30 32 31 33 92 34
REMARK SMILES IDX 32 35 91 36 33 37 34 38 35 39 85 40 36 41 90 42 84 43 86 44
REMARK SMILES IDX 37 45 89 46 83 47 82 48 38 50 70 51 50 52 69 53 51 54 54 55
REMARK SMILES IDX 68 56 87 57 52 58 53 59 67 61 88 62 55 63 39 64 40 65 48 66
REMARK SMILES IDX 41 67 42 68 46 69 49 70 43 71 44 72 47 73 45 74 71 75 72 76
REMARK SMILES IDX 80 77 73 78 74 79 78 80 81 81 75 82 76 83 79 84 77 85 56 86
REMARK SMILES IDX 57 87 65 88 58 89 59 90 63 91 66 92 60 93 61 94 64 95 62 96
REMARK H PARENT 7 16 6 21 86 49 54 60
REMARK Flexibility Score: inf
ROOT
ATOM      1  C   UNL     1       7.532  -4.402  -2.354  1.00  0.00     0.188 C 
ENDROOT
BRANCH   1   2
ATOM      2  O   UNL     1       8.318  -3.569  -1.513  1.00  0.00    -0.376 OA
BRANCH   2   3
ATOM      3  C   UNL     1       7.657  -2.579  -0.741  1.00  0.00     0.202 C 
BRANCH   3   4
ATOM      4  C   UNL     1       6.556  -1.740  -1.394  1.00  0.00     0.261 C 
BRANCH   4   5
ATOM      5  O   UNL     1       5.541  -2.485  -2.100  1.00  0.00    -0.460 OA
BRANCH   5   6
ATOM      6  C   UNL     1       5.435  -2.248  -3.433  1.00  0.00     0.339 C 
ATOM      7  O   UNL     1       6.087  -1.438  -4.073  1.00  0.00    -0.246 OA
BRANCH   6   8
ATOM      8  C   UNL     1       4.511  -3.190  -4.116  1.00  0.00     0.072 A 
ATOM      9  C   UNL     1       3.288  -3.656  -3.628  1.00  0.00     0.056 A 
ATOM     10  C   UNL     1       2.538  -4.575  -4.398  1.00  0.00     0.015 A 
ATOM     11  C   UNL     1       2.995  -5.027  -5.633  1.00  0.00     0.001 A 
ATOM     12  C   UNL     1       4.961  -3.660  -5.367  1.00  0.00     0.016 A 
ATOM     13  C   UNL     1       4.214  -4.573  -6.115  1.00  0.00     0.001 A 
BRANCH   9  14
ATOM     14  C   UNL     1       2.659  -3.305  -2.344  1.00  0.00     0.270 C 
ATOM     15  N   UNL     1       2.583  -2.013  -1.898  1.00  0.00    -0.263 N 
ATOM     16  H   UNL     1       1.994  -1.855  -1.125  1.00  0.00     0.191 HD
ATOM     17  O   UNL     1       2.063  -4.183  -1.719  1.00  0.00    -0.267 OA
BRANCH  15  18
ATOM     18  N   UNL     1       3.245  -0.889  -2.411  1.00  0.00    -0.266 N 
ATOM     19  C   UNL     1       3.942   0.025  -1.615  1.00  0.00     0.252 C 
ATOM     20  O   UNL     1       4.664   0.875  -2.136  1.00  0.00    -0.272 OA
ATOM     21  H   UNL     1       3.218  -0.735  -3.383  1.00  0.00     0.191 HD
BRANCH  19  22
ATOM     22  C   UNL     1       3.745  -0.024  -0.090  1.00  0.00     0.221 C 
BRANCH  22  23
ATOM     23  C   UNL     1       2.225  -0.024  -0.090  1.00  0.00     0.072 C 
ATOM     24  N   UNL     1       0.964  -0.024  -0.090  1.00  0.00    -0.198 NA
ENDBRANCH  22  23
ENDBRANCH  19  22
ENDBRANCH  15  18
ENDBRANCH   9  14
ENDBRANCH   6   8
ENDBRANCH   5   6
ENDBRANCH   4   5
ENDBRANCH   3   4
ENDBRANCH   2   3
ENDBRANCH   1   2
BRANCH   1  25
ATOM     25  C   UNL     1       6.318  -5.157  -1.756  1.00  0.00     0.188 C 
BRANCH  25  26
ATOM     26  O   UNL     1       5.994  -4.739  -0.448  1.00  0.00    -0.376 OA
BRANCH  26  27
ATOM     27  C   UNL     1       6.334  -5.610   0.618  1.00  0.00     0.202 C 
BRANCH  27  28
ATOM     28  C   UNL     1       7.701  -6.331   0.683  1.00  0.00     0.261 C 
BRANCH  28  29
ATOM     29  O   UNL     1       8.411  -6.554  -0.546  1.00  0.00    -0.460 OA
BRANCH  29  30
ATOM     30  C   UNL     1       8.169  -7.700  -1.226  1.00  0.00     0.338 C 
ATOM     31  O   UNL     1       7.391  -8.587  -0.916  1.00  0.00    -0.246 OA
BRANCH  30  32
ATOM     32  C   UNL     1       8.834  -7.598  -2.548  1.00  0.00     0.060 A 
ATOM     33  C   UNL     1       8.045  -7.586  -3.711  1.00  0.00     0.016 A 
ATOM     34  C   UNL     1      10.218  -7.433  -2.642  1.00  0.00     0.016 A 
ATOM     35  C   UNL     1       8.639  -7.418  -4.966  1.00  0.00     0.010 A 
ATOM     36  C   UNL     1      10.814  -7.303  -3.901  1.00  0.00     0.010 A 
ATOM     37  C   UNL     1      10.032  -7.318  -5.072  1.00  0.00    -0.014 A 
BRANCH  37  38
ATOM     38  C   UNL     1      10.693  -7.450  -6.396  1.00  0.00     0.031 A 
ATOM     39  C   UNL     1      11.189  -8.812  -6.799  1.00  0.00     0.074 A 
ATOM     40  C   UNL     1      10.863  -6.403  -7.223  1.00  0.00     0.049 A 
ATOM     41  N   UNL     1      11.870  -9.177  -7.856  1.00  0.00    -0.248 NA
ATOM     42  C   UNL     1      10.876  -9.914  -5.875  1.00  0.00     0.031 C 
ATOM     43  C   UNL     1      10.390  -5.043  -6.977  1.00  0.00     0.029 A 
ATOM     44  N   UNL     1      11.499  -6.325  -8.439  1.00  0.00    -0.354 N 
ATOM     45  C   UNL     1      12.078 -10.543  -7.714  1.00  0.00     0.074 A 
ATOM     46  C   UNL     1      11.475 -10.938  -6.460  1.00  0.00     0.031 C 
ATOM     47  C   UNL     1      10.766  -4.260  -8.006  1.00  0.00     0.029 A 
ATOM     48  C   UNL     1      11.538  -5.055  -8.961  1.00  0.00     0.049 A 
ATOM     49  H   UNL     1      11.889  -7.106  -8.894  1.00  0.00     0.167 HD
ATOM     50  C   UNL     1      12.712 -11.393  -8.556  1.00  0.00     0.037 A 
ATOM     51  C   UNL     1      12.152  -4.588 -10.068  1.00  0.00     0.037 A 
ATOM     52  C   UNL     1      13.317 -10.999  -9.800  1.00  0.00     0.049 A 
ATOM     53  C   UNL     1      12.932  -5.540 -10.944  1.00  0.00     0.074 A 
ATOM     54  C   UNL     1      13.959 -11.792 -10.735  1.00  0.00     0.029 A 
ATOM     55  N   UNL     1      13.368  -9.697 -10.275  1.00  0.00    -0.354 N 
ATOM     56  N   UNL     1      13.095  -6.836 -10.825  1.00  0.00    -0.248 NA
ATOM     57  C   UNL     1      13.616  -4.960 -12.111  1.00  0.00     0.031 C 
ATOM     58  C   UNL     1      14.459 -10.960 -11.741  1.00  0.00     0.029 A 
ATOM     59  C   UNL     1      14.065  -9.659 -11.472  1.00  0.00     0.049 A 
ATOM     60  H   UNL     1      12.970  -8.916  -9.828  1.00  0.00     0.167 HD
ATOM     61  C   UNL     1      13.864  -7.229 -11.915  1.00  0.00     0.074 A 
ATOM     62  C   UNL     1      14.127  -6.036 -12.692  1.00  0.00     0.031 C 
ATOM     63  C   UNL     1      14.309  -8.467 -12.245  1.00  0.00     0.037 A 
BRANCH  50  64
ATOM     64  C   UNL     1      12.819 -12.831  -8.134  1.00  0.00     0.064 A 
ATOM     65  C   UNL     1      11.700 -13.675  -8.080  1.00  0.00     0.173 A 
ATOM     66  C   UNL     1      14.068 -13.377  -7.801  1.00  0.00     0.173 A 
ATOM     67  F   UNL     1      10.480 -13.199  -8.373  1.00  0.00    -0.203 F 
ATOM     68  C   UNL     1      11.822 -15.002  -7.676  1.00  0.00     0.198 A 
ATOM     69  C   UNL     1      14.192 -14.714  -7.432  1.00  0.00     0.198 A 
ATOM     70  F   UNL     1      15.172 -12.615  -7.838  1.00  0.00    -0.203 F 
ATOM     71  F   UNL     1      10.731 -15.774  -7.577  1.00  0.00    -0.200 F 
ATOM     72  C   UNL     1      13.069 -15.522  -7.361  1.00  0.00     0.200 A 
ATOM     73  F   UNL     1      15.400 -15.218  -7.142  1.00  0.00    -0.200 F 
ATOM     74  F   UNL     1      13.186 -16.802  -6.980  1.00  0.00    -0.200 F 
ENDBRANCH  50  64
BRANCH  51  75
ATOM     75  C   UNL     1      12.073  -3.143 -10.418  1.00  0.00     0.064 A 
ATOM     76  C   UNL     1      11.402  -2.715 -11.573  1.00  0.00     0.173 A 
ATOM     77  C   UNL     1      12.699  -2.164  -9.632  1.00  0.00     0.173 A 
ATOM     78  F   UNL     1      10.815  -3.614 -12.377  1.00  0.00    -0.203 F 
ATOM     79  C   UNL     1      11.377  -1.370 -11.938  1.00  0.00     0.198 A 
ATOM     80  C   UNL     1      12.646  -0.815  -9.980  1.00  0.00     0.198 A 
ATOM     81  F   UNL     1      13.364  -2.518  -8.522  1.00  0.00    -0.203 F 
ATOM     82  F   UNL     1      10.777  -0.999 -13.077  1.00  0.00    -0.200 F 
ATOM     83  C   UNL     1      11.994  -0.420 -11.138  1.00  0.00     0.200 A 
ATOM     84  F   UNL     1      13.237   0.100  -9.200  1.00  0.00    -0.200 F 
ATOM     85  F   UNL     1      11.971   0.872 -11.490  1.00  0.00    -0.200 F 
ENDBRANCH  51  75
BRANCH  63  86
ATOM     86  C   UNL     1      15.084  -8.615 -13.526  1.00  0.00     0.064 A 
ATOM     87  C   UNL     1      16.382  -8.106 -13.673  1.00  0.00     0.173 A 
ATOM     88  C   UNL     1      14.534  -9.324 -14.607  1.00  0.00     0.173 A 
ATOM     89  F   UNL     1      16.951  -7.409 -12.677  1.00  0.00    -0.203 F 
ATOM     90  C   UNL     1      17.090  -8.278 -14.860  1.00  0.00     0.198 A 
ATOM     91  C   UNL     1      15.258  -9.526 -15.778  1.00  0.00     0.198 A 
ATOM     92  F   UNL     1      13.299  -9.842 -14.518  1.00  0.00    -0.203 F 
ATOM     93  F   UNL     1      18.310  -7.739 -14.995  1.00  0.00    -0.200 F 
ATOM     94  C   UNL     1      16.532  -8.995 -15.908  1.00  0.00     0.200 A 
ATOM     95  F   UNL     1      14.723 -10.236 -16.781  1.00  0.00    -0.200 F 
ATOM     96  F   UNL     1      17.220  -9.171 -17.045  1.00  0.00    -0.200 F 
ENDBRANCH  63  86
ENDBRANCH  37  38
ENDBRANCH  30  32
ENDBRANCH  29  30
ENDBRANCH  28  29
ENDBRANCH  27  28
ENDBRANCH  26  27
ENDBRANCH  25  26
ENDBRANCH   1  25
TORSDOF 21
