REMARK SMILES Cc1ccc(C)c(-n2nc(C)c(/C=C(/C#N)C(=O)OCCOCCOCCOC(=O)c3ccc(-c4c5nc(c(-c6c(F)c(F)c(F)c(F)c6F)c6ccc([nH]6)c(-c6c(F)c(F)c(F)c(F)c6F)c6nc(c(-c7c(F)c(F)c(F)c(F)c7F)c7ccc4[nH]7)C=C6)C=C5)cc3)c2Cl)c1
REMARK SMILES IDX 23 1 22 2 21 3 20 4 19 5 17 6 18 7 14 8 13 9 12 10 8 11 9 12
REMARK SMILES IDX 94 13 10 14 95 15 11 16 7 17 1 18 2 19 3 20 96 21 4 22 5 23
REMARK SMILES IDX 6 24 15 25 16 26 24 27 25 28 26 29 27 30 28 31 29 32 30 33
REMARK SMILES IDX 31 34 32 35 93 36 33 37 92 38 34 39 35 40 36 41 86 42 37 43
REMARK SMILES IDX 91 44 85 45 87 46 38 47 90 48 84 49 83 50 39 52 71 53 51 54
REMARK SMILES IDX 70 55 52 56 55 57 69 58 88 59 53 60 54 61 68 63 89 64 56 65
REMARK SMILES IDX 40 66 41 67 49 68 42 69 43 70 47 71 50 72 44 73 45 74 48 75
REMARK SMILES IDX 46 76 72 77 73 78 81 79 74 80 75 81 79 82 82 83 76 84 77 85
REMARK SMILES IDX 80 86 78 87 57 88 58 89 66 90 59 91 60 92 64 93 67 94 61 95
REMARK SMILES IDX 62 96 65 97 63 98
REMARK H PARENT 87 51 55 62
REMARK Flexibility Score: inf
ROOT
ATOM      1  C   UNL     1      -5.717   4.079   1.118  1.00  0.00     0.188 C 
ENDROOT
BRANCH   1   2
ATOM      2  O   UNL     1      -5.659   4.644   2.430  1.00  0.00    -0.376 OA
BRANCH   2   3
ATOM      3  C   UNL     1      -5.711   6.067   2.553  1.00  0.00     0.202 C 
BRANCH   3   4
ATOM      4  C   UNL     1      -4.563   6.895   1.944  1.00  0.00     0.261 C 
BRANCH   4   5
ATOM      5  O   UNL     1      -4.245   6.540   0.577  1.00  0.00    -0.459 OA
BRANCH   5   6
ATOM      6  C   UNL     1      -3.188   7.175   0.009  1.00  0.00     0.348 C 
ATOM      7  O   UNL     1      -2.458   7.989   0.573  1.00  0.00    -0.245 OA
BRANCH   6   8
ATOM      8  C   UNL     1      -3.024   6.816  -1.421  1.00  0.00     0.138 C 
ATOM      9  C   UNL     1      -2.394   5.640  -1.673  1.00  0.00     0.040 C 
BRANCH   9  10
ATOM     10  C   UNL     1      -2.015   4.483  -0.850  1.00  0.00     0.037 A 
ATOM     11  N   UNL     1      -1.304   2.380  -0.446  1.00  0.00    -0.221 N 
ATOM     12  N   UNL     1      -1.833   2.796   0.709  1.00  0.00    -0.171 NA
ATOM     13  C   UNL     1      -1.369   3.375  -1.395  1.00  0.00     0.140 A 
ATOM     14  C   UNL     1      -2.038   4.108   0.545  1.00  0.00     0.069 A 
ATOM     15  Cl  UNL     1      -0.752   3.080  -2.963  1.00  0.00    -0.061 Cl
ATOM     16  C   UNL     1      -2.188   4.793   1.849  1.00  0.00     0.069 C 
BRANCH  11  17
ATOM     17  C   UNL     1      -0.642   1.133  -0.431  1.00  0.00     0.069 A 
ATOM     18  C   UNL     1       2.963  -0.062  -0.093  1.00  0.00     0.044 C 
ATOM     19  C   UNL     1       1.466  -0.051  -0.192  1.00  0.00    -0.049 A 
ATOM     20  C   UNL     1       0.753  -1.243  -0.018  1.00  0.00     0.004 A 
ATOM     21  C   UNL     1       0.763   1.137  -0.427  1.00  0.00     0.032 A 
ATOM     22  C   UNL     1      -0.643  -1.242  -0.013  1.00  0.00     0.006 A 
ATOM     23  C   UNL     1      -1.364  -0.051  -0.182  1.00  0.00    -0.025 A 
ATOM     24  C   UNL     1      -2.866  -0.125  -0.106  1.00  0.00     0.047 C 
ENDBRANCH  11  17
ENDBRANCH   9  10
BRANCH   8  25
ATOM     25  C   UNL     1      -3.058   7.979  -2.401  1.00  0.00     0.107 C 
ATOM     26  N   UNL     1      -3.086   8.943  -3.213  1.00  0.00    -0.192 NA
ENDBRANCH   8  25
ENDBRANCH   6   8
ENDBRANCH   5   6
ENDBRANCH   4   5
ENDBRANCH   3   4
ENDBRANCH   2   3
ENDBRANCH   1   2
BRANCH   1  27
ATOM     27  C   UNL     1      -7.038   4.235   0.359  1.00  0.00     0.188 C 
BRANCH  27  28
ATOM     28  O   UNL     1      -7.454   5.590   0.300  1.00  0.00    -0.376 OA
BRANCH  28  29
ATOM     29  C   UNL     1      -8.855   5.785   0.437  1.00  0.00     0.202 C 
BRANCH  29  30
ATOM     30  C   UNL     1      -9.690   5.306  -0.758  1.00  0.00     0.261 C 
BRANCH  30  31
ATOM     31  O   UNL     1      -9.415   5.733  -2.122  1.00  0.00    -0.460 OA
BRANCH  31  32
ATOM     32  C   UNL     1      -8.248   6.241  -2.550  1.00  0.00     0.338 C 
ATOM     33  O   UNL     1      -7.580   5.739  -3.458  1.00  0.00    -0.246 OA
BRANCH  32  34
ATOM     34  C   UNL     1      -7.827   7.472  -1.869  1.00  0.00     0.060 A 
ATOM     35  C   UNL     1      -6.481   7.554  -1.589  1.00  0.00     0.016 A 
ATOM     36  C   UNL     1      -8.721   8.421  -1.343  1.00  0.00     0.016 A 
ATOM     37  C   UNL     1      -6.086   8.453  -0.625  1.00  0.00     0.010 A 
ATOM     38  C   UNL     1      -8.295   9.316  -0.343  1.00  0.00     0.010 A 
ATOM     39  C   UNL     1      -6.976   9.269   0.087  1.00  0.00    -0.014 A 
BRANCH  39  40
ATOM     40  C   UNL     1      -6.307  10.147   1.077  1.00  0.00     0.031 A 
ATOM     41  C   UNL     1      -5.156  10.879   0.468  1.00  0.00     0.074 A 
ATOM     42  C   UNL     1      -6.523  10.202   2.415  1.00  0.00     0.049 A 
ATOM     43  N   UNL     1      -3.958  10.964   0.953  1.00  0.00    -0.248 NA
ATOM     44  C   UNL     1      -5.290  11.380  -0.918  1.00  0.00     0.031 C 
ATOM     45  C   UNL     1      -7.548   9.475   3.160  1.00  0.00     0.029 A 
ATOM     46  N   UNL     1      -5.892  10.936   3.410  1.00  0.00    -0.354 N 
ATOM     47  C   UNL     1      -3.235  11.679   0.006  1.00  0.00     0.074 A 
ATOM     48  C   UNL     1      -4.051  11.791  -1.175  1.00  0.00     0.031 C 
ATOM     49  C   UNL     1      -7.619   9.969   4.414  1.00  0.00     0.029 A 
ATOM     50  C   UNL     1      -6.643  11.035   4.581  1.00  0.00     0.049 A 
ATOM     51  H   UNL     1      -5.003  11.345   3.300  1.00  0.00     0.167 HD
ATOM     52  C   UNL     1      -2.284  12.544   0.433  1.00  0.00     0.037 A 
ATOM     53  C   UNL     1      -6.568  11.963   5.577  1.00  0.00     0.037 A 
ATOM     54  C   UNL     1      -1.547  12.051   1.558  1.00  0.00     0.049 A 
ATOM     55  C   UNL     1      -5.216  12.566   5.598  1.00  0.00     0.074 A 
ATOM     56  C   UNL     1      -0.487  11.202   1.785  1.00  0.00     0.029 A 
ATOM     57  N   UNL     1      -2.154  12.251   2.759  1.00  0.00    -0.354 N 
ATOM     58  N   UNL     1      -4.177  12.009   6.152  1.00  0.00    -0.248 NA
ATOM     59  C   UNL     1      -4.938  13.748   4.785  1.00  0.00     0.031 C 
ATOM     60  C   UNL     1      -0.453  10.949   3.190  1.00  0.00     0.029 A 
ATOM     61  C   UNL     1      -1.487  11.656   3.790  1.00  0.00     0.049 A 
ATOM     62  H   UNL     1      -2.984  12.768   2.872  1.00  0.00     0.167 HD
ATOM     63  C   UNL     1      -3.115  12.490   5.418  1.00  0.00     0.074 A 
ATOM     64  C   UNL     1      -3.608  13.668   4.723  1.00  0.00     0.031 C 
ATOM     65  C   UNL     1      -2.074  11.670   5.106  1.00  0.00     0.037 A 
BRANCH  52  66
ATOM     66  C   UNL     1      -2.572  14.023   0.273  1.00  0.00     0.064 A 
ATOM     67  C   UNL     1      -1.550  14.962   0.461  1.00  0.00     0.173 A 
ATOM     68  C   UNL     1      -3.885  14.553   0.199  1.00  0.00     0.173 A 
ATOM     69  F   UNL     1      -0.285  14.559   0.649  1.00  0.00    -0.203 F 
ATOM     70  C   UNL     1      -1.826  16.332   0.537  1.00  0.00     0.198 A 
ATOM     71  C   UNL     1      -4.149  15.915   0.200  1.00  0.00     0.198 A 
ATOM     72  F   UNL     1      -4.973  13.773   0.251  1.00  0.00    -0.203 F 
ATOM     73  F   UNL     1      -0.839  17.195   0.810  1.00  0.00    -0.200 F 
ATOM     74  C   UNL     1      -3.119  16.808   0.384  1.00  0.00     0.200 A 
ATOM     75  F   UNL     1      -5.416  16.342   0.102  1.00  0.00    -0.200 F 
ATOM     76  F   UNL     1      -3.384  18.117   0.477  1.00  0.00    -0.200 F 
ENDBRANCH  52  66
BRANCH  53  77
ATOM     77  C   UNL     1      -7.652  12.510   6.458  1.00  0.00     0.064 A 
ATOM     78  C   UNL     1      -7.361  13.416   7.502  1.00  0.00     0.173 A 
ATOM     79  C   UNL     1      -9.018  12.381   6.139  1.00  0.00     0.173 A 
ATOM     80  F   UNL     1      -6.095  13.645   7.879  1.00  0.00    -0.203 F 
ATOM     81  C   UNL     1      -8.359  14.171   8.134  1.00  0.00     0.198 A 
ATOM     82  C   UNL     1     -10.013  13.119   6.784  1.00  0.00     0.198 A 
ATOM     83  F   UNL     1      -9.431  11.605   5.130  1.00  0.00    -0.203 F 
ATOM     84  F   UNL     1      -8.025  15.080   9.062  1.00  0.00    -0.200 F 
ATOM     85  C   UNL     1      -9.683  14.032   7.763  1.00  0.00     0.200 A 
ATOM     86  F   UNL     1     -11.289  12.983   6.396  1.00  0.00    -0.200 F 
ATOM     87  F   UNL     1     -10.632  14.800   8.315  1.00  0.00    -0.200 F 
ENDBRANCH  53  77
BRANCH  65  88
ATOM     88  C   UNL     1      -1.623  10.692   6.132  1.00  0.00     0.064 A 
ATOM     89  C   UNL     1      -2.390   9.629   6.628  1.00  0.00     0.173 A 
ATOM     90  C   UNL     1      -0.315  10.841   6.623  1.00  0.00     0.173 A 
ATOM     91  F   UNL     1      -3.621   9.381   6.153  1.00  0.00    -0.203 F 
ATOM     92  C   UNL     1      -1.877   8.780   7.607  1.00  0.00     0.198 A 
ATOM     93  C   UNL     1       0.206   9.969   7.569  1.00  0.00     0.198 A 
ATOM     94  F   UNL     1       0.468  11.833   6.168  1.00  0.00    -0.203 F 
ATOM     95  F   UNL     1      -2.634   7.786   8.095  1.00  0.00    -0.200 F 
ATOM     96  C   UNL     1      -0.579   8.946   8.071  1.00  0.00     0.200 A 
ATOM     97  F   UNL     1       1.471  10.116   7.986  1.00  0.00    -0.200 F 
ATOM     98  F   UNL     1      -0.080   8.110   8.992  1.00  0.00    -0.200 F 
ENDBRANCH  65  88
ENDBRANCH  39  40
ENDBRANCH  32  34
ENDBRANCH  31  32
ENDBRANCH  30  31
ENDBRANCH  29  30
ENDBRANCH  28  29
ENDBRANCH  27  28
ENDBRANCH   1  27
TORSDOF 20
