REMARK SMILES C[C@H](C(=O)OCCOCCOCCOC(=O)c1ccc(-c2c3nc(c(-c4c(F)c(F)c(F)c(F)c4F)c4ccc([nH]4)c(-c4c(F)c(F)c(F)c(F)c4F)c4nc(c(-c5c(F)c(F)c(F)c(F)c5F)c5ccc2[nH]5)C=C4)C=C3)cc1)[C@H](C)[NH+]1CCN(c2ccccc2Cl)CC1
REMARK SMILES IDX 9 1 8 2 7 3 6 4 5 5 3 6 4 7 2 8 1 9 80 10 81 11 82 12 83 13
REMARK SMILES IDX 94 14 84 16 93 17 85 18 86 19 87 20 91 21 88 22 90 23 92 24
REMARK SMILES IDX 89 25 10 26 11 27 12 28 13 29 14 30 15 31 16 32 17 33 18 34
REMARK SMILES IDX 79 35 19 36 78 37 20 38 21 39 22 40 72 41 23 42 77 43 71 44
REMARK SMILES IDX 73 45 24 46 76 47 70 48 69 49 25 51 57 52 37 53 56 54 38 55
REMARK SMILES IDX 41 56 55 57 74 58 39 59 40 60 54 62 75 63 42 64 26 65 27 66
REMARK SMILES IDX 35 67 28 68 29 69 33 70 36 71 30 72 31 73 34 74 32 75 58 76
REMARK SMILES IDX 59 77 67 78 60 79 61 80 65 81 68 82 62 83 63 84 66 85 64 86
REMARK SMILES IDX 43 87 44 88 52 89 45 90 46 91 50 92 53 93 47 94 48 95 51 96
REMARK SMILES IDX 49 97
REMARK H PARENT 82 15 73 50 41 61
REMARK Flexibility Score: inf
ROOT
ATOM      1  C   UNL     1       2.083  -0.946  -1.351  1.00  0.00     0.188 C 
ENDROOT
BRANCH   1   2
ATOM      2  O   UNL     1       1.810  -1.310  -2.700  1.00  0.00    -0.376 OA
BRANCH   2   3
ATOM      3  C   UNL     1       0.525  -0.958  -3.213  1.00  0.00     0.202 C 
BRANCH   3   4
ATOM      4  C   UNL     1      -0.642  -1.760  -2.628  1.00  0.00     0.261 C 
BRANCH   4   5
ATOM      5  O   UNL     1      -1.111  -1.248  -1.355  1.00  0.00    -0.463 OA
BRANCH   5   6
ATOM      6  C   UNL     1      -1.637  -2.204  -0.532  1.00  0.00     0.314 C 
ATOM      7  O   UNL     1      -1.578  -3.405  -0.775  1.00  0.00    -0.252 OA
BRANCH   6   8
ATOM      8  C   UNL     1      -2.373  -1.630   0.693  1.00  0.00     0.154 C 
ATOM      9  C   UNL     1      -2.872  -2.826   1.518  1.00  0.00     0.026 C 
BRANCH   8  10
ATOM     10  C   UNL     1      -1.549  -0.577   1.511  1.00  0.00     0.195 C 
ATOM     11  C   UNL     1      -0.107  -1.013   1.699  1.00  0.00     0.076 C 
BRANCH  10  12
ATOM     12  N   UNL     1      -2.196  -0.140   2.775  1.00  0.00    -0.329 N 
ATOM     13  C   UNL     1      -1.969  -0.971   3.985  1.00  0.00     0.284 C 
ATOM     14  C   UNL     1      -1.954   1.283   3.145  1.00  0.00     0.284 C 
ATOM     15  H   UNL     1      -3.170  -0.272   2.500  1.00  0.00     0.348 HD
ATOM     16  C   UNL     1      -0.675  -0.731   4.791  1.00  0.00     0.178 C 
ATOM     17  C   UNL     1      -0.659   1.623   3.942  1.00  0.00     0.178 C 
ATOM     18  N   UNL     1      -0.475   0.691   5.054  1.00  0.00    -0.359 N 
BRANCH  18  19
ATOM     19  C   UNL     1       0.412   0.988   6.084  1.00  0.00     0.056 A 
ATOM     20  C   UNL     1       1.770   0.661   5.974  1.00  0.00     0.027 A 
ATOM     21  C   UNL     1      -0.037   1.488   7.321  1.00  0.00     0.064 A 
ATOM     22  C   UNL     1       2.632   0.742   7.069  1.00  0.00     0.002 A 
ATOM     23  C   UNL     1       0.827   1.581   8.418  1.00  0.00     0.023 A 
ATOM     24  Cl  UNL     1      -1.687   1.958   7.546  1.00  0.00    -0.082 Cl
ATOM     25  C   UNL     1       2.157   1.184   8.297  1.00  0.00     0.002 A 
ENDBRANCH  18  19
ENDBRANCH  10  12
ENDBRANCH   8  10
ENDBRANCH   6   8
ENDBRANCH   5   6
ENDBRANCH   4   5
ENDBRANCH   3   4
ENDBRANCH   2   3
ENDBRANCH   1   2
BRANCH   1  26
ATOM     26  C   UNL     1       1.741   0.507  -0.981  1.00  0.00     0.188 C 
BRANCH  26  27
ATOM     27  O   UNL     1       2.241   1.489  -1.886  1.00  0.00    -0.376 OA
BRANCH  27  28
ATOM     28  C   UNL     1       3.645   1.454  -2.150  1.00  0.00     0.202 C 
BRANCH  28  29
ATOM     29  C   UNL     1       4.500   1.865  -0.950  1.00  0.00     0.261 C 
BRANCH  29  30
ATOM     30  O   UNL     1       4.692   0.754  -0.045  1.00  0.00    -0.460 OA
BRANCH  30  31
ATOM     31  C   UNL     1       4.488   1.039   1.261  1.00  0.00     0.338 C 
ATOM     32  O   UNL     1       4.138   2.101   1.744  1.00  0.00    -0.246 OA
BRANCH  31  33
ATOM     33  C   UNL     1       4.620  -0.174   2.087  1.00  0.00     0.060 A 
ATOM     34  C   UNL     1       3.467  -0.655   2.703  1.00  0.00     0.016 A 
ATOM     35  C   UNL     1       5.865  -0.704   2.422  1.00  0.00     0.016 A 
ATOM     36  C   UNL     1       3.554  -1.615   3.711  1.00  0.00     0.010 A 
ATOM     37  C   UNL     1       5.951  -1.677   3.433  1.00  0.00     0.010 A 
ATOM     38  C   UNL     1       4.802  -2.097   4.129  1.00  0.00    -0.014 A 
BRANCH  38  39
ATOM     39  C   UNL     1       4.886  -2.912   5.377  1.00  0.00     0.031 A 
ATOM     40  C   UNL     1       5.496  -2.324   6.628  1.00  0.00     0.074 A 
ATOM     41  C   UNL     1       4.310  -4.128   5.451  1.00  0.00     0.049 A 
ATOM     42  N   UNL     1       5.593  -2.846   7.827  1.00  0.00    -0.248 NA
ATOM     43  C   UNL     1       6.030  -0.956   6.533  1.00  0.00     0.031 C 
ATOM     44  C   UNL     1       3.595  -4.795   4.365  1.00  0.00     0.029 A 
ATOM     45  N   UNL     1       4.234  -5.019   6.497  1.00  0.00    -0.354 N 
ATOM     46  C   UNL     1       6.129  -1.852   8.635  1.00  0.00     0.074 A 
ATOM     47  C   UNL     1       6.405  -0.717   7.782  1.00  0.00     0.031 C 
ATOM     48  C   UNL     1       3.160  -5.990   4.796  1.00  0.00     0.029 A 
ATOM     49  C   UNL     1       3.618  -6.202   6.168  1.00  0.00     0.049 A 
ATOM     50  H   UNL     1       4.587  -4.827   7.396  1.00  0.00     0.167 HD
ATOM     51  C   UNL     1       6.346  -1.864   9.972  1.00  0.00     0.037 A 
ATOM     52  C   UNL     1       3.483  -7.346   6.869  1.00  0.00     0.037 A 
ATOM     53  C   UNL     1       6.155  -3.001  10.830  1.00  0.00     0.049 A 
ATOM     54  C   UNL     1       4.025  -7.434   8.271  1.00  0.00     0.074 A 
ATOM     55  C   UNL     1       6.393  -3.108  12.190  1.00  0.00     0.029 A 
ATOM     56  N   UNL     1       5.714  -4.241  10.403  1.00  0.00    -0.354 N 
ATOM     57  N   UNL     1       4.516  -6.486   9.029  1.00  0.00    -0.248 NA
ATOM     58  C   UNL     1       4.014  -8.761   8.907  1.00  0.00     0.031 C 
ATOM     59  C   UNL     1       6.157  -4.434  12.572  1.00  0.00     0.029 A 
ATOM     60  C   UNL     1       5.736  -5.139  11.457  1.00  0.00     0.049 A 
ATOM     61  H   UNL     1       5.426  -4.453   9.485  1.00  0.00     0.167 HD
ATOM     62  C   UNL     1       4.853  -7.093  10.232  1.00  0.00     0.074 A 
ATOM     63  C   UNL     1       4.502  -8.492  10.110  1.00  0.00     0.031 C 
ATOM     64  C   UNL     1       5.403  -6.534  11.338  1.00  0.00     0.037 A 
BRANCH  51  65
ATOM     65  C   UNL     1       6.823  -0.592  10.600  1.00  0.00     0.064 A 
ATOM     66  C   UNL     1       5.919   0.430  10.922  1.00  0.00     0.173 A 
ATOM     67  C   UNL     1       8.173  -0.411  10.927  1.00  0.00     0.173 A 
ATOM     68  F   UNL     1       4.619   0.299  10.623  1.00  0.00    -0.203 F 
ATOM     69  C   UNL     1       6.354   1.597  11.543  1.00  0.00     0.198 A 
ATOM     70  C   UNL     1       8.602   0.752  11.558  1.00  0.00     0.198 A 
ATOM     71  F   UNL     1       9.071  -1.365  10.638  1.00  0.00    -0.203 F 
ATOM     72  F   UNL     1       5.477   2.570  11.826  1.00  0.00    -0.200 F 
ATOM     73  C   UNL     1       7.694   1.756  11.864  1.00  0.00     0.200 A 
ATOM     74  F   UNL     1       9.897   0.905  11.871  1.00  0.00    -0.200 F 
ATOM     75  F   UNL     1       8.111   2.879  12.464  1.00  0.00    -0.200 F 
ENDBRANCH  51  65
BRANCH  52  76
ATOM     76  C   UNL     1       2.887  -8.543   6.219  1.00  0.00     0.064 A 
ATOM     77  C   UNL     1       1.685  -9.102   6.671  1.00  0.00     0.173 A 
ATOM     78  C   UNL     1       3.539  -9.176   5.149  1.00  0.00     0.173 A 
ATOM     79  F   UNL     1       1.044  -8.557   7.715  1.00  0.00    -0.203 F 
ATOM     80  C   UNL     1       1.161 -10.251   6.080  1.00  0.00     0.198 A 
ATOM     81  C   UNL     1       3.000 -10.305   4.540  1.00  0.00     0.198 A 
ATOM     82  F   UNL     1       4.704  -8.693   4.692  1.00  0.00    -0.203 F 
ATOM     83  F   UNL     1       0.034 -10.794   6.560  1.00  0.00    -0.200 F 
ATOM     84  C   UNL     1       1.814 -10.846   5.011  1.00  0.00     0.200 A 
ATOM     85  F   UNL     1       3.633 -10.871   3.504  1.00  0.00    -0.200 F 
ATOM     86  F   UNL     1       1.308 -11.949   4.442  1.00  0.00    -0.200 F 
ENDBRANCH  52  76
BRANCH  64  87
ATOM     87  C   UNL     1       5.667  -7.429  12.512  1.00  0.00     0.064 A 
ATOM     88  C   UNL     1       6.721  -8.355  12.499  1.00  0.00     0.173 A 
ATOM     89  C   UNL     1       4.890  -7.335  13.676  1.00  0.00     0.173 A 
ATOM     90  F   UNL     1       7.483  -8.495  11.403  1.00  0.00    -0.203 F 
ATOM     91  C   UNL     1       6.976  -9.165  13.603  1.00  0.00     0.198 A 
ATOM     92  C   UNL     1       5.164  -8.129  14.787  1.00  0.00     0.198 A 
ATOM     93  F   UNL     1       3.874  -6.463  13.742  1.00  0.00    -0.203 F 
ATOM     94  F   UNL     1       7.965 -10.069  13.553  1.00  0.00    -0.200 F 
ATOM     95  C   UNL     1       6.203  -9.047  14.748  1.00  0.00     0.200 A 
ATOM     96  F   UNL     1       4.423  -8.005  15.897  1.00  0.00    -0.200 F 
ATOM     97  F   UNL     1       6.455  -9.822  15.812  1.00  0.00    -0.200 F 
ENDBRANCH  64  87
ENDBRANCH  38  39
ENDBRANCH  31  33
ENDBRANCH  30  31
ENDBRANCH  29  30
ENDBRANCH  28  29
ENDBRANCH  27  28
ENDBRANCH  26  27
ENDBRANCH   1  26
TORSDOF 20
