REMARK SMILES CCC[C@@H]1SC[C@H](C(=O)OCCOCCOCCOC(=O)c2ccc(-c3c4nc(c(-c5c(F)c(F)c(F)c(F)c5F)c5ccc([nH]5)c(-c5c(F)c(F)c(F)c(F)c5F)c5nc(c(-c6c(F)c(F)c(F)c(F)c6F)c6ccc3[nH]6)C=C5)C=C4)cc2)N1C(=O)C[NH+]1CCC([NH3+])CC1
REMARK SMILES IDX 14 1 13 2 12 3 11 4 10 5 8 6 9 7 7 8 4 9 5 10 85 11 6 12
REMARK SMILES IDX 3 13 2 14 1 15 86 16 87 17 88 18 89 19 90 20 95 21 91 23
REMARK SMILES IDX 94 24 92 25 93 26 15 30 16 31 17 32 18 33 19 34 20 35 21 36
REMARK SMILES IDX 22 37 23 38 84 39 24 40 83 41 25 42 26 43 27 44 77 45 28 46
REMARK SMILES IDX 82 47 76 48 78 49 29 50 81 51 75 52 74 53 30 55 62 56 42 57
REMARK SMILES IDX 61 58 43 59 46 60 60 61 79 62 44 63 45 64 59 66 80 67 47 68
REMARK SMILES IDX 31 69 32 70 40 71 33 72 34 73 38 74 41 75 35 76 36 77 39 78
REMARK SMILES IDX 37 79 63 80 64 81 72 82 65 83 66 84 70 85 73 86 67 87 68 88
REMARK SMILES IDX 71 89 69 90 48 91 49 92 57 93 50 94 51 95 55 96 58 97 52 98
REMARK SMILES IDX 53 99 56 100 54 101
REMARK H PARENT 89 22 93 27 93 28 93 29 78 54 46 65
REMARK Flexibility Score: inf
ROOT
ATOM      1  C   UNL     1       0.676  -7.347  -0.318  1.00  0.00     0.188 C 
ENDROOT
BRANCH   1   2
ATOM      2  O   UNL     1       0.255  -8.534  -0.986  1.00  0.00    -0.376 OA
BRANCH   2   3
ATOM      3  C   UNL     1       0.683  -8.719  -2.327  1.00  0.00     0.202 C 
BRANCH   3   4
ATOM      4  C   UNL     1      -0.006  -7.790  -3.324  1.00  0.00     0.261 C 
BRANCH   4   5
ATOM      5  O   UNL     1       0.574  -6.477  -3.271  1.00  0.00    -0.462 OA
BRANCH   5   6
ATOM      6  C   UNL     1      -0.168  -5.396  -2.853  1.00  0.00     0.329 C 
ATOM      7  O   UNL     1      -1.325  -5.415  -2.475  1.00  0.00    -0.250 OA
BRANCH   6   8
ATOM      8  C   UNL     1       0.696  -4.169  -3.139  1.00  0.00     0.206 C 
ATOM      9  C   UNL     1       1.611  -2.053  -3.329  1.00  0.00     0.144 C 
ATOM     10  S   UNL     1       0.624  -2.031  -4.824  1.00  0.00    -0.134 SA
ATOM     11  N   UNL     1       0.815  -2.869  -2.427  1.00  0.00    -0.311 N 
ATOM     12  C   UNL     1       0.295  -3.813  -4.613  1.00  0.00     0.109 C 
BRANCH   9  13
ATOM     13  C   UNL     1       2.420  -0.849  -2.930  1.00  0.00     0.036 C 
BRANCH  13  14
ATOM     14  C   UNL     1       3.575  -1.328  -2.018  1.00  0.00    -0.000 C 
ATOM     15  C   UNL     1       4.711  -0.337  -1.877  1.00  0.00     0.004 C 
ENDBRANCH  13  14
ENDBRANCH   9  13
BRANCH  11  16
ATOM     16  C   UNL     1       0.816  -2.756  -1.034  1.00  0.00     0.279 C 
ATOM     17  O   UNL     1       1.002  -3.767  -0.348  1.00  0.00    -0.268 OA
BRANCH  16  18
ATOM     18  C   UNL     1       0.356  -1.376  -0.370  1.00  0.00     0.363 C 
BRANCH  18  19
ATOM     19  N   UNL     1       1.340  -0.794   0.588  1.00  0.00    -0.327 N 
ATOM     20  C   UNL     1       1.933   0.486   0.192  1.00  0.00     0.268 C 
ATOM     21  C   UNL     1       0.936  -0.723   2.008  1.00  0.00     0.268 C 
ATOM     22  H   UNL     1       2.057  -1.516   0.522  1.00  0.00     0.348 HD
ATOM     23  C   UNL     1       1.108   1.727   0.495  1.00  0.00     0.126 C 
ATOM     24  C   UNL     1       0.269   0.583   2.509  1.00  0.00     0.126 C 
ATOM     25  C   UNL     1       0.983   1.838   2.002  1.00  0.00     0.192 C 
BRANCH  25  26
ATOM     26  N   UNL     1       0.289   3.070   2.374  1.00  0.00    -0.355 N 
ATOM     27  H   UNL     1      -0.645   3.071   1.963  1.00  0.00     0.344 HD
ATOM     28  H   UNL     1       0.814   3.874   2.030  1.00  0.00     0.344 HD
ATOM     29  H   UNL     1       0.213   3.123   3.390  1.00  0.00     0.344 HD
ENDBRANCH  25  26
ENDBRANCH  18  19
ENDBRANCH  16  18
ENDBRANCH  11  16
ENDBRANCH   6   8
ENDBRANCH   5   6
ENDBRANCH   4   5
ENDBRANCH   3   4
ENDBRANCH   2   3
ENDBRANCH   1   2
BRANCH   1  30
ATOM     30  C   UNL     1       2.166  -6.972  -0.427  1.00  0.00     0.188 C 
BRANCH  30  31
ATOM     31  O   UNL     1       3.099  -8.047  -0.310  1.00  0.00    -0.376 OA
BRANCH  31  32
ATOM     32  C   UNL     1       2.930  -8.918   0.809  1.00  0.00     0.202 C 
BRANCH  32  33
ATOM     33  C   UNL     1       3.103  -8.233   2.165  1.00  0.00     0.261 C 
BRANCH  33  34
ATOM     34  O   UNL     1       1.939  -7.439   2.449  1.00  0.00    -0.460 OA
BRANCH  34  35
ATOM     35  C   UNL     1       1.989  -6.732   3.596  1.00  0.00     0.338 C 
ATOM     36  O   UNL     1       2.870  -6.763   4.436  1.00  0.00    -0.246 OA
BRANCH  35  37
ATOM     37  C   UNL     1       0.775  -5.895   3.711  1.00  0.00     0.060 A 
ATOM     38  C   UNL     1       0.384  -5.050   2.671  1.00  0.00     0.016 A 
ATOM     39  C   UNL     1       0.089  -5.861   4.925  1.00  0.00     0.016 A 
ATOM     40  C   UNL     1      -0.632  -4.109   2.874  1.00  0.00     0.010 A 
ATOM     41  C   UNL     1      -0.949  -4.941   5.113  1.00  0.00     0.010 A 
ATOM     42  C   UNL     1      -1.274  -4.002   4.115  1.00  0.00    -0.014 A 
BRANCH  42  43
ATOM     43  C   UNL     1      -2.113  -2.812   4.463  1.00  0.00     0.031 A 
ATOM     44  C   UNL     1      -1.679  -1.932   5.613  1.00  0.00     0.074 A 
ATOM     45  C   UNL     1      -3.203  -2.441   3.765  1.00  0.00     0.049 A 
ATOM     46  N   UNL     1      -2.356  -1.034   6.285  1.00  0.00    -0.248 NA
ATOM     47  C   UNL     1      -0.291  -2.100   6.071  1.00  0.00     0.031 C 
ATOM     48  C   UNL     1      -3.701  -3.082   2.552  1.00  0.00     0.029 A 
ATOM     49  N   UNL     1      -4.086  -1.407   3.982  1.00  0.00    -0.354 N 
ATOM     50  C   UNL     1      -1.512  -0.610   7.305  1.00  0.00     0.074 A 
ATOM     51  C   UNL     1      -0.263  -1.323   7.143  1.00  0.00     0.031 C 
ATOM     52  C   UNL     1      -4.769  -2.400   2.104  1.00  0.00     0.029 A 
ATOM     53  C   UNL     1      -5.092  -1.333   3.050  1.00  0.00     0.049 A 
ATOM     54  H   UNL     1      -4.003  -0.778   4.735  1.00  0.00     0.167 HD
ATOM     55  C   UNL     1      -1.763   0.277   8.298  1.00  0.00     0.037 A 
ATOM     56  C   UNL     1      -6.173  -0.529   2.987  1.00  0.00     0.037 A 
ATOM     57  C   UNL     1      -2.964   1.062   8.405  1.00  0.00     0.049 A 
ATOM     58  C   UNL     1      -6.450   0.445   4.105  1.00  0.00     0.074 A 
ATOM     59  C   UNL     1      -3.327   1.964   9.391  1.00  0.00     0.029 A 
ATOM     60  N   UNL     1      -3.981   1.069   7.464  1.00  0.00    -0.354 N 
ATOM     61  N   UNL     1      -5.732   0.720   5.165  1.00  0.00    -0.248 NA
ATOM     62  C   UNL     1      -7.717   1.192   4.033  1.00  0.00     0.031 C 
ATOM     63  C   UNL     1      -4.574   2.504   9.054  1.00  0.00     0.029 A 
ATOM     64  C   UNL     1      -4.970   1.963   7.843  1.00  0.00     0.049 A 
ATOM     65  H   UNL     1      -3.998   0.520   6.647  1.00  0.00     0.167 HD
ATOM     66  C   UNL     1      -6.455   1.663   5.885  1.00  0.00     0.074 A 
ATOM     67  C   UNL     1      -7.656   1.940   5.127  1.00  0.00     0.031 C 
ATOM     68  C   UNL     1      -6.158   2.235   7.078  1.00  0.00     0.037 A 
BRANCH  55  69
ATOM     69  C   UNL     1      -0.740   0.393   9.389  1.00  0.00     0.064 A 
ATOM     70  C   UNL     1       0.488   1.040   9.204  1.00  0.00     0.173 A 
ATOM     71  C   UNL     1      -1.009  -0.158  10.653  1.00  0.00     0.173 A 
ATOM     72  F   UNL     1       0.801   1.565   8.010  1.00  0.00    -0.203 F 
ATOM     73  C   UNL     1       1.424   1.104  10.234  1.00  0.00     0.198 A 
ATOM     74  C   UNL     1      -0.084  -0.067  11.688  1.00  0.00     0.198 A 
ATOM     75  F   UNL     1      -2.174  -0.784  10.884  1.00  0.00    -0.203 F 
ATOM     76  F   UNL     1       2.616   1.679  10.020  1.00  0.00    -0.200 F 
ATOM     77  C   UNL     1       1.136   0.555  11.476  1.00  0.00     0.200 A 
ATOM     78  F   UNL     1      -0.371  -0.588  12.890  1.00  0.00    -0.200 F 
ATOM     79  F   UNL     1       2.038   0.618  12.465  1.00  0.00    -0.200 F 
ENDBRANCH  55  69
BRANCH  56  80
ATOM     80  C   UNL     1      -7.117  -0.639   1.843  1.00  0.00     0.064 A 
ATOM     81  C   UNL     1      -7.243   0.405   0.915  1.00  0.00     0.173 A 
ATOM     82  C   UNL     1      -7.919  -1.775   1.659  1.00  0.00     0.173 A 
ATOM     83  F   UNL     1      -6.526   1.528   1.069  1.00  0.00    -0.203 F 
ATOM     84  C   UNL     1      -8.137   0.317  -0.150  1.00  0.00     0.198 A 
ATOM     85  C   UNL     1      -8.790  -1.874   0.577  1.00  0.00     0.198 A 
ATOM     86  F   UNL     1      -7.849  -2.794   2.528  1.00  0.00    -0.203 F 
ATOM     87  F   UNL     1      -8.268   1.346  -0.998  1.00  0.00    -0.200 F 
ATOM     88  C   UNL     1      -8.902  -0.827  -0.324  1.00  0.00     0.200 A 
ATOM     89  F   UNL     1      -9.521  -2.984   0.408  1.00  0.00    -0.200 F 
ATOM     90  F   UNL     1      -9.755  -0.914  -1.354  1.00  0.00    -0.200 F 
ENDBRANCH  56  80
BRANCH  68  91
ATOM     91  C   UNL     1      -7.136   3.228   7.632  1.00  0.00     0.064 A 
ATOM     92  C   UNL     1      -8.349   2.818   8.204  1.00  0.00     0.173 A 
ATOM     93  C   UNL     1      -6.839   4.599   7.631  1.00  0.00     0.173 A 
ATOM     94  F   UNL     1      -8.684   1.519   8.217  1.00  0.00    -0.203 F 
ATOM     95  C   UNL     1      -9.239   3.747   8.739  1.00  0.00     0.198 A 
ATOM     96  C   UNL     1      -7.721   5.524   8.185  1.00  0.00     0.198 A 
ATOM     97  F   UNL     1      -5.690   5.042   7.100  1.00  0.00    -0.203 F 
ATOM     98  F   UNL     1     -10.409   3.337   9.248  1.00  0.00    -0.200 F 
ATOM     99  C   UNL     1      -8.922   5.098   8.733  1.00  0.00     0.200 A 
ATOM    100  F   UNL     1      -7.411   6.827   8.186  1.00  0.00    -0.200 F 
ATOM    101  F   UNL     1      -9.778   5.990   9.251  1.00  0.00    -0.200 F 
ENDBRANCH  68  91
ENDBRANCH  42  43
ENDBRANCH  35  37
ENDBRANCH  34  35
ENDBRANCH  33  34
ENDBRANCH  32  33
ENDBRANCH  31  32
ENDBRANCH  30  31
ENDBRANCH   1  30
TORSDOF 23
