REMARK SMILES Cc1nc(CC(=O)N2Cc3nc[nH]c3C[C@H]2C(=O)OCCOCCOCCOC(=O)c2ccc(-c3c4nc(c(-c5c(F)c(F)c(F)c(F)c5F)c5ccc([nH]5)c(-c5c(F)c(F)c(F)c(F)c5F)c5nc(c(-c6c(F)c(F)c(F)c(F)c6F)c6ccc3[nH]6)C=C5)C=C4)cc2)cs1
REMARK SMILES IDX 23 1 22 2 21 3 20 4 19 5 17 6 18 7 16 8 8 9 9 10 10 11 15 12
REMARK SMILES IDX 11 13 14 14 12 15 13 16 6 18 7 19 5 20 4 21 1 22 2 23 3 24
REMARK SMILES IDX 95 25 94 26 24 27 25 28 26 29 27 30 28 31 29 32 30 33 31 34
REMARK SMILES IDX 32 35 93 36 33 37 92 38 34 39 35 40 36 41 86 42 37 43 91 44
REMARK SMILES IDX 85 45 87 46 38 47 90 48 84 49 83 50 39 52 71 53 51 54 70 55
REMARK SMILES IDX 52 56 55 57 69 58 88 59 53 60 54 61 68 63 89 64 56 65 40 66
REMARK SMILES IDX 41 67 49 68 42 69 43 70 47 71 50 72 44 73 45 74 48 75 46 76
REMARK SMILES IDX 72 77 73 78 81 79 74 80 75 81 79 82 82 83 76 84 77 85 80 86
REMARK SMILES IDX 78 87 57 88 58 89 66 90 59 91 60 92 64 93 67 94 61 95 62 96
REMARK SMILES IDX 65 97 63 98
REMARK H PARENT 13 17 87 51 55 62
REMARK Flexibility Score: inf
ROOT
ATOM      1  C   UNL     1      -1.251  -4.204  -2.663  1.00  0.00     0.188 C 
ENDROOT
BRANCH   1   2
ATOM      2  O   UNL     1      -2.014  -4.863  -3.642  1.00  0.00    -0.376 OA
BRANCH   2   3
ATOM      3  C   UNL     1      -1.708  -4.635  -5.008  1.00  0.00     0.202 C 
BRANCH   3   4
ATOM      4  C   UNL     1      -1.017  -3.349  -5.510  1.00  0.00     0.261 C 
BRANCH   4   5
ATOM      5  O   UNL     1       0.128  -2.900  -4.756  1.00  0.00    -0.462 OA
BRANCH   5   6
ATOM      6  C   UNL     1       0.096  -1.618  -4.312  1.00  0.00     0.329 C 
ATOM      7  O   UNL     1      -0.826  -0.840  -4.556  1.00  0.00    -0.250 OA
BRANCH   6   8
ATOM      8  C   UNL     1       1.320  -1.167  -3.470  1.00  0.00     0.201 C 
ATOM      9  N   UNL     1       2.435  -2.088  -3.038  1.00  0.00    -0.322 N 
ATOM     10  C   UNL     1       3.233  -2.727  -4.120  1.00  0.00     0.178 C 
ATOM     11  C   UNL     1       3.355  -1.798  -5.278  1.00  0.00     0.081 A 
ATOM     12  C   UNL     1       1.943   0.032  -4.253  1.00  0.00     0.093 C 
ATOM     13  N   UNL     1       3.925  -2.114  -6.481  1.00  0.00    -0.240 NA
ATOM     14  C   UNL     1       2.768  -0.554  -5.337  1.00  0.00     0.042 A 
ATOM     15  C   UNL     1       3.691  -1.074  -7.253  1.00  0.00     0.197 A 
ATOM     16  N   UNL     1       2.992  -0.094  -6.597  1.00  0.00    -0.348 N 
ATOM     17  H   UNL     1       2.708   0.774  -6.966  1.00  0.00     0.167 HD
BRANCH   9  18
ATOM     18  C   UNL     1       3.007  -2.090  -1.764  1.00  0.00     0.229 C 
ATOM     19  O   UNL     1       4.226  -2.248  -1.619  1.00  0.00    -0.274 OA
BRANCH  18  20
ATOM     20  C   UNL     1       2.152  -2.106  -0.498  1.00  0.00     0.157 C 
BRANCH  20  21
ATOM     21  C   UNL     1       1.244  -0.956  -0.260  1.00  0.00     0.061 A 
ATOM     22  C   UNL     1      -2.266   0.035   0.009  1.00  0.00     0.079 C 
ATOM     23  C   UNL     1      -0.782  -0.075  -0.035  1.00  0.00     0.090 A 
ATOM     24  N   UNL     1      -0.127  -1.187  -0.295  1.00  0.00    -0.246 NA
ATOM     25  S   UNL     1       0.199   1.308   0.242  1.00  0.00    -0.127 S 
ATOM     26  C   UNL     1       1.601   0.346   0.033  1.00  0.00     0.091 A 
ENDBRANCH  20  21
ENDBRANCH  18  20
ENDBRANCH   9  18
ENDBRANCH   6   8
ENDBRANCH   5   6
ENDBRANCH   4   5
ENDBRANCH   3   4
ENDBRANCH   2   3
ENDBRANCH   1   2
BRANCH   1  27
ATOM     27  C   UNL     1       0.234  -4.551  -2.498  1.00  0.00     0.188 C 
BRANCH  27  28
ATOM     28  O   UNL     1       1.076  -5.052  -3.513  1.00  0.00    -0.376 OA
BRANCH  28  29
ATOM     29  C   UNL     1       1.038  -6.316  -4.146  1.00  0.00     0.202 C 
BRANCH  29  30
ATOM     30  C   UNL     1       0.508  -7.587  -3.502  1.00  0.00     0.261 C 
BRANCH  30  31
ATOM     31  O   UNL     1      -0.223  -7.350  -2.330  1.00  0.00    -0.460 OA
BRANCH  31  32
ATOM     32  C   UNL     1       0.567  -7.202  -1.247  1.00  0.00     0.338 C 
ATOM     33  O   UNL     1       1.781  -7.215  -1.192  1.00  0.00    -0.246 OA
BRANCH  32  34
ATOM     34  C   UNL     1      -0.318  -7.026  -0.096  1.00  0.00     0.060 A 
ATOM     35  C   UNL     1       0.310  -6.737   1.115  1.00  0.00     0.016 A 
ATOM     36  C   UNL     1      -1.631  -7.505  -0.191  1.00  0.00     0.016 A 
ATOM     37  C   UNL     1      -0.248  -7.267   2.246  1.00  0.00     0.010 A 
ATOM     38  C   UNL     1      -2.167  -8.067   0.927  1.00  0.00     0.010 A 
ATOM     39  C   UNL     1      -1.401  -8.038   2.091  1.00  0.00    -0.014 A 
BRANCH  39  40
ATOM     40  C   UNL     1      -1.801  -8.876   3.188  1.00  0.00     0.031 A 
ATOM     41  C   UNL     1      -2.539  -8.143   4.232  1.00  0.00     0.074 A 
ATOM     42  C   UNL     1      -1.601 -10.205   3.109  1.00  0.00     0.049 A 
ATOM     43  N   UNL     1      -2.284  -8.091   5.494  1.00  0.00    -0.248 NA
ATOM     44  C   UNL     1      -3.616  -7.236   3.792  1.00  0.00     0.031 C 
ATOM     45  C   UNL     1      -1.107 -10.977   1.960  1.00  0.00     0.029 A 
ATOM     46  N   UNL     1      -1.929 -11.172   4.001  1.00  0.00    -0.354 N 
ATOM     47  C   UNL     1      -3.284  -7.293   6.035  1.00  0.00     0.074 A 
ATOM     48  C   UNL     1      -3.963  -6.660   4.939  1.00  0.00     0.031 C 
ATOM     49  C   UNL     1      -1.401 -12.283   2.146  1.00  0.00     0.029 A 
ATOM     50  C   UNL     1      -2.010 -12.444   3.454  1.00  0.00     0.049 A 
ATOM     51  H   UNL     1      -2.095 -10.987   4.954  1.00  0.00     0.167 HD
ATOM     52  C   UNL     1      -3.655  -7.434   7.332  1.00  0.00     0.037 A 
ATOM     53  C   UNL     1      -2.644 -13.506   4.009  1.00  0.00     0.037 A 
ATOM     54  C   UNL     1      -2.606  -8.029   8.116  1.00  0.00     0.049 A 
ATOM     55  C   UNL     1      -2.862 -13.187   5.447  1.00  0.00     0.074 A 
ATOM     56  C   UNL     1      -1.301  -7.667   8.392  1.00  0.00     0.029 A 
ATOM     57  N   UNL     1      -2.704  -9.360   8.438  1.00  0.00    -0.354 N 
ATOM     58  N   UNL     1      -1.906 -13.113   6.332  1.00  0.00    -0.248 NA
ATOM     59  C   UNL     1      -4.095 -12.497   5.808  1.00  0.00     0.031 C 
ATOM     60  C   UNL     1      -0.572  -8.890   8.422  1.00  0.00     0.029 A 
ATOM     61  C   UNL     1      -1.477  -9.931   8.210  1.00  0.00     0.049 A 
ATOM     62  H   UNL     1      -3.507  -9.821   8.771  1.00  0.00     0.167 HD
ATOM     63  C   UNL     1      -2.252 -12.039   7.141  1.00  0.00     0.074 A 
ATOM     64  C   UNL     1      -3.651 -11.760   6.831  1.00  0.00     0.031 C 
ATOM     65  C   UNL     1      -1.294 -11.291   7.762  1.00  0.00     0.037 A 
BRANCH  52  66
ATOM     66  C   UNL     1      -5.092  -7.384   7.770  1.00  0.00     0.064 A 
ATOM     67  C   UNL     1      -5.383  -7.368   9.144  1.00  0.00     0.173 A 
ATOM     68  C   UNL     1      -6.186  -7.648   6.913  1.00  0.00     0.173 A 
ATOM     69  F   UNL     1      -4.412  -7.151  10.044  1.00  0.00    -0.203 F 
ATOM     70  C   UNL     1      -6.658  -7.669   9.626  1.00  0.00     0.198 A 
ATOM     71  C   UNL     1      -7.468  -7.889   7.395  1.00  0.00     0.198 A 
ATOM     72  F   UNL     1      -6.043  -7.797   5.590  1.00  0.00    -0.203 F 
ATOM     73  F   UNL     1      -6.860  -7.770  10.946  1.00  0.00    -0.200 F 
ATOM     74  C   UNL     1      -7.698  -7.934   8.752  1.00  0.00     0.200 A 
ATOM     75  F   UNL     1      -8.456  -8.161   6.530  1.00  0.00    -0.200 F 
ATOM     76  F   UNL     1      -8.905  -8.283   9.214  1.00  0.00    -0.200 F 
ENDBRANCH  52  66
BRANCH  53  77
ATOM     77  C   UNL     1      -3.341 -14.619   3.320  1.00  0.00     0.064 A 
ATOM     78  C   UNL     1      -3.699 -15.786   4.016  1.00  0.00     0.173 A 
ATOM     79  C   UNL     1      -3.890 -14.473   2.030  1.00  0.00     0.173 A 
ATOM     80  F   UNL     1      -3.262 -15.985   5.267  1.00  0.00    -0.203 F 
ATOM     81  C   UNL     1      -4.563 -16.737   3.461  1.00  0.00     0.198 A 
ATOM     82  C   UNL     1      -4.739 -15.430   1.471  1.00  0.00     0.198 A 
ATOM     83  F   UNL     1      -3.693 -13.357   1.314  1.00  0.00    -0.203 F 
ATOM     84  F   UNL     1      -4.930 -17.806   4.181  1.00  0.00    -0.200 F 
ATOM     85  C   UNL     1      -5.087 -16.555   2.192  1.00  0.00     0.200 A 
ATOM     86  F   UNL     1      -5.264 -15.222   0.255  1.00  0.00    -0.200 F 
ATOM     87  F   UNL     1      -5.956 -17.438   1.682  1.00  0.00    -0.200 F 
ENDBRANCH  53  77
BRANCH  65  88
ATOM     88  C   UNL     1       0.114 -11.816   7.750  1.00  0.00     0.064 A 
ATOM     89  C   UNL     1       0.868 -12.001   6.577  1.00  0.00     0.173 A 
ATOM     90  C   UNL     1       0.771 -12.000   8.973  1.00  0.00     0.173 A 
ATOM     91  F   UNL     1       0.346 -11.736   5.374  1.00  0.00    -0.203 F 
ATOM     92  C   UNL     1       2.200 -12.405   6.629  1.00  0.00     0.198 A 
ATOM     93  C   UNL     1       2.114 -12.364   9.023  1.00  0.00     0.198 A 
ATOM     94  F   UNL     1       0.120 -11.775  10.126  1.00  0.00    -0.203 F 
ATOM     95  F   UNL     1       2.891 -12.591   5.494  1.00  0.00    -0.200 F 
ATOM     96  C   UNL     1       2.824 -12.579   7.852  1.00  0.00     0.200 A 
ATOM     97  F   UNL     1       2.728 -12.479  10.208  1.00  0.00    -0.200 F 
ATOM     98  F   UNL     1       4.117 -12.927   7.905  1.00  0.00    -0.200 F 
ENDBRANCH  65  88
ENDBRANCH  39  40
ENDBRANCH  32  34
ENDBRANCH  31  32
ENDBRANCH  30  31
ENDBRANCH  29  30
ENDBRANCH  28  29
ENDBRANCH  27  28
ENDBRANCH   1  27
TORSDOF 20
