REMARK SMILES C[NH2+][C@]1(C(=O)OCCOCCOCCOC(=O)c2ccc(-c3c4nc(c(-c5c(F)c(F)c(F)c(F)c5F)c5ccc([nH]5)c(-c5c(F)c(F)c(F)c(F)c5F)c5nc(c(-c6c(F)c(F)c(F)c(F)c6F)c6ccc3[nH]6)C=C5)C=C4)cc2)CCCCC1(C)C
REMARK SMILES IDX 11 1 10 2 9 3 8 4 7 5 6 6 4 7 5 8 3 9 81 10 85 11 82 12
REMARK SMILES IDX 84 13 86 14 87 15 83 16 2 17 1 18 12 21 13 22 14 23 15 24
REMARK SMILES IDX 16 25 17 26 18 27 19 28 80 29 20 30 79 31 21 32 22 33 23 34
REMARK SMILES IDX 73 35 24 36 78 37 72 38 74 39 25 40 77 41 71 42 70 43 26 45
REMARK SMILES IDX 58 46 38 47 57 48 39 49 42 50 56 51 75 52 40 53 41 54 55 56
REMARK SMILES IDX 76 57 43 58 27 59 28 60 36 61 29 62 30 63 34 64 37 65 31 66
REMARK SMILES IDX 32 67 35 68 33 69 59 70 60 71 68 72 61 73 62 74 66 75 69 76
REMARK SMILES IDX 63 77 64 78 67 79 65 80 44 81 45 82 53 83 46 84 47 85 51 86
REMARK SMILES IDX 54 87 48 88 49 89 52 90 50 91
REMARK H PARENT 2 19 2 20 74 44 42 55
REMARK Flexibility Score: inf
ROOT
ATOM      1  C   UNL     1       2.339   2.268  -1.891  1.00  0.00     0.188 C 
ENDROOT
BRANCH   1   2
ATOM      2  C   UNL     1       2.296   2.672  -0.417  1.00  0.00     0.188 C 
BRANCH   2   3
ATOM      3  O   UNL     1       3.357   2.229   0.409  1.00  0.00    -0.376 OA
BRANCH   3   4
ATOM      4  C   UNL     1       3.523   0.818   0.497  1.00  0.00     0.202 C 
BRANCH   4   5
ATOM      5  C   UNL     1       2.369  -0.031   1.071  1.00  0.00     0.261 C 
BRANCH   5   6
ATOM      6  O   UNL     1       1.024   0.212   0.582  1.00  0.00    -0.459 OA
BRANCH   6   7
ATOM      7  C   UNL     1       0.201   0.868   1.452  1.00  0.00     0.368 C 
ATOM      8  O   UNL     1       0.613   1.302   2.529  1.00  0.00    -0.245 OA
BRANCH   7   9
ATOM      9  C   UNL     1      -1.363   0.874   1.080  1.00  0.00     0.199 C 
ATOM     10  C   UNL     1      -1.946   1.990   2.023  1.00  0.00     0.082 C 
ATOM     11  C   UNL     1      -1.800   1.223  -0.420  1.00  0.00     0.031 C 
ATOM     12  C   UNL     1      -1.493   3.399   1.620  1.00  0.00     0.007 C 
ATOM     13  C   UNL     1      -1.452   2.686  -0.793  1.00  0.00     0.013 C 
ATOM     14  C   UNL     1      -1.190   0.282  -1.484  1.00  0.00     0.018 C 
ATOM     15  C   UNL     1      -3.345   1.100  -0.631  1.00  0.00     0.018 C 
ATOM     16  C   UNL     1      -1.926   3.735   0.206  1.00  0.00     0.001 C 
BRANCH   9  17
ATOM     17  N   UNL     1      -1.828  -0.512   1.423  1.00  0.00    -0.334 N 
ATOM     18  C   UNL     1      -3.080  -0.629   2.156  1.00  0.00     0.331 C 
ATOM     19  H   UNL     1      -1.935  -1.026   0.548  1.00  0.00     0.347 HD
ATOM     20  H   UNL     1      -1.117  -0.880   2.055  1.00  0.00     0.347 HD
ENDBRANCH   9  17
ENDBRANCH   7   9
ENDBRANCH   6   7
ENDBRANCH   5   6
ENDBRANCH   4   5
ENDBRANCH   3   4
ENDBRANCH   2   3
ENDBRANCH   1   2
BRANCH   1  21
ATOM     21  O   UNL     1       2.731   0.937  -2.179  1.00  0.00    -0.376 OA
BRANCH  21  22
ATOM     22  C   UNL     1       2.700   0.559  -3.558  1.00  0.00     0.202 C 
BRANCH  22  23
ATOM     23  C   UNL     1       3.361   1.512  -4.582  1.00  0.00     0.261 C 
BRANCH  23  24
ATOM     24  O   UNL     1       2.904   2.887  -4.575  1.00  0.00    -0.460 OA
BRANCH  24  25
ATOM     25  C   UNL     1       1.590   3.110  -4.803  1.00  0.00     0.338 C 
ATOM     26  O   UNL     1       0.780   2.283  -5.194  1.00  0.00    -0.246 OA
BRANCH  25  27
ATOM     27  C   UNL     1       1.205   4.443  -4.251  1.00  0.00     0.060 A 
ATOM     28  C   UNL     1      -0.006   4.521  -3.550  1.00  0.00     0.016 A 
ATOM     29  C   UNL     1       1.996   5.590  -4.367  1.00  0.00     0.016 A 
ATOM     30  C   UNL     1      -0.442   5.726  -2.987  1.00  0.00     0.010 A 
ATOM     31  C   UNL     1       1.542   6.811  -3.831  1.00  0.00     0.010 A 
ATOM     32  C   UNL     1       0.307   6.895  -3.155  1.00  0.00    -0.014 A 
BRANCH  32  33
ATOM     33  C   UNL     1      -0.305   8.215  -2.820  1.00  0.00     0.031 A 
ATOM     34  C   UNL     1      -0.932   9.014  -3.934  1.00  0.00     0.074 A 
ATOM     35  C   UNL     1      -0.394   8.680  -1.558  1.00  0.00     0.049 A 
ATOM     36  N   UNL     1      -1.450  10.217  -3.918  1.00  0.00    -0.248 NA
ATOM     37  C   UNL     1      -0.993   8.352  -5.246  1.00  0.00     0.031 C 
ATOM     38  C   UNL     1       0.057   7.978  -0.360  1.00  0.00     0.029 A 
ATOM     39  N   UNL     1      -0.901   9.868  -1.078  1.00  0.00    -0.354 N 
ATOM     40  C   UNL     1      -1.879  10.462  -5.216  1.00  0.00     0.074 A 
ATOM     41  C   UNL     1      -1.551   9.288  -5.997  1.00  0.00     0.031 C 
ATOM     42  C   UNL     1      -0.180   8.752   0.715  1.00  0.00     0.029 A 
ATOM     43  C   UNL     1      -0.753  10.027   0.280  1.00  0.00     0.049 A 
ATOM     44  H   UNL     1      -1.331  10.541  -1.654  1.00  0.00     0.167 HD
ATOM     45  C   UNL     1      -2.492  11.562  -5.718  1.00  0.00     0.037 A 
ATOM     46  C   UNL     1      -1.011  11.090   1.072  1.00  0.00     0.037 A 
ATOM     47  C   UNL     1      -2.827  12.732  -4.949  1.00  0.00     0.049 A 
ATOM     48  C   UNL     1      -1.580  12.355   0.469  1.00  0.00     0.074 A 
ATOM     49  C   UNL     1      -3.425  13.904  -5.379  1.00  0.00     0.029 A 
ATOM     50  N   UNL     1      -2.592  12.879  -3.591  1.00  0.00    -0.354 N 
ATOM     51  N   UNL     1      -1.947  12.595  -0.766  1.00  0.00    -0.248 NA
ATOM     52  C   UNL     1      -1.762  13.502   1.374  1.00  0.00     0.031 C 
ATOM     53  C   UNL     1      -3.497  14.783  -4.294  1.00  0.00     0.029 A 
ATOM     54  C   UNL     1      -3.008  14.134  -3.173  1.00  0.00     0.049 A 
ATOM     55  H   UNL     1      -2.190  12.194  -3.009  1.00  0.00     0.167 HD
ATOM     56  C   UNL     1      -2.431  13.900  -0.778  1.00  0.00     0.074 A 
ATOM     57  C   UNL     1      -2.325  14.398   0.575  1.00  0.00     0.031 C 
ATOM     58  C   UNL     1      -2.918  14.619  -1.819  1.00  0.00     0.037 A 
BRANCH  45  59
ATOM     59  C   UNL     1      -2.788  11.574  -7.190  1.00  0.00     0.064 A 
ATOM     60  C   UNL     1      -3.787  10.769  -7.755  1.00  0.00     0.173 A 
ATOM     61  C   UNL     1      -2.066  12.422  -8.045  1.00  0.00     0.173 A 
ATOM     62  F   UNL     1      -4.495   9.929  -6.984  1.00  0.00    -0.203 F 
ATOM     63  C   UNL     1      -4.031  10.789  -9.127  1.00  0.00     0.198 A 
ATOM     64  C   UNL     1      -2.335  12.463  -9.410  1.00  0.00     0.198 A 
ATOM     65  F   UNL     1      -1.102  13.216  -7.555  1.00  0.00    -0.203 F 
ATOM     66  F   UNL     1      -4.952   9.970  -9.654  1.00  0.00    -0.200 F 
ATOM     67  C   UNL     1      -3.310  11.640  -9.951  1.00  0.00     0.200 A 
ATOM     68  F   UNL     1      -1.645  13.296 -10.201  1.00  0.00    -0.200 F 
ATOM     69  F   UNL     1      -3.547  11.659 -11.270  1.00  0.00    -0.200 F 
ENDBRANCH  45  59
BRANCH  46  70
ATOM     70  C   UNL     1      -0.685  11.045   2.527  1.00  0.00     0.064 A 
ATOM     71  C   UNL     1      -1.686  11.145   3.505  1.00  0.00     0.173 A 
ATOM     72  C   UNL     1       0.645  10.971   2.969  1.00  0.00     0.173 A 
ATOM     73  F   UNL     1      -2.971  11.260   3.139  1.00  0.00    -0.203 F 
ATOM     74  C   UNL     1      -1.368  11.198   4.862  1.00  0.00     0.198 A 
ATOM     75  C   UNL     1       0.960  10.988   4.327  1.00  0.00     0.198 A 
ATOM     76  F   UNL     1       1.645  10.892   2.079  1.00  0.00    -0.203 F 
ATOM     77  F   UNL     1      -2.340  11.362   5.770  1.00  0.00    -0.200 F 
ATOM     78  C   UNL     1      -0.046  11.113   5.272  1.00  0.00     0.200 A 
ATOM     79  F   UNL     1       2.239  10.900   4.717  1.00  0.00    -0.200 F 
ATOM     80  F   UNL     1       0.260  11.169   6.576  1.00  0.00    -0.200 F 
ENDBRANCH  46  70
BRANCH  58  81
ATOM     81  C   UNL     1      -3.429  16.006  -1.538  1.00  0.00     0.064 A 
ATOM     82  C   UNL     1      -2.567  17.065  -1.216  1.00  0.00     0.173 A 
ATOM     83  C   UNL     1      -4.800  16.291  -1.647  1.00  0.00     0.173 A 
ATOM     84  F   UNL     1      -1.250  16.848  -1.088  1.00  0.00    -0.203 F 
ATOM     85  C   UNL     1      -3.061  18.349  -0.989  1.00  0.00     0.198 A 
ATOM     86  C   UNL     1      -5.286  17.581  -1.452  1.00  0.00     0.198 A 
ATOM     87  F   UNL     1      -5.670  15.319  -1.962  1.00  0.00    -0.203 F 
ATOM     88  F   UNL     1      -2.223  19.334  -0.636  1.00  0.00    -0.200 F 
ATOM     89  C   UNL     1      -4.417  18.607  -1.115  1.00  0.00     0.200 A 
ATOM     90  F   UNL     1      -6.595  17.832  -1.593  1.00  0.00    -0.200 F 
ATOM     91  F   UNL     1      -4.888  19.845  -0.908  1.00  0.00    -0.200 F 
ENDBRANCH  58  81
ENDBRANCH  32  33
ENDBRANCH  25  27
ENDBRANCH  24  25
ENDBRANCH  23  24
ENDBRANCH  22  23
ENDBRANCH  21  22
ENDBRANCH   1  21
TORSDOF 18
