REMARK SMILES O=C(CNc1nc(-c2ccccc2)c(-c2ccccc2)s1)OCCOCCOCCOC(=O)c1ccc(-c2c3nc(c(-c4c(F)c(F)c(F)c(F)c4F)c4ccc([nH]4)c(-c4c(F)c(F)c(F)c(F)c4F)c4nc(c(-c5c(F)c(F)c(F)c(F)c5F)c5ccc2[nH]5)C=C4)C=C3)cc1
REMARK SMILES IDX 26 1 25 2 24 3 23 4 22 5 2 6 1 7 3 8 4 9 5 11 6 12 21 13
REMARK SMILES IDX 7 14 14 15 8 16 9 17 13 18 10 19 12 20 11 21 15 22 16 23
REMARK SMILES IDX 20 24 17 25 19 26 18 27 27 28 28 29 29 30 30 31 31 32 32 33
REMARK SMILES IDX 33 34 34 35 35 36 96 37 36 38 95 39 37 40 38 41 39 42 89 43
REMARK SMILES IDX 40 44 94 45 88 46 90 47 41 48 93 49 87 50 86 51 42 53 74 54
REMARK SMILES IDX 54 55 73 56 55 57 58 58 72 59 91 60 56 61 57 62 71 64 92 65
REMARK SMILES IDX 59 66 43 67 44 68 52 69 45 70 46 71 50 72 53 73 47 74 48 75
REMARK SMILES IDX 51 76 49 77 75 78 76 79 84 80 77 81 78 82 82 83 85 84 79 85
REMARK SMILES IDX 80 86 83 87 81 88 60 89 61 90 69 91 62 92 63 93 67 94 70 95
REMARK SMILES IDX 64 96 65 97 68 98 66 99
REMARK H PARENT 4 10 90 52 58 63
REMARK Flexibility Score: inf
ROOT
ATOM      1  C   UNL     1       2.833  -1.576  -0.871  1.00  0.00     0.188 C 
ENDROOT
BRANCH   1   2
ATOM      2  O   UNL     1       4.193  -1.672  -0.501  1.00  0.00    -0.376 OA
BRANCH   2   3
ATOM      3  C   UNL     1       4.869  -0.488  -0.130  1.00  0.00     0.202 C 
BRANCH   3   4
ATOM      4  C   UNL     1       4.377   0.093   1.194  1.00  0.00     0.261 C 
BRANCH   4   5
ATOM      5  O   UNL     1       3.049   0.676   1.215  1.00  0.00    -0.462 OA
BRANCH   5   6
ATOM      6  C   UNL     1       2.498   1.607   0.406  1.00  0.00     0.325 C 
ATOM      7  O   UNL     1       1.299   1.867   0.519  1.00  0.00    -0.250 OA
BRANCH   6   8
ATOM      8  C   UNL     1       3.347   2.316  -0.637  1.00  0.00     0.238 C 
BRANCH   8   9
ATOM      9  N   UNL     1       4.493   2.967  -0.036  1.00  0.00    -0.351 N 
ATOM     10  H   UNL     1       4.350   3.571   0.728  1.00  0.00     0.163 HD
BRANCH   9  11
ATOM     11  C   UNL     1       5.745   2.776  -0.485  1.00  0.00     0.184 A 
ATOM     12  N   UNL     1       6.087   2.309  -1.664  1.00  0.00    -0.220 NA
ATOM     13  S   UNL     1       7.045   3.062   0.597  1.00  0.00    -0.096 S 
ATOM     14  C   UNL     1       7.460   2.089  -1.709  1.00  0.00     0.091 A 
ATOM     15  C   UNL     1       8.135   2.376  -0.532  1.00  0.00     0.064 A 
BRANCH  14  16
ATOM     16  C   UNL     1       8.125   1.634  -2.925  1.00  0.00     0.002 A 
ATOM     17  C   UNL     1       8.993   0.532  -2.915  1.00  0.00     0.010 A 
ATOM     18  C   UNL     1       7.968   2.364  -4.109  1.00  0.00     0.010 A 
ATOM     19  C   UNL     1       9.736   0.205  -4.053  1.00  0.00     0.001 A 
ATOM     20  C   UNL     1       8.712   2.036  -5.246  1.00  0.00     0.001 A 
ATOM     21  C   UNL     1       9.605   0.966  -5.213  1.00  0.00     0.000 A 
ENDBRANCH  14  16
BRANCH  15  22
ATOM     22  C   UNL     1       9.540   2.265  -0.160  1.00  0.00    -0.006 A 
ATOM     23  C   UNL     1       9.944   1.332   0.806  1.00  0.00     0.009 A 
ATOM     24  C   UNL     1      10.493   3.095  -0.758  1.00  0.00     0.009 A 
ATOM     25  C   UNL     1      11.285   1.247   1.182  1.00  0.00     0.001 A 
ATOM     26  C   UNL     1      11.832   3.010  -0.378  1.00  0.00     0.001 A 
ATOM     27  C   UNL     1      12.226   2.091   0.594  1.00  0.00     0.000 A 
ENDBRANCH  15  22
ENDBRANCH   9  11
ENDBRANCH   8   9
ENDBRANCH   6   8
ENDBRANCH   5   6
ENDBRANCH   4   5
ENDBRANCH   3   4
ENDBRANCH   2   3
ENDBRANCH   1   2
BRANCH   1  28
ATOM     28  C   UNL     1       2.161  -2.958  -0.908  1.00  0.00     0.188 C 
BRANCH  28  29
ATOM     29  O   UNL     1       2.872  -4.061  -0.357  1.00  0.00    -0.376 OA
BRANCH  29  30
ATOM     30  C   UNL     1       4.164  -4.365  -0.884  1.00  0.00     0.202 C 
BRANCH  30  31
ATOM     31  C   UNL     1       4.290  -4.575  -2.398  1.00  0.00     0.261 C 
BRANCH  31  32
ATOM     32  O   UNL     1       3.943  -3.423  -3.195  1.00  0.00    -0.460 OA
BRANCH  32  33
ATOM     33  C   UNL     1       2.963  -3.633  -4.110  1.00  0.00     0.338 C 
ATOM     34  O   UNL     1       2.333  -4.656  -4.305  1.00  0.00    -0.246 OA
BRANCH  33  35
ATOM     35  C   UNL     1       2.663  -2.390  -4.843  1.00  0.00     0.060 A 
ATOM     36  C   UNL     1       1.465  -1.714  -4.580  1.00  0.00     0.016 A 
ATOM     37  C   UNL     1       3.480  -1.997  -5.902  1.00  0.00     0.016 A 
ATOM     38  C   UNL     1       1.076  -0.640  -5.387  1.00  0.00     0.010 A 
ATOM     39  C   UNL     1       3.082  -0.933  -6.718  1.00  0.00     0.010 A 
ATOM     40  C   UNL     1       1.869  -0.261  -6.479  1.00  0.00    -0.014 A 
BRANCH  40  41
ATOM     41  C   UNL     1       1.408   0.775  -7.438  1.00  0.00     0.031 A 
ATOM     42  C   UNL     1       0.747   0.357  -8.721  1.00  0.00     0.074 A 
ATOM     43  C   UNL     1       1.632   2.078  -7.191  1.00  0.00     0.049 A 
ATOM     44  N   UNL     1       0.418   1.083  -9.760  1.00  0.00    -0.248 NA
ATOM     45  C   UNL     1       0.416  -1.070  -8.855  1.00  0.00     0.031 C 
ATOM     46  C   UNL     1       2.233   2.614  -5.972  1.00  0.00     0.029 A 
ATOM     47  N   UNL     1       1.410   3.185  -7.974  1.00  0.00    -0.354 N 
ATOM     48  C   UNL     1      -0.139   0.202 -10.677  1.00  0.00     0.074 A 
ATOM     49  C   UNL     1      -0.103  -1.114 -10.075  1.00  0.00     0.031 C 
ATOM     50  C   UNL     1       2.369   3.945  -6.104  1.00  0.00     0.029 A 
ATOM     51  C   UNL     1       1.906   4.345  -7.432  1.00  0.00     0.049 A 
ATOM     52  H   UNL     1       0.941   3.150  -8.839  1.00  0.00     0.167 HD
ATOM     53  C   UNL     1      -0.630   0.469 -11.910  1.00  0.00     0.037 A 
ATOM     54  C   UNL     1       2.020   5.577  -7.965  1.00  0.00     0.037 A 
ATOM     55  C   UNL     1      -0.679   1.780 -12.503  1.00  0.00     0.049 A 
ATOM     56  C   UNL     1       1.536   5.830  -9.371  1.00  0.00     0.074 A 
ATOM     57  C   UNL     1      -1.224   2.155 -13.720  1.00  0.00     0.029 A 
ATOM     58  N   UNL     1      -0.151   2.926 -11.931  1.00  0.00    -0.354 N 
ATOM     59  N   UNL     1       0.965   5.003 -10.213  1.00  0.00    -0.248 NA
ATOM     60  C   UNL     1       1.724   7.188  -9.906  1.00  0.00     0.031 C 
ATOM     61  C   UNL     1      -0.972   3.517 -13.910  1.00  0.00     0.029 A 
ATOM     62  C   UNL     1      -0.315   4.000 -12.791  1.00  0.00     0.049 A 
ATOM     63  H   UNL     1       0.277   2.970 -11.046  1.00  0.00     0.167 HD
ATOM     64  C   UNL     1       0.710   5.741 -11.362  1.00  0.00     0.074 A 
ATOM     65  C   UNL     1       1.172   7.088 -11.107  1.00  0.00     0.031 C 
ATOM     66  C   UNL     1       0.147   5.337 -12.527  1.00  0.00     0.037 A 
BRANCH  53  67
ATOM     67  C   UNL     1      -1.134  -0.679 -12.731  1.00  0.00     0.064 A 
ATOM     68  C   UNL     1      -2.370  -1.286 -12.471  1.00  0.00     0.173 A 
ATOM     69  C   UNL     1      -0.407  -1.115 -13.849  1.00  0.00     0.173 A 
ATOM     70  F   UNL     1      -3.098  -0.907 -11.410  1.00  0.00    -0.203 F 
ATOM     71  C   UNL     1      -2.857  -2.295 -13.297  1.00  0.00     0.198 A 
ATOM     72  C   UNL     1      -0.907  -2.109 -14.685  1.00  0.00     0.198 A 
ATOM     73  F   UNL     1       0.778  -0.559 -14.144  1.00  0.00    -0.203 F 
ATOM     74  F   UNL     1      -4.033  -2.877 -13.021  1.00  0.00    -0.200 F 
ATOM     75  C   UNL     1      -2.130  -2.699 -14.408  1.00  0.00     0.200 A 
ATOM     76  F   UNL     1      -0.209  -2.488 -15.765  1.00  0.00    -0.200 F 
ATOM     77  F   UNL     1      -2.610  -3.657 -15.213  1.00  0.00    -0.200 F 
ENDBRANCH  53  67
BRANCH  54  78
ATOM     78  C   UNL     1       2.679   6.665  -7.196  1.00  0.00     0.064 A 
ATOM     79  C   UNL     1       1.958   7.784  -6.758  1.00  0.00     0.173 A 
ATOM     80  C   UNL     1       4.057   6.631  -6.931  1.00  0.00     0.173 A 
ATOM     81  F   UNL     1       0.646   7.877  -7.017  1.00  0.00    -0.203 F 
ATOM     82  C   UNL     1       2.594   8.839  -6.106  1.00  0.00     0.198 A 
ATOM     83  C   UNL     1       4.686   7.672  -6.252  1.00  0.00     0.198 A 
ATOM     84  F   UNL     1       4.795   5.587  -7.337  1.00  0.00    -0.203 F 
ATOM     85  F   UNL     1       1.892   9.924  -5.752  1.00  0.00    -0.200 F 
ATOM     86  C   UNL     1       3.956   8.780  -5.850  1.00  0.00     0.200 A 
ATOM     87  F   UNL     1       6.000   7.608  -6.001  1.00  0.00    -0.200 F 
ATOM     88  F   UNL     1       4.567   9.799  -5.230  1.00  0.00    -0.200 F 
ENDBRANCH  54  78
BRANCH  66  89
ATOM     89  C   UNL     1      -0.019   6.361 -13.611  1.00  0.00     0.064 A 
ATOM     90  C   UNL     1       1.077   6.826 -14.352  1.00  0.00     0.173 A 
ATOM     91  C   UNL     1      -1.294   6.838 -13.953  1.00  0.00     0.173 A 
ATOM     92  F   UNL     1       2.317   6.412 -14.054  1.00  0.00    -0.203 F 
ATOM     93  C   UNL     1       0.904   7.743 -15.386  1.00  0.00     0.198 A 
ATOM     94  C   UNL     1      -1.466   7.734 -15.004  1.00  0.00     0.198 A 
ATOM     95  F   UNL     1      -2.376   6.420 -13.279  1.00  0.00    -0.203 F 
ATOM     96  F   UNL     1       1.970   8.202 -16.057  1.00  0.00    -0.200 F 
ATOM     97  C   UNL     1      -0.367   8.190 -15.717  1.00  0.00     0.200 A 
ATOM     98  F   UNL     1      -2.696   8.154 -15.331  1.00  0.00    -0.200 F 
ATOM     99  F   UNL     1      -0.532   9.062 -16.720  1.00  0.00    -0.200 F 
ENDBRANCH  66  89
ENDBRANCH  40  41
ENDBRANCH  33  35
ENDBRANCH  32  33
ENDBRANCH  31  32
ENDBRANCH  30  31
ENDBRANCH  29  30
ENDBRANCH  28  29
ENDBRANCH   1  28
TORSDOF 21
