REMARK SMILES CCc1nc2sc(C(=O)NCC(=O)OCCOCCOCCOC(=O)c3ccc(-c4c5nc(c(-c6c(F)c(F)c(F)c(F)c6F)c6ccc([nH]6)c(-c6c(F)c(F)c(F)c(F)c6F)c6nc(c(-c7c(F)c(F)c(F)c(F)c7F)c7ccc4[nH]7)C=C6)C=C5)cc3)c(N)c2c(C(F)(F)F)c1C
REMARK SMILES IDX 18 1 17 2 16 3 15 4 14 5 12 6 13 7 11 8 10 9 8 10 9 11 7 13
REMARK SMILES IDX 3 14 4 15 97 16 5 17 92 18 98 19 6 20 91 21 89 22 2 23 1 24
REMARK SMILES IDX 93 25 94 26 95 27 96 28 90 29 19 32 20 33 21 34 22 35 23 36
REMARK SMILES IDX 24 37 25 38 26 39 27 40 88 41 28 42 87 43 29 44 30 45 31 46
REMARK SMILES IDX 81 47 32 48 86 49 80 50 82 51 33 52 85 53 79 54 78 55 34 57
REMARK SMILES IDX 66 58 46 59 65 60 47 61 50 62 64 63 83 64 48 65 49 66 63 68
REMARK SMILES IDX 84 69 51 70 35 71 36 72 44 73 37 74 38 75 42 76 45 77 39 78
REMARK SMILES IDX 40 79 43 80 41 81 67 82 68 83 76 84 69 85 70 86 74 87 77 88
REMARK SMILES IDX 71 89 72 90 75 91 73 92 52 93 53 94 61 95 54 96 55 97 59 98
REMARK SMILES IDX 62 99 56 100 57 101 60 102 58 103
REMARK H PARENT 10 12 90 30 90 31 82 56 50 67
REMARK Flexibility Score: inf
ROOT
ATOM      1  C   UNL     1       2.694  12.140   2.205  1.00  0.00     0.188 C 
ENDROOT
BRANCH   1   2
ATOM      2  O   UNL     1       2.579  12.350   3.588  1.00  0.00    -0.376 OA
BRANCH   2   3
ATOM      3  C   UNL     1       2.415  11.241   4.459  1.00  0.00     0.202 C 
BRANCH   3   4
ATOM      4  C   UNL     1       2.067   9.806   3.998  1.00  0.00     0.261 C 
BRANCH   4   5
ATOM      5  O   UNL     1       2.675   9.347   2.777  1.00  0.00    -0.462 OA
BRANCH   5   6
ATOM      6  C   UNL     1       1.843   9.219   1.702  1.00  0.00     0.325 C 
ATOM      7  O   UNL     1       0.633   9.437   1.754  1.00  0.00    -0.250 OA
BRANCH   6   8
ATOM      8  C   UNL     1       2.583   9.005   0.364  1.00  0.00     0.239 C 
BRANCH   8   9
ATOM      9  N   UNL     1       3.868   8.348   0.415  1.00  0.00    -0.340 N 
ATOM     10  C   UNL     1       4.173   7.010   0.328  1.00  0.00     0.264 C 
ATOM     11  O   UNL     1       5.377   6.776   0.178  1.00  0.00    -0.268 OA
ATOM     12  H   UNL     1       4.640   8.947   0.529  1.00  0.00     0.164 HD
BRANCH  10  13
ATOM     13  C   UNL     1       3.164   5.950   0.445  1.00  0.00     0.118 A 
ATOM     14  C   UNL     1       0.791   1.910   1.028  1.00  0.00     0.045 A 
ATOM     15  N   UNL     1       2.051   2.324   0.762  1.00  0.00    -0.242 NA
ATOM     16  C   UNL     1      -0.285   2.778   1.296  1.00  0.00    -0.017 A 
ATOM     17  C   UNL     1       2.228   3.649   0.689  1.00  0.00     0.127 A 
ATOM     18  C   UNL     1      -0.073   4.173   1.175  1.00  0.00     0.073 A 
ATOM     19  C   UNL     1      -1.652   2.293   1.696  1.00  0.00     0.047 C 
ATOM     20  S   UNL     1       3.755   4.317   0.369  1.00  0.00    -0.108 S 
ATOM     21  C   UNL     1       1.247   4.600   0.850  1.00  0.00     0.048 A 
ATOM     22  C   UNL     1       1.792   5.901   0.633  1.00  0.00     0.066 A 
BRANCH  14  23
ATOM     23  C   UNL     1       0.655   0.405   1.039  1.00  0.00     0.053 C 
ATOM     24  C   UNL     1       1.226  -0.228  -0.225  1.00  0.00     0.011 C 
ENDBRANCH  14  23
BRANCH  18  25
ATOM     25  C   UNL     1      -1.163   5.208   1.382  1.00  0.00     0.417 C 
ATOM     26  F   UNL     1      -0.841   6.111   2.358  1.00  0.00    -0.166 F 
ATOM     27  F   UNL     1      -1.395   5.950   0.256  1.00  0.00    -0.166 F 
ATOM     28  F   UNL     1      -2.389   4.740   1.738  1.00  0.00    -0.166 F 
ENDBRANCH  18  25
BRANCH  22  29
ATOM     29  N   UNL     1       0.942   6.938   0.652  1.00  0.00    -0.397 N 
ATOM     30  H   UNL     1       1.277   7.852   0.507  1.00  0.00     0.156 HD
ATOM     31  H   UNL     1      -0.018   6.785   0.810  1.00  0.00     0.156 HD
ENDBRANCH  22  29
ENDBRANCH  10  13
ENDBRANCH   8   9
ENDBRANCH   6   8
ENDBRANCH   5   6
ENDBRANCH   4   5
ENDBRANCH   3   4
ENDBRANCH   2   3
ENDBRANCH   1   2
BRANCH   1  32
ATOM     32  C   UNL     1       4.048  11.683   1.643  1.00  0.00     0.188 C 
BRANCH  32  33
ATOM     33  O   UNL     1       4.935  10.777   2.267  1.00  0.00    -0.376 OA
BRANCH  33  34
ATOM     34  C   UNL     1       5.618  11.045   3.485  1.00  0.00     0.202 C 
BRANCH  34  35
ATOM     35  C   UNL     1       6.330  12.368   3.777  1.00  0.00     0.261 C 
BRANCH  35  36
ATOM     36  O   UNL     1       5.794  13.466   3.082  1.00  0.00    -0.460 OA
BRANCH  36  37
ATOM     37  C   UNL     1       6.322  13.609   1.850  1.00  0.00     0.338 C 
ATOM     38  O   UNL     1       7.204  12.944   1.326  1.00  0.00    -0.246 OA
BRANCH  37  39
ATOM     39  C   UNL     1       5.579  14.671   1.169  1.00  0.00     0.060 A 
ATOM     40  C   UNL     1       5.848  14.838  -0.188  1.00  0.00     0.016 A 
ATOM     41  C   UNL     1       4.851  15.600   1.925  1.00  0.00     0.016 A 
ATOM     42  C   UNL     1       5.763  16.109  -0.675  1.00  0.00     0.010 A 
ATOM     43  C   UNL     1       4.778  16.874   1.444  1.00  0.00     0.010 A 
ATOM     44  C   UNL     1       5.386  17.115   0.219  1.00  0.00    -0.014 A 
BRANCH  44  45
ATOM     45  C   UNL     1       5.749  18.459  -0.132  1.00  0.00     0.031 A 
ATOM     46  C   UNL     1       4.862  19.027  -1.149  1.00  0.00     0.074 A 
ATOM     47  C   UNL     1       6.807  19.058   0.446  1.00  0.00     0.049 A 
ATOM     48  N   UNL     1       5.149  19.276  -2.380  1.00  0.00    -0.248 NA
ATOM     49  C   UNL     1       3.435  19.132  -0.813  1.00  0.00     0.031 C 
ATOM     50  C   UNL     1       7.583  18.627   1.614  1.00  0.00     0.029 A 
ATOM     51  N   UNL     1       7.366  20.253   0.135  1.00  0.00    -0.354 N 
ATOM     52  C   UNL     1       3.977  19.773  -2.926  1.00  0.00     0.074 A 
ATOM     53  C   UNL     1       2.921  19.475  -1.993  1.00  0.00     0.031 C 
ATOM     54  C   UNL     1       8.349  19.657   2.044  1.00  0.00     0.029 A 
ATOM     55  C   UNL     1       8.219  20.758   1.106  1.00  0.00     0.049 A 
ATOM     56  H   UNL     1       7.182  20.724  -0.710  1.00  0.00     0.167 HD
ATOM     57  C   UNL     1       4.025  20.651  -3.958  1.00  0.00     0.037 A 
ATOM     58  C   UNL     1       8.675  22.034   1.148  1.00  0.00     0.037 A 
ATOM     59  C   UNL     1       5.285  20.576  -4.654  1.00  0.00     0.049 A 
ATOM     60  C   UNL     1       8.543  22.580  -0.231  1.00  0.00     0.074 A 
ATOM     61  C   UNL     1       5.939  19.592  -5.369  1.00  0.00     0.029 A 
ATOM     62  N   UNL     1       6.238  21.514  -4.343  1.00  0.00    -0.354 N 
ATOM     63  N   UNL     1       9.245  22.166  -1.250  1.00  0.00    -0.248 NA
ATOM     64  C   UNL     1       7.314  23.285  -0.567  1.00  0.00     0.031 C 
ATOM     65  C   UNL     1       7.324  19.773  -5.083  1.00  0.00     0.029 A 
ATOM     66  C   UNL     1       7.451  20.883  -4.247  1.00  0.00     0.049 A 
ATOM     67  H   UNL     1       6.077  22.476  -4.212  1.00  0.00     0.167 HD
ATOM     68  C   UNL     1       8.360  22.179  -2.319  1.00  0.00     0.074 A 
ATOM     69  C   UNL     1       7.221  22.969  -1.861  1.00  0.00     0.031 C 
ATOM     70  C   UNL     1       8.510  21.307  -3.358  1.00  0.00     0.037 A 
BRANCH  57  71
ATOM     71  C   UNL     1       3.101  21.833  -4.053  1.00  0.00     0.064 A 
ATOM     72  C   UNL     1       3.089  22.597  -5.231  1.00  0.00     0.173 A 
ATOM     73  C   UNL     1       2.444  22.411  -2.941  1.00  0.00     0.173 A 
ATOM     74  F   UNL     1       3.720  22.161  -6.332  1.00  0.00    -0.203 F 
ATOM     75  C   UNL     1       2.507  23.866  -5.277  1.00  0.00     0.198 A 
ATOM     76  C   UNL     1       1.811  23.647  -3.007  1.00  0.00     0.198 A 
ATOM     77  F   UNL     1       2.485  21.866  -1.719  1.00  0.00    -0.203 F 
ATOM     78  F   UNL     1       2.625  24.609  -6.384  1.00  0.00    -0.200 F 
ATOM     79  C   UNL     1       1.868  24.389  -4.166  1.00  0.00     0.200 A 
ATOM     80  F   UNL     1       1.222  24.144  -1.911  1.00  0.00    -0.200 F 
ATOM     81  F   UNL     1       1.355  25.625  -4.193  1.00  0.00    -0.200 F 
ENDBRANCH  57  71
BRANCH  58  82
ATOM     82  C   UNL     1       8.773  22.924   2.336  1.00  0.00     0.064 A 
ATOM     83  C   UNL     1       9.361  24.195   2.212  1.00  0.00     0.173 A 
ATOM     84  C   UNL     1       8.027  22.695   3.509  1.00  0.00     0.173 A 
ATOM     85  F   UNL     1      10.066  24.507   1.114  1.00  0.00    -0.203 F 
ATOM     86  C   UNL     1       9.159  25.196   3.167  1.00  0.00     0.198 A 
ATOM     87  C   UNL     1       7.835  23.692   4.467  1.00  0.00     0.198 A 
ATOM     88  F   UNL     1       7.381  21.538   3.708  1.00  0.00    -0.203 F 
ATOM     89  F   UNL     1       9.662  26.422   2.966  1.00  0.00    -0.200 F 
ATOM     90  C   UNL     1       8.382  24.949   4.285  1.00  0.00     0.200 A 
ATOM     91  F   UNL     1       7.056  23.449   5.530  1.00  0.00    -0.200 F 
ATOM     92  F   UNL     1       8.122  25.929   5.161  1.00  0.00    -0.200 F 
ENDBRANCH  58  82
BRANCH  70  93
ATOM     93  C   UNL     1       9.813  20.561  -3.452  1.00  0.00     0.064 A 
ATOM     94  C   UNL     1      10.253  19.617  -2.506  1.00  0.00     0.173 A 
ATOM     95  C   UNL     1      10.576  20.707  -4.618  1.00  0.00     0.173 A 
ATOM     96  F   UNL     1       9.531  19.353  -1.410  1.00  0.00    -0.203 F 
ATOM     97  C   UNL     1      11.422  18.884  -2.707  1.00  0.00     0.198 A 
ATOM     98  C   UNL     1      11.722  19.947  -4.833  1.00  0.00     0.198 A 
ATOM     99  F   UNL     1      10.178  21.557  -5.577  1.00  0.00    -0.203 F 
ATOM    100  F   UNL     1      11.828  17.997  -1.786  1.00  0.00    -0.200 F 
ATOM    101  C   UNL     1      12.150  19.043  -3.875  1.00  0.00     0.200 A 
ATOM    102  F   UNL     1      12.395  20.071  -5.985  1.00  0.00    -0.200 F 
ATOM    103  F   UNL     1      13.249  18.306  -4.090  1.00  0.00    -0.200 F 
ENDBRANCH  70  93
ENDBRANCH  44  45
ENDBRANCH  37  39
ENDBRANCH  36  37
ENDBRANCH  35  36
ENDBRANCH  34  35
ENDBRANCH  33  34
ENDBRANCH  32  33
ENDBRANCH   1  32
TORSDOF 22
