REMARK SMILES O=C1O[C@@H](c2ccc(O)c(O)c2)[C@H](C(=O)OCCOCCOCCOC(=O)c2ccc(-c3c4nc(c(-c5c(F)c(F)c(F)c(F)c5F)c5ccc([nH]5)c(-c5c(F)c(F)c(F)c(F)c5F)c5nc(c(-c6c(F)c(F)c(F)c(F)c6F)c6ccc3[nH]6)C=C5)C=C4)cc2)/C1=C\c1ccc(O)c(O)c1
REMARK SMILES IDX 20 1 19 2 18 3 17 4 16 5 14 6 15 7 13 8 1 9 2 10 3 11 91 12
REMARK SMILES IDX 4 13 92 14 5 15 6 16 12 17 7 18 10 19 8 20 11 21 9 23 93 25
REMARK SMILES IDX 94 26 100 27 95 28 98 29 96 30 99 31 97 33 21 35 22 36 23 37
REMARK SMILES IDX 24 38 25 39 26 40 27 41 28 42 29 43 90 44 30 45 89 46 31 47
REMARK SMILES IDX 32 48 33 49 83 50 34 51 88 52 82 53 84 54 35 55 87 56 81 57
REMARK SMILES IDX 80 58 36 60 68 61 48 62 67 63 49 64 52 65 66 66 85 67 50 68
REMARK SMILES IDX 51 69 65 71 86 72 53 73 37 74 38 75 46 76 39 77 40 78 44 79
REMARK SMILES IDX 47 80 41 81 42 82 45 83 43 84 69 85 70 86 78 87 71 88 72 89
REMARK SMILES IDX 76 90 79 91 73 92 74 93 77 94 75 95 54 96 55 97 63 98 56 99
REMARK SMILES IDX 57 100 61 101 64 102 58 103 59 104 62 105 60 106
REMARK H PARENT 11 22 9 24 99 32 97 34 84 59 52 70
REMARK Flexibility Score: inf
ROOT
ATOM      1  C   UNL     1       2.059   3.349   2.603  1.00  0.00     0.188 C 
ENDROOT
BRANCH   1   2
ATOM      2  O   UNL     1       2.276   3.195   3.982  1.00  0.00    -0.376 OA
BRANCH   2   3
ATOM      3  C   UNL     1       2.916   2.043   4.481  1.00  0.00     0.202 C 
BRANCH   3   4
ATOM      4  C   UNL     1       2.765   0.660   3.827  1.00  0.00     0.261 C 
BRANCH   4   5
ATOM      5  O   UNL     1       2.564   0.635   2.405  1.00  0.00    -0.463 OA
BRANCH   5   6
ATOM      6  C   UNL     1       1.306   0.316   1.973  1.00  0.00     0.317 C 
ATOM      7  O   UNL     1       0.387  -0.033   2.700  1.00  0.00    -0.251 OA
BRANCH   6   8
ATOM      8  C   UNL     1       1.212   0.498   0.459  1.00  0.00     0.182 C 
ATOM      9  O   UNL     1      -1.852  -1.075  -0.316  1.00  0.00    -0.247 OA
ATOM     10  C   UNL     1      -0.691  -0.737  -0.192  1.00  0.00     0.335 C 
ATOM     11  O   UNL     1       0.388  -1.572  -0.222  1.00  0.00    -0.453 OA
ATOM     12  C   UNL     1      -0.194   0.649   0.004  1.00  0.00     0.056 C 
ATOM     13  C   UNL     1       1.614  -0.818  -0.178  1.00  0.00     0.226 C 
ATOM     14  C   UNL     1      -0.950   1.715  -0.315  1.00  0.00     0.020 C 
BRANCH  13  15
ATOM     15  C   UNL     1       2.251  -0.692  -1.559  1.00  0.00    -0.002 A 
ATOM     16  C   UNL     1       3.358   0.157  -1.770  1.00  0.00     0.012 A 
ATOM     17  C   UNL     1       1.799  -1.473  -2.635  1.00  0.00     0.057 A 
ATOM     18  C   UNL     1       3.972   0.252  -3.027  1.00  0.00     0.050 A 
ATOM     19  C   UNL     1       2.418  -1.379  -3.874  1.00  0.00     0.157 A 
ATOM     20  C   UNL     1       3.495  -0.523  -4.075  1.00  0.00     0.157 A 
BRANCH  19  21
ATOM     21  O   UNL     1       1.962  -2.155  -4.901  1.00  0.00    -0.504 OA
ATOM     22  H   UNL     1       2.369  -2.103  -5.744  1.00  0.00     0.293 HD
ENDBRANCH  19  21
BRANCH  20  23
ATOM     23  O   UNL     1       4.059  -0.493  -5.319  1.00  0.00    -0.504 OA
ATOM     24  H   UNL     1       4.787   0.072  -5.489  1.00  0.00     0.293 HD
ENDBRANCH  20  23
ENDBRANCH  13  15
BRANCH  14  25
ATOM     25  C   UNL     1      -0.595   3.151  -0.269  1.00  0.00    -0.021 A 
ATOM     26  C   UNL     1       0.041   3.922  -1.735  1.00  0.00     0.012 A 
ATOM     27  C   UNL     1      -0.986   4.048   1.184  1.00  0.00     0.058 A 
ATOM     28  C   UNL     1       0.355   5.656  -1.881  1.00  0.00     0.051 A 
ATOM     29  C   UNL     1      -0.730   5.835   1.213  1.00  0.00     0.157 A 
ATOM     30  C   UNL     1       0.009   6.719  -0.457  1.00  0.00     0.157 A 
BRANCH  29  31
ATOM     31  O   UNL     1      -1.030   6.208   2.532  1.00  0.00    -0.504 OA
ATOM     32  H   UNL     1      -0.967   7.106   2.790  1.00  0.00     0.293 HD
ENDBRANCH  29  31
BRANCH  30  33
ATOM     33  O   UNL     1       0.475   7.994  -0.797  1.00  0.00    -0.504 OA
ATOM     34  H   UNL     1       0.777   8.165  -1.668  1.00  0.00     0.293 HD
ENDBRANCH  30  33
ENDBRANCH  14  25
ENDBRANCH   6   8
ENDBRANCH   5   6
ENDBRANCH   4   5
ENDBRANCH   3   4
ENDBRANCH   2   3
ENDBRANCH   1   2
BRANCH   1  35
ATOM     35  C   UNL     1       3.239   3.342   1.600  1.00  0.00     0.188 C 
BRANCH  35  36
ATOM     36  O   UNL     1       4.565   3.265   2.062  1.00  0.00    -0.376 OA
BRANCH  36  37
ATOM     37  C   UNL     1       5.051   4.322   2.873  1.00  0.00     0.202 C 
BRANCH  37  38
ATOM     38  C   UNL     1       4.618   5.782   2.646  1.00  0.00     0.261 C 
BRANCH  38  39
ATOM     39  O   UNL     1       3.203   5.978   2.503  1.00  0.00    -0.460 OA
BRANCH  39  40
ATOM     40  C   UNL     1       2.802   6.489   1.318  1.00  0.00     0.338 C 
ATOM     41  O   UNL     1       3.490   6.902   0.400  1.00  0.00    -0.246 OA
BRANCH  40  42
ATOM     42  C   UNL     1       1.353   6.366   1.172  1.00  0.00     0.060 A 
ATOM     43  C   UNL     1       0.620   5.051   0.155  1.00  0.00     0.016 A 
ATOM     44  C   UNL     1       0.395   7.795   1.526  1.00  0.00     0.016 A 
ATOM     45  C   UNL     1      -1.265   5.326  -0.525  1.00  0.00     0.010 A 
ATOM     46  C   UNL     1      -1.258   8.026   0.917  1.00  0.00     0.010 A 
ATOM     47  C   UNL     1      -2.107   6.860  -0.095  1.00  0.00    -0.014 A 
BRANCH  47  48
ATOM     48  C   UNL     1      -3.435   7.198  -0.633  1.00  0.00     0.031 A 
ATOM     49  C   UNL     1      -3.619   8.439  -1.460  1.00  0.00     0.074 A 
ATOM     50  C   UNL     1      -4.471   6.407  -0.309  1.00  0.00     0.049 A 
ATOM     51  N   UNL     1      -4.715   8.961  -1.950  1.00  0.00    -0.248 NA
ATOM     52  C   UNL     1      -2.415   9.222  -1.761  1.00  0.00     0.031 C 
ATOM     53  C   UNL     1      -4.388   5.217   0.535  1.00  0.00     0.029 A 
ATOM     54  N   UNL     1      -5.800   6.494  -0.624  1.00  0.00    -0.354 N 
ATOM     55  C   UNL     1      -4.323  10.130  -2.595  1.00  0.00     0.074 A 
ATOM     56  C   UNL     1      -2.904  10.275  -2.394  1.00  0.00     0.031 C 
ATOM     57  C   UNL     1      -5.603   4.667   0.652  1.00  0.00     0.029 A 
ATOM     58  C   UNL     1      -6.561   5.499  -0.060  1.00  0.00     0.049 A 
ATOM     59  H   UNL     1      -6.173   7.201  -1.198  1.00  0.00     0.167 HD
ATOM     60  C   UNL     1      -5.084  10.998  -3.303  1.00  0.00     0.037 A 
ATOM     61  C   UNL     1      -7.890   5.301  -0.099  1.00  0.00     0.037 A 
ATOM     62  C   UNL     1      -6.502  10.831  -3.471  1.00  0.00     0.049 A 
ATOM     63  C   UNL     1      -8.717   6.282  -0.879  1.00  0.00     0.074 A 
ATOM     64  C   UNL     1      -7.394  11.618  -4.172  1.00  0.00     0.029 A 
ATOM     65  N   UNL     1      -7.234   9.792  -2.908  1.00  0.00    -0.354 N 
ATOM     66  N   UNL     1      -8.331   7.359  -1.523  1.00  0.00    -0.248 NA
ATOM     67  C   UNL     1     -10.158   6.023  -0.944  1.00  0.00     0.031 C 
ATOM     68  C   UNL     1      -8.675  11.087  -3.985  1.00  0.00     0.029 A 
ATOM     69  C   UNL     1      -8.573   9.929  -3.228  1.00  0.00     0.049 A 
ATOM     70  H   UNL     1      -6.856   9.065  -2.362  1.00  0.00     0.167 HD
ATOM     71  C   UNL     1      -9.475   7.895  -2.092  1.00  0.00     0.074 A 
ATOM     72  C   UNL     1     -10.565   7.007  -1.733  1.00  0.00     0.031 C 
ATOM     73  C   UNL     1      -9.622   9.017  -2.841  1.00  0.00     0.037 A 
BRANCH  60  74
ATOM     74  C   UNL     1      -4.401  12.197  -3.908  1.00  0.00     0.064 A 
ATOM     75  C   UNL     1      -3.452  12.072  -4.937  1.00  0.00     0.173 A 
ATOM     76  C   UNL     1      -4.690  13.492  -3.450  1.00  0.00     0.173 A 
ATOM     77  F   UNL     1      -3.120  10.859  -5.407  1.00  0.00    -0.203 F 
ATOM     78  C   UNL     1      -2.793  13.187  -5.453  1.00  0.00     0.198 A 
ATOM     79  C   UNL     1      -4.056  14.608  -3.992  1.00  0.00     0.198 A 
ATOM     80  F   UNL     1      -5.586  13.678  -2.469  1.00  0.00    -0.203 F 
ATOM     81  F   UNL     1      -1.845  13.032  -6.387  1.00  0.00    -0.200 F 
ATOM     82  C   UNL     1      -3.100  14.455  -4.984  1.00  0.00     0.200 A 
ATOM     83  F   UNL     1      -4.362  15.835  -3.545  1.00  0.00    -0.200 F 
ATOM     84  F   UNL     1      -2.466  15.527  -5.480  1.00  0.00    -0.200 F 
ENDBRANCH  60  74
BRANCH  61  85
ATOM     85  C   UNL     1      -8.489   4.134   0.601  1.00  0.00     0.064 A 
ATOM     86  C   UNL     1      -9.076   3.083  -0.117  1.00  0.00     0.173 A 
ATOM     87  C   UNL     1      -8.457   4.022   2.001  1.00  0.00     0.173 A 
ATOM     88  F   UNL     1      -9.143   3.143  -1.456  1.00  0.00    -0.203 F 
ATOM     89  C   UNL     1      -9.625   1.979   0.534  1.00  0.00     0.198 A 
ATOM     90  C   UNL     1      -8.974   2.902   2.649  1.00  0.00     0.198 A 
ATOM     91  F   UNL     1      -7.895   4.990   2.739  1.00  0.00    -0.203 F 
ATOM     92  F   UNL     1     -10.220   1.012  -0.177  1.00  0.00    -0.200 F 
ATOM     93  C   UNL     1      -9.566   1.885   1.916  1.00  0.00     0.200 A 
ATOM     94  F   UNL     1      -8.893   2.807   3.984  1.00  0.00    -0.200 F 
ATOM     95  F   UNL     1     -10.084   0.820   2.542  1.00  0.00    -0.200 F 
ENDBRANCH  61  85
BRANCH  73  96
ATOM     96  C   UNL     1     -11.004   9.309  -3.343  1.00  0.00     0.064 A 
ATOM     97  C   UNL     1     -12.032   9.713  -2.480  1.00  0.00     0.173 A 
ATOM     98  C   UNL     1     -11.292   9.200  -4.711  1.00  0.00     0.173 A 
ATOM     99  F   UNL     1     -11.806   9.818  -1.161  1.00  0.00    -0.203 F 
ATOM    100  C   UNL     1     -13.313   9.956  -2.965  1.00  0.00     0.198 A 
ATOM    101  C   UNL     1     -12.562   9.484  -5.197  1.00  0.00     0.198 A 
ATOM    102  F   UNL     1     -10.337   8.827  -5.577  1.00  0.00    -0.203 F 
ATOM    103  F   UNL     1     -14.299  10.273  -2.114  1.00  0.00    -0.200 F 
ATOM    104  C   UNL     1     -13.575   9.849  -4.322  1.00  0.00     0.200 A 
ATOM    105  F   UNL     1     -12.809   9.399  -6.511  1.00  0.00    -0.200 F 
ATOM    106  F   UNL     1     -14.808  10.087  -4.788  1.00  0.00    -0.200 F 
ENDBRANCH  73  96
ENDBRANCH  47  48
ENDBRANCH  40  42
ENDBRANCH  39  40
ENDBRANCH  38  39
ENDBRANCH  37  38
ENDBRANCH  36  37
ENDBRANCH  35  36
ENDBRANCH   1  35
TORSDOF 23
