REMARK SMILES Cc1ccccc1Nc1nc2c(c(=O)[nH]c(=O)n2C)n1CC(=O)OCCOCCOCCOC(=O)c1ccc(-c2c3nc(c(-c4c(F)c(F)c(F)c(F)c4F)c4ccc([nH]4)c(-c4c(F)c(F)c(F)c(F)c4F)c4nc(c(-c5c(F)c(F)c(F)c(F)c5F)c5ccc2[nH]5)C=C4)C=C3)cc1
REMARK SMILES IDX 28 1 27 2 26 3 25 4 24 5 22 6 23 7 21 8 20 9 9 10 10 11
REMARK SMILES IDX 11 12 12 13 18 14 13 15 16 16 19 17 14 18 15 19 17 20 8 22
REMARK SMILES IDX 7 24 1 25 2 26 3 27 4 28 6 29 5 30 29 31 30 32 31 33 32 34
REMARK SMILES IDX 33 35 34 36 35 37 36 38 37 39 98 40 38 41 97 42 39 43 40 44
REMARK SMILES IDX 41 45 91 46 42 47 96 48 90 49 92 50 43 51 95 52 89 53 88 54
REMARK SMILES IDX 44 56 76 57 56 58 75 59 57 60 60 61 74 62 93 63 58 64 59 65
REMARK SMILES IDX 73 67 94 68 61 69 45 70 46 71 54 72 47 73 48 74 52 75 55 76
REMARK SMILES IDX 49 77 50 78 53 79 51 80 77 81 78 82 86 83 79 84 80 85 84 86
REMARK SMILES IDX 87 87 81 88 82 89 85 90 83 91 62 92 63 93 71 94 64 95 65 96
REMARK SMILES IDX 69 97 72 98 66 99 67 100 70 101 68 102
REMARK H PARENT 15 21 8 23 92 55 60 66
REMARK Flexibility Score: inf
ROOT
ATOM      1  C   UNL     1      -3.225  -0.469  -0.611  1.00  0.00     0.188 C 
ENDROOT
BRANCH   1   2
ATOM      2  O   UNL     1      -4.533  -0.950  -0.448  1.00  0.00    -0.376 OA
BRANCH   2   3
ATOM      3  C   UNL     1      -5.500  -0.032  -0.934  1.00  0.00     0.202 C 
BRANCH   3   4
ATOM      4  C   UNL     1      -5.510   1.417  -0.375  1.00  0.00     0.261 C 
BRANCH   4   5
ATOM      5  O   UNL     1      -4.412   2.322  -0.780  1.00  0.00    -0.462 OA
BRANCH   5   6
ATOM      6  C   UNL     1      -3.940   3.129   0.221  1.00  0.00     0.326 C 
ATOM      7  O   UNL     1      -4.430   3.027   1.341  1.00  0.00    -0.250 OA
BRANCH   6   8
ATOM      8  C   UNL     1      -2.840   4.195  -0.098  1.00  0.00     0.248 C 
BRANCH   8   9
ATOM      9  N   UNL     1      -1.299   4.389   0.254  1.00  0.00    -0.293 N 
ATOM     10  C   UNL     1      -0.043   3.639  -0.302  1.00  0.00     0.210 A 
ATOM     11  N   UNL     1       0.325   4.665  -1.194  1.00  0.00    -0.194 NA
ATOM     12  C   UNL     1      -0.192   5.856  -0.765  1.00  0.00     0.170 A 
ATOM     13  C   UNL     1      -0.817   5.704   0.427  1.00  0.00     0.154 A 
ATOM     14  N   UNL     1      -0.273   7.066  -1.435  1.00  0.00    -0.279 N 
ATOM     15  C   UNL     1      -1.267   6.841   1.159  1.00  0.00     0.279 A 
ATOM     16  C   UNL     1      -1.080   8.080  -0.908  1.00  0.00     0.329 A 
ATOM     17  C   UNL     1       0.285   7.231  -2.753  1.00  0.00     0.157 C 
ATOM     18  O   UNL     1      -1.326   6.953   2.378  1.00  0.00    -0.267 OA
ATOM     19  N   UNL     1      -1.563   7.900   0.361  1.00  0.00    -0.272 N 
ATOM     20  O   UNL     1      -1.392   9.111  -1.503  1.00  0.00    -0.248 OA
ATOM     21  H   UNL     1      -2.168   8.588   0.722  1.00  0.00     0.175 HD
BRANCH  10  22
ATOM     22  N   UNL     1       0.615   1.837  -0.009  1.00  0.00    -0.325 N 
ATOM     23  H   UNL     1       0.687   1.718   0.965  1.00  0.00     0.170 HD
BRANCH  22  24
ATOM     24  C   UNL     1       1.111   0.404  -0.706  1.00  0.00     0.044 A 
ATOM     25  C   UNL     1       3.614   0.206  -0.729  1.00  0.00     0.046 C 
ATOM     26  C   UNL     1       2.252  -0.299  -0.310  1.00  0.00    -0.027 A 
ATOM     27  C   UNL     1       2.203  -1.739  -0.209  1.00  0.00     0.005 A 
ATOM     28  C   UNL     1       1.068  -2.493  -0.489  1.00  0.00     0.000 A 
ATOM     29  C   UNL     1       0.181  -0.445  -1.289  1.00  0.00     0.026 A 
ATOM     30  C   UNL     1       0.068  -1.838  -1.141  1.00  0.00     0.002 A 
ENDBRANCH  22  24
ENDBRANCH  10  22
ENDBRANCH   8   9
ENDBRANCH   6   8
ENDBRANCH   5   6
ENDBRANCH   4   5
ENDBRANCH   3   4
ENDBRANCH   2   3
ENDBRANCH   1   2
BRANCH   1  31
ATOM     31  C   UNL     1      -2.801  -0.149  -2.078  1.00  0.00     0.188 C 
BRANCH  31  32
ATOM     32  O   UNL     1      -3.014   1.093  -2.756  1.00  0.00    -0.376 OA
BRANCH  32  33
ATOM     33  C   UNL     1      -2.319   1.261  -4.055  1.00  0.00     0.202 C 
BRANCH  33  34
ATOM     34  C   UNL     1      -0.706   1.128  -4.344  1.00  0.00     0.261 C 
BRANCH  34  35
ATOM     35  O   UNL     1       0.242   2.290  -4.043  1.00  0.00    -0.460 OA
BRANCH  35  36
ATOM     36  C   UNL     1       1.393   2.379  -3.246  1.00  0.00     0.338 C 
ATOM     37  O   UNL     1       2.538   2.421  -3.672  1.00  0.00    -0.246 OA
BRANCH  36  38
ATOM     38  C   UNL     1       1.074   2.636  -1.815  1.00  0.00     0.060 A 
ATOM     39  C   UNL     1       2.040   3.195  -0.322  1.00  0.00     0.016 A 
ATOM     40  C   UNL     1      -0.657   2.147  -1.565  1.00  0.00     0.016 A 
ATOM     41  C   UNL     1       1.232   3.248   1.360  1.00  0.00     0.010 A 
ATOM     42  C   UNL     1      -1.353   2.013   0.100  1.00  0.00     0.010 A 
ATOM     43  C   UNL     1      -0.484   2.626   1.590  1.00  0.00    -0.014 A 
BRANCH  43  44
ATOM     44  C   UNL     1      -1.455   2.470   2.779  1.00  0.00     0.031 A 
ATOM     45  C   UNL     1      -2.630   3.391   3.370  1.00  0.00     0.074 A 
ATOM     46  C   UNL     1      -1.661   1.126   2.845  1.00  0.00     0.049 A 
ATOM     47  N   UNL     1      -3.530   2.972   4.235  1.00  0.00    -0.248 NA
ATOM     48  C   UNL     1      -2.970   4.804   3.108  1.00  0.00     0.031 C 
ATOM     49  C   UNL     1      -2.896   0.388   3.094  1.00  0.00     0.029 A 
ATOM     50  N   UNL     1      -0.713   0.100   2.609  1.00  0.00    -0.354 N 
ATOM     51  C   UNL     1      -4.629   3.859   4.207  1.00  0.00     0.074 A 
ATOM     52  C   UNL     1      -4.127   5.078   3.716  1.00  0.00     0.031 C 
ATOM     53  C   UNL     1      -2.604  -0.916   3.244  1.00  0.00     0.029 A 
ATOM     54  C   UNL     1      -1.161  -1.025   3.334  1.00  0.00     0.049 A 
ATOM     55  H   UNL     1       0.097   0.160   2.051  1.00  0.00     0.167 HD
ATOM     56  C   UNL     1      -5.923   3.442   4.369  1.00  0.00     0.037 A 
ATOM     57  C   UNL     1      -0.484  -1.407   4.461  1.00  0.00     0.037 A 
ATOM     58  C   UNL     1      -5.912   2.131   4.958  1.00  0.00     0.049 A 
ATOM     59  C   UNL     1      -1.272  -1.210   5.749  1.00  0.00     0.074 A 
ATOM     60  C   UNL     1      -6.253   0.856   4.575  1.00  0.00     0.029 A 
ATOM     61  N   UNL     1      -5.168   2.019   6.109  1.00  0.00    -0.354 N 
ATOM     62  N   UNL     1      -2.522  -0.837   5.821  1.00  0.00    -0.248 NA
ATOM     63  C   UNL     1      -0.662  -1.332   7.074  1.00  0.00     0.031 C 
ATOM     64  C   UNL     1      -5.501  -0.030   5.419  1.00  0.00     0.029 A 
ATOM     65  C   UNL     1      -4.782   0.724   6.339  1.00  0.00     0.049 A 
ATOM     66  H   UNL     1      -4.941   2.776   6.696  1.00  0.00     0.167 HD
ATOM     67  C   UNL     1      -2.762  -0.362   7.085  1.00  0.00     0.074 A 
ATOM     68  C   UNL     1      -1.634  -0.838   7.857  1.00  0.00     0.031 C 
ATOM     69  C   UNL     1      -3.768   0.519   7.371  1.00  0.00     0.037 A 
BRANCH  56  70
ATOM     70  C   UNL     1      -7.212   4.139   3.933  1.00  0.00     0.064 A 
ATOM     71  C   UNL     1      -8.452   3.728   4.478  1.00  0.00     0.173 A 
ATOM     72  C   UNL     1      -7.324   5.101   2.901  1.00  0.00     0.173 A 
ATOM     73  F   UNL     1      -8.500   2.809   5.453  1.00  0.00    -0.203 F 
ATOM     74  C   UNL     1      -9.687   4.229   4.036  1.00  0.00     0.198 A 
ATOM     75  C   UNL     1      -8.560   5.638   2.494  1.00  0.00     0.198 A 
ATOM     76  F   UNL     1      -6.258   5.518   2.205  1.00  0.00    -0.203 F 
ATOM     77  F   UNL     1     -10.828   3.754   4.557  1.00  0.00    -0.200 F 
ATOM     78  C   UNL     1      -9.741   5.195   3.053  1.00  0.00     0.200 A 
ATOM     79  F   UNL     1      -8.598   6.569   1.526  1.00  0.00    -0.200 F 
ATOM     80  F   UNL     1     -10.919   5.679   2.634  1.00  0.00    -0.200 F 
ENDBRANCH  56  70
BRANCH  57  81
ATOM     81  C   UNL     1       0.988  -1.175   4.322  1.00  0.00     0.064 A 
ATOM     82  C   UNL     1       1.745  -2.055   3.529  1.00  0.00     0.173 A 
ATOM     83  C   UNL     1       1.530   0.098   4.571  1.00  0.00     0.173 A 
ATOM     84  F   UNL     1       1.274  -3.278   3.240  1.00  0.00    -0.203 F 
ATOM     85  C   UNL     1       2.942  -1.645   2.940  1.00  0.00     0.198 A 
ATOM     86  C   UNL     1       2.685   0.527   3.914  1.00  0.00     0.198 A 
ATOM     87  F   UNL     1       0.867   0.975   5.337  1.00  0.00    -0.203 F 
ATOM     88  F   UNL     1       3.636  -2.496   2.171  1.00  0.00    -0.200 F 
ATOM     89  C   UNL     1       3.372  -0.335   3.075  1.00  0.00     0.200 A 
ATOM     90  F   UNL     1       3.091   1.799   4.032  1.00  0.00    -0.200 F 
ATOM     91  F   UNL     1       4.419   0.109   2.366  1.00  0.00    -0.200 F 
ENDBRANCH  57  81
BRANCH  69  92
ATOM     92  C   UNL     1      -3.791   1.381   8.635  1.00  0.00     0.064 A 
ATOM     93  C   UNL     1      -2.637   1.777   9.337  1.00  0.00     0.173 A 
ATOM     94  C   UNL     1      -4.994   1.972   9.097  1.00  0.00     0.173 A 
ATOM     95  F   UNL     1      -1.408   1.492   8.886  1.00  0.00    -0.203 F 
ATOM     96  C   UNL     1      -2.699   2.544  10.503  1.00  0.00     0.198 A 
ATOM     97  C   UNL     1      -5.037   2.838  10.191  1.00  0.00     0.198 A 
ATOM     98  F   UNL     1      -6.162   1.766   8.469  1.00  0.00    -0.203 F 
ATOM     99  F   UNL     1      -1.579   2.780  11.200  1.00  0.00    -0.200 F 
ATOM    100  C   UNL     1      -3.899   3.077  10.929  1.00  0.00     0.200 A 
ATOM    101  F   UNL     1      -6.186   3.448  10.515  1.00  0.00    -0.200 F 
ATOM    102  F   UNL     1      -3.952   3.835  12.032  1.00  0.00    -0.200 F 
ENDBRANCH  69  92
ENDBRANCH  43  44
ENDBRANCH  36  38
ENDBRANCH  35  36
ENDBRANCH  34  35
ENDBRANCH  33  34
ENDBRANCH  32  33
ENDBRANCH  31  32
ENDBRANCH   1  31
TORSDOF 20
