REMARK SMILES [NH3+][C@@H](CCCCC(=O)OCCOCCOCCOC(=O)c1ccc(-c2c3nc(c(-c4c(F)c(F)c(F)c(F)c4F)c4ccc([nH]4)c(-c4c(F)c(F)c(F)c(F)c4F)c4nc(c(-c5c(F)c(F)c(F)c(F)c5F)c5ccc2[nH]5)C=C4)C=C3)cc1)c1ccc(-c2ccccc2)cc1
REMARK SMILES IDX 11 1 10 2 9 3 7 4 8 5 6 6 5 7 4 8 3 9 2 10 1 11 84 15 85 16
REMARK SMILES IDX 95 17 86 18 94 19 87 20 88 21 89 22 93 23 90 24 92 25 91 26
REMARK SMILES IDX 12 27 13 28 14 29 15 30 16 31 17 32 18 33 19 34 20 35 21 36
REMARK SMILES IDX 22 37 83 38 23 39 82 40 24 41 25 42 26 43 76 44 27 45 81 46
REMARK SMILES IDX 75 47 77 48 28 49 80 50 74 51 73 52 29 54 61 55 41 56 60 57
REMARK SMILES IDX 42 58 45 59 59 60 78 61 43 62 44 63 58 65 79 66 46 67 30 68
REMARK SMILES IDX 31 69 39 70 32 71 33 72 37 73 40 74 34 75 35 76 38 77 36 78
REMARK SMILES IDX 62 79 63 80 71 81 64 82 65 83 69 84 72 85 66 86 67 87 70 88
REMARK SMILES IDX 68 89 47 90 48 91 56 92 49 93 50 94 54 95 57 96 51 97 52 98
REMARK SMILES IDX 55 99 53 100
REMARK H PARENT 1 12 1 13 1 14 77 53 45 64
REMARK Flexibility Score: inf
ROOT
ATOM      1  C   UNL     1       0.089  -0.344   8.208  1.00  0.00     0.202 C 
ENDROOT
BRANCH   1   2
ATOM      2  C   UNL     1       0.651  -1.373   7.215  1.00  0.00     0.261 C 
BRANCH   2   3
ATOM      3  O   UNL     1       0.269  -1.109   5.855  1.00  0.00    -0.463 OA
BRANCH   3   4
ATOM      4  C   UNL     1      -0.470  -2.070   5.244  1.00  0.00     0.305 C 
ATOM      5  O   UNL     1      -0.703  -3.182   5.704  1.00  0.00    -0.252 OA
BRANCH   4   6
ATOM      6  C   UNL     1      -1.105  -1.599   3.954  1.00  0.00     0.123 C 
BRANCH   6   7
ATOM      7  C   UNL     1      -0.645  -0.260   3.379  1.00  0.00     0.012 C 
BRANCH   7   8
ATOM      8  C   UNL     1       0.755  -0.233   2.756  1.00  0.00     0.007 C 
BRANCH   8   9
ATOM      9  C   UNL     1       1.103  -1.339   1.744  1.00  0.00     0.070 C 
BRANCH   9  10
ATOM     10  C   UNL     1       0.510  -1.236   0.314  1.00  0.00     0.211 C 
BRANCH  10  11
ATOM     11  N   UNL     1       1.099  -0.101  -0.406  1.00  0.00    -0.351 N 
ATOM     12  H   UNL     1       2.116  -0.150  -0.346  1.00  0.00     0.345 HD
ATOM     13  H   UNL     1       0.775   0.772   0.012  1.00  0.00     0.345 HD
ATOM     14  H   UNL     1       0.814  -0.134  -1.385  1.00  0.00     0.345 HD
ENDBRANCH  10  11
BRANCH  10  15
ATOM     15  C   UNL     1      -1.009  -1.252   0.282  1.00  0.00     0.009 A 
ATOM     16  C   UNL     1      -1.771  -0.104   0.029  1.00  0.00     0.010 A 
ATOM     17  C   UNL     1      -1.696  -2.436   0.593  1.00  0.00     0.010 A 
ATOM     18  C   UNL     1      -3.162  -0.115   0.185  1.00  0.00     0.009 A 
ATOM     19  C   UNL     1      -3.090  -2.445   0.745  1.00  0.00     0.009 A 
ATOM     20  C   UNL     1      -3.847  -1.276   0.577  1.00  0.00    -0.018 A 
BRANCH  20  21
ATOM     21  C   UNL     1      -5.301  -1.244   0.833  1.00  0.00    -0.018 A 
ATOM     22  C   UNL     1      -6.177  -0.563  -0.031  1.00  0.00     0.009 A 
ATOM     23  C   UNL     1      -5.857  -1.855   1.972  1.00  0.00     0.009 A 
ATOM     24  C   UNL     1      -7.546  -0.483   0.236  1.00  0.00     0.001 A 
ATOM     25  C   UNL     1      -7.228  -1.780   2.240  1.00  0.00     0.001 A 
ATOM     26  C   UNL     1      -8.071  -1.091   1.373  1.00  0.00     0.000 A 
ENDBRANCH  20  21
ENDBRANCH  10  15
ENDBRANCH   9  10
ENDBRANCH   8   9
ENDBRANCH   7   8
ENDBRANCH   6   7
ENDBRANCH   4   6
ENDBRANCH   3   4
ENDBRANCH   2   3
ENDBRANCH   1   2
BRANCH   1  27
ATOM     27  O   UNL     1      -1.324  -0.145   8.188  1.00  0.00    -0.376 OA
BRANCH  27  28
ATOM     28  C   UNL     1      -1.868   0.481   7.032  1.00  0.00     0.188 C 
BRANCH  28  29
ATOM     29  C   UNL     1      -1.321   1.863   6.670  1.00  0.00     0.188 C 
BRANCH  29  30
ATOM     30  O   UNL     1       0.088   1.938   6.482  1.00  0.00    -0.376 OA
BRANCH  30  31
ATOM     31  C   UNL     1       0.571   3.173   5.935  1.00  0.00     0.202 C 
BRANCH  31  32
ATOM     32  C   UNL     1       0.096   4.463   6.635  1.00  0.00     0.261 C 
BRANCH  32  33
ATOM     33  O   UNL     1      -1.331   4.680   6.591  1.00  0.00    -0.460 OA
BRANCH  33  34
ATOM     34  C   UNL     1      -1.921   4.711   5.373  1.00  0.00     0.338 C 
ATOM     35  O   UNL     1      -1.357   4.811   4.296  1.00  0.00    -0.246 OA
BRANCH  34  36
ATOM     36  C   UNL     1      -3.354   4.340   5.534  1.00  0.00     0.060 A 
ATOM     37  C   UNL     1      -3.946   3.534   4.549  1.00  0.00     0.016 A 
ATOM     38  C   UNL     1      -4.093   4.706   6.664  1.00  0.00     0.016 A 
ATOM     39  C   UNL     1      -5.283   3.141   4.665  1.00  0.00     0.010 A 
ATOM     40  C   UNL     1      -5.433   4.317   6.777  1.00  0.00     0.010 A 
ATOM     41  C   UNL     1      -6.048   3.565   5.760  1.00  0.00    -0.014 A 
BRANCH  41  42
ATOM     42  C   UNL     1      -7.527   3.412   5.740  1.00  0.00     0.031 A 
ATOM     43  C   UNL     1      -8.357   4.592   5.308  1.00  0.00     0.074 A 
ATOM     44  C   UNL     1      -8.137   2.260   6.074  1.00  0.00     0.049 A 
ATOM     45  N   UNL     1      -9.658   4.724   5.250  1.00  0.00    -0.248 NA
ATOM     46  C   UNL     1      -7.612   5.789   4.886  1.00  0.00     0.031 C 
ATOM     47  C   UNL     1      -7.464   1.027   6.473  1.00  0.00     0.029 A 
ATOM     48  N   UNL     1      -9.476   1.950   6.137  1.00  0.00    -0.354 N 
ATOM     49  C   UNL     1      -9.885   6.013   4.786  1.00  0.00     0.074 A 
ATOM     50  C   UNL     1      -8.591   6.637   4.615  1.00  0.00     0.031 C 
ATOM     51  C   UNL     1      -8.394   0.096   6.755  1.00  0.00     0.029 A 
ATOM     52  C   UNL     1      -9.727   0.676   6.584  1.00  0.00     0.049 A 
ATOM     53  H   UNL     1     -10.187   2.582   5.886  1.00  0.00     0.167 HD
ATOM     54  C   UNL     1     -11.063   6.622   4.511  1.00  0.00     0.037 A 
ATOM     55  C   UNL     1     -10.898   0.058   6.845  1.00  0.00     0.037 A 
ATOM     56  C   UNL     1     -12.355   6.014   4.681  1.00  0.00     0.049 A 
ATOM     57  C   UNL     1     -12.200   0.786   6.612  1.00  0.00     0.074 A 
ATOM     58  C   UNL     1     -13.602   6.553   4.418  1.00  0.00     0.029 A 
ATOM     59  N   UNL     1     -12.567   4.733   5.167  1.00  0.00    -0.354 N 
ATOM     60  N   UNL     1     -12.406   1.994   6.146  1.00  0.00    -0.248 NA
ATOM     61  C   UNL     1     -13.437   0.058   6.940  1.00  0.00     0.031 C 
ATOM     62  C   UNL     1     -14.571   5.618   4.795  1.00  0.00     0.029 A 
ATOM     63  C   UNL     1     -13.927   4.474   5.236  1.00  0.00     0.049 A 
ATOM     64  H   UNL     1     -11.857   4.101   5.424  1.00  0.00     0.167 HD
ATOM     65  C   UNL     1     -13.786   2.158   6.096  1.00  0.00     0.074 A 
ATOM     66  C   UNL     1     -14.371   0.921   6.567  1.00  0.00     0.031 C 
ATOM     67  C   UNL     1     -14.503   3.236   5.693  1.00  0.00     0.037 A 
BRANCH  54  68
ATOM     68  C   UNL     1     -11.005   8.038   4.017  1.00  0.00     0.064 A 
ATOM     69  C   UNL     1     -10.538   8.350   2.731  1.00  0.00     0.173 A 
ATOM     70  C   UNL     1     -11.449   9.091   4.830  1.00  0.00     0.173 A 
ATOM     71  F   UNL     1     -10.087   7.380   1.922  1.00  0.00    -0.203 F 
ATOM     72  C   UNL     1     -10.492   9.669   2.288  1.00  0.00     0.198 A 
ATOM     73  C   UNL     1     -11.430  10.405   4.372  1.00  0.00     0.198 A 
ATOM     74  F   UNL     1     -11.907   8.845   6.066  1.00  0.00    -0.203 F 
ATOM     75  F   UNL     1      -9.995   9.950   1.076  1.00  0.00    -0.200 F 
ATOM     76  C   UNL     1     -10.944  10.694   3.106  1.00  0.00     0.200 A 
ATOM     77  F   UNL     1     -11.879  11.393   5.159  1.00  0.00    -0.200 F 
ATOM     78  F   UNL     1     -10.905  11.963   2.675  1.00  0.00    -0.200 F 
ENDBRANCH  54  68
BRANCH  55  79
ATOM     79  C   UNL     1     -10.905  -1.330   7.380  1.00  0.00     0.064 A 
ATOM     80  C   UNL     1     -11.402  -2.399   6.620  1.00  0.00     0.173 A 
ATOM     81  C   UNL     1     -10.459  -1.608   8.681  1.00  0.00     0.173 A 
ATOM     82  F   UNL     1     -11.871  -2.179   5.383  1.00  0.00    -0.203 F 
ATOM     83  C   UNL     1     -11.471  -3.687   7.148  1.00  0.00     0.198 A 
ATOM     84  C   UNL     1     -10.501  -2.902   9.196  1.00  0.00     0.198 A 
ATOM     85  F   UNL     1      -9.985  -0.620   9.453  1.00  0.00    -0.203 F 
ATOM     86  F   UNL     1     -12.003  -4.679   6.420  1.00  0.00    -0.200 F 
ATOM     87  C   UNL     1     -11.016  -3.939   8.433  1.00  0.00     0.200 A 
ATOM     88  F   UNL     1     -10.055  -3.141  10.437  1.00  0.00    -0.200 F 
ATOM     89  F   UNL     1     -11.086  -5.177   8.941  1.00  0.00    -0.200 F 
ENDBRANCH  55  79
BRANCH  67  90
ATOM     90  C   UNL     1     -16.002   3.122   5.697  1.00  0.00     0.064 A 
ATOM     91  C   UNL     1     -16.740   3.095   6.890  1.00  0.00     0.173 A 
ATOM     92  C   UNL     1     -16.714   3.093   4.487  1.00  0.00     0.173 A 
ATOM     93  F   UNL     1     -16.109   3.109   8.074  1.00  0.00    -0.203 F 
ATOM     94  C   UNL     1     -18.131   3.019   6.871  1.00  0.00     0.198 A 
ATOM     95  C   UNL     1     -18.105   3.048   4.472  1.00  0.00     0.198 A 
ATOM     96  F   UNL     1     -16.059   3.127   3.317  1.00  0.00    -0.203 F 
ATOM     97  F   UNL     1     -18.812   2.949   8.024  1.00  0.00    -0.200 F 
ATOM     98  C   UNL     1     -18.812   3.004   5.664  1.00  0.00     0.200 A 
ATOM     99  F   UNL     1     -18.762   3.050   3.304  1.00  0.00    -0.200 F 
ATOM    100  F   UNL     1     -20.151   2.941   5.648  1.00  0.00    -0.200 F 
ENDBRANCH  67  90
ENDBRANCH  41  42
ENDBRANCH  34  36
ENDBRANCH  33  34
ENDBRANCH  32  33
ENDBRANCH  31  32
ENDBRANCH  30  31
ENDBRANCH  29  30
ENDBRANCH  28  29
ENDBRANCH  27  28
ENDBRANCH   1  27
TORSDOF 24
