REMARK SMILES COCC1CCN(C(=O)NC[C@H]2CC[C@H](C(=O)OCCOCCOCCOC(=O)c3ccc(-c4c5nc(c(-c6c(F)c(F)c(F)c(F)c6F)c6ccc([nH]6)c(-c6c(F)c(F)c(F)c(F)c6F)c6nc(c(-c7c(F)c(F)c(F)c(F)c7F)c7ccc4[nH]7)C=C6)C=C5)cc3)O2)CC1
REMARK SMILES IDX 22 1 21 2 20 3 19 4 18 5 16 6 17 7 15 8 12 9 13 10 93 11
REMARK SMILES IDX 14 12 11 13 10 14 4 15 5 16 95 17 6 18 94 19 7 20 8 21 9 22
REMARK SMILES IDX 3 24 2 25 1 26 23 27 24 28 25 29 26 30 27 31 28 32 29 33
REMARK SMILES IDX 30 34 31 35 92 36 32 37 91 38 33 39 34 40 35 41 85 42 36 43
REMARK SMILES IDX 90 44 84 45 86 46 37 47 89 48 83 49 82 50 38 52 70 53 50 54
REMARK SMILES IDX 69 55 51 56 54 57 68 58 87 59 52 60 53 61 67 63 88 64 55 65
REMARK SMILES IDX 39 66 40 67 48 68 41 69 42 70 46 71 49 72 43 73 44 74 47 75
REMARK SMILES IDX 45 76 71 77 72 78 80 79 73 80 74 81 78 82 81 83 75 84 76 85
REMARK SMILES IDX 79 86 77 87 56 88 57 89 65 90 58 91 59 92 63 93 66 94 60 95
REMARK SMILES IDX 61 96 64 97 62 98
REMARK H PARENT 10 23 86 51 54 62
REMARK Flexibility Score: inf
ROOT
ATOM      1  C   UNL     1      -0.945   2.438  -4.110  1.00  0.00     0.188 C 
ENDROOT
BRANCH   1   2
ATOM      2  O   UNL     1       0.350   2.786  -3.643  1.00  0.00    -0.376 OA
BRANCH   2   3
ATOM      3  C   UNL     1       0.944   2.011  -2.602  1.00  0.00     0.202 C 
BRANCH   3   4
ATOM      4  C   UNL     1       0.127   1.687  -1.339  1.00  0.00     0.261 C 
BRANCH   4   5
ATOM      5  O   UNL     1      -1.107   0.984  -1.585  1.00  0.00    -0.461 OA
BRANCH   5   6
ATOM      6  C   UNL     1      -2.236   1.596  -1.145  1.00  0.00     0.335 C 
ATOM      7  O   UNL     1      -2.243   2.660  -0.532  1.00  0.00    -0.249 OA
BRANCH   6   8
ATOM      8  C   UNL     1      -3.531   0.888  -1.558  1.00  0.00     0.228 C 
ATOM      9  C   UNL     1      -4.641  -0.583  -0.093  1.00  0.00     0.138 C 
ATOM     10  C   UNL     1      -3.813  -1.421  -1.054  1.00  0.00     0.037 C 
ATOM     11  O   UNL     1      -4.340   0.796  -0.376  1.00  0.00    -0.361 OA
ATOM     12  C   UNL     1      -3.508  -0.491  -2.192  1.00  0.00     0.047 C 
BRANCH   9  13
ATOM     13  C   UNL     1      -6.171  -0.708  -0.154  1.00  0.00     0.149 C 
BRANCH  13  14
ATOM     14  N   UNL     1      -6.694  -0.372  -1.470  1.00  0.00    -0.335 N 
ATOM     15  C   UNL     1      -8.684  -5.078  -2.141  1.00  0.00     0.018 C 
ATOM     16  C   UNL     1      -9.339  -4.059  -3.089  1.00  0.00     0.027 C 
ATOM     17  C   UNL     1      -7.807  -4.377  -1.103  1.00  0.00     0.027 C 
ATOM     18  C   UNL     1      -8.502  -2.843  -3.492  1.00  0.00     0.121 C 
ATOM     19  C   UNL     1      -6.875  -3.366  -1.747  1.00  0.00     0.121 C 
ATOM     20  N   UNL     1      -7.632  -2.333  -2.435  1.00  0.00    -0.325 N 
ATOM     21  C   UNL     1      -7.379  -0.991  -2.442  1.00  0.00     0.317 C 
ATOM     22  O   UNL     1      -7.773  -0.256  -3.354  1.00  0.00    -0.249 OA
ATOM     23  H   UNL     1      -6.490   0.560  -1.711  1.00  0.00     0.165 HD
BRANCH  15  24
ATOM     24  C   UNL     1      -7.973  -6.252  -2.844  1.00  0.00     0.163 C 
BRANCH  24  25
ATOM     25  O   UNL     1      -6.602  -6.023  -3.144  1.00  0.00    -0.384 OA
ATOM     26  C   UNL     1      -6.349  -5.719  -4.507  1.00  0.00     0.194 C 
ENDBRANCH  24  25
ENDBRANCH  15  24
ENDBRANCH  13  14
ENDBRANCH   9  13
ENDBRANCH   6   8
ENDBRANCH   5   6
ENDBRANCH   4   5
ENDBRANCH   3   4
ENDBRANCH   2   3
ENDBRANCH   1   2
BRANCH   1  27
ATOM     27  C   UNL     1      -1.240   0.973  -4.458  1.00  0.00     0.188 C 
BRANCH  27  28
ATOM     28  O   UNL     1      -0.254   0.056  -4.047  1.00  0.00    -0.376 OA
BRANCH  28  29
ATOM     29  C   UNL     1       0.406  -0.729  -5.030  1.00  0.00     0.202 C 
BRANCH  29  30
ATOM     30  C   UNL     1       0.998  -0.054  -6.286  1.00  0.00     0.261 C 
BRANCH  30  31
ATOM     31  O   UNL     1       0.151   0.865  -7.000  1.00  0.00    -0.460 OA
BRANCH  31  32
ATOM     32  C   UNL     1      -0.917   0.348  -7.664  1.00  0.00     0.338 C 
ATOM     33  O   UNL     1      -1.205  -0.821  -7.784  1.00  0.00    -0.246 OA
BRANCH  32  34
ATOM     34  C   UNL     1      -1.829   1.488  -7.966  1.00  0.00     0.060 A 
ATOM     35  C   UNL     1      -3.124   1.479  -7.423  1.00  0.00     0.016 A 
ATOM     36  C   UNL     1      -1.388   2.589  -8.700  1.00  0.00     0.016 A 
ATOM     37  C   UNL     1      -3.977   2.572  -7.610  1.00  0.00     0.010 A 
ATOM     38  C   UNL     1      -2.255   3.668  -8.915  1.00  0.00     0.010 A 
ATOM     39  C   UNL     1      -3.558   3.663  -8.382  1.00  0.00    -0.014 A 
BRANCH  39  40
ATOM     40  C   UNL     1      -4.517   4.731  -8.766  1.00  0.00     0.031 A 
ATOM     41  C   UNL     1      -5.160   4.665 -10.124  1.00  0.00     0.074 A 
ATOM     42  C   UNL     1      -4.806   5.753  -7.938  1.00  0.00     0.049 A 
ATOM     43  N   UNL     1      -5.934   5.532 -10.724  1.00  0.00    -0.248 NA
ATOM     44  C   UNL     1      -4.886   3.454 -10.915  1.00  0.00     0.031 C 
ATOM     45  C   UNL     1      -4.296   5.913  -6.579  1.00  0.00     0.029 A 
ATOM     46  N   UNL     1      -5.591   6.865  -8.135  1.00  0.00    -0.354 N 
ATOM     47  C   UNL     1      -6.226   4.982 -11.965  1.00  0.00     0.074 A 
ATOM     48  C   UNL     1      -5.534   3.714 -12.041  1.00  0.00     0.031 C 
ATOM     49  C   UNL     1      -4.767   7.066  -6.069  1.00  0.00     0.029 A 
ATOM     50  C   UNL     1      -5.574   7.747  -7.081  1.00  0.00     0.049 A 
ATOM     51  H   UNL     1      -6.117   7.015  -8.954  1.00  0.00     0.167 HD
ATOM     52  C   UNL     1      -7.002   5.490 -12.952  1.00  0.00     0.037 A 
ATOM     53  C   UNL     1      -6.118   8.976  -6.964  1.00  0.00     0.037 A 
ATOM     54  C   UNL     1      -7.700   6.746 -12.873  1.00  0.00     0.049 A 
ATOM     55  C   UNL     1      -6.903   9.555  -8.119  1.00  0.00     0.074 A 
ATOM     56  C   UNL     1      -8.543   7.321 -13.809  1.00  0.00     0.029 A 
ATOM     57  N   UNL     1      -7.628   7.626 -11.805  1.00  0.00    -0.354 N 
ATOM     58  N   UNL     1      -7.206   9.014  -9.273  1.00  0.00    -0.248 NA
ATOM     59  C   UNL     1      -7.417  10.925  -7.952  1.00  0.00     0.031 C 
ATOM     60  C   UNL     1      -8.924   8.580 -13.338  1.00  0.00     0.029 A 
ATOM     61  C   UNL     1      -8.376   8.761 -12.079  1.00  0.00     0.049 A 
ATOM     62  H   UNL     1      -7.121   7.469 -10.976  1.00  0.00     0.167 HD
ATOM     63  C   UNL     1      -7.971   9.957  -9.951  1.00  0.00     0.074 A 
ATOM     64  C   UNL     1      -8.102  11.098  -9.072  1.00  0.00     0.031 C 
ATOM     65  C   UNL     1      -8.512   9.887 -11.193  1.00  0.00     0.037 A 
BRANCH  52  66
ATOM     66  C   UNL     1      -7.119   4.708 -14.227  1.00  0.00     0.064 A 
ATOM     67  C   UNL     1      -7.858   3.519 -14.303  1.00  0.00     0.173 A 
ATOM     68  C   UNL     1      -6.545   5.203 -15.409  1.00  0.00     0.173 A 
ATOM     69  F   UNL     1      -8.414   2.997 -13.200  1.00  0.00    -0.203 F 
ATOM     70  C   UNL     1      -8.010   2.849 -15.514  1.00  0.00     0.198 A 
ATOM     71  C   UNL     1      -6.725   4.546 -16.623  1.00  0.00     0.198 A 
ATOM     72  F   UNL     1      -5.831   6.338 -15.391  1.00  0.00    -0.203 F 
ATOM     73  F   UNL     1      -8.695   1.697 -15.559  1.00  0.00    -0.200 F 
ATOM     74  C   UNL     1      -7.455   3.369 -16.674  1.00  0.00     0.200 A 
ATOM     75  F   UNL     1      -6.200   5.059 -17.744  1.00  0.00    -0.200 F 
ATOM     76  F   UNL     1      -7.621   2.733 -17.842  1.00  0.00    -0.200 F 
ENDBRANCH  52  66
BRANCH  53  77
ATOM     77  C   UNL     1      -5.916   9.781  -5.726  1.00  0.00     0.064 A 
ATOM     78  C   UNL     1      -7.001  10.147  -4.915  1.00  0.00     0.173 A 
ATOM     79  C   UNL     1      -4.648  10.266  -5.370  1.00  0.00     0.173 A 
ATOM     80  F   UNL     1      -8.239   9.741  -5.231  1.00  0.00    -0.203 F 
ATOM     81  C   UNL     1      -6.831  10.993  -3.820  1.00  0.00     0.198 A 
ATOM     82  C   UNL     1      -4.474  11.082  -4.253  1.00  0.00     0.198 A 
ATOM     83  F   UNL     1      -3.577   9.959  -6.115  1.00  0.00    -0.203 F 
ATOM     84  F   UNL     1      -7.897  11.389  -3.111  1.00  0.00    -0.200 F 
ATOM     85  C   UNL     1      -5.567  11.456  -3.488  1.00  0.00     0.200 A 
ATOM     86  F   UNL     1      -3.250  11.522  -3.932  1.00  0.00    -0.200 F 
ATOM     87  F   UNL     1      -5.407  12.280  -2.443  1.00  0.00    -0.200 F 
ENDBRANCH  53  77
BRANCH  65  88
ATOM     88  C   UNL     1      -9.330  11.057 -11.665  1.00  0.00     0.064 A 
ATOM     89  C   UNL     1      -8.743  12.292 -11.977  1.00  0.00     0.173 A 
ATOM     90  C   UNL     1     -10.716  10.926 -11.852  1.00  0.00     0.173 A 
ATOM     91  F   UNL     1      -7.425  12.475 -11.806  1.00  0.00    -0.203 F 
ATOM     92  C   UNL     1      -9.515  13.360 -12.429  1.00  0.00     0.198 A 
ATOM     93  C   UNL     1     -11.479  11.984 -12.338  1.00  0.00     0.198 A 
ATOM     94  F   UNL     1     -11.329   9.764 -11.580  1.00  0.00    -0.203 F 
ATOM     95  F   UNL     1      -8.939  14.545 -12.670  1.00  0.00    -0.200 F 
ATOM     96  C   UNL     1     -10.880  13.202 -12.618  1.00  0.00     0.200 A 
ATOM     97  F   UNL     1     -12.794  11.823 -12.539  1.00  0.00    -0.200 F 
ATOM     98  F   UNL     1     -11.619  14.228 -13.063  1.00  0.00    -0.200 F 
ENDBRANCH  65  88
ENDBRANCH  39  40
ENDBRANCH  32  34
ENDBRANCH  31  32
ENDBRANCH  30  31
ENDBRANCH  29  30
ENDBRANCH  28  29
ENDBRANCH  27  28
ENDBRANCH   1  27
TORSDOF 21
