REMARK SMILES C[C@]1(C(=O)Nc2ccc(C(=O)OCCOCCOCCOC(=O)c3ccc(-c4c5nc(c(-c6c(F)c(F)c(F)c(F)c6F)c6ccc([nH]6)c(-c6c(F)c(F)c(F)c(F)c6F)c6nc(c(-c7c(F)c(F)c(F)c(F)c7F)c7ccc4[nH]7)C=C6)C=C5)cc3)c(O)c2)CCCO1
REMARK SMILES IDX 16 1 15 2 14 3 13 4 12 5 10 6 11 7 9 8 6 9 7 10 89 11 8 12
REMARK SMILES IDX 87 13 5 14 3 15 4 16 2 18 1 19 90 20 93 21 91 22 92 23 88 24
REMARK SMILES IDX 17 26 18 27 19 28 20 29 21 30 22 31 23 32 24 33 25 34 86 35
REMARK SMILES IDX 26 36 85 37 27 38 28 39 29 40 79 41 30 42 84 43 78 44 80 45
REMARK SMILES IDX 31 46 83 47 77 48 76 49 32 51 64 52 44 53 63 54 45 55 48 56
REMARK SMILES IDX 62 57 81 58 46 59 47 60 61 62 82 63 49 64 33 65 34 66 42 67
REMARK SMILES IDX 35 68 36 69 40 70 43 71 37 72 38 73 41 74 39 75 65 76 66 77
REMARK SMILES IDX 74 78 67 79 68 80 72 81 75 82 69 83 70 84 73 85 71 86 50 87
REMARK SMILES IDX 51 88 59 89 52 90 53 91 57 92 60 93 54 94 55 95 58 96 56 97
REMARK H PARENT 5 17 88 25 80 50 48 61
REMARK Flexibility Score: inf
ROOT
ATOM      1  C   UNL     1      -2.410  -1.834  -6.240  1.00  0.00     0.188 C 
ENDROOT
BRANCH   1   2
ATOM      2  O   UNL     1      -2.840  -1.654  -7.583  1.00  0.00    -0.376 OA
BRANCH   2   3
ATOM      3  C   UNL     1      -1.896  -1.642  -8.644  1.00  0.00     0.202 C 
BRANCH   3   4
ATOM      4  C   UNL     1      -0.795  -0.573  -8.632  1.00  0.00     0.261 C 
BRANCH   4   5
ATOM      5  O   UNL     1      -0.046  -0.503  -7.403  1.00  0.00    -0.460 OA
BRANCH   5   6
ATOM      6  C   UNL     1      -0.227   0.633  -6.679  1.00  0.00     0.341 C 
ATOM      7  O   UNL     1      -0.890   1.606  -7.003  1.00  0.00    -0.246 OA
BRANCH   6   8
ATOM      8  C   UNL     1       0.357   0.479  -5.325  1.00  0.00     0.101 A 
ATOM      9  C   UNL     1       1.287   0.245  -2.690  1.00  0.00     0.045 A 
ATOM     10  C   UNL     1       0.106   0.942  -2.951  1.00  0.00     0.027 A 
ATOM     11  C   UNL     1       2.028  -0.294  -3.743  1.00  0.00     0.073 A 
ATOM     12  C   UNL     1      -0.351   1.067  -4.265  1.00  0.00     0.022 A 
ATOM     13  C   UNL     1       1.539  -0.219  -5.051  1.00  0.00     0.132 A 
BRANCH   9  14
ATOM     14  N   UNL     1       1.801   0.177  -1.391  1.00  0.00    -0.323 N 
ATOM     15  C   UNL     1       1.154  -0.221  -0.244  1.00  0.00     0.256 C 
ATOM     16  O   UNL     1       1.450   0.363   0.803  1.00  0.00    -0.271 OA
ATOM     17  H   UNL     1       2.741   0.447  -1.284  1.00  0.00     0.170 HD
BRANCH  15  18
ATOM     18  C   UNL     1       0.296  -1.527  -0.247  1.00  0.00     0.144 C 
ATOM     19  C   UNL     1      -0.779  -1.635  -1.323  1.00  0.00     0.053 C 
ATOM     20  C   UNL     1       1.256  -2.722  -0.282  1.00  0.00     0.048 C 
ATOM     21  O   UNL     1      -0.420  -1.673   1.002  1.00  0.00    -0.365 OA
ATOM     22  C   UNL     1       0.501  -3.798   0.457  1.00  0.00     0.032 C 
ATOM     23  C   UNL     1      -0.255  -3.007   1.502  1.00  0.00     0.162 C 
ENDBRANCH  15  18
ENDBRANCH   9  14
BRANCH  13  24
ATOM     24  O   UNL     1       2.266  -0.878  -6.003  1.00  0.00    -0.507 OA
ATOM     25  H   UNL     1       1.988  -0.864  -6.897  1.00  0.00     0.293 HD
ENDBRANCH  13  24
ENDBRANCH   6   8
ENDBRANCH   5   6
ENDBRANCH   4   5
ENDBRANCH   3   4
ENDBRANCH   2   3
ENDBRANCH   1   2
BRANCH   1  26
ATOM     26  C   UNL     1      -1.267  -2.811  -5.896  1.00  0.00     0.188 C 
BRANCH  26  27
ATOM     27  O   UNL     1      -0.828  -3.616  -6.975  1.00  0.00    -0.376 OA
BRANCH  27  28
ATOM     28  C   UNL     1      -1.115  -5.005  -6.867  1.00  0.00     0.202 C 
BRANCH  28  29
ATOM     29  C   UNL     1      -2.597  -5.382  -7.011  1.00  0.00     0.261 C 
BRANCH  29  30
ATOM     30  O   UNL     1      -3.487  -4.756  -6.068  1.00  0.00    -0.460 OA
BRANCH  30  31
ATOM     31  C   UNL     1      -3.398  -5.162  -4.785  1.00  0.00     0.338 C 
ATOM     32  O   UNL     1      -2.630  -5.999  -4.330  1.00  0.00    -0.246 OA
BRANCH  31  33
ATOM     33  C   UNL     1      -4.254  -4.291  -3.956  1.00  0.00     0.060 A 
ATOM     34  C   UNL     1      -3.653  -3.549  -2.934  1.00  0.00     0.016 A 
ATOM     35  C   UNL     1      -5.634  -4.215  -4.161  1.00  0.00     0.016 A 
ATOM     36  C   UNL     1      -4.433  -2.755  -2.092  1.00  0.00     0.010 A 
ATOM     37  C   UNL     1      -6.418  -3.429  -3.305  1.00  0.00     0.010 A 
ATOM     38  C   UNL     1      -5.826  -2.719  -2.246  1.00  0.00    -0.014 A 
BRANCH  38  39
ATOM     39  C   UNL     1      -6.654  -2.069  -1.197  1.00  0.00     0.031 A 
ATOM     40  C   UNL     1      -7.259  -2.922  -0.115  1.00  0.00     0.074 A 
ATOM     41  C   UNL     1      -6.818  -0.734  -1.164  1.00  0.00     0.049 A 
ATOM     42  N   UNL     1      -7.965  -2.569   0.930  1.00  0.00    -0.248 NA
ATOM     43  C   UNL     1      -7.037  -4.372  -0.228  1.00  0.00     0.031 C 
ATOM     44  C   UNL     1      -6.270   0.209  -2.135  1.00  0.00     0.029 A 
ATOM     45  N   UNL     1      -7.495   0.059  -0.269  1.00  0.00    -0.354 N 
ATOM     46  C   UNL     1      -8.262  -3.748   1.602  1.00  0.00     0.074 A 
ATOM     47  C   UNL     1      -7.697  -4.831   0.825  1.00  0.00     0.031 C 
ATOM     48  C   UNL     1      -6.630   1.456  -1.782  1.00  0.00     0.029 A 
ATOM     49  C   UNL     1      -7.449   1.397  -0.572  1.00  0.00     0.049 A 
ATOM     50  H   UNL     1      -7.969  -0.299   0.516  1.00  0.00     0.167 HD
ATOM     51  C   UNL     1      -8.932  -3.915   2.768  1.00  0.00     0.037 A 
ATOM     52  C   UNL     1      -8.007   2.452   0.055  1.00  0.00     0.037 A 
ATOM     53  C   UNL     1      -9.502  -2.843   3.541  1.00  0.00     0.049 A 
ATOM     54  C   UNL     1      -8.794   2.235   1.323  1.00  0.00     0.074 A 
ATOM     55  C   UNL     1     -10.189  -2.914   4.741  1.00  0.00     0.029 A 
ATOM     56  N   UNL     1      -9.460  -1.503   3.185  1.00  0.00    -0.354 N 
ATOM     57  N   UNL     1      -9.036   1.121   1.970  1.00  0.00    -0.248 NA
ATOM     58  C   UNL     1      -9.376   3.429   1.954  1.00  0.00     0.031 C 
ATOM     59  C   UNL     1     -10.604  -1.623   5.086  1.00  0.00     0.029 A 
ATOM     60  C   UNL     1     -10.128  -0.741   4.130  1.00  0.00     0.049 A 
ATOM     61  H   UNL     1      -9.020  -1.147   2.380  1.00  0.00     0.167 HD
ATOM     62  C   UNL     1      -9.766   1.482   3.096  1.00  0.00     0.074 A 
ATOM     63  C   UNL     1      -9.916   2.921   3.052  1.00  0.00     0.031 C 
ATOM     64  C   UNL     1     -10.267   0.692   4.079  1.00  0.00     0.037 A 
BRANCH  51  65
ATOM     65  C   UNL     1      -9.102  -5.319   3.269  1.00  0.00     0.064 A 
ATOM     66  C   UNL     1      -8.022  -6.052   3.785  1.00  0.00     0.173 A 
ATOM     67  C   UNL     1     -10.365  -5.929   3.261  1.00  0.00     0.173 A 
ATOM     68  F   UNL     1      -6.790  -5.521   3.801  1.00  0.00    -0.203 F 
ATOM     69  C   UNL     1      -8.197  -7.353   4.251  1.00  0.00     0.198 A 
ATOM     70  C   UNL     1     -10.542  -7.219   3.753  1.00  0.00     0.198 A 
ATOM     71  F   UNL     1     -11.431  -5.271   2.781  1.00  0.00    -0.203 F 
ATOM     72  F   UNL     1      -7.143  -8.052   4.695  1.00  0.00    -0.200 F 
ATOM     73  C   UNL     1      -9.457  -7.933   4.241  1.00  0.00     0.200 A 
ATOM     74  F   UNL     1     -11.762  -7.774   3.753  1.00  0.00    -0.200 F 
ATOM     75  F   UNL     1      -9.625  -9.183   4.694  1.00  0.00    -0.200 F 
ENDBRANCH  51  65
BRANCH  52  76
ATOM     76  C   UNL     1      -7.839   3.822  -0.499  1.00  0.00     0.064 A 
ATOM     77  C   UNL     1      -7.076   4.789   0.172  1.00  0.00     0.173 A 
ATOM     78  C   UNL     1      -8.465   4.201  -1.696  1.00  0.00     0.173 A 
ATOM     79  F   UNL     1      -6.484   4.484   1.335  1.00  0.00    -0.203 F 
ATOM     80  C   UNL     1      -6.964   6.087  -0.322  1.00  0.00     0.198 A 
ATOM     81  C   UNL     1      -8.328   5.491  -2.203  1.00  0.00     0.198 A 
ATOM     82  F   UNL     1      -9.211   3.316  -2.373  1.00  0.00    -0.203 F 
ATOM     83  F   UNL     1      -6.272   7.006   0.366  1.00  0.00    -0.200 F 
ATOM     84  C   UNL     1      -7.585   6.436  -1.512  1.00  0.00     0.200 A 
ATOM     85  F   UNL     1      -8.923   5.821  -3.357  1.00  0.00    -0.200 F 
ATOM     86  F   UNL     1      -7.476   7.684  -1.986  1.00  0.00    -0.200 F 
ENDBRANCH  52  76
BRANCH  64  87
ATOM     87  C   UNL     1     -10.992   1.372   5.207  1.00  0.00     0.064 A 
ATOM     88  C   UNL     1     -12.250   1.965   5.027  1.00  0.00     0.173 A 
ATOM     89  C   UNL     1     -10.427   1.411   6.492  1.00  0.00     0.173 A 
ATOM     90  F   UNL     1     -12.830   1.965   3.817  1.00  0.00    -0.203 F 
ATOM     91  C   UNL     1     -12.899   2.605   6.081  1.00  0.00     0.198 A 
ATOM     92  C   UNL     1     -11.092   2.024   7.550  1.00  0.00     0.198 A 
ATOM     93  F   UNL     1      -9.231   0.850   6.723  1.00  0.00    -0.203 F 
ATOM     94  F   UNL     1     -14.073   3.216   5.871  1.00  0.00    -0.200 F 
ATOM     95  C   UNL     1     -12.322   2.630   7.342  1.00  0.00     0.200 A 
ATOM     96  F   UNL     1     -10.541   2.034   8.772  1.00  0.00    -0.200 F 
ATOM     97  F   UNL     1     -12.947   3.246   8.354  1.00  0.00    -0.200 F 
ENDBRANCH  64  87
ENDBRANCH  38  39
ENDBRANCH  31  33
ENDBRANCH  30  31
ENDBRANCH  29  30
ENDBRANCH  28  29
ENDBRANCH  27  28
ENDBRANCH  26  27
ENDBRANCH   1  26
TORSDOF 20
