REMARK SMILES CC[C@@H](C)[C@@H](NC(=O)Cn1nc(-c2ccc3ccccc3c2)ccc1=O)C(=O)OCCOCCOCCOC(=O)c1ccc(-c2c3nc(c(-c4c(F)c(F)c(F)c(F)c4F)c4ccc([nH]4)c(-c4c(F)c(F)c(F)c(F)c4F)c4nc(c(-c5c(F)c(F)c(F)c(F)c5F)c5ccc2[nH]5)C=C4)C=C3)cc1
REMARK SMILES IDX 33 1 32 2 31 3 30 4 29 5 27 6 28 7 5 8 3 9 4 10 2 11 1 12
REMARK SMILES IDX 6 13 7 14 8 16 9 17 10 18 11 19 25 20 12 21 24 22 26 23
REMARK SMILES IDX 23 24 13 25 14 26 22 27 15 28 21 29 16 30 20 31 17 32 19 33
REMARK SMILES IDX 18 34 34 35 35 36 36 37 37 38 38 39 39 40 40 41 41 42 42 43
REMARK SMILES IDX 103 44 43 45 102 46 44 47 45 48 46 49 96 50 47 51 101 52
REMARK SMILES IDX 95 53 97 54 48 55 100 56 94 57 93 58 49 60 81 61 61 62 80 63
REMARK SMILES IDX 62 64 65 65 79 66 98 67 63 68 64 69 78 71 99 72 66 73 50 74
REMARK SMILES IDX 51 75 59 76 52 77 53 78 57 79 60 80 54 81 55 82 58 83 56 84
REMARK SMILES IDX 82 85 83 86 91 87 84 88 85 89 89 90 92 91 86 92 87 93 90 94
REMARK SMILES IDX 88 95 67 96 68 97 76 98 69 99 70 100 74 101 77 102 71 103
REMARK SMILES IDX 72 104 75 105 73 106
REMARK H PARENT 6 15 97 59 65 70
REMARK Flexibility Score: inf
ROOT
ATOM      1  C   UNL     1       0.005  -5.420   3.787  1.00  0.00     0.188 C 
ENDROOT
BRANCH   1   2
ATOM      2  O   UNL     1       0.539  -6.736   3.870  1.00  0.00    -0.376 OA
BRANCH   2   3
ATOM      3  C   UNL     1       1.725  -7.038   3.145  1.00  0.00     0.202 C 
BRANCH   3   4
ATOM      4  C   UNL     1       1.662  -6.891   1.621  1.00  0.00     0.261 C 
BRANCH   4   5
ATOM      5  O   UNL     1       1.495  -5.547   1.093  1.00  0.00    -0.462 OA
BRANCH   5   6
ATOM      6  C   UNL     1       0.384  -5.318   0.342  1.00  0.00     0.328 C 
ATOM      7  O   UNL     1      -0.554  -6.111   0.278  1.00  0.00    -0.250 OA
BRANCH   6   8
ATOM      8  C   UNL     1       0.446  -4.078  -0.599  1.00  0.00     0.195 C 
BRANCH   8   9
ATOM      9  C   UNL     1       0.584  -2.589  -0.138  1.00  0.00     0.019 C 
ATOM     10  C   UNL     1      -0.310  -2.230   1.056  1.00  0.00     0.010 C 
BRANCH   9  11
ATOM     11  C   UNL     1       0.246  -1.611  -1.310  1.00  0.00     0.002 C 
ATOM     12  C   UNL     1       0.719  -0.174  -1.101  1.00  0.00     0.004 C 
ENDBRANCH   9  11
ENDBRANCH   8   9
BRANCH   8  13
ATOM     13  N   UNL     1       1.161  -4.369  -1.853  1.00  0.00    -0.341 N 
ATOM     14  C   UNL     1       2.448  -4.675  -2.166  1.00  0.00     0.242 C 
ATOM     15  H   UNL     1       0.575  -4.333  -2.643  1.00  0.00     0.164 HD
ATOM     16  O   UNL     1       2.740  -4.583  -3.366  1.00  0.00    -0.273 OA
BRANCH  14  17
ATOM     17  C   UNL     1       3.436  -5.316  -1.193  1.00  0.00     0.248 C 
BRANCH  17  18
ATOM     18  N   UNL     1       4.040  -4.596  -0.081  1.00  0.00    -0.220 N 
ATOM     19  N   UNL     1       3.719  -3.276   0.118  1.00  0.00    -0.169 NA
ATOM     20  C   UNL     1       4.891  -5.315   0.753  1.00  0.00     0.267 A 
ATOM     21  C   UNL     1       4.188  -2.697   1.180  1.00  0.00     0.091 A 
ATOM     22  C   UNL     1       5.453  -4.585   1.907  1.00  0.00     0.075 A 
ATOM     23  O   UNL     1       5.184  -6.500   0.604  1.00  0.00    -0.268 OA
ATOM     24  C   UNL     1       5.115  -3.318   2.145  1.00  0.00     0.036 A 
BRANCH  21  25
ATOM     25  C   UNL     1       3.731  -1.333   1.530  1.00  0.00     0.003 A 
ATOM     26  C   UNL     1       2.857  -1.186   2.607  1.00  0.00     0.011 A 
ATOM     27  C   UNL     1       4.040  -0.235   0.734  1.00  0.00     0.019 A 
ATOM     28  C   UNL     1       2.305   0.051   2.922  1.00  0.00     0.009 A 
ATOM     29  C   UNL     1       3.472   1.021   1.024  1.00  0.00    -0.018 A 
ATOM     30  C   UNL     1       2.595   1.162   2.130  1.00  0.00    -0.018 A 
ATOM     31  C   UNL     1       3.719   2.139   0.216  1.00  0.00     0.009 A 
ATOM     32  C   UNL     1       1.999   2.401   2.400  1.00  0.00     0.009 A 
ATOM     33  C   UNL     1       3.109   3.367   0.490  1.00  0.00     0.001 A 
ATOM     34  C   UNL     1       2.253   3.498   1.580  1.00  0.00     0.001 A 
ENDBRANCH  21  25
ENDBRANCH  17  18
ENDBRANCH  14  17
ENDBRANCH   8  13
ENDBRANCH   6   8
ENDBRANCH   5   6
ENDBRANCH   4   5
ENDBRANCH   3   4
ENDBRANCH   2   3
ENDBRANCH   1   2
BRANCH   1  35
ATOM     35  C   UNL     1       0.997  -4.254   3.671  1.00  0.00     0.188 C 
BRANCH  35  36
ATOM     36  O   UNL     1       2.242  -4.550   4.265  1.00  0.00    -0.376 OA
BRANCH  36  37
ATOM     37  C   UNL     1       2.762  -3.745   5.295  1.00  0.00     0.202 C 
BRANCH  37  38
ATOM     38  C   UNL     1       1.944  -3.556   6.572  1.00  0.00     0.261 C 
BRANCH  38  39
ATOM     39  O   UNL     1       0.523  -3.501   6.415  1.00  0.00    -0.460 OA
BRANCH  39  40
ATOM     40  C   UNL     1      -0.045  -2.337   6.023  1.00  0.00     0.338 C 
ATOM     41  O   UNL     1       0.525  -1.290   5.761  1.00  0.00    -0.246 OA
BRANCH  40  42
ATOM     42  C   UNL     1      -1.456  -2.660   5.699  1.00  0.00     0.060 A 
ATOM     43  C   UNL     1      -2.204  -3.467   6.561  1.00  0.00     0.016 A 
ATOM     44  C   UNL     1      -1.992  -2.260   4.465  1.00  0.00     0.016 A 
ATOM     45  C   UNL     1      -3.482  -3.878   6.187  1.00  0.00     0.010 A 
ATOM     46  C   UNL     1      -3.274  -2.677   4.090  1.00  0.00     0.010 A 
ATOM     47  C   UNL     1      -4.032  -3.475   4.957  1.00  0.00    -0.014 A 
BRANCH  47  48
ATOM     48  C   UNL     1      -5.475  -3.713   4.717  1.00  0.00     0.031 A 
ATOM     49  C   UNL     1      -5.985  -4.810   3.839  1.00  0.00     0.074 A 
ATOM     50  C   UNL     1      -6.337  -2.910   5.367  1.00  0.00     0.049 A 
ATOM     51  N   UNL     1      -7.215  -5.237   3.697  1.00  0.00    -0.248 NA
ATOM     52  C   UNL     1      -5.001  -5.508   3.002  1.00  0.00     0.031 C 
ATOM     53  C   UNL     1      -5.941  -1.780   6.208  1.00  0.00     0.029 A 
ATOM     54  N   UNL     1      -7.704  -2.930   5.450  1.00  0.00    -0.354 N 
ATOM     55  C   UNL     1      -7.156  -6.271   2.774  1.00  0.00     0.074 A 
ATOM     56  C   UNL     1      -5.773  -6.369   2.348  1.00  0.00     0.031 C 
ATOM     57  C   UNL     1      -7.035  -1.245   6.764  1.00  0.00     0.029 A 
ATOM     58  C   UNL     1      -8.209  -1.979   6.301  1.00  0.00     0.049 A 
ATOM     59  H   UNL     1      -8.268  -3.564   4.951  1.00  0.00     0.167 HD
ATOM     60  C   UNL     1      -8.165  -7.070   2.344  1.00  0.00     0.037 A 
ATOM     61  C   UNL     1      -9.475  -1.734   6.685  1.00  0.00     0.037 A 
ATOM     62  C   UNL     1      -9.541  -6.939   2.764  1.00  0.00     0.049 A 
ATOM     63  C   UNL     1     -10.575  -2.620   6.184  1.00  0.00     0.074 A 
ATOM     64  C   UNL     1     -10.624  -7.735   2.433  1.00  0.00     0.029 A 
ATOM     65  N   UNL     1     -10.028  -5.933   3.590  1.00  0.00    -0.354 N 
ATOM     66  N   UNL     1     -10.496  -3.666   5.398  1.00  0.00    -0.248 NA
ATOM     67  C   UNL     1     -11.937  -2.301   6.629  1.00  0.00     0.031 C 
ATOM     68  C   UNL     1     -11.774  -7.173   2.999  1.00  0.00     0.029 A 
ATOM     69  C   UNL     1     -11.402  -6.064   3.741  1.00  0.00     0.049 A 
ATOM     70  H   UNL     1      -9.479  -5.230   4.007  1.00  0.00     0.167 HD
ATOM     71  C   UNL     1     -11.793  -4.139   5.260  1.00  0.00     0.074 A 
ATOM     72  C   UNL     1     -12.636  -3.277   6.065  1.00  0.00     0.031 C 
ATOM     73  C   UNL     1     -12.240  -5.189   4.528  1.00  0.00     0.037 A 
BRANCH  60  74
ATOM     74  C   UNL     1      -7.828  -8.162   1.365  1.00  0.00     0.064 A 
ATOM     75  C   UNL     1      -7.051  -9.270   1.740  1.00  0.00     0.173 A 
ATOM     76  C   UNL     1      -8.345  -8.141   0.060  1.00  0.00     0.173 A 
ATOM     77  F   UNL     1      -6.537  -9.346   2.977  1.00  0.00    -0.203 F 
ATOM     78  C   UNL     1      -6.781 -10.297   0.839  1.00  0.00     0.198 A 
ATOM     79  C   UNL     1      -8.099  -9.186  -0.829  1.00  0.00     0.198 A 
ATOM     80  F   UNL     1      -9.109  -7.117  -0.349  1.00  0.00    -0.203 F 
ATOM     81  F   UNL     1      -6.005 -11.325   1.210  1.00  0.00    -0.200 F 
ATOM     82  C   UNL     1      -7.311 -10.259  -0.442  1.00  0.00     0.200 A 
ATOM     83  F   UNL     1      -8.633  -9.158  -2.058  1.00  0.00    -0.200 F 
ATOM     84  F   UNL     1      -7.063 -11.255  -1.302  1.00  0.00    -0.200 F 
ENDBRANCH  60  74
BRANCH  61  85
ATOM     85  C   UNL     1      -9.726  -0.629   7.644  1.00  0.00     0.064 A 
ATOM     86  C   UNL     1     -10.067  -0.897   8.976  1.00  0.00     0.173 A 
ATOM     87  C   UNL     1      -9.531   0.710   7.273  1.00  0.00     0.173 A 
ATOM     88  F   UNL     1     -10.272  -2.162   9.373  1.00  0.00    -0.203 F 
ATOM     89  C   UNL     1     -10.198   0.133   9.903  1.00  0.00     0.198 A 
ATOM     90  C   UNL     1      -9.633   1.736   8.208  1.00  0.00     0.198 A 
ATOM     91  F   UNL     1      -9.187   1.014   6.013  1.00  0.00    -0.203 F 
ATOM     92  F   UNL     1     -10.535  -0.147  11.169  1.00  0.00    -0.200 F 
ATOM     93  C   UNL     1      -9.967   1.447   9.522  1.00  0.00     0.200 A 
ATOM     94  F   UNL     1      -9.383   3.001   7.841  1.00  0.00    -0.200 F 
ATOM     95  F   UNL     1     -10.060   2.434  10.423  1.00  0.00    -0.200 F 
ENDBRANCH  61  85
BRANCH  73  96
ATOM     96  C   UNL     1     -13.717  -5.468   4.548  1.00  0.00     0.064 A 
ATOM     97  C   UNL     1     -14.632  -4.616   3.910  1.00  0.00     0.173 A 
ATOM     98  C   UNL     1     -14.218  -6.630   5.154  1.00  0.00     0.173 A 
ATOM     99  F   UNL     1     -14.208  -3.483   3.330  1.00  0.00    -0.203 F 
ATOM    100  C   UNL     1     -15.993  -4.911   3.890  1.00  0.00     0.198 A 
ATOM    101  C   UNL     1     -15.575  -6.939   5.103  1.00  0.00     0.198 A 
ATOM    102  F   UNL     1     -13.388  -7.481   5.775  1.00  0.00    -0.203 F 
ATOM    103  F   UNL     1     -16.852  -4.062   3.308  1.00  0.00    -0.200 F 
ATOM    104  C   UNL     1     -16.462  -6.077   4.476  1.00  0.00     0.200 A 
ATOM    105  F   UNL     1     -16.025  -8.074   5.657  1.00  0.00    -0.200 F 
ATOM    106  F   UNL     1     -17.770  -6.368   4.440  1.00  0.00    -0.200 F 
ENDBRANCH  73  96
ENDBRANCH  47  48
ENDBRANCH  40  42
ENDBRANCH  39  40
ENDBRANCH  38  39
ENDBRANCH  37  38
ENDBRANCH  36  37
ENDBRANCH  35  36
ENDBRANCH   1  35
TORSDOF 23
