REMARK SMILES [NH3+]Cc1c(-c2ccccc2)c(C(=O)OCCOCCOCCOC(=O)c2ccc(-c3c4nc(c(-c5c(F)c(F)c(F)c(F)c5F)c5ccc([nH]5)c(-c5c(F)c(F)c(F)c(F)c5F)c5nc(c(-c6c(F)c(F)c(F)c(F)c6F)c6ccc3[nH]6)C=C5)C=C4)cc2)c2ccccn12
REMARK SMILES IDX 18 1 17 2 16 3 15 4 14 5 12 6 13 7 11 8 3 9 4 10 94 11 89 12
REMARK SMILES IDX 93 13 90 14 92 15 91 16 2 17 1 18 5 22 6 23 10 24 7 25 9 26
REMARK SMILES IDX 8 27 19 28 20 29 21 30 22 31 23 32 24 33 25 34 26 35 27 36
REMARK SMILES IDX 88 37 28 38 87 39 29 40 30 41 31 42 81 43 32 44 86 45 80 46
REMARK SMILES IDX 82 47 33 48 85 49 79 50 78 51 34 53 66 54 46 55 65 56 47 57
REMARK SMILES IDX 50 58 64 59 83 60 48 61 49 62 63 64 84 65 51 66 35 67 36 68
REMARK SMILES IDX 44 69 37 70 38 71 42 72 45 73 39 74 40 75 43 76 41 77 67 78
REMARK SMILES IDX 68 79 76 80 69 81 70 82 74 83 77 84 71 85 72 86 75 87 73 88
REMARK SMILES IDX 52 89 53 90 61 91 54 92 55 93 59 94 62 95 56 96 57 97 60 98
REMARK SMILES IDX 58 99
REMARK H PARENT 1 19 1 20 1 21 82 52 50 63
REMARK Flexibility Score: inf
ROOT
ATOM      1  C   UNL     1      -1.030  -7.240   0.610  1.00  0.00     0.188 C 
ENDROOT
BRANCH   1   2
ATOM      2  O   UNL     1      -0.305  -8.454   0.779  1.00  0.00    -0.376 OA
BRANCH   2   3
ATOM      3  C   UNL     1       0.705  -8.694  -0.197  1.00  0.00     0.202 C 
BRANCH   3   4
ATOM      4  C   UNL     1       2.064  -8.185   0.282  1.00  0.00     0.261 C 
BRANCH   4   5
ATOM      5  O   UNL     1       2.102  -6.766   0.498  1.00  0.00    -0.460 OA
BRANCH   5   6
ATOM      6  C   UNL     1       2.067  -5.967  -0.604  1.00  0.00     0.341 C 
ATOM      7  O   UNL     1       2.025  -6.402  -1.749  1.00  0.00    -0.246 OA
BRANCH   6   8
ATOM      8  C   UNL     1       1.992  -4.545  -0.265  1.00  0.00     0.093 A 
ATOM      9  C   UNL     1       1.424  -2.308  -0.324  1.00  0.00     0.086 A 
ATOM     10  C   UNL     1       1.329  -3.522  -1.007  1.00  0.00     0.024 A 
ATOM     11  N   UNL     1       2.254  -2.539   0.775  1.00  0.00    -0.314 N 
ATOM     12  C   UNL     1       2.507  -3.918   0.857  1.00  0.00     0.061 A 
ATOM     13  C   UNL     1       2.804  -1.653   1.714  1.00  0.00     0.092 A 
ATOM     14  C   UNL     1       3.235  -4.396   1.992  1.00  0.00     0.027 A 
ATOM     15  C   UNL     1       3.527  -2.109   2.749  1.00  0.00     0.018 A 
ATOM     16  C   UNL     1       3.717  -3.533   2.901  1.00  0.00     0.004 A 
BRANCH   9  17
ATOM     17  C   UNL     1       0.703  -1.049  -0.724  1.00  0.00     0.315 C 
BRANCH  17  18
ATOM     18  N   UNL     1       0.847   0.121   0.115  1.00  0.00    -0.353 N 
ATOM     19  H   UNL     1       0.306   0.890  -0.279  1.00  0.00     0.344 HD
ATOM     20  H   UNL     1       1.831   0.386   0.162  1.00  0.00     0.344 HD
ATOM     21  H   UNL     1       0.506  -0.089   1.053  1.00  0.00     0.344 HD
ENDBRANCH  17  18
ENDBRANCH   9  17
BRANCH  10  22
ATOM     22  C   UNL     1       0.507  -3.710  -2.189  1.00  0.00    -0.015 A 
ATOM     23  C   UNL     1      -0.678  -4.436  -2.070  1.00  0.00     0.009 A 
ATOM     24  C   UNL     1       0.929  -3.269  -3.445  1.00  0.00     0.009 A 
ATOM     25  C   UNL     1      -1.383  -4.803  -3.208  1.00  0.00     0.001 A 
ATOM     26  C   UNL     1       0.183  -3.590  -4.581  1.00  0.00     0.001 A 
ATOM     27  C   UNL     1      -0.961  -4.377  -4.463  1.00  0.00     0.000 A 
ENDBRANCH  10  22
ENDBRANCH   6   8
ENDBRANCH   5   6
ENDBRANCH   4   5
ENDBRANCH   3   4
ENDBRANCH   2   3
ENDBRANCH   1   2
BRANCH   1  28
ATOM     28  C   UNL     1      -0.821  -6.231   1.752  1.00  0.00     0.188 C 
BRANCH  28  29
ATOM     29  O   UNL     1      -0.835  -6.670   3.108  1.00  0.00    -0.376 OA
BRANCH  29  30
ATOM     30  C   UNL     1      -1.552  -7.845   3.447  1.00  0.00     0.202 C 
BRANCH  30  31
ATOM     31  C   UNL     1      -3.070  -7.695   3.559  1.00  0.00     0.261 C 
BRANCH  31  32
ATOM     32  O   UNL     1      -3.683  -7.176   2.367  1.00  0.00    -0.460 OA
BRANCH  32  33
ATOM     33  C   UNL     1      -4.082  -5.884   2.440  1.00  0.00     0.338 C 
ATOM     34  O   UNL     1      -3.998  -5.131   3.394  1.00  0.00    -0.246 OA
BRANCH  33  35
ATOM     35  C   UNL     1      -4.559  -5.438   1.115  1.00  0.00     0.060 A 
ATOM     36  C   UNL     1      -4.063  -4.233   0.604  1.00  0.00     0.016 A 
ATOM     37  C   UNL     1      -5.534  -6.154   0.414  1.00  0.00     0.016 A 
ATOM     38  C   UNL     1      -4.551  -3.735  -0.605  1.00  0.00     0.010 A 
ATOM     39  C   UNL     1      -6.045  -5.637  -0.781  1.00  0.00     0.010 A 
ATOM     40  C   UNL     1      -5.570  -4.416  -1.288  1.00  0.00    -0.014 A 
BRANCH  40  41
ATOM     41  C   UNL     1      -6.203  -3.794  -2.477  1.00  0.00     0.031 A 
ATOM     42  C   UNL     1      -7.299  -2.791  -2.290  1.00  0.00     0.074 A 
ATOM     43  C   UNL     1      -5.797  -4.113  -3.718  1.00  0.00     0.049 A 
ATOM     44  N   UNL     1      -7.983  -2.138  -3.194  1.00  0.00    -0.248 NA
ATOM     45  C   UNL     1      -7.704  -2.515  -0.904  1.00  0.00     0.031 C 
ATOM     46  C   UNL     1      -4.781  -5.108  -4.023  1.00  0.00     0.029 A 
ATOM     47  N   UNL     1      -6.161  -3.620  -4.946  1.00  0.00    -0.354 N 
ATOM     48  C   UNL     1      -8.932  -1.411  -2.492  1.00  0.00     0.074 A 
ATOM     49  C   UNL     1      -8.717  -1.679  -1.085  1.00  0.00     0.031 C 
ATOM     50  C   UNL     1      -4.516  -5.079  -5.339  1.00  0.00     0.029 A 
ATOM     51  C   UNL     1      -5.400  -4.111  -5.980  1.00  0.00     0.049 A 
ATOM     52  H   UNL     1      -6.896  -2.978  -5.073  1.00  0.00     0.167 HD
ATOM     53  C   UNL     1      -9.917  -0.624  -2.984  1.00  0.00     0.037 A 
ATOM     54  C   UNL     1      -5.421  -3.812  -7.294  1.00  0.00     0.037 A 
ATOM     55  C   UNL     1     -10.139  -0.375  -4.385  1.00  0.00     0.049 A 
ATOM     56  C   UNL     1      -6.494  -2.891  -7.810  1.00  0.00     0.074 A 
ATOM     57  C   UNL     1     -11.123   0.394  -4.980  1.00  0.00     0.029 A 
ATOM     58  N   UNL     1      -9.365  -0.897  -5.411  1.00  0.00    -0.354 N 
ATOM     59  N   UNL     1      -7.398  -2.218  -7.142  1.00  0.00    -0.248 NA
ATOM     60  C   UNL     1      -6.587  -2.735  -9.270  1.00  0.00     0.031 C 
ATOM     61  C   UNL     1     -10.970   0.304  -6.369  1.00  0.00     0.029 A 
ATOM     62  C   UNL     1      -9.863  -0.485  -6.637  1.00  0.00     0.049 A 
ATOM     63  H   UNL     1      -8.578  -1.475  -5.287  1.00  0.00     0.167 HD
ATOM     64  C   UNL     1      -8.185  -1.587  -8.094  1.00  0.00     0.074 A 
ATOM     65  C   UNL     1      -7.617  -1.909  -9.387  1.00  0.00     0.031 C 
ATOM     66  C   UNL     1      -9.298  -0.835  -7.915  1.00  0.00     0.037 A 
BRANCH  53  67
ATOM     67  C   UNL     1     -10.877  -0.040  -1.993  1.00  0.00     0.064 A 
ATOM     68  C   UNL     1     -10.516   1.015  -1.144  1.00  0.00     0.173 A 
ATOM     69  C   UNL     1     -12.179  -0.554  -1.890  1.00  0.00     0.173 A 
ATOM     70  F   UNL     1      -9.276   1.525  -1.190  1.00  0.00    -0.203 F 
ATOM     71  C   UNL     1     -11.417   1.518  -0.208  1.00  0.00     0.198 A 
ATOM     72  C   UNL     1     -13.084  -0.033  -0.971  1.00  0.00     0.198 A 
ATOM     73  F   UNL     1     -12.571  -1.566  -2.679  1.00  0.00    -0.203 F 
ATOM     74  F   UNL     1     -11.036   2.493   0.629  1.00  0.00    -0.200 F 
ATOM     75  C   UNL     1     -12.700   0.997  -0.126  1.00  0.00     0.200 A 
ATOM     76  F   UNL     1     -14.325  -0.534  -0.897  1.00  0.00    -0.200 F 
ATOM     77  F   UNL     1     -13.564   1.479   0.778  1.00  0.00    -0.200 F 
ENDBRANCH  53  67
BRANCH  54  78
ATOM     78  C   UNL     1      -4.408  -4.386  -8.220  1.00  0.00     0.064 A 
ATOM     79  C   UNL     1      -3.466  -3.552  -8.842  1.00  0.00     0.173 A 
ATOM     80  C   UNL     1      -4.354  -5.755  -8.512  1.00  0.00     0.173 A 
ATOM     81  F   UNL     1      -3.493  -2.229  -8.620  1.00  0.00    -0.203 F 
ATOM     82  C   UNL     1      -2.518  -4.065  -9.725  1.00  0.00     0.198 A 
ATOM     83  C   UNL     1      -3.386  -6.272  -9.371  1.00  0.00     0.198 A 
ATOM     84  F   UNL     1      -5.235  -6.597  -7.951  1.00  0.00    -0.203 F 
ATOM     85  F   UNL     1      -1.658  -3.239 -10.336  1.00  0.00    -0.200 F 
ATOM     86  C   UNL     1      -2.473  -5.427  -9.982  1.00  0.00     0.200 A 
ATOM     87  F   UNL     1      -3.338  -7.591  -9.606  1.00  0.00    -0.200 F 
ATOM     88  F   UNL     1      -1.555  -5.922 -10.823  1.00  0.00    -0.200 F 
ENDBRANCH  54  78
BRANCH  66  89
ATOM     89  C   UNL     1      -9.995  -0.342  -9.148  1.00  0.00     0.064 A 
ATOM     90  C   UNL     1     -10.749  -1.211  -9.951  1.00  0.00     0.173 A 
ATOM     91  C   UNL     1      -9.950   1.013  -9.505  1.00  0.00     0.173 A 
ATOM     92  F   UNL     1     -10.809  -2.519  -9.658  1.00  0.00    -0.203 F 
ATOM     93  C   UNL     1     -11.420  -0.744 -11.077  1.00  0.00     0.198 A 
ATOM     94  C   UNL     1     -10.641   1.481 -10.620  1.00  0.00     0.198 A 
ATOM     95  F   UNL     1      -9.245   1.884  -8.768  1.00  0.00    -0.203 F 
ATOM     96  F   UNL     1     -12.105  -1.598 -11.849  1.00  0.00    -0.200 F 
ATOM     97  C   UNL     1     -11.372   0.603 -11.406  1.00  0.00     0.200 A 
ATOM     98  F   UNL     1     -10.602   2.784 -10.932  1.00  0.00    -0.200 F 
ATOM     99  F   UNL     1     -12.025   1.053 -12.486  1.00  0.00    -0.200 F 
ENDBRANCH  66  89
ENDBRANCH  40  41
ENDBRANCH  33  35
ENDBRANCH  32  33
ENDBRANCH  31  32
ENDBRANCH  30  31
ENDBRANCH  29  30
ENDBRANCH  28  29
ENDBRANCH   1  28
TORSDOF 20
