REMARK SMILES O=C1CC[C@H](CNC(=O)N[C@@H]2C=C[C@@H](C(=O)OCCOCCOCCOC(=O)c3ccc(-c4c5nc(c(-c6c(F)c(F)c(F)c(F)c6F)c6ccc([nH]6)c(-c6c(F)c(F)c(F)c(F)c6F)c6nc(c(-c7c(F)c(F)c(F)c(F)c7F)c7ccc4[nH]7)C=C6)C=C5)cc3)C2)N1
REMARK SMILES IDX 21 1 20 2 19 3 18 4 17 5 15 6 16 7 14 8 11 9 12 10 92 11
REMARK SMILES IDX 13 12 10 13 7 14 8 15 9 17 6 19 5 20 1 21 2 22 3 23 93 24
REMARK SMILES IDX 4 25 22 27 23 28 24 29 25 30 26 31 27 32 28 33 29 34 30 35
REMARK SMILES IDX 91 36 31 37 90 38 32 39 33 40 34 41 84 42 35 43 89 44 83 45
REMARK SMILES IDX 85 46 36 47 88 48 82 49 81 50 37 52 69 53 49 54 68 55 50 56
REMARK SMILES IDX 53 57 67 58 86 59 51 60 52 61 66 63 87 64 54 65 38 66 39 67
REMARK SMILES IDX 47 68 40 69 41 70 45 71 48 72 42 73 43 74 46 75 44 76 70 77
REMARK SMILES IDX 71 78 79 79 72 80 73 81 77 82 80 83 74 84 75 85 78 86 76 87
REMARK SMILES IDX 55 88 56 89 64 90 57 91 58 92 62 93 65 94 59 95 60 96 63 97
REMARK SMILES IDX 61 98
REMARK H PARENT 7 16 10 18 93 26 85 51 53 62
REMARK Flexibility Score: inf
ROOT
ATOM      1  C   UNL     1      -1.443  -7.752   5.261  1.00  0.00     0.188 C 
ENDROOT
BRANCH   1   2
ATOM      2  O   UNL     1      -1.480  -7.801   6.678  1.00  0.00    -0.376 OA
BRANCH   2   3
ATOM      3  C   UNL     1      -2.275  -6.860   7.384  1.00  0.00     0.202 C 
BRANCH   3   4
ATOM      4  C   UNL     1      -1.935  -5.376   7.225  1.00  0.00     0.261 C 
BRANCH   4   5
ATOM      5  O   UNL     1      -1.916  -4.970   5.847  1.00  0.00    -0.463 OA
BRANCH   5   6
ATOM      6  C   UNL     1      -1.084  -3.942   5.529  1.00  0.00     0.312 C 
ATOM      7  O   UNL     1      -0.392  -3.340   6.342  1.00  0.00    -0.252 OA
BRANCH   6   8
ATOM      8  C   UNL     1      -1.026  -3.685   4.017  1.00  0.00     0.124 C 
ATOM      9  C   UNL     1      -2.625  -3.183   2.174  1.00  0.00     0.107 C 
ATOM     10  C   UNL     1      -1.938  -1.961   2.694  1.00  0.00    -0.006 C 
ATOM     11  C   UNL     1      -2.193  -4.237   3.192  1.00  0.00     0.048 C 
ATOM     12  C   UNL     1      -1.087  -2.225   3.693  1.00  0.00    -0.014 C 
BRANCH   9  13
ATOM     13  N   UNL     1      -2.171  -3.459   0.829  1.00  0.00    -0.332 N 
ATOM     14  N   UNL     1      -3.452  -5.299   0.037  1.00  0.00    -0.336 N 
ATOM     15  C   UNL     1      -2.560  -4.311  -0.130  1.00  0.00     0.315 C 
ATOM     16  H   UNL     1      -3.721  -5.726  -0.809  1.00  0.00     0.165 HD
ATOM     17  O   UNL     1      -2.054  -4.188  -1.247  1.00  0.00    -0.249 OA
ATOM     18  H   UNL     1      -1.409  -2.897   0.558  1.00  0.00     0.165 HD
BRANCH  14  19
ATOM     19  C   UNL     1      -4.104  -5.873   1.198  1.00  0.00     0.142 C 
BRANCH  19  20
ATOM     20  C   UNL     1      -5.489  -6.486   0.932  1.00  0.00     0.101 C 
ATOM     21  O   UNL     1      -7.349  -8.273   3.329  1.00  0.00    -0.275 OA
ATOM     22  C   UNL     1      -6.726  -7.920   2.359  1.00  0.00     0.220 C 
ATOM     23  C   UNL     1      -6.433  -8.737   1.130  1.00  0.00     0.102 C 
ATOM     24  N   UNL     1      -6.198  -6.664   2.173  1.00  0.00    -0.352 N 
ATOM     25  C   UNL     1      -5.451  -7.888   0.319  1.00  0.00     0.036 C 
ATOM     26  H   UNL     1      -6.297  -5.943   2.836  1.00  0.00     0.163 HD
ENDBRANCH  19  20
ENDBRANCH  14  19
ENDBRANCH   9  13
ENDBRANCH   6   8
ENDBRANCH   5   6
ENDBRANCH   4   5
ENDBRANCH   3   4
ENDBRANCH   2   3
ENDBRANCH   1   2
BRANCH   1  27
ATOM     27  C   UNL     1      -2.719  -7.482   4.444  1.00  0.00     0.188 C 
BRANCH  27  28
ATOM     28  O   UNL     1      -4.017  -7.655   4.965  1.00  0.00    -0.376 OA
BRANCH  28  29
ATOM     29  C   UNL     1      -4.383  -8.911   5.510  1.00  0.00     0.202 C 
BRANCH  29  30
ATOM     30  C   UNL     1      -4.268 -10.145   4.615  1.00  0.00     0.261 C 
BRANCH  30  31
ATOM     31  O   UNL     1      -2.934 -10.363   4.119  1.00  0.00    -0.460 OA
BRANCH  31  32
ATOM     32  C   UNL     1      -2.819 -10.322   2.772  1.00  0.00     0.338 C 
ATOM     33  O   UNL     1      -3.699 -10.136   1.950  1.00  0.00    -0.246 OA
BRANCH  32  34
ATOM     34  C   UNL     1      -1.412 -10.374   2.363  1.00  0.00     0.060 A 
ATOM     35  C   UNL     1      -0.883  -9.280   1.663  1.00  0.00     0.016 A 
ATOM     36  C   UNL     1      -0.680 -11.547   2.530  1.00  0.00     0.016 A 
ATOM     37  C   UNL     1       0.384  -9.368   1.098  1.00  0.00     0.010 A 
ATOM     38  C   UNL     1       0.584 -11.637   1.951  1.00  0.00     0.010 A 
ATOM     39  C   UNL     1       1.109 -10.559   1.215  1.00  0.00    -0.014 A 
BRANCH  39  40
ATOM     40  C   UNL     1       2.395 -10.724   0.506  1.00  0.00     0.031 A 
ATOM     41  C   UNL     1       2.437 -11.533  -0.756  1.00  0.00     0.074 A 
ATOM     42  C   UNL     1       3.510 -10.190   1.030  1.00  0.00     0.049 A 
ATOM     43  N   UNL     1       3.472 -11.950  -1.438  1.00  0.00    -0.248 NA
ATOM     44  C   UNL     1       1.139 -11.936  -1.323  1.00  0.00     0.031 C 
ATOM     45  C   UNL     1       3.559  -9.361   2.235  1.00  0.00     0.029 A 
ATOM     46  N   UNL     1       4.818 -10.293   0.637  1.00  0.00    -0.354 N 
ATOM     47  C   UNL     1       2.954 -12.686  -2.496  1.00  0.00     0.074 A 
ATOM     48  C   UNL     1       1.513 -12.664  -2.366  1.00  0.00     0.031 C 
ATOM     49  C   UNL     1       4.840  -9.060   2.504  1.00  0.00     0.029 A 
ATOM     50  C   UNL     1       5.697  -9.713   1.518  1.00  0.00     0.049 A 
ATOM     51  H   UNL     1       5.100 -10.738  -0.195  1.00  0.00     0.167 HD
ATOM     52  C   UNL     1       3.632 -13.324  -3.478  1.00  0.00     0.037 A 
ATOM     53  C   UNL     1       7.042  -9.752   1.548  1.00  0.00     0.037 A 
ATOM     54  C   UNL     1       5.067 -13.321  -3.593  1.00  0.00     0.049 A 
ATOM     55  C   UNL     1       7.768 -10.504   0.464  1.00  0.00     0.074 A 
ATOM     56  C   UNL     1       5.858 -13.903  -4.568  1.00  0.00     0.029 A 
ATOM     57  N   UNL     1       5.927 -12.706  -2.693  1.00  0.00    -0.354 N 
ATOM     58  N   UNL     1       7.276 -11.179  -0.547  1.00  0.00    -0.248 NA
ATOM     59  C   UNL     1       9.235 -10.499   0.524  1.00  0.00     0.031 C 
ATOM     60  C   UNL     1       7.197 -13.684  -4.230  1.00  0.00     0.029 A 
ATOM     61  C   UNL     1       7.241 -12.918  -3.076  1.00  0.00     0.049 A 
ATOM     62  H   UNL     1       5.645 -12.196  -1.900  1.00  0.00     0.167 HD
ATOM     63  C   UNL     1       8.369 -11.655  -1.257  1.00  0.00     0.074 A 
ATOM     64  C   UNL     1       9.551 -11.178  -0.569  1.00  0.00     0.031 C 
ATOM     65  C   UNL     1       8.397 -12.421  -2.376  1.00  0.00     0.037 A 
BRANCH  52  66
ATOM     66  C   UNL     1       2.845 -14.106  -4.489  1.00  0.00     0.064 A 
ATOM     67  C   UNL     1       2.080 -13.476  -5.482  1.00  0.00     0.173 A 
ATOM     68  C   UNL     1       2.914 -15.508  -4.506  1.00  0.00     0.173 A 
ATOM     69  F   UNL     1       1.970 -12.140  -5.503  1.00  0.00    -0.203 F 
ATOM     70  C   UNL     1       1.405 -14.222  -6.447  1.00  0.00     0.198 A 
ATOM     71  C   UNL     1       2.260 -16.248  -5.487  1.00  0.00     0.198 A 
ATOM     72  F   UNL     1       3.633 -16.160  -3.580  1.00  0.00    -0.203 F 
ATOM     73  F   UNL     1       0.656 -13.601  -7.368  1.00  0.00    -0.200 F 
ATOM     74  C   UNL     1       1.504 -15.605  -6.455  1.00  0.00     0.200 A 
ATOM     75  F   UNL     1       2.366 -17.584  -5.499  1.00  0.00    -0.200 F 
ATOM     76  F   UNL     1       0.868 -16.319  -7.394  1.00  0.00    -0.200 F 
ENDBRANCH  52  66
BRANCH  53  77
ATOM     77  C   UNL     1       7.782  -9.095   2.657  1.00  0.00     0.064 A 
ATOM     78  C   UNL     1       8.598  -7.980   2.422  1.00  0.00     0.173 A 
ATOM     79  C   UNL     1       7.703  -9.579   3.972  1.00  0.00     0.173 A 
ATOM     80  F   UNL     1       8.723  -7.492   1.179  1.00  0.00    -0.203 F 
ATOM     81  C   UNL     1       9.326  -7.391   3.454  1.00  0.00     0.198 A 
ATOM     82  C   UNL     1       8.406  -8.969   5.009  1.00  0.00     0.198 A 
ATOM     83  F   UNL     1       6.934 -10.641   4.252  1.00  0.00    -0.203 F 
ATOM     84  F   UNL     1      10.142  -6.361   3.191  1.00  0.00    -0.200 F 
ATOM     85  C   UNL     1       9.226  -7.882   4.747  1.00  0.00     0.200 A 
ATOM     86  F   UNL     1       8.293  -9.438   6.259  1.00  0.00    -0.200 F 
ATOM     87  F   UNL     1       9.926  -7.315   5.739  1.00  0.00    -0.200 F 
ENDBRANCH  53  77
BRANCH  65  88
ATOM     88  C   UNL     1       9.746 -12.752  -2.943  1.00  0.00     0.064 A 
ATOM     89  C   UNL     1      10.604 -13.666  -2.316  1.00  0.00     0.173 A 
ATOM     90  C   UNL     1      10.167 -12.174  -4.150  1.00  0.00     0.173 A 
ATOM     91  F   UNL     1      10.252 -14.232  -1.151  1.00  0.00    -0.203 F 
ATOM     92  C   UNL     1      11.847 -13.970  -2.864  1.00  0.00     0.198 A 
ATOM     93  C   UNL     1      11.396 -12.504  -4.711  1.00  0.00     0.198 A 
ATOM     94  F   UNL     1       9.378 -11.299  -4.793  1.00  0.00    -0.203 F 
ATOM     95  F   UNL     1      12.672 -14.808  -2.222  1.00  0.00    -0.200 F 
ATOM     96  C   UNL     1      12.238 -13.395  -4.064  1.00  0.00     0.200 A 
ATOM     97  F   UNL     1      11.766 -11.959  -5.878  1.00  0.00    -0.200 F 
ATOM     98  F   UNL     1      13.432 -13.695  -4.593  1.00  0.00    -0.200 F 
ENDBRANCH  65  88
ENDBRANCH  39  40
ENDBRANCH  32  34
ENDBRANCH  31  32
ENDBRANCH  30  31
ENDBRANCH  29  30
ENDBRANCH  28  29
ENDBRANCH  27  28
ENDBRANCH   1  27
TORSDOF 20
