REMARK SMILES O=C(OCCOCCOCCOC(=O)[C@H](c1c[nH]c2cc(F)ccc12)[NH+]1CCN(c2ccccc2)CC1)c1ccc(-c2c3nc(c(-c4c(F)c(F)c(F)c(F)c4F)c4ccc([nH]4)c(-c4c(F)c(F)c(F)c(F)c4F)c4nc(c(-c5c(F)c(F)c(F)c(F)c5F)c5ccc2[nH]5)C=C4)C=C3)cc1
REMARK SMILES IDX 7 1 6 2 5 3 4 4 3 5 2 6 1 7 38 8 39 9 100 10 40 11 99 12
REMARK SMILES IDX 41 13 42 14 43 15 93 16 44 17 98 18 92 19 94 20 45 21 97 22
REMARK SMILES IDX 91 23 90 24 46 26 78 27 58 28 77 29 59 30 62 31 76 32 95 33
REMARK SMILES IDX 60 34 61 35 75 37 96 38 63 39 47 40 48 41 56 42 49 43 50 44
REMARK SMILES IDX 54 45 57 46 51 47 52 48 55 49 53 50 79 51 80 52 88 53 81 54
REMARK SMILES IDX 82 55 86 56 89 57 83 58 84 59 87 60 85 61 64 62 65 63 73 64
REMARK SMILES IDX 66 65 67 66 71 67 74 68 68 69 69 70 72 71 70 72 8 73 9 74
REMARK SMILES IDX 10 75 11 76 12 77 13 78 14 79 15 80 26 81 27 82 37 83 28 85
REMARK SMILES IDX 36 86 29 87 30 88 31 89 35 90 32 91 34 92 33 93 16 94 17 95
REMARK SMILES IDX 25 96 18 97 19 98 24 99 20 101 23 102 21 103 22 104
REMARK H PARENT 94 25 62 36 26 84 18 100
REMARK Flexibility Score: inf
ROOT
ATOM      1  C   UNL     1       5.541  -1.271   1.408  1.00  0.00     0.188 C 
ENDROOT
BRANCH   1   2
ATOM      2  O   UNL     1       4.252  -1.856   1.210  1.00  0.00    -0.376 OA
BRANCH   2   3
ATOM      3  C   UNL     1       4.133  -2.598  -0.006  1.00  0.00     0.202 C 
BRANCH   3   4
ATOM      4  C   UNL     1       3.961  -1.753  -1.280  1.00  0.00     0.261 C 
BRANCH   4   5
ATOM      5  O   UNL     1       4.496  -0.419  -1.159  1.00  0.00    -0.460 OA
BRANCH   5   6
ATOM      6  C   UNL     1       3.803   0.716  -0.889  1.00  0.00     0.338 C 
ATOM      7  O   UNL     1       4.379   1.808  -0.929  1.00  0.00    -0.246 OA
BRANCH   6   8
ATOM      8  C   UNL     1       2.347   0.689  -0.598  1.00  0.00     0.060 A 
ATOM      9  C   UNL     1       1.745  -0.307   0.165  1.00  0.00     0.016 A 
ATOM     10  C   UNL     1       1.551   1.749  -1.045  1.00  0.00     0.016 A 
ATOM     11  C   UNL     1       0.371  -0.358   0.334  1.00  0.00     0.010 A 
ATOM     12  C   UNL     1       0.181   1.776  -0.755  1.00  0.00     0.010 A 
ATOM     13  C   UNL     1      -0.429   0.695  -0.100  1.00  0.00    -0.014 A 
BRANCH  13  14
ATOM     14  C   UNL     1      -1.899   0.590   0.075  1.00  0.00     0.031 A 
ATOM     15  C   UNL     1      -2.772   0.590  -1.147  1.00  0.00     0.074 A 
ATOM     16  C   UNL     1      -2.430   0.386   1.299  1.00  0.00     0.049 A 
ATOM     17  N   UNL     1      -4.075   0.519  -1.238  1.00  0.00    -0.248 NA
ATOM     18  C   UNL     1      -2.088   0.670  -2.449  1.00  0.00     0.031 C 
ATOM     19  C   UNL     1      -1.668   0.283   2.547  1.00  0.00     0.029 A 
ATOM     20  N   UNL     1      -3.728   0.198   1.702  1.00  0.00    -0.354 N 
ATOM     21  C   UNL     1      -4.358   0.562  -2.596  1.00  0.00     0.074 A 
ATOM     22  C   UNL     1      -3.104   0.723  -3.293  1.00  0.00     0.031 C 
ATOM     23  C   UNL     1      -2.503   0.046   3.569  1.00  0.00     0.029 A 
ATOM     24  C   UNL     1      -3.865   0.012   3.058  1.00  0.00     0.049 A 
ATOM     25  H   UNL     1      -4.490   0.197   1.079  1.00  0.00     0.167 HD
ATOM     26  C   UNL     1      -5.556   0.441  -3.212  1.00  0.00     0.037 A 
ATOM     27  C   UNL     1      -4.970  -0.161   3.807  1.00  0.00     0.037 A 
ATOM     28  C   UNL     1      -6.795   0.258  -2.509  1.00  0.00     0.049 A 
ATOM     29  C   UNL     1      -6.297  -0.222   3.101  1.00  0.00     0.074 A 
ATOM     30  C   UNL     1      -8.077   0.178  -3.017  1.00  0.00     0.029 A 
ATOM     31  N   UNL     1      -6.895   0.112  -1.131  1.00  0.00    -0.354 N 
ATOM     32  N   UNL     1      -6.551  -0.148   1.817  1.00  0.00    -0.248 NA
ATOM     33  C   UNL     1      -7.486  -0.403   3.942  1.00  0.00     0.031 C 
ATOM     34  C   UNL     1      -8.958   0.012  -1.942  1.00  0.00     0.029 A 
ATOM     35  C   UNL     1      -8.220  -0.054  -0.770  1.00  0.00     0.049 A 
ATOM     36  H   UNL     1      -6.136   0.126  -0.505  1.00  0.00     0.167 HD
ATOM     37  C   UNL     1      -7.925  -0.292   1.692  1.00  0.00     0.074 A 
ATOM     38  C   UNL     1      -8.444  -0.488   3.031  1.00  0.00     0.031 C 
ATOM     39  C   UNL     1      -8.693  -0.256   0.576  1.00  0.00     0.037 A 
BRANCH  26  40
ATOM     40  C   UNL     1      -5.560   0.523  -4.709  1.00  0.00     0.064 A 
ATOM     41  C   UNL     1      -5.030  -0.507  -5.503  1.00  0.00     0.173 A 
ATOM     42  C   UNL     1      -6.056   1.662  -5.359  1.00  0.00     0.173 A 
ATOM     43  F   UNL     1      -4.513  -1.604  -4.928  1.00  0.00    -0.203 F 
ATOM     44  C   UNL     1      -4.962  -0.383  -6.888  1.00  0.00     0.198 A 
ATOM     45  C   UNL     1      -6.013   1.771  -6.747  1.00  0.00     0.198 A 
ATOM     46  F   UNL     1      -6.567   2.678  -4.647  1.00  0.00    -0.203 F 
ATOM     47  F   UNL     1      -4.389  -1.349  -7.619  1.00  0.00    -0.200 F 
ATOM     48  C   UNL     1      -5.456   0.754  -7.509  1.00  0.00     0.200 A 
ATOM     49  F   UNL     1      -6.492   2.870  -7.347  1.00  0.00    -0.200 F 
ATOM     50  F   UNL     1      -5.380   0.878  -8.841  1.00  0.00    -0.200 F 
ENDBRANCH  26  40
BRANCH  27  51
ATOM     51  C   UNL     1      -4.873  -0.275   5.289  1.00  0.00     0.064 A 
ATOM     52  C   UNL     1      -5.228  -1.455   5.958  1.00  0.00     0.173 A 
ATOM     53  C   UNL     1      -4.444   0.808   6.073  1.00  0.00     0.173 A 
ATOM     54  F   UNL     1      -5.654  -2.518   5.261  1.00  0.00    -0.203 F 
ATOM     55  C   UNL     1      -5.192  -1.535   7.350  1.00  0.00     0.198 A 
ATOM     56  C   UNL     1      -4.377   0.716   7.462  1.00  0.00     0.198 A 
ATOM     57  F   UNL     1      -4.079   1.958   5.487  1.00  0.00    -0.203 F 
ATOM     58  F   UNL     1      -5.589  -2.658   7.965  1.00  0.00    -0.200 F 
ATOM     59  C   UNL     1      -4.763  -0.451   8.101  1.00  0.00     0.200 A 
ATOM     60  F   UNL     1      -3.939   1.759   8.181  1.00  0.00    -0.200 F 
ATOM     61  F   UNL     1      -4.728  -0.530   9.438  1.00  0.00    -0.200 F 
ENDBRANCH  27  51
BRANCH  39  62
ATOM     62  C   UNL     1     -10.165  -0.458   0.767  1.00  0.00     0.064 A 
ATOM     63  C   UNL     1     -10.969   0.534   1.347  1.00  0.00     0.173 A 
ATOM     64  C   UNL     1     -10.779  -1.643   0.338  1.00  0.00     0.173 A 
ATOM     65  F   UNL     1     -10.421   1.676   1.788  1.00  0.00    -0.203 F 
ATOM     66  C   UNL     1     -12.335   0.332   1.518  1.00  0.00     0.198 A 
ATOM     67  C   UNL     1     -12.149  -1.828   0.483  1.00  0.00     0.198 A 
ATOM     68  F   UNL     1     -10.049  -2.617  -0.227  1.00  0.00    -0.203 F 
ATOM     69  F   UNL     1     -13.077   1.269   2.123  1.00  0.00    -0.200 F 
ATOM     70  C   UNL     1     -12.924  -0.845   1.080  1.00  0.00     0.200 A 
ATOM     71  F   UNL     1     -12.720  -2.960   0.048  1.00  0.00    -0.200 F 
ATOM     72  F   UNL     1     -14.241  -1.035   1.241  1.00  0.00    -0.200 F 
ENDBRANCH  39  62
ENDBRANCH  13  14
ENDBRANCH   6   8
ENDBRANCH   5   6
ENDBRANCH   4   5
ENDBRANCH   3   4
ENDBRANCH   2   3
ENDBRANCH   1   2
BRANCH   1  73
ATOM     73  C   UNL     1       5.898  -1.156   2.890  1.00  0.00     0.188 C 
BRANCH  73  74
ATOM     74  O   UNL     1       5.979  -2.369   3.630  1.00  0.00    -0.376 OA
BRANCH  74  75
ATOM     75  C   UNL     1       4.809  -3.175   3.677  1.00  0.00     0.202 C 
BRANCH  75  76
ATOM     76  C   UNL     1       3.559  -2.649   4.409  1.00  0.00     0.261 C 
BRANCH  76  77
ATOM     77  O   UNL     1       3.106  -1.313   4.105  1.00  0.00    -0.459 OA
BRANCH  77  78
ATOM     78  C   UNL     1       3.441  -0.379   5.056  1.00  0.00     0.370 C 
ATOM     79  O   UNL     1       4.220  -0.621   5.976  1.00  0.00    -0.245 OA
BRANCH  78  80
ATOM     80  C   UNL     1       2.646   0.957   4.897  1.00  0.00     0.328 C 
BRANCH  80  81
ATOM     81  N   UNL     1       2.793   1.688   6.187  1.00  0.00    -0.316 N 
ATOM     82  C   UNL     1       3.118   3.119   6.199  1.00  0.00     0.284 C 
ATOM     83  C   UNL     1       1.688   1.423   7.127  1.00  0.00     0.284 C 
ATOM     84  H   UNL     1       3.668   1.262   6.495  1.00  0.00     0.349 HD
ATOM     85  C   UNL     1       1.942   4.081   5.952  1.00  0.00     0.178 C 
ATOM     86  C   UNL     1       0.435   2.292   6.885  1.00  0.00     0.178 C 
ATOM     87  N   UNL     1       0.773   3.709   6.760  1.00  0.00    -0.360 N 
BRANCH  87  88
ATOM     88  C   UNL     1       0.312   4.669   7.637  1.00  0.00     0.037 A 
ATOM     89  C   UNL     1      -0.125   5.908   7.144  1.00  0.00     0.026 A 
ATOM     90  C   UNL     1       0.347   4.486   9.021  1.00  0.00     0.026 A 
ATOM     91  C   UNL     1      -0.492   6.942   8.004  1.00  0.00     0.002 A 
ATOM     92  C   UNL     1      -0.007   5.522   9.889  1.00  0.00     0.002 A 
ATOM     93  C   UNL     1      -0.421   6.751   9.380  1.00  0.00     0.000 A 
ENDBRANCH  87  88
ENDBRANCH  80  81
BRANCH  80  94
ATOM     94  C   UNL     1       3.045   1.788   3.691  1.00  0.00     0.046 A 
ATOM     95  C   UNL     1       4.319   2.059   3.219  1.00  0.00     0.094 A 
ATOM     96  C   UNL     1       2.151   2.582   2.877  1.00  0.00     0.009 A 
ATOM     97  N   UNL     1       4.231   2.928   2.163  1.00  0.00    -0.361 N 
ATOM     98  C   UNL     1       2.929   3.326   1.989  1.00  0.00     0.049 A 
ATOM     99  C   UNL     1       0.756   2.819   2.885  1.00  0.00     0.014 A 
ATOM    100  H   UNL     1       4.991   3.222   1.610  1.00  0.00     0.166 HD
ATOM    101  C   UNL     1       2.392   4.291   1.127  1.00  0.00     0.065 A 
ATOM    102  C   UNL     1       0.199   3.779   2.034  1.00  0.00     0.040 A 
ATOM    103  C   UNL     1       1.015   4.500   1.176  1.00  0.00     0.125 A 
ATOM    104  F   UNL     1       0.463   5.409   0.360  1.00  0.00    -0.207 F 
ENDBRANCH  80  94
ENDBRANCH  78  80
ENDBRANCH  77  78
ENDBRANCH  76  77
ENDBRANCH  75  76
ENDBRANCH  74  75
ENDBRANCH  73  74
ENDBRANCH   1  73
TORSDOF 20
