REMARK SMILES CCN(CC)C(=O)C[N@@H+](C)[C@@H](C)c1ccc(C(=O)OCCOCCOCCOC(=O)c2ccc(-c3c4nc(c(-c5c(F)c(F)c(F)c(F)c5F)c5ccc([nH]5)c(-c5c(F)c(F)c(F)c(F)c5F)c5nc(c(-c6c(F)c(F)c(F)c(F)c6F)c6ccc3[nH]6)C=C5)C=C4)cc2)o1
REMARK SMILES IDX 22 1 21 2 20 3 19 4 17 5 18 6 16 7 13 8 14 9 94 10 15 11
REMARK SMILES IDX 11 12 12 13 9 14 10 15 8 17 6 18 3 19 7 20 2 21 1 22 4 23
REMARK SMILES IDX 5 24 23 25 24 26 25 27 26 28 27 29 28 30 29 31 30 32 31 33
REMARK SMILES IDX 32 34 93 35 33 36 92 37 34 38 35 39 36 40 86 41 37 42 91 43
REMARK SMILES IDX 85 44 87 45 38 46 90 47 84 48 83 49 39 51 71 52 51 53 70 54
REMARK SMILES IDX 52 55 55 56 69 57 88 58 53 59 54 60 68 62 89 63 56 64 40 65
REMARK SMILES IDX 41 66 49 67 42 68 43 69 47 70 50 71 44 72 45 73 48 74 46 75
REMARK SMILES IDX 72 76 73 77 81 78 74 79 75 80 79 81 82 82 76 83 77 84 80 85
REMARK SMILES IDX 78 86 57 87 58 88 66 89 59 90 60 91 64 92 67 93 61 94 62 95
REMARK SMILES IDX 65 96 63 97
REMARK H PARENT 9 16 87 50 55 61
REMARK Flexibility Score: inf
ROOT
ATOM      1  O   UNL     1      -0.050   4.906  -1.859  1.00  0.00    -0.376 OA
ENDROOT
BRANCH   1   2
ATOM      2  C   UNL     1       0.224   4.299  -3.109  1.00  0.00     0.202 C 
BRANCH   2   3
ATOM      3  C   UNL     1       1.551   3.554  -3.279  1.00  0.00     0.261 C 
BRANCH   3   4
ATOM      4  O   UNL     1       1.933   2.689  -2.205  1.00  0.00    -0.457 OA
BRANCH   4   5
ATOM      5  C   UNL     1       2.717   3.261  -1.244  1.00  0.00     0.374 C 
ATOM      6  O   UNL     1       3.047   4.442  -1.213  1.00  0.00    -0.242 OA
BRANCH   5   7
ATOM      7  C   UNL     1       3.072   2.268  -0.265  1.00  0.00     0.212 A 
ATOM      8  C   UNL     1       3.377   1.475   1.780  1.00  0.00     0.162 A 
ATOM      9  C   UNL     1       3.866   0.532   0.899  1.00  0.00     0.053 A 
ATOM     10  O   UNL     1       2.927   2.558   1.068  1.00  0.00    -0.448 OA
ATOM     11  C   UNL     1       3.592   0.999  -0.406  1.00  0.00     0.059 A 
BRANCH   8  12
ATOM     12  C   UNL     1       3.385   1.618   3.281  1.00  0.00     0.248 C 
ATOM     13  C   UNL     1       4.834   1.808   3.759  1.00  0.00     0.084 C 
BRANCH  12  14
ATOM     14  N   UNL     1       2.579   0.618   4.035  1.00  0.00    -0.321 N 
ATOM     15  C   UNL     1       2.575   0.923   5.473  1.00  0.00     0.333 C 
ATOM     16  H   UNL     1       1.655   0.719   3.616  1.00  0.00     0.348 HD
BRANCH  14  17
ATOM     17  C   UNL     1       2.932  -0.809   3.857  1.00  0.00     0.364 C 
BRANCH  17  18
ATOM     18  C   UNL     1       2.218  -1.498   2.679  1.00  0.00     0.277 C 
ATOM     19  N   UNL     1       0.832  -1.447   2.562  1.00  0.00    -0.338 N 
ATOM     20  O   UNL     1       2.893  -2.165   1.884  1.00  0.00    -0.268 OA
BRANCH  19  21
ATOM     21  C   UNL     1       0.226  -2.011   1.355  1.00  0.00     0.116 C 
ATOM     22  C   UNL     1       0.402  -1.086   0.160  1.00  0.00     0.027 C 
ENDBRANCH  19  21
BRANCH  19  23
ATOM     23  C   UNL     1      -0.086  -0.984   3.602  1.00  0.00     0.116 C 
ATOM     24  C   UNL     1      -0.358  -2.075   4.626  1.00  0.00     0.027 C 
ENDBRANCH  19  23
ENDBRANCH  17  18
ENDBRANCH  14  17
ENDBRANCH  12  14
ENDBRANCH   8  12
ENDBRANCH   5   7
ENDBRANCH   4   5
ENDBRANCH   3   4
ENDBRANCH   2   3
ENDBRANCH   1   2
BRANCH   1  25
ATOM     25  C   UNL     1      -0.289   4.117  -0.697  1.00  0.00     0.188 C 
BRANCH  25  26
ATOM     26  C   UNL     1      -0.837   2.679  -0.793  1.00  0.00     0.188 C 
BRANCH  26  27
ATOM     27  O   UNL     1      -1.467   2.389  -2.027  1.00  0.00    -0.376 OA
BRANCH  27  28
ATOM     28  C   UNL     1      -2.868   2.183  -2.014  1.00  0.00     0.202 C 
BRANCH  28  29
ATOM     29  C   UNL     1      -3.755   3.397  -1.700  1.00  0.00     0.261 C 
BRANCH  29  30
ATOM     30  O   UNL     1      -3.338   4.211  -0.594  1.00  0.00    -0.460 OA
BRANCH  30  31
ATOM     31  C   UNL     1      -3.688   3.798   0.643  1.00  0.00     0.338 C 
ATOM     32  O   UNL     1      -4.299   2.786   0.933  1.00  0.00    -0.246 OA
BRANCH  31  33
ATOM     33  C   UNL     1      -3.071   4.710   1.634  1.00  0.00     0.060 A 
ATOM     34  C   UNL     1      -2.231   4.160   2.609  1.00  0.00     0.016 A 
ATOM     35  C   UNL     1      -3.322   6.086   1.616  1.00  0.00     0.016 A 
ATOM     36  C   UNL     1      -1.685   4.977   3.601  1.00  0.00     0.010 A 
ATOM     37  C   UNL     1      -2.782   6.902   2.619  1.00  0.00     0.010 A 
ATOM     38  C   UNL     1      -1.995   6.344   3.641  1.00  0.00    -0.014 A 
BRANCH  38  39
ATOM     39  C   UNL     1      -1.658   7.128   4.858  1.00  0.00     0.031 A 
ATOM     40  C   UNL     1      -2.713   7.293   5.920  1.00  0.00     0.074 A 
ATOM     41  C   UNL     1      -0.429   7.638   5.053  1.00  0.00     0.049 A 
ATOM     42  N   UNL     1      -2.640   7.882   7.087  1.00  0.00    -0.248 NA
ATOM     43  C   UNL     1      -4.032   6.710   5.623  1.00  0.00     0.031 C 
ATOM     44  C   UNL     1       0.689   7.535   4.119  1.00  0.00     0.029 A 
ATOM     45  N   UNL     1       0.082   8.346   6.114  1.00  0.00    -0.354 N 
ATOM     46  C   UNL     1      -3.895   7.734   7.663  1.00  0.00     0.074 A 
ATOM     47  C   UNL     1      -4.723   7.035   6.705  1.00  0.00     0.031 C 
ATOM     48  C   UNL     1       1.756   8.161   4.647  1.00  0.00     0.029 A 
ATOM     49  C   UNL     1       1.392   8.721   5.948  1.00  0.00     0.049 A 
ATOM     50  H   UNL     1      -0.443   8.565   6.918  1.00  0.00     0.167 HD
ATOM     51  C   UNL     1      -4.319   8.129   8.888  1.00  0.00     0.037 A 
ATOM     52  C   UNL     1       2.200   9.438   6.754  1.00  0.00     0.037 A 
ATOM     53  C   UNL     1      -3.505   8.832   9.844  1.00  0.00     0.049 A 
ATOM     54  C   UNL     1       1.688   9.915   8.091  1.00  0.00     0.074 A 
ATOM     55  C   UNL     1      -3.842   9.262  11.115  1.00  0.00     0.029 A 
ATOM     56  N   UNL     1      -2.191   9.218   9.626  1.00  0.00    -0.354 N 
ATOM     57  N   UNL     1       0.516   9.729   8.647  1.00  0.00    -0.248 NA
ATOM     58  C   UNL     1       2.623  10.694   8.917  1.00  0.00     0.031 C 
ATOM     59  C   UNL     1      -2.746   9.948  11.650  1.00  0.00     0.029 A 
ATOM     60  C   UNL     1      -1.709   9.900  10.732  1.00  0.00     0.049 A 
ATOM     61  H   UNL     1      -1.676   9.034   8.807  1.00  0.00     0.167 HD
ATOM     62  C   UNL     1       0.581  10.338   9.894  1.00  0.00     0.074 A 
ATOM     63  C   UNL     1       1.915  10.886  10.021  1.00  0.00     0.031 C 
ATOM     64  C   UNL     1      -0.377  10.435  10.850  1.00  0.00     0.037 A 
BRANCH  51  65
ATOM     65  C   UNL     1      -5.741   7.822   9.254  1.00  0.00     0.064 A 
ATOM     66  C   UNL     1      -6.162   6.512   9.533  1.00  0.00     0.173 A 
ATOM     67  C   UNL     1      -6.690   8.851   9.345  1.00  0.00     0.173 A 
ATOM     68  F   UNL     1      -5.296   5.491   9.443  1.00  0.00    -0.203 F 
ATOM     69  C   UNL     1      -7.487   6.242   9.864  1.00  0.00     0.198 A 
ATOM     70  C   UNL     1      -8.008   8.579   9.704  1.00  0.00     0.198 A 
ATOM     71  F   UNL     1      -6.338  10.120   9.090  1.00  0.00    -0.203 F 
ATOM     72  F   UNL     1      -7.877   4.978  10.079  1.00  0.00    -0.200 F 
ATOM     73  C   UNL     1      -8.407   7.275   9.955  1.00  0.00     0.200 A 
ATOM     74  F   UNL     1      -8.893   9.581   9.801  1.00  0.00    -0.200 F 
ATOM     75  F   UNL     1      -9.681   7.014  10.277  1.00  0.00    -0.200 F 
ENDBRANCH  51  65
BRANCH  52  76
ATOM     76  C   UNL     1       3.591   9.748   6.329  1.00  0.00     0.064 A 
ATOM     77  C   UNL     1       4.693   9.174   6.978  1.00  0.00     0.173 A 
ATOM     78  C   UNL     1       3.845  10.655   5.290  1.00  0.00     0.173 A 
ATOM     79  F   UNL     1       4.501   8.325   7.998  1.00  0.00    -0.203 F 
ATOM     80  C   UNL     1       5.996   9.511   6.617  1.00  0.00     0.198 A 
ATOM     81  C   UNL     1       5.149  10.971   4.912  1.00  0.00     0.198 A 
ATOM     82  F   UNL     1       2.825  11.240   4.645  1.00  0.00    -0.203 F 
ATOM     83  F   UNL     1       7.031   8.988   7.289  1.00  0.00    -0.200 F 
ATOM     84  C   UNL     1       6.223  10.405   5.582  1.00  0.00     0.200 A 
ATOM     85  F   UNL     1       5.364  11.832   3.909  1.00  0.00    -0.200 F 
ATOM     86  F   UNL     1       7.476  10.732   5.239  1.00  0.00    -0.200 F 
ENDBRANCH  52  76
BRANCH  64  87
ATOM     87  C   UNL     1      -0.006  11.125  12.132  1.00  0.00     0.064 A 
ATOM     88  C   UNL     1       0.197  12.512  12.193  1.00  0.00     0.173 A 
ATOM     89  C   UNL     1       0.123  10.390  13.321  1.00  0.00     0.173 A 
ATOM     90  F   UNL     1       0.097  13.258  11.083  1.00  0.00    -0.203 F 
ATOM     91  C   UNL     1       0.549  13.132  13.389  1.00  0.00     0.198 A 
ATOM     92  C   UNL     1       0.445  11.018  14.521  1.00  0.00     0.198 A 
ATOM     93  F   UNL     1      -0.069   9.063  13.321  1.00  0.00    -0.203 F 
ATOM     94  F   UNL     1       0.793  14.450  13.412  1.00  0.00    -0.200 F 
ATOM     95  C   UNL     1       0.668  12.386  14.553  1.00  0.00     0.200 A 
ATOM     96  F   UNL     1       0.546  10.298  15.647  1.00  0.00    -0.200 F 
ATOM     97  F   UNL     1       1.007  12.985  15.703  1.00  0.00    -0.200 F 
ENDBRANCH  64  87
ENDBRANCH  38  39
ENDBRANCH  31  33
ENDBRANCH  30  31
ENDBRANCH  29  30
ENDBRANCH  28  29
ENDBRANCH  27  28
ENDBRANCH  26  27
ENDBRANCH  25  26
ENDBRANCH   1  25
TORSDOF 23
