REMARK SMILES O=C(OCCOCCOCCOC(=O)[C@@H]1C[NH2+]CCN1C(=O)N[C@@H]1CCOC1)c1ccc(-c2c3nc(c(-c4c(F)c(F)c(F)c(F)c4F)c4ccc([nH]4)c(-c4c(F)c(F)c(F)c(F)c4F)c4nc(c(-c5c(F)c(F)c(F)c(F)c5F)c5ccc2[nH]5)C=C4)C=C3)cc1
REMARK SMILES IDX 7 1 6 2 5 3 4 4 3 5 2 6 1 7 29 8 30 9 91 10 31 11 90 12
REMARK SMILES IDX 32 13 33 14 34 15 84 16 35 17 89 18 83 19 85 20 36 21 88 22
REMARK SMILES IDX 82 23 81 24 37 26 69 27 49 28 68 29 50 30 53 31 67 32 86 33
REMARK SMILES IDX 51 34 52 35 66 37 87 38 54 39 38 40 39 41 47 42 40 43 41 44
REMARK SMILES IDX 45 45 48 46 42 47 43 48 46 49 44 50 70 51 71 52 79 53 72 54
REMARK SMILES IDX 73 55 77 56 80 57 74 58 75 59 78 60 76 61 55 62 56 63 64 64
REMARK SMILES IDX 57 65 58 66 62 67 65 68 59 69 60 70 63 71 61 72 8 73 9 74
REMARK SMILES IDX 10 75 11 76 12 77 13 78 14 79 15 80 16 81 20 82 17 83 19 84
REMARK SMILES IDX 18 85 21 88 22 89 23 90 24 92 25 93 28 94 26 95 27 96
REMARK H PARENT 85 25 53 36 17 86 17 87 23 91
REMARK Flexibility Score: inf
ROOT
ATOM      1  C   UNL     1       2.898   1.430  -0.561  1.00  0.00     0.188 C 
ENDROOT
BRANCH   1   2
ATOM      2  O   UNL     1       4.260   1.012  -0.462  1.00  0.00    -0.376 OA
BRANCH   2   3
ATOM      3  C   UNL     1       4.863   0.479  -1.633  1.00  0.00     0.202 C 
BRANCH   3   4
ATOM      4  C   UNL     1       4.457  -0.967  -1.965  1.00  0.00     0.261 C 
BRANCH   4   5
ATOM      5  O   UNL     1       3.110  -1.314  -1.595  1.00  0.00    -0.460 OA
BRANCH   5   6
ATOM      6  C   UNL     1       2.602  -1.764  -0.425  1.00  0.00     0.338 C 
ATOM      7  O   UNL     1       1.395  -2.043  -0.397  1.00  0.00    -0.246 OA
BRANCH   6   8
ATOM      8  C   UNL     1       3.369  -1.928   0.851  1.00  0.00     0.060 A 
ATOM      9  C   UNL     1       4.639  -1.409   1.104  1.00  0.00     0.016 A 
ATOM     10  C   UNL     1       2.729  -2.611   1.905  1.00  0.00     0.016 A 
ATOM     11  C   UNL     1       5.262  -1.558   2.337  1.00  0.00     0.010 A 
ATOM     12  C   UNL     1       3.351  -2.781   3.148  1.00  0.00     0.010 A 
ATOM     13  C   UNL     1       4.635  -2.267   3.355  1.00  0.00    -0.014 A 
BRANCH  13  14
ATOM     14  C   UNL     1       5.459  -2.639   4.519  1.00  0.00     0.031 A 
ATOM     15  C   UNL     1       6.087  -3.998   4.498  1.00  0.00     0.074 A 
ATOM     16  C   UNL     1       5.789  -1.726   5.450  1.00  0.00     0.049 A 
ATOM     17  N   UNL     1       6.927  -4.536   5.338  1.00  0.00    -0.248 NA
ATOM     18  C   UNL     1       5.768  -4.847   3.335  1.00  0.00     0.031 C 
ATOM     19  C   UNL     1       5.370  -0.328   5.438  1.00  0.00     0.029 A 
ATOM     20  N   UNL     1       6.569  -1.824   6.569  1.00  0.00    -0.354 N 
ATOM     21  C   UNL     1       7.261  -5.765   4.789  1.00  0.00     0.074 A 
ATOM     22  C   UNL     1       6.501  -5.922   3.572  1.00  0.00     0.031 C 
ATOM     23  C   UNL     1       5.847   0.294   6.527  1.00  0.00     0.029 A 
ATOM     24  C   UNL     1       6.604  -0.670   7.315  1.00  0.00     0.049 A 
ATOM     25  H   UNL     1       7.059  -2.642   6.817  1.00  0.00     0.167 HD
ATOM     26  C   UNL     1       8.151  -6.669   5.255  1.00  0.00     0.037 A 
ATOM     27  C   UNL     1       7.176  -0.436   8.510  1.00  0.00     0.037 A 
ATOM     28  C   UNL     1       8.860  -6.504   6.492  1.00  0.00     0.049 A 
ATOM     29  C   UNL     1       8.011  -1.537   9.106  1.00  0.00     0.074 A 
ATOM     30  C   UNL     1       9.707  -7.387   7.131  1.00  0.00     0.029 A 
ATOM     31  N   UNL     1       8.784  -5.366   7.288  1.00  0.00    -0.354 N 
ATOM     32  N   UNL     1       8.294  -2.719   8.607  1.00  0.00    -0.248 NA
ATOM     33  C   UNL     1       8.629  -1.272  10.409  1.00  0.00     0.031 C 
ATOM     34  C   UNL     1      10.102  -6.805   8.340  1.00  0.00     0.029 A 
ATOM     35  C   UNL     1       9.553  -5.534   8.426  1.00  0.00     0.049 A 
ATOM     36  H   UNL     1       8.261  -4.561   7.073  1.00  0.00     0.167 HD
ATOM     37  C   UNL     1       9.152  -3.323   9.513  1.00  0.00     0.074 A 
ATOM     38  C   UNL     1       9.355  -2.367  10.585  1.00  0.00     0.031 C 
ATOM     39  C   UNL     1       9.725  -4.551   9.468  1.00  0.00     0.037 A 
BRANCH  26  40
ATOM     40  C   UNL     1       8.339  -7.915   4.443  1.00  0.00     0.064 A 
ATOM     41  C   UNL     1       8.992  -7.893   3.200  1.00  0.00     0.173 A 
ATOM     42  C   UNL     1       7.822  -9.138   4.891  1.00  0.00     0.173 A 
ATOM     43  F   UNL     1       9.471  -6.740   2.708  1.00  0.00    -0.203 F 
ATOM     44  C   UNL     1       9.096  -9.046   2.425  1.00  0.00     0.198 A 
ATOM     45  C   UNL     1       7.952 -10.294   4.127  1.00  0.00     0.198 A 
ATOM     46  F   UNL     1       7.175  -9.209   6.064  1.00  0.00    -0.203 F 
ATOM     47  F   UNL     1       9.668  -8.989   1.214  1.00  0.00    -0.200 F 
ATOM     48  C   UNL     1       8.581 -10.246   2.891  1.00  0.00     0.200 A 
ATOM     49  F   UNL     1       7.453 -11.453   4.578  1.00  0.00    -0.200 F 
ATOM     50  F   UNL     1       8.675 -11.354   2.142  1.00  0.00    -0.200 F 
ENDBRANCH  26  40
BRANCH  27  51
ATOM     51  C   UNL     1       6.952   0.854   9.219  1.00  0.00     0.064 A 
ATOM     52  C   UNL     1       8.001   1.736   9.506  1.00  0.00     0.173 A 
ATOM     53  C   UNL     1       5.668   1.210   9.667  1.00  0.00     0.173 A 
ATOM     54  F   UNL     1       9.250   1.441   9.115  1.00  0.00    -0.203 F 
ATOM     55  C   UNL     1       7.785   2.901  10.243  1.00  0.00     0.198 A 
ATOM     56  C   UNL     1       5.447   2.389  10.377  1.00  0.00     0.198 A 
ATOM     57  F   UNL     1       4.622   0.408   9.416  1.00  0.00    -0.203 F 
ATOM     58  F   UNL     1       8.820   3.693  10.558  1.00  0.00    -0.200 F 
ATOM     59  C   UNL     1       6.509   3.227  10.677  1.00  0.00     0.200 A 
ATOM     60  F   UNL     1       4.209   2.703  10.782  1.00  0.00    -0.200 F 
ATOM     61  F   UNL     1       6.305   4.339  11.397  1.00  0.00    -0.200 F 
ENDBRANCH  27  51
BRANCH  39  62
ATOM     62  C   UNL     1      10.648  -4.903  10.595  1.00  0.00     0.064 A 
ATOM     63  C   UNL     1      10.170  -5.142  11.891  1.00  0.00     0.173 A 
ATOM     64  C   UNL     1      12.026  -5.029  10.365  1.00  0.00     0.173 A 
ATOM     65  F   UNL     1       8.861  -5.019  12.162  1.00  0.00    -0.203 F 
ATOM     66  C   UNL     1      11.044  -5.458  12.926  1.00  0.00     0.198 A 
ATOM     67  C   UNL     1      12.892  -5.385  11.393  1.00  0.00     0.198 A 
ATOM     68  F   UNL     1      12.530  -4.820   9.139  1.00  0.00    -0.203 F 
ATOM     69  F   UNL     1      10.574  -5.619  14.170  1.00  0.00    -0.200 F 
ATOM     70  C   UNL     1      12.402  -5.587  12.674  1.00  0.00     0.200 A 
ATOM     71  F   UNL     1      14.201  -5.527  11.144  1.00  0.00    -0.200 F 
ATOM     72  F   UNL     1      13.242  -5.898  13.671  1.00  0.00    -0.200 F 
ENDBRANCH  39  62
ENDBRANCH  13  14
ENDBRANCH   6   8
ENDBRANCH   5   6
ENDBRANCH   4   5
ENDBRANCH   3   4
ENDBRANCH   2   3
ENDBRANCH   1   2
BRANCH   1  73
ATOM     73  C   UNL     1       2.715   2.891  -0.961  1.00  0.00     0.188 C 
BRANCH  73  74
ATOM     74  O   UNL     1       3.356   3.844  -0.120  1.00  0.00    -0.376 OA
BRANCH  74  75
ATOM     75  C   UNL     1       4.770   3.713  -0.009  1.00  0.00     0.202 C 
BRANCH  75  76
ATOM     76  C   UNL     1       5.223   3.171   1.370  1.00  0.00     0.261 C 
BRANCH  76  77
ATOM     77  O   UNL     1       4.194   2.428   2.078  1.00  0.00    -0.462 OA
BRANCH  77  78
ATOM     78  C   UNL     1       4.047   2.713   3.409  1.00  0.00     0.334 C 
ATOM     79  O   UNL     1       4.872   3.353   4.059  1.00  0.00    -0.250 OA
BRANCH  78  80
ATOM     80  C   UNL     1       2.681   2.227   4.020  1.00  0.00     0.252 C 
ATOM     81  C   UNL     1       2.284   0.810   3.548  1.00  0.00     0.298 C 
ATOM     82  N   UNL     1       1.432   2.909   4.594  1.00  0.00    -0.300 N 
ATOM     83  N   UNL     1       1.795  -0.028   4.677  1.00  0.00    -0.343 N 
ATOM     84  C   UNL     1       1.011   2.127   5.788  1.00  0.00     0.183 C 
ATOM     85  C   UNL     1       0.692   0.660   5.389  1.00  0.00     0.282 C 
ATOM     86  H   UNL     1       2.562  -0.196   5.328  1.00  0.00     0.346 HD
ATOM     87  H   UNL     1       1.449  -0.914   4.307  1.00  0.00     0.346 HD
BRANCH  82  88
ATOM     88  C   UNL     1       0.365   3.588   4.046  1.00  0.00     0.318 C 
ATOM     89  O   UNL     1      -0.782   3.417   4.494  1.00  0.00    -0.249 OA
ATOM     90  N   UNL     1       0.357   4.522   3.089  1.00  0.00    -0.333 N 
ATOM     91  H   UNL     1      -0.579   4.773   2.912  1.00  0.00     0.165 HD
BRANCH  90  92
ATOM     92  C   UNL     1       1.222   5.315   2.203  1.00  0.00     0.112 C 
ATOM     93  C   UNL     1       2.644   5.007   2.408  1.00  0.00     0.056 C 
ATOM     94  C   UNL     1       1.300   6.815   2.487  1.00  0.00     0.185 C 
ATOM     95  C   UNL     1       2.952   5.736   3.690  1.00  0.00     0.162 C 
ATOM     96  O   UNL     1       2.285   6.999   3.530  1.00  0.00    -0.379 OA
ENDBRANCH  90  92
ENDBRANCH  82  88
ENDBRANCH  78  80
ENDBRANCH  77  78
ENDBRANCH  76  77
ENDBRANCH  75  76
ENDBRANCH  74  75
ENDBRANCH  73  74
ENDBRANCH   1  73
TORSDOF 19
