REMARK SMILES C[C@H]1CCc2sc3ncn4nc(/C=C\C(=O)OCCOCCOCCOC(=O)c5ccc(-c6c7nc(c(-c8c(F)c(F)c(F)c(F)c8F)c8ccc([nH]8)c(-c8c(F)c(F)c(F)c(F)c8F)c8nc(c(-c9c(F)c(F)c(F)c(F)c9F)c9ccc6[nH]9)C=C8)C=C7)cc5)nc4c3c2C1
REMARK SMILES IDX 22 1 21 2 20 3 19 4 18 5 17 6 15 7 16 8 14 9 13 10 12 11
REMARK SMILES IDX 1 12 2 13 3 14 96 15 4 16 95 17 5 18 94 19 6 20 7 21 93 22
REMARK SMILES IDX 8 23 10 24 92 25 9 26 11 27 23 28 24 29 25 30 26 31 27 32
REMARK SMILES IDX 28 33 29 34 30 35 91 36 31 37 90 38 32 39 33 40 34 41 84 42
REMARK SMILES IDX 35 43 89 44 83 45 85 46 36 47 88 48 82 49 81 50 37 52 69 53
REMARK SMILES IDX 49 54 68 55 50 56 53 57 67 58 86 59 51 60 52 61 66 63 87 64
REMARK SMILES IDX 54 65 38 66 39 67 47 68 40 69 41 70 45 71 48 72 42 73 43 74
REMARK SMILES IDX 46 75 44 76 70 77 71 78 79 79 72 80 73 81 77 82 80 83 74 84
REMARK SMILES IDX 75 85 78 86 76 87 55 88 56 89 64 90 57 91 58 92 62 93 65 94
REMARK SMILES IDX 59 95 60 96 63 97 61 98
REMARK H PARENT 85 51 53 62
REMARK Flexibility Score: inf
ROOT
ATOM      1  C   UNL     1      -2.672  -4.447   0.204  1.00  0.00     0.188 C 
ENDROOT
BRANCH   1   2
ATOM      2  C   UNL     1      -1.526  -4.545   1.240  1.00  0.00     0.188 C 
BRANCH   2   3
ATOM      3  O   UNL     1      -0.915  -3.378   1.754  1.00  0.00    -0.376 OA
BRANCH   3   4
ATOM      4  C   UNL     1      -0.042  -2.630   0.916  1.00  0.00     0.202 C 
BRANCH   4   5
ATOM      5  C   UNL     1       0.786  -3.305  -0.186  1.00  0.00     0.261 C 
BRANCH   5   6
ATOM      6  O   UNL     1       0.013  -4.150  -1.045  1.00  0.00    -0.460 OA
BRANCH   6   7
ATOM      7  C   UNL     1       0.601  -5.303  -1.427  1.00  0.00     0.330 C 
ATOM      8  O   UNL     1       1.724  -5.675  -1.115  1.00  0.00    -0.247 OA
BRANCH   7   9
ATOM      9  C   UNL     1      -0.341  -6.228  -2.083  1.00  0.00     0.097 C 
ATOM     10  C   UNL     1      -1.231  -6.015  -3.062  1.00  0.00     0.058 C 
BRANCH  10  11
ATOM     11  C   UNL     1      -1.550  -4.836  -3.793  1.00  0.00     0.175 A 
ATOM     12  C   UNL     1       1.948   0.868  -2.636  1.00  0.00     0.008 C 
ATOM     13  C   UNL     1       0.578   0.722  -1.972  1.00  0.00    -0.009 C 
ATOM     14  C   UNL     1      -0.300   1.980  -2.159  1.00  0.00     0.009 C 
ATOM     15  C   UNL     1      -0.130  -0.554  -2.465  1.00  0.00     0.041 C 
ATOM     16  C   UNL     1      -0.790   2.192  -3.604  1.00  0.00     0.047 C 
ATOM     17  C   UNL     1      -0.962  -0.347  -3.683  1.00  0.00    -0.020 A 
ATOM     18  C   UNL     1      -1.275   0.900  -4.183  1.00  0.00     0.011 A 
ATOM     19  C   UNL     1      -1.592  -1.348  -4.449  1.00  0.00     0.060 A 
ATOM     20  S   UNL     1      -2.270   0.829  -5.572  1.00  0.00    -0.120 S 
ATOM     21  C   UNL     1      -2.347  -0.882  -5.514  1.00  0.00     0.129 A 
ATOM     22  C   UNL     1      -1.613  -2.807  -4.292  1.00  0.00     0.168 A 
ATOM     23  N   UNL     1      -3.079  -1.626  -6.412  1.00  0.00    -0.225 NA
ATOM     24  N   UNL     1      -2.379  -3.514  -5.163  1.00  0.00    -0.201 N 
ATOM     25  N   UNL     1      -1.026  -3.613  -3.447  1.00  0.00    -0.207 NA
ATOM     26  C   UNL     1      -3.084  -2.923  -6.211  1.00  0.00     0.227 A 
ATOM     27  N   UNL     1      -2.364  -4.825  -4.868  1.00  0.00    -0.145 NA
ENDBRANCH  10  11
ENDBRANCH   7   9
ENDBRANCH   6   7
ENDBRANCH   5   6
ENDBRANCH   4   5
ENDBRANCH   3   4
ENDBRANCH   2   3
ENDBRANCH   1   2
BRANCH   1  28
ATOM     28  O   UNL     1      -2.767  -3.408  -0.748  1.00  0.00    -0.376 OA
BRANCH  28  29
ATOM     29  C   UNL     1      -3.142  -2.076  -0.443  1.00  0.00     0.202 C 
BRANCH  29  30
ATOM     30  C   UNL     1      -4.084  -1.685   0.684  1.00  0.00     0.261 C 
BRANCH  30  31
ATOM     31  O   UNL     1      -3.756  -2.296   1.915  1.00  0.00    -0.460 OA
BRANCH  31  32
ATOM     32  C   UNL     1      -4.619  -3.251   2.275  1.00  0.00     0.338 C 
ATOM     33  O   UNL     1      -5.569  -3.700   1.616  1.00  0.00    -0.246 OA
BRANCH  32  34
ATOM     34  C   UNL     1      -4.324  -3.707   3.618  1.00  0.00     0.060 A 
ATOM     35  C   UNL     1      -4.842  -4.951   3.985  1.00  0.00     0.016 A 
ATOM     36  C   UNL     1      -3.817  -2.790   4.548  1.00  0.00     0.016 A 
ATOM     37  C   UNL     1      -5.063  -5.185   5.317  1.00  0.00     0.010 A 
ATOM     38  C   UNL     1      -4.046  -3.022   5.880  1.00  0.00     0.010 A 
ATOM     39  C   UNL     1      -4.753  -4.169   6.229  1.00  0.00    -0.014 A 
BRANCH  39  40
ATOM     40  C   UNL     1      -5.224  -4.346   7.581  1.00  0.00     0.031 A 
ATOM     41  C   UNL     1      -4.437  -5.320   8.350  1.00  0.00     0.074 A 
ATOM     42  C   UNL     1      -6.266  -3.645   8.063  1.00  0.00     0.049 A 
ATOM     43  N   UNL     1      -4.824  -6.474   8.774  1.00  0.00    -0.248 NA
ATOM     44  C   UNL     1      -3.008  -5.042   8.553  1.00  0.00     0.031 C 
ATOM     45  C   UNL     1      -6.893  -2.465   7.458  1.00  0.00     0.029 A 
ATOM     46  N   UNL     1      -6.920  -3.772   9.251  1.00  0.00    -0.354 N 
ATOM     47  C   UNL     1      -3.750  -6.974   9.495  1.00  0.00     0.074 A 
ATOM     48  C   UNL     1      -2.612  -6.152   9.176  1.00  0.00     0.031 C 
ATOM     49  C   UNL     1      -7.662  -1.851   8.383  1.00  0.00     0.029 A 
ATOM     50  C   UNL     1      -7.697  -2.672   9.582  1.00  0.00     0.049 A 
ATOM     51  H   UNL     1      -6.848  -4.571   9.821  1.00  0.00     0.167 HD
ATOM     52  C   UNL     1      -3.967  -7.817  10.537  1.00  0.00     0.037 A 
ATOM     53  C   UNL     1      -8.252  -2.429  10.791  1.00  0.00     0.037 A 
ATOM     54  C   UNL     1      -5.296  -8.365  10.511  1.00  0.00     0.049 A 
ATOM     55  C   UNL     1      -8.398  -3.728  11.495  1.00  0.00     0.074 A 
ATOM     56  C   UNL     1      -5.944  -9.405   9.884  1.00  0.00     0.029 A 
ATOM     57  N   UNL     1      -6.257  -7.520  10.995  1.00  0.00    -0.354 N 
ATOM     58  N   UNL     1      -9.196  -4.681  11.098  1.00  0.00    -0.248 NA
ATOM     59  C   UNL     1      -7.412  -4.117  12.501  1.00  0.00     0.031 C 
ATOM     60  C   UNL     1      -7.339  -9.106   9.934  1.00  0.00     0.029 A 
ATOM     61  C   UNL     1      -7.513  -7.897  10.600  1.00  0.00     0.049 A 
ATOM     62  H   UNL     1      -6.068  -6.736  11.559  1.00  0.00     0.167 HD
ATOM     63  C   UNL     1      -8.552  -5.840  11.478  1.00  0.00     0.074 A 
ATOM     64  C   UNL     1      -7.580  -5.442  12.484  1.00  0.00     0.031 C 
ATOM     65  C   UNL     1      -8.607  -6.959  10.702  1.00  0.00     0.037 A 
BRANCH  52  66
ATOM     66  C   UNL     1      -3.179  -7.763  11.819  1.00  0.00     0.064 A 
ATOM     67  C   UNL     1      -3.303  -8.812  12.748  1.00  0.00     0.173 A 
ATOM     68  C   UNL     1      -2.555  -6.589  12.298  1.00  0.00     0.173 A 
ATOM     69  F   UNL     1      -3.925  -9.951  12.410  1.00  0.00    -0.203 F 
ATOM     70  C   UNL     1      -2.859  -8.681  14.067  1.00  0.00     0.198 A 
ATOM     71  C   UNL     1      -2.062  -6.483  13.596  1.00  0.00     0.198 A 
ATOM     72  F   UNL     1      -2.508  -5.464  11.573  1.00  0.00    -0.203 F 
ATOM     73  F   UNL     1      -3.090  -9.663  14.948  1.00  0.00    -0.200 F 
ATOM     74  C   UNL     1      -2.235  -7.519  14.488  1.00  0.00     0.200 A 
ATOM     75  F   UNL     1      -1.490  -5.337  13.992  1.00  0.00    -0.200 F 
ATOM     76  F   UNL     1      -1.846  -7.377  15.761  1.00  0.00    -0.200 F 
ENDBRANCH  52  66
BRANCH  53  77
ATOM     77  C   UNL     1      -8.339  -1.131  11.502  1.00  0.00     0.064 A 
ATOM     78  C   UNL     1      -9.107  -1.020  12.674  1.00  0.00     0.173 A 
ATOM     79  C   UNL     1      -7.442  -0.077  11.239  1.00  0.00     0.173 A 
ATOM     80  F   UNL     1      -9.968  -1.991  13.010  1.00  0.00    -0.203 F 
ATOM     81  C   UNL     1      -8.935   0.043  13.564  1.00  0.00     0.198 A 
ATOM     82  C   UNL     1      -7.282   0.991  12.121  1.00  0.00     0.198 A 
ATOM     83  F   UNL     1      -6.627  -0.108  10.175  1.00  0.00    -0.203 F 
ATOM     84  F   UNL     1      -9.617   0.064  14.717  1.00  0.00    -0.200 F 
ATOM     85  C   UNL     1      -8.010   1.038  13.296  1.00  0.00     0.200 A 
ATOM     86  F   UNL     1      -6.365   1.934  11.863  1.00  0.00    -0.200 F 
ATOM     87  F   UNL     1      -7.787   2.014  14.187  1.00  0.00    -0.200 F 
ENDBRANCH  53  77
BRANCH  65  88
ATOM     88  C   UNL     1      -9.782  -7.112   9.792  1.00  0.00     0.064 A 
ATOM     89  C   UNL     1     -10.038  -6.291   8.682  1.00  0.00     0.173 A 
ATOM     90  C   UNL     1     -10.662  -8.176  10.030  1.00  0.00     0.173 A 
ATOM     91  F   UNL     1      -9.200  -5.300   8.351  1.00  0.00    -0.203 F 
ATOM     92  C   UNL     1     -11.153  -6.506   7.873  1.00  0.00     0.198 A 
ATOM     93  C   UNL     1     -11.753  -8.410   9.201  1.00  0.00     0.198 A 
ATOM     94  F   UNL     1     -10.443  -9.012  11.058  1.00  0.00    -0.203 F 
ATOM     95  F   UNL     1     -11.394  -5.697   6.831  1.00  0.00    -0.200 F 
ATOM     96  C   UNL     1     -12.005  -7.569   8.130  1.00  0.00     0.200 A 
ATOM     97  F   UNL     1     -12.552  -9.462   9.432  1.00  0.00    -0.200 F 
ATOM     98  F   UNL     1     -13.060  -7.794   7.334  1.00  0.00    -0.200 F 
ENDBRANCH  65  88
ENDBRANCH  39  40
ENDBRANCH  32  34
ENDBRANCH  31  32
ENDBRANCH  30  31
ENDBRANCH  29  30
ENDBRANCH  28  29
ENDBRANCH   1  28
TORSDOF 18
