REMARK SMILES CS(=O)(=O)c1ccc(NS(=O)(=O)c2ccc(F)c(C(=O)OCCOCCOCCOC(=O)c3ccc(-c4c5nc(c(-c6c(F)c(F)c(F)c(F)c6F)c6ccc([nH]6)c(-c6c(F)c(F)c(F)c(F)c6F)c6nc(c(-c7c(F)c(F)c(F)c(F)c7F)c7ccc4[nH]7)C=C6)C=C5)cc3)c2)cc1
REMARK SMILES IDX 25 1 24 2 23 3 22 4 21 5 19 6 20 7 18 8 13 9 14 10 96 11
REMARK SMILES IDX 15 12 16 13 17 14 10 15 11 16 12 17 9 18 8 20 5 21 6 22
REMARK SMILES IDX 98 23 7 24 97 25 2 26 1 27 3 28 4 29 26 30 27 31 28 32 29 33
REMARK SMILES IDX 30 34 31 35 32 36 33 37 34 38 95 39 35 40 94 41 36 42 37 43
REMARK SMILES IDX 38 44 88 45 39 46 93 47 87 48 89 49 40 50 92 51 86 52 85 53
REMARK SMILES IDX 41 55 73 56 53 57 72 58 54 59 57 60 71 61 90 62 55 63 56 64
REMARK SMILES IDX 70 66 91 67 58 68 42 69 43 70 51 71 44 72 45 73 49 74 52 75
REMARK SMILES IDX 46 76 47 77 50 78 48 79 74 80 75 81 83 82 76 83 77 84 81 85
REMARK SMILES IDX 84 86 78 87 79 88 82 89 80 90 59 91 60 92 68 93 61 94 62 95
REMARK SMILES IDX 66 96 69 97 63 98 64 99 67 100 65 101
REMARK H PARENT 9 19 89 54 57 65
REMARK Flexibility Score: inf
ROOT
ATOM      1  C   UNL     1       4.021  -3.747   8.075  1.00  0.00     0.188 C 
ENDROOT
BRANCH   1   2
ATOM      2  O   UNL     1       5.345  -4.243   8.174  1.00  0.00    -0.376 OA
BRANCH   2   3
ATOM      3  C   UNL     1       6.432  -3.354   7.938  1.00  0.00     0.202 C 
BRANCH   3   4
ATOM      4  C   UNL     1       6.432  -2.566   6.628  1.00  0.00     0.261 C 
BRANCH   4   5
ATOM      5  O   UNL     1       5.379  -1.589   6.645  1.00  0.00    -0.460 OA
BRANCH   5   6
ATOM      6  C   UNL     1       4.638  -1.498   5.519  1.00  0.00     0.341 C 
ATOM      7  O   UNL     1       4.856  -2.008   4.434  1.00  0.00    -0.246 OA
BRANCH   6   8
ATOM      8  C   UNL     1       3.412  -0.761   5.849  1.00  0.00     0.097 A 
ATOM      9  C   UNL     1       2.289   1.232   6.596  1.00  0.00     0.088 A 
ATOM     10  C   UNL     1       1.041   0.631   6.381  1.00  0.00     0.025 A 
ATOM     11  C   UNL     1       3.480   0.521   6.394  1.00  0.00     0.041 A 
ATOM     12  C   UNL     1       0.990  -0.673   5.885  1.00  0.00     0.041 A 
ATOM     13  C   UNL     1       2.174  -1.351   5.595  1.00  0.00     0.137 A 
ATOM     14  F   UNL     1       2.095  -2.592   5.096  1.00  0.00    -0.206 F 
BRANCH   9  15
ATOM     15  S   UNL     1       2.407   2.999   6.800  1.00  0.00     0.261 S 
ATOM     16  O   UNL     1       3.771   3.385   6.514  1.00  0.00    -0.201 OA
ATOM     17  O   UNL     1       1.772   3.317   8.059  1.00  0.00    -0.201 OA
BRANCH  15  18
ATOM     18  N   UNL     1       1.433   3.630   5.598  1.00  0.00    -0.280 N 
ATOM     19  H   UNL     1       0.728   4.251   5.893  1.00  0.00     0.180 HD
BRANCH  18  20
ATOM     20  C   UNL     1       1.500   3.375   4.197  1.00  0.00     0.049 A 
ATOM     21  C   UNL     1       0.986   2.600   1.548  1.00  0.00     0.067 A 
ATOM     22  C   UNL     1       1.880   1.867   2.318  1.00  0.00     0.022 A 
ATOM     23  C   UNL     1       0.429   3.777   2.054  1.00  0.00     0.022 A 
ATOM     24  C   UNL     1       2.160   2.285   3.624  1.00  0.00     0.028 A 
ATOM     25  C   UNL     1       0.680   4.154   3.378  1.00  0.00     0.028 A 
BRANCH  21  26
ATOM     26  S   UNL     1       0.431   2.039  -0.044  1.00  0.00     0.175 S 
ATOM     27  C   UNL     1       0.914   0.342  -0.207  1.00  0.00     0.163 C 
ATOM     28  O   UNL     1       1.161   2.813  -1.028  1.00  0.00    -0.224 OA
ATOM     29  O   UNL     1      -1.019   2.061   0.009  1.00  0.00    -0.224 OA
ENDBRANCH  21  26
ENDBRANCH  18  20
ENDBRANCH  15  18
ENDBRANCH   9  15
ENDBRANCH   6   8
ENDBRANCH   5   6
ENDBRANCH   4   5
ENDBRANCH   3   4
ENDBRANCH   2   3
ENDBRANCH   1   2
BRANCH   1  30
ATOM     30  C   UNL     1       3.572  -2.557   8.951  1.00  0.00     0.188 C 
BRANCH  30  31
ATOM     31  O   UNL     1       4.386  -2.034   9.978  1.00  0.00    -0.376 OA
BRANCH  31  32
ATOM     32  C   UNL     1       4.888  -2.871  11.004  1.00  0.00     0.202 C 
BRANCH  32  33
ATOM     33  C   UNL     1       3.997  -3.894  11.719  1.00  0.00     0.261 C 
BRANCH  33  34
ATOM     34  O   UNL     1       3.150  -4.673  10.867  1.00  0.00    -0.460 OA
BRANCH  34  35
ATOM     35  C   UNL     1       1.825  -4.426  11.002  1.00  0.00     0.338 C 
ATOM     36  O   UNL     1       1.286  -3.621  11.741  1.00  0.00    -0.246 OA
BRANCH  35  37
ATOM     37  C   UNL     1       1.085  -5.181   9.977  1.00  0.00     0.060 A 
ATOM     38  C   UNL     1       0.283  -4.470   9.074  1.00  0.00     0.016 A 
ATOM     39  C   UNL     1       1.131  -6.575   9.951  1.00  0.00     0.016 A 
ATOM     40  C   UNL     1      -0.509  -5.159   8.157  1.00  0.00     0.010 A 
ATOM     41  C   UNL     1       0.320  -7.264   9.049  1.00  0.00     0.010 A 
ATOM     42  C   UNL     1      -0.526  -6.560   8.172  1.00  0.00    -0.014 A 
BRANCH  42  43
ATOM     43  C   UNL     1      -1.565  -7.298   7.421  1.00  0.00     0.031 A 
ATOM     44  C   UNL     1      -2.829  -7.676   8.139  1.00  0.00     0.074 A 
ATOM     45  C   UNL     1      -1.382  -7.645   6.136  1.00  0.00     0.049 A 
ATOM     46  N   UNL     1      -3.829  -8.415   7.733  1.00  0.00    -0.248 NA
ATOM     47  C   UNL     1      -2.983  -7.150   9.506  1.00  0.00     0.031 C 
ATOM     48  C   UNL     1      -0.221  -7.298   5.323  1.00  0.00     0.029 A 
ATOM     49  N   UNL     1      -2.174  -8.391   5.299  1.00  0.00    -0.354 N 
ATOM     50  C   UNL     1      -4.723  -8.451   8.795  1.00  0.00     0.074 A 
ATOM     51  C   UNL     1      -4.143  -7.676   9.869  1.00  0.00     0.031 C 
ATOM     52  C   UNL     1      -0.362  -7.853   4.106  1.00  0.00     0.029 A 
ATOM     53  C   UNL     1      -1.606  -8.621   4.071  1.00  0.00     0.049 A 
ATOM     54  H   UNL     1      -3.063  -8.728   5.555  1.00  0.00     0.167 HD
ATOM     55  C   UNL     1      -5.921  -9.076   8.865  1.00  0.00     0.037 A 
ATOM     56  C   UNL     1      -2.033  -9.392   3.051  1.00  0.00     0.037 A 
ATOM     57  C   UNL     1      -6.492  -9.855   7.800  1.00  0.00     0.049 A 
ATOM     58  C   UNL     1      -3.335 -10.140   3.182  1.00  0.00     0.074 A 
ATOM     59  C   UNL     1      -7.702 -10.524   7.772  1.00  0.00     0.029 A 
ATOM     60  N   UNL     1      -5.881 -10.075   6.575  1.00  0.00    -0.354 N 
ATOM     61  N   UNL     1      -4.185 -10.158   4.181  1.00  0.00    -0.248 NA
ATOM     62  C   UNL     1      -3.735 -10.980   2.043  1.00  0.00     0.031 C 
ATOM     63  C   UNL     1      -7.806 -11.185   6.543  1.00  0.00     0.029 A 
ATOM     64  C   UNL     1      -6.682 -10.887   5.789  1.00  0.00     0.049 A 
ATOM     65  H   UNL     1      -5.009  -9.709   6.304  1.00  0.00     0.167 HD
ATOM     66  C   UNL     1      -5.232 -10.978   3.779  1.00  0.00     0.074 A 
ATOM     67  C   UNL     1      -4.913 -11.438   2.443  1.00  0.00     0.031 C 
ATOM     68  C   UNL     1      -6.358 -11.317   4.453  1.00  0.00     0.037 A 
BRANCH  55  69
ATOM     69  C   UNL     1      -6.679  -8.965  10.153  1.00  0.00     0.064 A 
ATOM     70  C   UNL     1      -7.307  -7.771  10.536  1.00  0.00     0.173 A 
ATOM     71  C   UNL     1      -6.796 -10.074  11.005  1.00  0.00     0.173 A 
ATOM     72  F   UNL     1      -7.208  -6.678   9.764  1.00  0.00    -0.203 F 
ATOM     73  C   UNL     1      -8.007  -7.685  11.737  1.00  0.00     0.198 A 
ATOM     74  C   UNL     1      -7.517  -9.991  12.193  1.00  0.00     0.198 A 
ATOM     75  F   UNL     1      -6.213 -11.238  10.683  1.00  0.00    -0.203 F 
ATOM     76  F   UNL     1      -8.562  -6.522  12.105  1.00  0.00    -0.200 F 
ATOM     77  C   UNL     1      -8.116  -8.796  12.561  1.00  0.00     0.200 A 
ATOM     78  F   UNL     1      -7.629 -11.067  12.983  1.00  0.00    -0.200 F 
ATOM     79  F   UNL     1      -8.793  -8.711  13.714  1.00  0.00    -0.200 F 
ENDBRANCH  55  69
BRANCH  56  80
ATOM     80  C   UNL     1      -1.213  -9.514   1.819  1.00  0.00     0.064 A 
ATOM     81  C   UNL     1      -1.646  -8.959   0.607  1.00  0.00     0.173 A 
ATOM     82  C   UNL     1       0.006 -10.207   1.821  1.00  0.00     0.173 A 
ATOM     83  F   UNL     1      -2.819  -8.310   0.550  1.00  0.00    -0.203 F 
ATOM     84  C   UNL     1      -0.900  -9.108  -0.560  1.00  0.00     0.198 A 
ATOM     85  C   UNL     1       0.764 -10.334   0.659  1.00  0.00     0.198 A 
ATOM     86  F   UNL     1       0.462 -10.761   2.954  1.00  0.00    -0.203 F 
ATOM     87  F   UNL     1      -1.359  -8.607  -1.715  1.00  0.00    -0.200 F 
ATOM     88  C   UNL     1       0.307  -9.791  -0.532  1.00  0.00     0.200 A 
ATOM     89  F   UNL     1       1.933 -10.988   0.692  1.00  0.00    -0.200 F 
ATOM     90  F   UNL     1       1.024  -9.934  -1.655  1.00  0.00    -0.200 F 
ENDBRANCH  56  80
BRANCH  68  91
ATOM     91  C   UNL     1      -7.357 -12.184   3.746  1.00  0.00     0.064 A 
ATOM     92  C   UNL     1      -7.136 -13.554   3.549  1.00  0.00     0.173 A 
ATOM     93  C   UNL     1      -8.581 -11.646   3.319  1.00  0.00     0.173 A 
ATOM     94  F   UNL     1      -5.977 -14.113   3.928  1.00  0.00    -0.203 F 
ATOM     95  C   UNL     1      -8.099 -14.352   2.935  1.00  0.00     0.198 A 
ATOM     96  C   UNL     1      -9.551 -12.451   2.730  1.00  0.00     0.198 A 
ATOM     97  F   UNL     1      -8.843 -10.341   3.493  1.00  0.00    -0.203 F 
ATOM     98  F   UNL     1      -7.854 -15.652   2.725  1.00  0.00    -0.200 F 
ATOM     99  C   UNL     1      -9.308 -13.802   2.535  1.00  0.00     0.200 A 
ATOM    100  F   UNL     1     -10.724 -11.920   2.356  1.00  0.00    -0.200 F 
ATOM    101  F   UNL     1     -10.238 -14.574   1.956  1.00  0.00    -0.200 F 
ENDBRANCH  68  91
ENDBRANCH  42  43
ENDBRANCH  35  37
ENDBRANCH  34  35
ENDBRANCH  33  34
ENDBRANCH  32  33
ENDBRANCH  31  32
ENDBRANCH  30  31
ENDBRANCH   1  30
TORSDOF 21
