REMARK SMILES CCOC(=O)c1nc(Nc2cccc(C(=O)OCCOCCOCCOC(=O)c3ccc(-c4c5nc(c(-c6c(F)c(F)c(F)c(F)c6F)c6ccc([nH]6)c(-c6c(F)c(F)c(F)c(F)c6F)c6nc(c(-c7c(F)c(F)c(F)c(F)c7F)c7ccc4[nH]7)C=C6)C=C5)cc3)c2)c2ccccc2n1
REMARK SMILES IDX 20 1 19 2 18 3 17 4 15 5 16 6 14 7 10 8 11 9 92 10 12 11
REMARK SMILES IDX 13 12 9 13 8 15 6 16 7 17 99 18 98 19 93 20 97 21 94 22
REMARK SMILES IDX 96 23 95 24 4 25 5 26 3 27 2 28 1 29 21 30 22 31 23 32 24 33
REMARK SMILES IDX 25 34 26 35 27 36 28 37 29 38 30 39 91 40 31 41 90 42 32 43
REMARK SMILES IDX 33 44 34 45 84 46 35 47 89 48 83 49 85 50 36 51 88 52 82 53
REMARK SMILES IDX 81 54 37 56 69 57 49 58 68 59 50 60 53 61 67 62 86 63 51 64
REMARK SMILES IDX 52 65 66 67 87 68 54 69 38 70 39 71 47 72 40 73 41 74 45 75
REMARK SMILES IDX 48 76 42 77 43 78 46 79 44 80 70 81 71 82 79 83 72 84 73 85
REMARK SMILES IDX 77 86 80 87 74 88 75 89 78 90 76 91 55 92 56 93 64 94 57 95
REMARK SMILES IDX 58 96 62 97 65 98 59 99 60 100 63 101 61 102
REMARK H PARENT 9 14 85 55 53 66
REMARK Flexibility Score: inf
ROOT
ATOM      1  O   UNL     1       3.780   5.490  -4.334  1.00  0.00    -0.376 OA
ENDROOT
BRANCH   1   2
ATOM      2  C   UNL     1       2.573   4.843  -3.963  1.00  0.00     0.202 C 
BRANCH   2   3
ATOM      3  C   UNL     1       2.533   3.667  -2.975  1.00  0.00     0.261 C 
BRANCH   3   4
ATOM      4  O   UNL     1       3.326   3.832  -1.794  1.00  0.00    -0.460 OA
BRANCH   4   5
ATOM      5  C   UNL     1       4.394   2.999  -1.684  1.00  0.00     0.338 C 
ATOM      6  O   UNL     1       4.713   2.112  -2.456  1.00  0.00    -0.246 OA
BRANCH   5   7
ATOM      7  C   UNL     1       5.275   3.482  -0.596  1.00  0.00     0.062 A 
ATOM      8  C   UNL     1       5.603   4.332   1.659  1.00  0.00     0.040 A 
ATOM      9  C   UNL     1       6.976   4.434   1.397  1.00  0.00     0.026 A 
ATOM     10  C   UNL     1       4.754   3.906   0.625  1.00  0.00     0.041 A 
ATOM     11  C   UNL     1       7.498   4.048   0.159  1.00  0.00     0.003 A 
ATOM     12  C   UNL     1       6.652   3.543  -0.828  1.00  0.00     0.016 A 
BRANCH   8  13
ATOM     13  N   UNL     1       5.121   4.508   2.976  1.00  0.00    -0.340 N 
ATOM     14  H   UNL     1       5.478   5.266   3.495  1.00  0.00     0.168 HD
BRANCH  13  15
ATOM     15  C   UNL     1       4.166   3.677   3.603  1.00  0.00     0.142 A 
ATOM     16  C   UNL     1       2.842   1.807   3.460  1.00  0.00     0.241 A 
ATOM     17  N   UNL     1       3.800   2.574   2.935  1.00  0.00    -0.204 NA
ATOM     18  N   UNL     1       2.226   2.021   4.632  1.00  0.00    -0.222 NA
ATOM     19  C   UNL     1       2.633   3.092   5.319  1.00  0.00     0.077 A 
ATOM     20  C   UNL     1       3.603   3.998   4.849  1.00  0.00     0.043 A 
ATOM     21  C   UNL     1       2.069   3.314   6.568  1.00  0.00     0.029 A 
ATOM     22  C   UNL     1       3.945   5.126   5.640  1.00  0.00     0.014 A 
ATOM     23  C   UNL     1       2.430   4.406   7.360  1.00  0.00     0.002 A 
ATOM     24  C   UNL     1       3.364   5.319   6.892  1.00  0.00     0.001 A 
BRANCH  16  25
ATOM     25  C   UNL     1       2.453   0.630   2.633  1.00  0.00     0.376 C 
ATOM     26  O   UNL     1       3.240  -0.195   2.191  1.00  0.00    -0.242 OA
BRANCH  25  27
ATOM     27  O   UNL     1       1.122   0.696   2.357  1.00  0.00    -0.460 OA
BRANCH  27  28
ATOM     28  C   UNL     1       0.642  -0.303   1.445  1.00  0.00     0.230 C 
ATOM     29  C   UNL     1       0.968   0.059   0.005  1.00  0.00     0.049 C 
ENDBRANCH  27  28
ENDBRANCH  25  27
ENDBRANCH  16  25
ENDBRANCH  13  15
ENDBRANCH   8  13
ENDBRANCH   5   7
ENDBRANCH   4   5
ENDBRANCH   3   4
ENDBRANCH   2   3
ENDBRANCH   1   2
BRANCH   1  30
ATOM     30  C   UNL     1       4.771   5.768  -3.364  1.00  0.00     0.188 C 
BRANCH  30  31
ATOM     31  C   UNL     1       4.436   6.596  -2.106  1.00  0.00     0.188 C 
BRANCH  31  32
ATOM     32  O   UNL     1       3.104   6.981  -1.875  1.00  0.00    -0.376 OA
BRANCH  32  33
ATOM     33  C   UNL     1       2.507   8.018  -2.631  1.00  0.00     0.202 C 
BRANCH  33  34
ATOM     34  C   UNL     1       3.252   9.024  -3.530  1.00  0.00     0.261 C 
BRANCH  34  35
ATOM     35  O   UNL     1       4.552   8.669  -4.006  1.00  0.00    -0.460 OA
BRANCH  35  36
ATOM     36  C   UNL     1       5.581   9.351  -3.444  1.00  0.00     0.338 C 
ATOM     37  O   UNL     1       5.526  10.199  -2.573  1.00  0.00    -0.246 OA
BRANCH  36  38
ATOM     38  C   UNL     1       6.852   8.787  -3.935  1.00  0.00     0.060 A 
ATOM     39  C   UNL     1       7.680   8.106  -3.033  1.00  0.00     0.016 A 
ATOM     40  C   UNL     1       7.244   8.972  -5.261  1.00  0.00     0.016 A 
ATOM     41  C   UNL     1       8.918   7.622  -3.452  1.00  0.00     0.010 A 
ATOM     42  C   UNL     1       8.495   8.505  -5.673  1.00  0.00     0.010 A 
ATOM     43  C   UNL     1       9.349   7.853  -4.765  1.00  0.00    -0.014 A 
BRANCH  43  44
ATOM     44  C   UNL     1      10.753   7.563  -5.146  1.00  0.00     0.031 A 
ATOM     45  C   UNL     1      11.742   8.695  -5.168  1.00  0.00     0.074 A 
ATOM     46  C   UNL     1      11.146   6.318  -5.465  1.00  0.00     0.049 A 
ATOM     47  N   UNL     1      12.998   8.698  -5.536  1.00  0.00    -0.248 NA
ATOM     48  C   UNL     1      11.242  10.003  -4.718  1.00  0.00     0.031 C 
ATOM     49  C   UNL     1      10.293   5.132  -5.445  1.00  0.00     0.029 A 
ATOM     50  N   UNL     1      12.367   5.851  -5.885  1.00  0.00    -0.354 N 
ATOM     51  C   UNL     1      13.434  10.006  -5.373  1.00  0.00     0.074 A 
ATOM     52  C   UNL     1      12.303  10.775  -4.900  1.00  0.00     0.031 C 
ATOM     53  C   UNL     1      11.012   4.074  -5.857  1.00  0.00     0.029 A 
ATOM     54  C   UNL     1      12.363   4.515  -6.203  1.00  0.00     0.049 A 
ATOM     55  H   UNL     1      13.168   6.419  -5.953  1.00  0.00     0.167 HD
ATOM     56  C   UNL     1      14.669  10.518  -5.592  1.00  0.00     0.037 A 
ATOM     57  C   UNL     1      13.331   3.748  -6.742  1.00  0.00     0.037 A 
ATOM     58  C   UNL     1      15.791   9.752  -6.067  1.00  0.00     0.049 A 
ATOM     59  C   UNL     1      14.677   4.357  -7.049  1.00  0.00     0.074 A 
ATOM     60  C   UNL     1      17.088  10.173  -6.296  1.00  0.00     0.029 A 
ATOM     61  N   UNL     1      15.743   8.406  -6.400  1.00  0.00    -0.354 N 
ATOM     62  N   UNL     1      15.095   5.586  -6.860  1.00  0.00    -0.248 NA
ATOM     63  C   UNL     1      15.687   3.469  -7.642  1.00  0.00     0.031 C 
ATOM     64  C   UNL     1      17.810   9.099  -6.828  1.00  0.00     0.029 A 
ATOM     65  C   UNL     1      16.981   7.989  -6.865  1.00  0.00     0.049 A 
ATOM     66  H   UNL     1      14.948   7.831  -6.319  1.00  0.00     0.167 HD
ATOM     67  C   UNL     1      16.420   5.610  -7.279  1.00  0.00     0.074 A 
ATOM     68  C   UNL     1      16.741   4.270  -7.721  1.00  0.00     0.031 C 
ATOM     69  C   UNL     1      17.292   6.649  -7.295  1.00  0.00     0.037 A 
BRANCH  56  70
ATOM     70  C   UNL     1      14.861  11.988  -5.353  1.00  0.00     0.064 A 
ATOM     71  C   UNL     1      14.835  12.539  -4.062  1.00  0.00     0.173 A 
ATOM     72  C   UNL     1      15.099  12.855  -6.430  1.00  0.00     0.173 A 
ATOM     73  F   UNL     1      14.597  11.757  -2.998  1.00  0.00    -0.203 F 
ATOM     74  C   UNL     1      15.008  13.907  -3.864  1.00  0.00     0.198 A 
ATOM     75  C   UNL     1      15.305  14.216  -6.225  1.00  0.00     0.198 A 
ATOM     76  F   UNL     1      15.138  12.381  -7.685  1.00  0.00    -0.203 F 
ATOM     77  F   UNL     1      14.925  14.418  -2.627  1.00  0.00    -0.200 F 
ATOM     78  C   UNL     1      15.250  14.743  -4.943  1.00  0.00     0.200 A 
ATOM     79  F   UNL     1      15.554  15.020  -7.268  1.00  0.00    -0.200 F 
ATOM     80  F   UNL     1      15.423  16.057  -4.750  1.00  0.00    -0.200 F 
ENDBRANCH  56  70
BRANCH  57  81
ATOM     81  C   UNL     1      13.061   2.317  -7.047  1.00  0.00     0.064 A 
ATOM     82  C   UNL     1      13.712   1.291  -6.348  1.00  0.00     0.173 A 
ATOM     83  C   UNL     1      12.165   1.948  -8.062  1.00  0.00     0.173 A 
ATOM     84  F   UNL     1      14.600   1.593  -5.390  1.00  0.00    -0.203 F 
ATOM     85  C   UNL     1      13.493  -0.048  -6.667  1.00  0.00     0.198 A 
ATOM     86  C   UNL     1      11.923   0.608  -8.358  1.00  0.00     0.198 A 
ATOM     87  F   UNL     1      11.521   2.890  -8.766  1.00  0.00    -0.203 F 
ATOM     88  F   UNL     1      14.170  -1.007  -6.020  1.00  0.00    -0.200 F 
ATOM     89  C   UNL     1      12.594  -0.389  -7.666  1.00  0.00     0.200 A 
ATOM     90  F   UNL     1      11.047   0.284  -9.318  1.00  0.00    -0.200 F 
ATOM     91  F   UNL     1      12.384  -1.677  -7.971  1.00  0.00    -0.200 F 
ENDBRANCH  57  81
BRANCH  69  92
ATOM     92  C   UNL     1      18.694   6.373  -7.763  1.00  0.00     0.064 A 
ATOM     93  C   UNL     1      18.988   6.101  -9.107  1.00  0.00     0.173 A 
ATOM     94  C   UNL     1      19.766   6.428  -6.857  1.00  0.00     0.173 A 
ATOM     95  F   UNL     1      18.000   6.025 -10.012  1.00  0.00    -0.203 F 
ATOM     96  C   UNL     1      20.297   5.867  -9.522  1.00  0.00     0.198 A 
ATOM     97  C   UNL     1      21.077   6.227  -7.282  1.00  0.00     0.198 A 
ATOM     98  F   UNL     1      19.544   6.693  -5.561  1.00  0.00    -0.203 F 
ATOM     99  F   UNL     1      20.547   5.559 -10.802  1.00  0.00    -0.200 F 
ATOM    100  C   UNL     1      21.340   5.938  -8.611  1.00  0.00     0.200 A 
ATOM    101  F   UNL     1      22.085   6.315  -6.403  1.00  0.00    -0.200 F 
ATOM    102  F   UNL     1      22.600   5.723  -9.015  1.00  0.00    -0.200 F 
ENDBRANCH  69  92
ENDBRANCH  43  44
ENDBRANCH  36  38
ENDBRANCH  35  36
ENDBRANCH  34  35
ENDBRANCH  33  34
ENDBRANCH  32  33
ENDBRANCH  31  32
ENDBRANCH  30  31
ENDBRANCH   1  30
TORSDOF 22
