REMARK SMILES [NH3+][C@@]1(C(=O)OCCOCCOCCOC(=O)c2ccc(-c3c4nc(c(-c5c(F)c(F)c(F)c(F)c5F)c5ccc([nH]5)c(-c5c(F)c(F)c(F)c(F)c5F)c5nc(c(-c6c(F)c(F)c(F)c(F)c6F)c6ccc3[nH]6)C=C5)C=C4)cc2)CCC[C@@H](Oc2ccc3c(c2)OCO3)C1
REMARK SMILES IDX 9 1 8 2 7 3 6 4 5 5 3 6 4 7 2 8 80 9 94 10 81 11 83 12 82 13
REMARK SMILES IDX 1 14 84 18 85 19 86 20 90 21 87 22 89 23 88 24 91 25 93 26
REMARK SMILES IDX 92 27 10 28 11 29 12 30 13 31 14 32 15 33 16 34 17 35 18 36
REMARK SMILES IDX 79 37 19 38 78 39 20 40 21 41 22 42 72 43 23 44 77 45 71 46
REMARK SMILES IDX 73 47 24 48 76 49 70 50 69 51 25 53 57 54 37 55 56 56 38 57
REMARK SMILES IDX 41 58 55 59 74 60 39 61 40 62 54 64 75 65 42 66 26 67 27 68
REMARK SMILES IDX 35 69 28 70 29 71 33 72 36 73 30 74 31 75 34 76 32 77 58 78
REMARK SMILES IDX 59 79 67 80 60 81 61 82 65 83 68 84 62 85 63 86 66 87 64 88
REMARK SMILES IDX 43 89 44 90 52 91 45 92 46 93 50 94 53 95 47 96 48 97 51 98
REMARK SMILES IDX 49 99
REMARK H PARENT 1 15 1 16 1 17 73 52 41 63
REMARK Flexibility Score: inf
ROOT
ATOM      1  C   UNL     1      -3.524  -1.655   1.634  1.00  0.00     0.188 C 
ENDROOT
BRANCH   1   2
ATOM      2  O   UNL     1      -4.771  -1.004   1.837  1.00  0.00    -0.376 OA
BRANCH   2   3
ATOM      3  C   UNL     1      -5.269  -0.166   0.801  1.00  0.00     0.202 C 
BRANCH   3   4
ATOM      4  C   UNL     1      -4.481   1.118   0.520  1.00  0.00     0.261 C 
BRANCH   4   5
ATOM      5  O   UNL     1      -3.186   0.842  -0.033  1.00  0.00    -0.459 OA
BRANCH   5   6
ATOM      6  C   UNL     1      -2.078   1.187   0.696  1.00  0.00     0.368 C 
ATOM      7  O   UNL     1      -2.095   1.823   1.741  1.00  0.00    -0.245 OA
BRANCH   6   8
ATOM      8  C   UNL     1      -0.775   0.649   0.015  1.00  0.00     0.196 C 
ATOM      9  C   UNL     1       0.050  -0.209   0.986  1.00  0.00     0.081 C 
ATOM     10  C   UNL     1       0.049   1.863  -0.458  1.00  0.00     0.126 C 
ATOM     11  C   UNL     1       1.364  -0.683   0.358  1.00  0.00     0.011 C 
ATOM     12  C   UNL     1       1.504   1.591  -0.901  1.00  0.00     0.180 C 
ATOM     13  C   UNL     1       2.232   0.478  -0.124  1.00  0.00     0.046 C 
BRANCH   8  14
ATOM     14  N   UNL     1      -1.168  -0.262  -1.067  1.00  0.00    -0.343 N 
ATOM     15  H   UNL     1      -0.333  -0.625  -1.526  1.00  0.00     0.345 HD
ATOM     16  H   UNL     1      -1.737   0.243  -1.747  1.00  0.00     0.345 HD
ATOM     17  H   UNL     1      -1.708  -1.037  -0.681  1.00  0.00     0.345 HD
ENDBRANCH   8  14
BRANCH  12  18
ATOM     18  O   UNL     1       1.786   1.608  -2.326  1.00  0.00    -0.490 OA
BRANCH  18  19
ATOM     19  C   UNL     1       1.064   0.753  -3.103  1.00  0.00     0.123 A 
ATOM     20  C   UNL     1       1.552  -0.543  -3.343  1.00  0.00     0.050 A 
ATOM     21  C   UNL     1      -0.166   1.167  -3.620  1.00  0.00     0.097 A 
ATOM     22  C   UNL     1       0.733  -1.501  -3.950  1.00  0.00     0.054 A 
ATOM     23  C   UNL     1      -0.978   0.185  -4.145  1.00  0.00     0.169 A 
ATOM     24  C   UNL     1      -0.550  -1.119  -4.280  1.00  0.00     0.166 A 
ATOM     25  O   UNL     1      -2.315   0.313  -4.380  1.00  0.00    -0.453 OA
ATOM     26  O   UNL     1      -1.565  -1.954  -4.635  1.00  0.00    -0.454 OA
ATOM     27  C   UNL     1      -2.695  -1.081  -4.419  1.00  0.00     0.468 C 
ENDBRANCH  18  19
ENDBRANCH  12  18
ENDBRANCH   6   8
ENDBRANCH   5   6
ENDBRANCH   4   5
ENDBRANCH   3   4
ENDBRANCH   2   3
ENDBRANCH   1   2
BRANCH   1  28
ATOM     28  C   UNL     1      -3.306  -2.466   0.342  1.00  0.00     0.188 C 
BRANCH  28  29
ATOM     29  O   UNL     1      -4.460  -2.801  -0.387  1.00  0.00    -0.376 OA
BRANCH  29  30
ATOM     30  C   UNL     1      -5.241  -3.933  -0.082  1.00  0.00     0.202 C 
BRANCH  30  31
ATOM     31  C   UNL     1      -5.064  -4.866   1.130  1.00  0.00     0.261 C 
BRANCH  31  32
ATOM     32  O   UNL     1      -4.156  -4.480   2.164  1.00  0.00    -0.460 OA
BRANCH  32  33
ATOM     33  C   UNL     1      -2.998  -5.174   2.235  1.00  0.00     0.338 C 
ATOM     34  O   UNL     1      -2.628  -6.075   1.487  1.00  0.00    -0.246 OA
BRANCH  33  35
ATOM     35  C   UNL     1      -2.130  -4.591   3.275  1.00  0.00     0.060 A 
ATOM     36  C   UNL     1      -0.886  -4.072   2.893  1.00  0.00     0.016 A 
ATOM     37  C   UNL     1      -2.511  -4.585   4.619  1.00  0.00     0.016 A 
ATOM     38  C   UNL     1      -0.006  -3.579   3.859  1.00  0.00     0.010 A 
ATOM     39  C   UNL     1      -1.621  -4.102   5.588  1.00  0.00     0.010 A 
ATOM     40  C   UNL     1      -0.351  -3.622   5.218  1.00  0.00    -0.014 A 
BRANCH  40  41
ATOM     41  C   UNL     1       0.667  -3.299   6.253  1.00  0.00     0.031 A 
ATOM     42  C   UNL     1       1.418  -4.421   6.920  1.00  0.00     0.074 A 
ATOM     43  C   UNL     1       0.946  -2.026   6.588  1.00  0.00     0.049 A 
ATOM     44  N   UNL     1       2.337  -4.372   7.853  1.00  0.00    -0.248 NA
ATOM     45  C   UNL     1       1.087  -5.782   6.474  1.00  0.00     0.031 C 
ATOM     46  C   UNL     1       0.318  -0.842   6.008  1.00  0.00     0.029 A 
ATOM     47  N   UNL     1       1.832  -1.522   7.510  1.00  0.00    -0.354 N 
ATOM     48  C   UNL     1       2.694  -5.690   8.103  1.00  0.00     0.074 A 
ATOM     49  C   UNL     1       1.870  -6.519   7.248  1.00  0.00     0.031 C 
ATOM     50  C   UNL     1       0.831   0.253   6.596  1.00  0.00     0.029 A 
ATOM     51  C   UNL     1       1.804  -0.153   7.610  1.00  0.00     0.049 A 
ATOM     52  H   UNL     1       2.430  -2.090   8.049  1.00  0.00     0.167 HD
ATOM     53  C   UNL     1       3.630  -6.170   8.958  1.00  0.00     0.037 A 
ATOM     54  C   UNL     1       2.474   0.675   8.436  1.00  0.00     0.037 A 
ATOM     55  C   UNL     1       4.448  -5.357   9.820  1.00  0.00     0.049 A 
ATOM     56  C   UNL     1       3.461   0.111   9.429  1.00  0.00     0.074 A 
ATOM     57  C   UNL     1       5.434  -5.759  10.706  1.00  0.00     0.029 A 
ATOM     58  N   UNL     1       4.368  -3.976   9.916  1.00  0.00    -0.354 N 
ATOM     59  N   UNL     1       3.818  -1.134   9.631  1.00  0.00    -0.248 NA
ATOM     60  C   UNL     1       4.143   1.076  10.304  1.00  0.00     0.031 C 
ATOM     61  C   UNL     1       5.913  -4.627  11.375  1.00  0.00     0.029 A 
ATOM     62  C   UNL     1       5.268  -3.513  10.865  1.00  0.00     0.049 A 
ATOM     63  H   UNL     1       3.761  -3.408   9.388  1.00  0.00     0.167 HD
ATOM     64  C   UNL     1       4.781  -1.098  10.633  1.00  0.00     0.074 A 
ATOM     65  C   UNL     1       4.968   0.294  10.983  1.00  0.00     0.031 C 
ATOM     66  C   UNL     1       5.450  -2.127  11.212  1.00  0.00     0.037 A 
BRANCH  53  67
ATOM     67  C   UNL     1       3.804  -7.660   9.022  1.00  0.00     0.064 A 
ATOM     68  C   UNL     1       4.400  -8.377   7.974  1.00  0.00     0.173 A 
ATOM     69  C   UNL     1       3.401  -8.374  10.161  1.00  0.00     0.173 A 
ATOM     70  F   UNL     1       4.791  -7.743   6.859  1.00  0.00    -0.203 F 
ATOM     71  C   UNL     1       4.562  -9.758   8.053  1.00  0.00     0.198 A 
ATOM     72  C   UNL     1       3.591  -9.750  10.249  1.00  0.00     0.198 A 
ATOM     73  F   UNL     1       2.830  -7.735  11.193  1.00  0.00    -0.203 F 
ATOM     74  F   UNL     1       5.092 -10.430   7.022  1.00  0.00    -0.200 F 
ATOM     75  C   UNL     1       4.164 -10.442   9.193  1.00  0.00     0.200 A 
ATOM     76  F   UNL     1       3.217 -10.408  11.355  1.00  0.00    -0.200 F 
ATOM     77  F   UNL     1       4.327 -11.770   9.270  1.00  0.00    -0.200 F 
ENDBRANCH  53  67
BRANCH  54  78
ATOM     78  C   UNL     1       2.234   2.141   8.375  1.00  0.00     0.064 A 
ATOM     79  C   UNL     1       3.230   3.020   7.927  1.00  0.00     0.173 A 
ATOM     80  C   UNL     1       1.021   2.696   8.806  1.00  0.00     0.173 A 
ATOM     81  F   UNL     1       4.420   2.539   7.536  1.00  0.00    -0.203 F 
ATOM     82  C   UNL     1       3.030   4.399   7.933  1.00  0.00     0.198 A 
ATOM     83  C   UNL     1       0.811   4.074   8.784  1.00  0.00     0.198 A 
ATOM     84  F   UNL     1       0.039   1.900   9.255  1.00  0.00    -0.203 F 
ATOM     85  F   UNL     1       4.020   5.219   7.554  1.00  0.00    -0.200 F 
ATOM     86  C   UNL     1       1.819   4.924   8.356  1.00  0.00     0.200 A 
ATOM     87  F   UNL     1      -0.363   4.577   9.190  1.00  0.00    -0.200 F 
ATOM     88  F   UNL     1       1.628   6.250   8.366  1.00  0.00    -0.200 F 
ENDBRANCH  54  78
BRANCH  66  89
ATOM     89  C   UNL     1       6.471  -1.784  12.262  1.00  0.00     0.064 A 
ATOM     90  C   UNL     1       6.099  -1.285  13.520  1.00  0.00     0.173 A 
ATOM     91  C   UNL     1       7.840  -1.966  12.011  1.00  0.00     0.173 A 
ATOM     92  F   UNL     1       4.806  -1.079  13.809  1.00  0.00    -0.203 F 
ATOM     93  C   UNL     1       7.060  -0.944  14.470  1.00  0.00     0.198 A 
ATOM     94  C   UNL     1       8.796  -1.655  12.975  1.00  0.00     0.198 A 
ATOM     95  F   UNL     1       8.253  -2.449  10.830  1.00  0.00    -0.203 F 
ATOM     96  F   UNL     1       6.683  -0.410  15.640  1.00  0.00    -0.200 F 
ATOM     97  C   UNL     1       8.407  -1.133  14.199  1.00  0.00     0.200 A 
ATOM     98  F   UNL     1      10.096  -1.854  12.716  1.00  0.00    -0.200 F 
ATOM     99  F   UNL     1       9.329  -0.803  15.113  1.00  0.00    -0.200 F 
ENDBRANCH  66  89
ENDBRANCH  40  41
ENDBRANCH  33  35
ENDBRANCH  32  33
ENDBRANCH  31  32
ENDBRANCH  30  31
ENDBRANCH  29  30
ENDBRANCH  28  29
ENDBRANCH   1  28
TORSDOF 20
