REMARK SMILES O=C(OCCOCCOCCOC(=O)c1ccc(-n2cc(CSc3nc4ccccc4c(=O)n3-c3ccccc3)nn2)cc1)c1ccc(-c2c3nc(c(-c4c(F)c(F)c(F)c(F)c4F)c4ccc([nH]4)c(-c4c(F)c(F)c(F)c(F)c4F)c4nc(c(-c5c(F)c(F)c(F)c(F)c5F)c5ccc2[nH]5)C=C4)C=C3)cc1
REMARK SMILES IDX 9 1 8 2 7 3 6 4 5 5 4 6 3 7 2 8 1 9 45 10 46 11 107 12 47 13
REMARK SMILES IDX 106 14 48 15 49 16 50 17 100 18 51 19 105 20 99 21 101 22
REMARK SMILES IDX 52 23 104 24 98 25 97 26 53 28 85 29 65 30 84 31 66 32 69 33
REMARK SMILES IDX 83 34 102 35 67 36 68 37 82 39 103 40 70 41 54 42 55 43
REMARK SMILES IDX 63 44 56 45 57 46 61 47 64 48 58 49 59 50 62 51 60 52 86 53
REMARK SMILES IDX 87 54 95 55 88 56 89 57 93 58 96 59 90 60 91 61 94 62 92 63
REMARK SMILES IDX 71 64 72 65 80 66 73 67 74 68 78 69 81 70 75 71 76 72 79 73
REMARK SMILES IDX 77 74 10 75 11 76 12 77 13 78 14 79 15 80 16 81 44 82 17 83
REMARK SMILES IDX 43 84 18 85 19 86 20 87 42 88 21 89 41 90 22 91 23 92 24 93
REMARK SMILES IDX 25 94 34 95 26 96 32 97 27 98 31 99 33 100 28 101 30 102
REMARK SMILES IDX 29 103 35 104 36 105 40 106 37 107 39 108 38 109
REMARK H PARENT 101 27 69 38
REMARK Flexibility Score: inf
ROOT
ATOM      1  O   UNL     1       3.226   1.198  -3.247  1.00  0.00    -0.376 OA
ENDROOT
BRANCH   1   2
ATOM      2  C   UNL     1       2.642   1.381  -1.962  1.00  0.00     0.188 C 
BRANCH   2   3
ATOM      3  C   UNL     1       3.548   1.444  -0.711  1.00  0.00     0.188 C 
BRANCH   3   4
ATOM      4  O   UNL     1       4.889   1.067  -0.962  1.00  0.00    -0.376 OA
BRANCH   4   5
ATOM      5  C   UNL     1       5.356  -0.149  -0.414  1.00  0.00     0.202 C 
BRANCH   5   6
ATOM      6  C   UNL     1       4.652  -1.451  -0.811  1.00  0.00     0.261 C 
BRANCH   6   7
ATOM      7  O   UNL     1       3.246  -1.355  -1.077  1.00  0.00    -0.460 OA
BRANCH   7   8
ATOM      8  C   UNL     1       2.193  -1.661  -0.298  1.00  0.00     0.338 C 
ATOM      9  O   UNL     1       1.147  -2.059  -0.805  1.00  0.00    -0.246 OA
BRANCH   8  10
ATOM     10  C   UNL     1       2.161  -1.284   1.135  1.00  0.00     0.060 A 
ATOM     11  C   UNL     1       3.201  -1.510   2.034  1.00  0.00     0.016 A 
ATOM     12  C   UNL     1       0.934  -0.773   1.606  1.00  0.00     0.016 A 
ATOM     13  C   UNL     1       2.978  -1.347   3.396  1.00  0.00     0.010 A 
ATOM     14  C   UNL     1       0.710  -0.607   2.966  1.00  0.00     0.010 A 
ATOM     15  C   UNL     1       1.711  -0.977   3.859  1.00  0.00    -0.014 A 
BRANCH  15  16
ATOM     16  C   UNL     1       1.452  -1.160   5.283  1.00  0.00     0.031 A 
ATOM     17  C   UNL     1       2.162  -0.274   6.240  1.00  0.00     0.074 A 
ATOM     18  C   UNL     1       0.605  -2.114   5.721  1.00  0.00     0.049 A 
ATOM     19  N   UNL     1       2.981  -0.613   7.186  1.00  0.00    -0.248 NA
ATOM     20  C   UNL     1       1.959   1.173   6.110  1.00  0.00     0.031 C 
ATOM     21  C   UNL     1      -0.354  -2.898   4.937  1.00  0.00     0.029 A 
ATOM     22  N   UNL     1       0.368  -2.522   7.001  1.00  0.00    -0.354 N 
ATOM     23  C   UNL     1       3.278   0.559   7.879  1.00  0.00     0.074 A 
ATOM     24  C   UNL     1       2.700   1.638   7.117  1.00  0.00     0.031 C 
ATOM     25  C   UNL     1      -1.207  -3.524   5.775  1.00  0.00     0.029 A 
ATOM     26  C   UNL     1      -0.774  -3.292   7.142  1.00  0.00     0.049 A 
ATOM     27  H   UNL     1       0.956  -2.290   7.756  1.00  0.00     0.167 HD
ATOM     28  C   UNL     1       3.818   0.540   9.129  1.00  0.00     0.037 A 
ATOM     29  C   UNL     1      -1.372  -3.651   8.302  1.00  0.00     0.037 A 
ATOM     30  C   UNL     1       4.487  -0.703   9.409  1.00  0.00     0.049 A 
ATOM     31  C   UNL     1      -0.370  -3.547   9.389  1.00  0.00     0.074 A 
ATOM     32  C   UNL     1       5.541  -1.392   8.839  1.00  0.00     0.029 A 
ATOM     33  N   UNL     1       3.908  -1.591  10.279  1.00  0.00    -0.354 N 
ATOM     34  N   UNL     1       0.647  -4.349   9.533  1.00  0.00    -0.248 NA
ATOM     35  C   UNL     1      -0.283  -2.291  10.118  1.00  0.00     0.031 C 
ATOM     36  C   UNL     1       5.231  -2.772   9.024  1.00  0.00     0.029 A 
ATOM     37  C   UNL     1       4.017  -2.830   9.707  1.00  0.00     0.049 A 
ATOM     38  H   UNL     1       3.495  -1.378  11.147  1.00  0.00     0.167 HD
ATOM     39  C   UNL     1       1.665  -3.543  10.018  1.00  0.00     0.074 A 
ATOM     40  C   UNL     1       1.005  -2.322  10.466  1.00  0.00     0.031 C 
ATOM     41  C   UNL     1       2.974  -3.825   9.755  1.00  0.00     0.037 A 
BRANCH  28  42
ATOM     42  C   UNL     1       3.465   1.524  10.222  1.00  0.00     0.064 A 
ATOM     43  C   UNL     1       4.177   1.494  11.439  1.00  0.00     0.173 A 
ATOM     44  C   UNL     1       2.266   2.269  10.239  1.00  0.00     0.173 A 
ATOM     45  F   UNL     1       5.324   0.806  11.545  1.00  0.00    -0.203 F 
ATOM     46  C   UNL     1       3.678   2.086  12.603  1.00  0.00     0.198 A 
ATOM     47  C   UNL     1       1.799   2.904  11.390  1.00  0.00     0.198 A 
ATOM     48  F   UNL     1       1.447   2.321   9.183  1.00  0.00    -0.203 F 
ATOM     49  F   UNL     1       4.323   1.915  13.765  1.00  0.00    -0.200 F 
ATOM     50  C   UNL     1       2.485   2.783  12.580  1.00  0.00     0.200 A 
ATOM     51  F   UNL     1       0.633   3.565  11.351  1.00  0.00    -0.200 F 
ATOM     52  F   UNL     1       1.971   3.292  13.707  1.00  0.00    -0.200 F 
ENDBRANCH  28  42
BRANCH  29  53
ATOM     53  C   UNL     1      -2.823  -3.798   8.550  1.00  0.00     0.064 A 
ATOM     54  C   UNL     1      -3.306  -4.500   9.664  1.00  0.00     0.173 A 
ATOM     55  C   UNL     1      -3.765  -3.035   7.831  1.00  0.00     0.173 A 
ATOM     56  F   UNL     1      -2.465  -5.207  10.433  1.00  0.00    -0.203 F 
ATOM     57  C   UNL     1      -4.651  -4.435  10.041  1.00  0.00     0.198 A 
ATOM     58  C   UNL     1      -5.109  -2.983   8.199  1.00  0.00     0.198 A 
ATOM     59  F   UNL     1      -3.386  -2.252   6.811  1.00  0.00    -0.203 F 
ATOM     60  F   UNL     1      -5.067  -5.072  11.144  1.00  0.00    -0.200 F 
ATOM     61  C   UNL     1      -5.550  -3.673   9.311  1.00  0.00     0.200 A 
ATOM     62  F   UNL     1      -5.958  -2.213   7.503  1.00  0.00    -0.200 F 
ATOM     63  F   UNL     1      -6.827  -3.570   9.701  1.00  0.00    -0.200 F 
ENDBRANCH  29  53
BRANCH  41  64
ATOM     64  C   UNL     1       3.298  -5.176   9.191  1.00  0.00     0.064 A 
ATOM     65  C   UNL     1       2.854  -5.614   7.932  1.00  0.00     0.173 A 
ATOM     66  C   UNL     1       4.200  -5.996   9.883  1.00  0.00     0.173 A 
ATOM     67  F   UNL     1       2.082  -4.834   7.165  1.00  0.00    -0.203 F 
ATOM     68  C   UNL     1       3.253  -6.845   7.416  1.00  0.00     0.198 A 
ATOM     69  C   UNL     1       4.625  -7.209   9.349  1.00  0.00     0.198 A 
ATOM     70  F   UNL     1       4.708  -5.595  11.059  1.00  0.00    -0.203 F 
ATOM     71  F   UNL     1       2.807  -7.248   6.217  1.00  0.00    -0.200 F 
ATOM     72  C   UNL     1       4.142  -7.639   8.123  1.00  0.00     0.200 A 
ATOM     73  F   UNL     1       5.527  -7.949  10.009  1.00  0.00    -0.200 F 
ATOM     74  F   UNL     1       4.559  -8.804   7.607  1.00  0.00    -0.200 F 
ENDBRANCH  41  64
ENDBRANCH  15  16
ENDBRANCH   8  10
ENDBRANCH   7   8
ENDBRANCH   6   7
ENDBRANCH   5   6
ENDBRANCH   4   5
ENDBRANCH   3   4
ENDBRANCH   2   3
ENDBRANCH   1   2
BRANCH   1  75
ATOM     75  C   UNL     1       4.410   1.911  -3.577  1.00  0.00     0.202 C 
BRANCH  75  76
ATOM     76  C   UNL     1       4.381   3.441  -3.495  1.00  0.00     0.261 C 
BRANCH  76  77
ATOM     77  O   UNL     1       3.960   3.955  -2.219  1.00  0.00    -0.460 OA
BRANCH  77  78
ATOM     78  C   UNL     1       2.870   4.760  -2.246  1.00  0.00     0.338 C 
ATOM     79  O   UNL     1       2.253   5.151  -3.217  1.00  0.00    -0.246 OA
BRANCH  78  80
ATOM     80  C   UNL     1       2.451   5.073  -0.868  1.00  0.00     0.060 A 
ATOM     81  C   UNL     1       1.369   4.383  -0.306  1.00  0.00     0.018 A 
ATOM     82  C   UNL     1       3.032   6.149  -0.199  1.00  0.00     0.018 A 
ATOM     83  C   UNL     1       0.853   4.768   0.928  1.00  0.00     0.029 A 
ATOM     84  C   UNL     1       2.464   6.591   1.000  1.00  0.00     0.029 A 
ATOM     85  C   UNL     1       1.351   5.921   1.539  1.00  0.00     0.066 A 
BRANCH  85  86
ATOM     86  N   UNL     1       0.592   6.500   2.580  1.00  0.00    -0.220 N 
ATOM     87  C   UNL     1       0.460   7.837   2.844  1.00  0.00     0.141 A 
ATOM     88  N   UNL     1      -0.267   5.800   3.358  1.00  0.00    -0.062 NA
ATOM     89  C   UNL     1      -0.622   7.927   3.693  1.00  0.00     0.093 A 
ATOM     90  N   UNL     1      -0.999   6.663   4.054  1.00  0.00    -0.134 NA
BRANCH  89  91
ATOM     91  C   UNL     1      -1.216   9.139   4.289  1.00  0.00     0.138 C 
BRANCH  91  92
ATOM     92  S   UNL     1      -2.788   9.806   3.745  1.00  0.00    -0.081 SA
BRANCH  92  93
ATOM     93  C   UNL     1      -3.329   9.111   2.238  1.00  0.00     0.176 A 
ATOM     94  N   UNL     1      -4.618   8.921   2.234  1.00  0.00    -0.223 NA
ATOM     95  N   UNL     1      -2.538   8.813   1.135  1.00  0.00    -0.255 N 
ATOM     96  C   UNL     1      -5.208   8.342   1.106  1.00  0.00     0.079 A 
ATOM     97  C   UNL     1      -2.982   7.708   0.396  1.00  0.00     0.266 A 
ATOM     98  C   UNL     1      -6.584   8.427   0.891  1.00  0.00     0.029 A 
ATOM     99  C   UNL     1      -4.438   7.615   0.212  1.00  0.00     0.066 A 
ATOM    100  O   UNL     1      -2.279   6.824  -0.090  1.00  0.00    -0.268 OA
ATOM    101  C   UNL     1      -7.175   7.755  -0.186  1.00  0.00     0.002 A 
ATOM    102  C   UNL     1      -5.015   6.903  -0.845  1.00  0.00     0.016 A 
ATOM    103  C   UNL     1      -6.394   6.973  -1.040  1.00  0.00     0.001 A 
BRANCH  95 104
ATOM    104  C   UNL     1      -1.356   9.521   0.675  1.00  0.00     0.051 A 
ATOM    105  C   UNL     1      -0.726   9.152  -0.533  1.00  0.00     0.027 A 
ATOM    106  C   UNL     1      -0.808  10.640   1.317  1.00  0.00     0.027 A 
ATOM    107  C   UNL     1       0.458   9.749  -0.981  1.00  0.00     0.002 A 
ATOM    108  C   UNL     1       0.404  11.215   0.903  1.00  0.00     0.002 A 
ATOM    109  C   UNL     1       1.051  10.753  -0.234  1.00  0.00     0.000 A 
ENDBRANCH  95 104
ENDBRANCH  92  93
ENDBRANCH  91  92
ENDBRANCH  89  91
ENDBRANCH  85  86
ENDBRANCH  78  80
ENDBRANCH  77  78
ENDBRANCH  76  77
ENDBRANCH  75  76
ENDBRANCH   1  75
TORSDOF 22
