REMARK SMILES CCCN1C(=O)/C(=C\c2ccc(OC)c(OC)c2C(=O)OCCOCCOCCOC(=O)c2ccc(-c3c4nc(c(-c5c(F)c(F)c(F)c(F)c5F)c5ccc([nH]5)c(-c5c(F)c(F)c(F)c(F)c5F)c5nc(c(-c6c(F)c(F)c(F)c(F)c6F)c6ccc3[nH]6)C=C5)C=C4)cc2)S/C1=[NH+]\c1nccs1
REMARK SMILES IDX 25 1 24 2 23 3 22 4 21 5 19 6 20 7 18 8 9 9 10 10 11 11
REMARK SMILES IDX 15 12 12 13 8 14 4 15 5 16 97 17 6 18 7 19 96 20 98 21 3 23
REMARK SMILES IDX 2 24 1 25 99 26 100 27 103 28 101 29 102 30 16 31 17 32
REMARK SMILES IDX 13 33 14 34 26 35 27 36 28 37 29 38 30 39 31 40 32 41 33 42
REMARK SMILES IDX 34 43 95 44 35 45 94 46 36 47 37 48 38 49 88 50 39 51 93 52
REMARK SMILES IDX 87 53 89 54 40 55 92 56 86 57 85 58 41 60 73 61 53 62 72 63
REMARK SMILES IDX 54 64 57 65 71 66 90 67 55 68 56 69 70 71 91 72 58 73 42 74
REMARK SMILES IDX 43 75 51 76 44 77 45 78 49 79 52 80 46 81 47 82 50 83 48 84
REMARK SMILES IDX 74 85 75 86 83 87 76 88 77 89 81 90 84 91 78 92 79 93 82 94
REMARK SMILES IDX 80 95 59 96 60 97 68 98 61 99 62 100 66 101 69 102 63 103
REMARK SMILES IDX 64 104 67 105 65 106
REMARK H PARENT 98 22 89 59 57 70
REMARK Flexibility Score: inf
ROOT
ATOM      1  C   UNL     1      -1.912   3.244  -1.814  1.00  0.00     0.188 C 
ENDROOT
BRANCH   1   2
ATOM      2  O   UNL     1      -2.734   2.237  -1.247  1.00  0.00    -0.376 OA
BRANCH   2   3
ATOM      3  C   UNL     1      -2.042   1.083  -0.787  1.00  0.00     0.202 C 
BRANCH   3   4
ATOM      4  C   UNL     1      -1.290   1.334   0.510  1.00  0.00     0.261 C 
BRANCH   4   5
ATOM      5  O   UNL     1      -0.235   2.306   0.418  1.00  0.00    -0.460 OA
BRANCH   5   6
ATOM      6  C   UNL     1       0.873   2.043  -0.321  1.00  0.00     0.342 C 
ATOM      7  O   UNL     1       0.989   1.075  -1.036  1.00  0.00    -0.246 OA
BRANCH   6   8
ATOM      8  C   UNL     1       1.831   3.202  -0.203  1.00  0.00     0.113 A 
ATOM      9  C   UNL     1       1.879   4.014   0.969  1.00  0.00    -0.006 A 
ATOM     10  C   UNL     1       2.708   5.143   0.981  1.00  0.00     0.013 A 
ATOM     11  C   UNL     1       3.509   5.448  -0.115  1.00  0.00     0.051 A 
ATOM     12  C   UNL     1       2.676   3.512  -1.308  1.00  0.00     0.175 A 
ATOM     13  C   UNL     1       3.518   4.640  -1.256  1.00  0.00     0.161 A 
BRANCH   9  14
ATOM     14  C   UNL     1       1.073   3.839   2.199  1.00  0.00     0.032 C 
ATOM     15  N   UNL     1       0.924   0.413   3.308  1.00  0.00    -0.219 N 
ATOM     16  C   UNL     1       1.669   1.435   2.755  1.00  0.00     0.321 C 
ATOM     17  C   UNL     1      -0.180   0.787   4.043  1.00  0.00     0.271 C 
ATOM     18  O   UNL     1       2.745   1.326   2.186  1.00  0.00    -0.250 OA
ATOM     19  C   UNL     1       0.964   2.732   2.949  1.00  0.00     0.100 C 
ATOM     20  S   UNL     1      -0.248   2.539   4.159  1.00  0.00    -0.012 SA
ATOM     21  N   UNL     1      -0.980  -0.086   4.557  1.00  0.00    -0.228 N 
ATOM     22  H   UNL     1      -0.824  -1.050   4.429  1.00  0.00     0.268 HD
BRANCH  15  23
ATOM     23  C   UNL     1       1.340  -0.985   3.175  1.00  0.00     0.206 C 
BRANCH  23  24
ATOM     24  C   UNL     1       0.721  -1.702   1.968  1.00  0.00     0.035 C 
ATOM     25  C   UNL     1       1.484  -1.453   0.676  1.00  0.00     0.007 C 
ENDBRANCH  23  24
ENDBRANCH  15  23
BRANCH  21  26
ATOM     26  C   UNL     1      -2.037   0.358   5.275  1.00  0.00     0.319 A 
ATOM     27  N   UNL     1      -3.057   1.073   4.845  1.00  0.00    -0.101 NA
ATOM     28  S   UNL     1      -2.138  -0.097   6.942  1.00  0.00    -0.070 S 
ATOM     29  C   UNL     1      -3.937   1.326   5.880  1.00  0.00     0.219 A 
ATOM     30  C   UNL     1      -3.602   0.772   7.094  1.00  0.00     0.110 A 
ENDBRANCH  21  26
ENDBRANCH   9  14
BRANCH  12  31
ATOM     31  O   UNL     1       2.800   2.653  -2.372  1.00  0.00    -0.492 OA
ATOM     32  C   UNL     1       1.722   2.719  -3.303  1.00  0.00     0.278 C 
ENDBRANCH  12  31
BRANCH  13  33
ATOM     33  O   UNL     1       4.418   5.101  -2.178  1.00  0.00    -0.493 OA
ATOM     34  C   UNL     1       4.399   4.597  -3.501  1.00  0.00     0.278 C 
ENDBRANCH  13  33
ENDBRANCH   6   8
ENDBRANCH   5   6
ENDBRANCH   4   5
ENDBRANCH   3   4
ENDBRANCH   2   3
ENDBRANCH   1   2
BRANCH   1  35
ATOM     35  C   UNL     1      -1.686   4.490  -0.930  1.00  0.00     0.188 C 
BRANCH  35  36
ATOM     36  O   UNL     1      -2.628   4.874   0.060  1.00  0.00    -0.376 OA
BRANCH  36  37
ATOM     37  C   UNL     1      -4.004   4.606  -0.149  1.00  0.00     0.202 C 
BRANCH  37  38
ATOM     38  C   UNL     1      -4.701   5.338  -1.303  1.00  0.00     0.261 C 
BRANCH  38  39
ATOM     39  O   UNL     1      -4.030   5.221  -2.572  1.00  0.00    -0.460 OA
BRANCH  39  40
ATOM     40  C   UNL     1      -3.374   6.331  -2.990  1.00  0.00     0.338 C 
ATOM     41  O   UNL     1      -3.370   7.428  -2.455  1.00  0.00    -0.246 OA
BRANCH  40  42
ATOM     42  C   UNL     1      -2.474   6.007  -4.123  1.00  0.00     0.060 A 
ATOM     43  C   UNL     1      -1.147   6.454  -4.045  1.00  0.00     0.016 A 
ATOM     44  C   UNL     1      -2.917   5.335  -5.264  1.00  0.00     0.016 A 
ATOM     45  C   UNL     1      -0.280   6.290  -5.125  1.00  0.00     0.010 A 
ATOM     46  C   UNL     1      -2.053   5.192  -6.361  1.00  0.00     0.010 A 
ATOM     47  C   UNL     1      -0.746   5.713  -6.313  1.00  0.00    -0.014 A 
BRANCH  47  48
ATOM     48  C   UNL     1       0.057   5.887  -7.552  1.00  0.00     0.031 A 
ATOM     49  C   UNL     1      -0.244   7.068  -8.435  1.00  0.00     0.074 A 
ATOM     50  C   UNL     1       1.078   5.069  -7.862  1.00  0.00     0.049 A 
ATOM     51  N   UNL     1       0.342   7.454  -9.541  1.00  0.00    -0.248 NA
ATOM     52  C   UNL     1      -1.359   7.931  -8.013  1.00  0.00     0.031 C 
ATOM     53  C   UNL     1       1.489   3.905  -7.085  1.00  0.00     0.029 A 
ATOM     54  N   UNL     1       1.958   5.098  -8.917  1.00  0.00    -0.354 N 
ATOM     55  C   UNL     1      -0.333   8.598  -9.945  1.00  0.00     0.074 A 
ATOM     56  C   UNL     1      -1.392   8.828  -8.986  1.00  0.00     0.031 C 
ATOM     57  C   UNL     1       2.549   3.333  -7.683  1.00  0.00     0.029 A 
ATOM     58  C   UNL     1       2.871   4.072  -8.904  1.00  0.00     0.049 A 
ATOM     59  H   UNL     1       1.936   5.790  -9.617  1.00  0.00     0.167 HD
ATOM     60  C   UNL     1      -0.089   9.394 -11.013  1.00  0.00     0.037 A 
ATOM     61  C   UNL     1       3.842   3.760  -9.785  1.00  0.00     0.037 A 
ATOM     62  C   UNL     1       0.959   9.173 -11.973  1.00  0.00     0.049 A 
ATOM     63  C   UNL     1       4.058   4.632 -10.998  1.00  0.00     0.074 A 
ATOM     64  C   UNL     1       1.288   9.934 -13.080  1.00  0.00     0.029 A 
ATOM     65  N   UNL     1       1.843   8.106 -11.943  1.00  0.00    -0.354 N 
ATOM     66  N   UNL     1       3.435   5.729 -11.353  1.00  0.00    -0.248 NA
ATOM     67  C   UNL     1       5.119   4.221 -11.930  1.00  0.00     0.031 C 
ATOM     68  C   UNL     1       2.343   9.302 -13.747  1.00  0.00     0.029 A 
ATOM     69  C   UNL     1       2.705   8.177 -13.025  1.00  0.00     0.049 A 
ATOM     70  H   UNL     1       1.857   7.402 -11.254  1.00  0.00     0.167 HD
ATOM     71  C   UNL     1       4.045   6.154 -12.528  1.00  0.00     0.074 A 
ATOM     72  C   UNL     1       5.098   5.204 -12.818  1.00  0.00     0.031 C 
ATOM     73  C   UNL     1       3.758   7.232 -13.299  1.00  0.00     0.037 A 
BRANCH  60  74
ATOM     74  C   UNL     1      -0.996  10.572 -11.211  1.00  0.00     0.064 A 
ATOM     75  C   UNL     1      -0.936  11.696 -10.375  1.00  0.00     0.173 A 
ATOM     76  C   UNL     1      -1.919  10.585 -12.267  1.00  0.00     0.173 A 
ATOM     77  F   UNL     1      -0.083  11.723  -9.340  1.00  0.00    -0.203 F 
ATOM     78  C   UNL     1      -1.785  12.781 -10.575  1.00  0.00     0.198 A 
ATOM     79  C   UNL     1      -2.747  11.683 -12.481  1.00  0.00     0.198 A 
ATOM     80  F   UNL     1      -2.015   9.534 -13.095  1.00  0.00    -0.203 F 
ATOM     81  F   UNL     1      -1.744  13.826  -9.736  1.00  0.00    -0.200 F 
ATOM     82  C   UNL     1      -2.684  12.777 -11.631  1.00  0.00     0.200 A 
ATOM     83  F   UNL     1      -3.608  11.682 -13.507  1.00  0.00    -0.200 F 
ATOM     84  F   UNL     1      -3.496  13.825 -11.825  1.00  0.00    -0.200 F 
ENDBRANCH  60  74
BRANCH  61  85
ATOM     85  C   UNL     1       4.688   2.556  -9.570  1.00  0.00     0.064 A 
ATOM     86  C   UNL     1       6.056   2.672  -9.282  1.00  0.00     0.173 A 
ATOM     87  C   UNL     1       4.156   1.264  -9.695  1.00  0.00     0.173 A 
ATOM     88  F   UNL     1       6.618   3.885  -9.183  1.00  0.00    -0.203 F 
ATOM     89  C   UNL     1       6.862   1.543  -9.149  1.00  0.00     0.198 A 
ATOM     90  C   UNL     1       4.958   0.136  -9.534  1.00  0.00     0.198 A 
ATOM     91  F   UNL     1       2.856   1.098  -9.978  1.00  0.00    -0.203 F 
ATOM     92  F   UNL     1       8.177   1.684  -8.930  1.00  0.00    -0.200 F 
ATOM     93  C   UNL     1       6.312   0.276  -9.271  1.00  0.00     0.200 A 
ATOM     94  F   UNL     1       4.420  -1.086  -9.646  1.00  0.00    -0.200 F 
ATOM     95  F   UNL     1       7.088  -0.809  -9.148  1.00  0.00    -0.200 F 
ENDBRANCH  61  85
BRANCH  73  96
ATOM     96  C   UNL     1       4.620   7.472 -14.506  1.00  0.00     0.064 A 
ATOM     97  C   UNL     1       4.549   6.650 -15.640  1.00  0.00     0.173 A 
ATOM     98  C   UNL     1       5.507   8.559 -14.539  1.00  0.00     0.173 A 
ATOM     99  F   UNL     1       3.727   5.590 -15.656  1.00  0.00    -0.203 F 
ATOM    100  C   UNL     1       5.357   6.889 -16.750  1.00  0.00     0.198 A 
ATOM    101  C   UNL     1       6.291   8.813 -15.661  1.00  0.00     0.198 A 
ATOM    102  F   UNL     1       5.607   9.383 -13.484  1.00  0.00    -0.203 F 
ATOM    103  F   UNL     1       5.310   6.060 -17.801  1.00  0.00    -0.200 F 
ATOM    104  C   UNL     1       6.222   7.973 -16.762  1.00  0.00     0.200 A 
ATOM    105  F   UNL     1       7.115   9.870 -15.676  1.00  0.00    -0.200 F 
ATOM    106  F   UNL     1       6.996   8.203 -17.831  1.00  0.00    -0.200 F 
ENDBRANCH  73  96
ENDBRANCH  47  48
ENDBRANCH  40  42
ENDBRANCH  39  40
ENDBRANCH  38  39
ENDBRANCH  37  38
ENDBRANCH  36  37
ENDBRANCH  35  36
ENDBRANCH   1  35
TORSDOF 23
