REMARK SMILES CCCC[C@@H](Sc1nc(OCCC2CCCCC2)cc(OCCC2CCCCC2)n1)C(=O)OCCOCCOCCOC(=O)c1ccc(-c2c3nc(c(-c4c(F)c(F)c(F)c(F)c4F)c4ccc([nH]4)c(-c4c(F)c(F)c(F)c(F)c4F)c4nc(c(-c5c(F)c(F)c(F)c(F)c5F)c5ccc2[nH]5)C=C4)C=C3)cc1
REMARK SMILES IDX 35 1 34 2 33 3 31 4 32 5 5 6 4 7 3 8 2 9 1 10 6 11 7 12 8 13
REMARK SMILES IDX 30 14 9 15 20 16 19 17 10 18 11 19 12 20 13 21 14 22 18 23
REMARK SMILES IDX 15 24 17 25 16 26 21 27 22 28 23 29 24 30 25 31 29 32 26 33
REMARK SMILES IDX 28 34 27 35 36 36 37 37 38 38 39 39 40 40 41 41 42 42 43 43
REMARK SMILES IDX 44 44 45 45 46 46 107 47 47 48 106 49 48 50 49 51 50 52
REMARK SMILES IDX 100 53 51 54 105 55 99 56 101 57 52 58 104 59 98 60 97 61
REMARK SMILES IDX 53 63 85 64 65 65 84 66 66 67 69 68 83 69 102 70 67 71 68 72
REMARK SMILES IDX 82 74 103 75 70 76 54 77 55 78 63 79 56 80 57 81 61 82 64 83
REMARK SMILES IDX 58 84 59 85 62 86 60 87 86 88 87 89 95 90 88 91 89 92 93 93
REMARK SMILES IDX 96 94 90 95 91 96 94 97 92 98 71 99 72 100 80 101 73 102
REMARK SMILES IDX 74 103 78 104 81 105 75 106 76 107 79 108 77 109
REMARK H PARENT 101 62 69 73
REMARK Flexibility Score: inf
ROOT
ATOM      1  C   UNL     1      -2.266   2.861  -5.753  1.00  0.00     0.202 C 
ENDROOT
BRANCH   1   2
ATOM      2  C   UNL     1      -2.406   3.988  -4.716  1.00  0.00     0.261 C 
BRANCH   2   3
ATOM      3  O   UNL     1      -1.572   3.872  -3.546  1.00  0.00    -0.462 OA
BRANCH   3   4
ATOM      4  C   UNL     1      -2.218   3.500  -2.411  1.00  0.00     0.319 C 
ATOM      5  O   UNL     1      -3.412   3.207  -2.365  1.00  0.00    -0.251 OA
BRANCH   4   6
ATOM      6  C   UNL     1      -1.344   3.496  -1.156  1.00  0.00     0.164 C 
BRANCH   6   7
ATOM      7  C   UNL     1       0.195   3.503  -1.363  1.00  0.00     0.027 C 
BRANCH   7   8
ATOM      8  C   UNL     1       1.104   2.956  -0.231  1.00  0.00     0.001 C 
BRANCH   8   9
ATOM      9  C   UNL     1       0.901   1.499   0.222  1.00  0.00    -0.003 C 
ATOM     10  C   UNL     1       1.699   0.471  -0.546  1.00  0.00     0.004 C 
ENDBRANCH   8   9
ENDBRANCH   7   8
ENDBRANCH   6   7
BRANCH   6  11
ATOM     11  S   UNL     1      -1.989   4.979  -0.257  1.00  0.00    -0.071 SA
BRANCH  11  12
ATOM     12  C   UNL     1      -2.128   4.315   1.377  1.00  0.00     0.195 A 
ATOM     13  N   UNL     1      -2.639   5.144   2.297  1.00  0.00    -0.187 NA
ATOM     14  N   UNL     1      -1.313   3.290   1.633  1.00  0.00    -0.187 NA
ATOM     15  C   UNL     1      -2.059   5.095   3.494  1.00  0.00     0.221 A 
ATOM     16  C   UNL     1      -0.713   3.307   2.813  1.00  0.00     0.221 A 
ATOM     17  C   UNL     1      -0.976   4.288   3.715  1.00  0.00     0.136 A 
BRANCH  15  18
ATOM     18  O   UNL     1      -2.628   5.901   4.445  1.00  0.00    -0.477 OA
BRANCH  18  19
ATOM     19  C   UNL     1      -1.796   6.388   5.497  1.00  0.00     0.231 C 
BRANCH  19  20
ATOM     20  C   UNL     1      -1.962   5.670   6.862  1.00  0.00     0.045 C 
BRANCH  20  21
ATOM     21  C   UNL     1      -1.887   4.133   6.841  1.00  0.00    -0.008 C 
ATOM     22  C   UNL     1      -1.133   3.501   8.017  1.00  0.00     0.004 C 
ATOM     23  C   UNL     1      -3.244   3.454   6.679  1.00  0.00     0.004 C 
ATOM     24  C   UNL     1      -0.895   2.006   7.755  1.00  0.00     0.000 C 
ATOM     25  C   UNL     1      -3.027   1.990   6.298  1.00  0.00     0.000 C 
ATOM     26  C   UNL     1      -2.140   1.244   7.296  1.00  0.00     0.000 C 
ENDBRANCH  20  21
ENDBRANCH  19  20
ENDBRANCH  18  19
ENDBRANCH  15  18
BRANCH  16  27
ATOM     27  O   UNL     1       0.382   2.505   2.882  1.00  0.00    -0.477 OA
BRANCH  27  28
ATOM     28  C   UNL     1       0.654   1.752   4.058  1.00  0.00     0.231 C 
BRANCH  28  29
ATOM     29  C   UNL     1       2.135   1.960   4.460  1.00  0.00     0.045 C 
BRANCH  29  30
ATOM     30  C   UNL     1       2.485   3.442   4.672  1.00  0.00    -0.008 C 
ATOM     31  C   UNL     1       1.765   4.015   5.889  1.00  0.00     0.004 C 
ATOM     32  C   UNL     1       3.971   3.767   4.875  1.00  0.00     0.004 C 
ATOM     33  C   UNL     1       1.796   5.531   5.801  1.00  0.00     0.000 C 
ATOM     34  C   UNL     1       4.173   5.295   4.949  1.00  0.00     0.000 C 
ATOM     35  C   UNL     1       3.227   6.019   5.917  1.00  0.00     0.000 C 
ENDBRANCH  29  30
ENDBRANCH  28  29
ENDBRANCH  27  28
ENDBRANCH  16  27
ENDBRANCH  11  12
ENDBRANCH   6  11
ENDBRANCH   4   6
ENDBRANCH   3   4
ENDBRANCH   2   3
ENDBRANCH   1   2
BRANCH   1  36
ATOM     36  O   UNL     1      -2.523   1.518  -5.349  1.00  0.00    -0.376 OA
BRANCH  36  37
ATOM     37  C   UNL     1      -1.816   0.996  -4.237  1.00  0.00     0.188 C 
BRANCH  37  38
ATOM     38  C   UNL     1      -0.295   1.149  -4.204  1.00  0.00     0.188 C 
BRANCH  38  39
ATOM     39  O   UNL     1       0.222   2.207  -4.979  1.00  0.00    -0.376 OA
BRANCH  39  40
ATOM     40  C   UNL     1       1.474   2.023  -5.631  1.00  0.00     0.202 C 
BRANCH  40  41
ATOM     41  C   UNL     1       1.628   0.849  -6.632  1.00  0.00     0.261 C 
BRANCH  41  42
ATOM     42  O   UNL     1       1.229  -0.469  -6.194  1.00  0.00    -0.460 OA
BRANCH  42  43
ATOM     43  C   UNL     1       1.930  -1.012  -5.172  1.00  0.00     0.338 C 
ATOM     44  O   UNL     1       2.963  -0.562  -4.688  1.00  0.00    -0.246 OA
BRANCH  43  45
ATOM     45  C   UNL     1       1.102  -2.053  -4.500  1.00  0.00     0.060 A 
ATOM     46  C   UNL     1       0.872  -1.891  -3.128  1.00  0.00     0.016 A 
ATOM     47  C   UNL     1       0.539  -3.145  -5.155  1.00  0.00     0.016 A 
ATOM     48  C   UNL     1       0.161  -2.830  -2.384  1.00  0.00     0.010 A 
ATOM     49  C   UNL     1      -0.152  -4.116  -4.406  1.00  0.00     0.010 A 
ATOM     50  C   UNL     1      -0.296  -3.991  -3.007  1.00  0.00    -0.014 A 
BRANCH  50  51
ATOM     51  C   UNL     1      -0.631  -5.167  -2.157  1.00  0.00     0.031 A 
ATOM     52  C   UNL     1       0.412  -6.249  -2.019  1.00  0.00     0.074 A 
ATOM     53  C   UNL     1      -1.766  -5.250  -1.437  1.00  0.00     0.049 A 
ATOM     54  N   UNL     1       0.351  -7.405  -1.409  1.00  0.00    -0.248 NA
ATOM     55  C   UNL     1       1.708  -5.982  -2.665  1.00  0.00     0.031 C 
ATOM     56  C   UNL     1      -2.814  -4.235  -1.381  1.00  0.00     0.029 A 
ATOM     57  N   UNL     1      -2.221  -6.249  -0.607  1.00  0.00    -0.354 N 
ATOM     58  C   UNL     1       1.583  -8.011  -1.627  1.00  0.00     0.074 A 
ATOM     59  C   UNL     1       2.361  -7.110  -2.446  1.00  0.00     0.031 C 
ATOM     60  C   UNL     1      -3.798  -4.668  -0.572  1.00  0.00     0.029 A 
ATOM     61  C   UNL     1      -3.470  -6.009  -0.087  1.00  0.00     0.049 A 
ATOM     62  H   UNL     1      -1.700  -7.060  -0.405  1.00  0.00     0.167 HD
ATOM     63  C   UNL     1       2.031  -9.208  -1.180  1.00  0.00     0.037 A 
ATOM     64  C   UNL     1      -4.266  -6.795   0.666  1.00  0.00     0.037 A 
ATOM     65  C   UNL     1       1.269 -10.097  -0.345  1.00  0.00     0.049 A 
ATOM     66  C   UNL     1      -3.782  -8.166   1.076  1.00  0.00     0.074 A 
ATOM     67  C   UNL     1       1.632 -11.334   0.157  1.00  0.00     0.029 A 
ATOM     68  N   UNL     1      -0.015  -9.841   0.114  1.00  0.00    -0.354 N 
ATOM     69  N   UNL     1      -2.629  -8.748   0.843  1.00  0.00    -0.248 NA
ATOM     70  C   UNL     1      -4.715  -8.991   1.859  1.00  0.00     0.031 C 
ATOM     71  C   UNL     1       0.546 -11.853   0.870  1.00  0.00     0.029 A 
ATOM     72  C   UNL     1      -0.468 -10.908   0.873  1.00  0.00     0.049 A 
ATOM     73  H   UNL     1      -0.529  -9.022  -0.073  1.00  0.00     0.167 HD
ATOM     74  C   UNL     1      -2.687  -9.985   1.476  1.00  0.00     0.074 A 
ATOM     75  C   UNL     1      -3.980 -10.061   2.121  1.00  0.00     0.031 C 
ATOM     76  C   UNL     1      -1.754 -10.970   1.519  1.00  0.00     0.037 A 
BRANCH  63  77
ATOM     77  C   UNL     1       3.398  -9.643  -1.627  1.00  0.00     0.064 A 
ATOM     78  C   UNL     1       4.568  -9.012  -1.175  1.00  0.00     0.173 A 
ATOM     79  C   UNL     1       3.538 -10.719  -2.517  1.00  0.00     0.173 A 
ATOM     80  F   UNL     1       4.491  -7.965  -0.340  1.00  0.00    -0.203 F 
ATOM     81  C   UNL     1       5.821  -9.420  -1.625  1.00  0.00     0.198 A 
ATOM     82  C   UNL     1       4.794 -11.148  -2.936  1.00  0.00     0.198 A 
ATOM     83  F   UNL     1       2.453 -11.359  -2.980  1.00  0.00    -0.203 F 
ATOM     84  F   UNL     1       6.920  -8.762  -1.228  1.00  0.00    -0.200 F 
ATOM     85  C   UNL     1       5.934 -10.492  -2.497  1.00  0.00     0.200 A 
ATOM     86  F   UNL     1       4.901 -12.192  -3.768  1.00  0.00    -0.200 F 
ATOM     87  F   UNL     1       7.141 -10.887  -2.924  1.00  0.00    -0.200 F 
ENDBRANCH  63  77
BRANCH  64  88
ATOM     88  C   UNL     1      -5.625  -6.332   1.063  1.00  0.00     0.064 A 
ATOM     89  C   UNL     1      -5.956  -6.115   2.409  1.00  0.00     0.173 A 
ATOM     90  C   UNL     1      -6.639  -6.150   0.110  1.00  0.00     0.173 A 
ATOM     91  F   UNL     1      -5.035  -6.310   3.365  1.00  0.00    -0.203 F 
ATOM     92  C   UNL     1      -7.251  -5.760   2.787  1.00  0.00     0.198 A 
ATOM     93  C   UNL     1      -7.923  -5.761   0.485  1.00  0.00     0.198 A 
ATOM     94  F   UNL     1      -6.383  -6.357  -1.190  1.00  0.00    -0.203 F 
ATOM     95  F   UNL     1      -7.554  -5.624   4.085  1.00  0.00    -0.200 F 
ATOM     96  C   UNL     1      -8.232  -5.577   1.824  1.00  0.00     0.200 A 
ATOM     97  F   UNL     1      -8.866  -5.579  -0.450  1.00  0.00    -0.200 F 
ATOM     98  F   UNL     1      -9.476  -5.239   2.188  1.00  0.00    -0.200 F 
ENDBRANCH  64  88
BRANCH  76  99
ATOM     99  C   UNL     1      -2.076 -12.193   2.334  1.00  0.00     0.064 A 
ATOM    100  C   UNL     1      -3.076 -13.100   1.951  1.00  0.00     0.173 A 
ATOM    101  C   UNL     1      -1.360 -12.470   3.510  1.00  0.00     0.173 A 
ATOM    102  F   UNL     1      -3.798 -12.881   0.841  1.00  0.00    -0.203 F 
ATOM    103  C   UNL     1      -3.378 -14.210   2.737  1.00  0.00     0.198 A 
ATOM    104  C   UNL     1      -1.637 -13.601   4.272  1.00  0.00     0.198 A 
ATOM    105  F   UNL     1      -0.383 -11.645   3.918  1.00  0.00    -0.203 F 
ATOM    106  F   UNL     1      -4.384 -15.023   2.388  1.00  0.00    -0.200 F 
ATOM    107  C   UNL     1      -2.655 -14.462   3.894  1.00  0.00     0.200 A 
ATOM    108  F   UNL     1      -0.924 -13.853   5.378  1.00  0.00    -0.200 F 
ATOM    109  F   UNL     1      -2.947 -15.530   4.649  1.00  0.00    -0.200 F 
ENDBRANCH  76  99
ENDBRANCH  50  51
ENDBRANCH  43  45
ENDBRANCH  42  43
ENDBRANCH  41  42
ENDBRANCH  40  41
ENDBRANCH  39  40
ENDBRANCH  38  39
ENDBRANCH  37  38
ENDBRANCH  36  37
ENDBRANCH   1  36
TORSDOF 30
