REMARK SMILES Cc1cc2n(n1)[C@H](C(F)(F)F)CCN2C(=O)c1cnn([C@@H](C)C(=O)OCCOCCOCCOC(=O)c2ccc(-c3c4nc(c(-c5c(F)c(F)c(F)c(F)c5F)c5ccc([nH]5)c(-c5c(F)c(F)c(F)c(F)c5F)c5nc(c(-c6c(F)c(F)c(F)c(F)c6F)c6ccc3[nH]6)C=C5)C=C4)cc2)c1
REMARK SMILES IDX 29 1 28 2 27 3 26 4 25 5 23 6 24 7 21 8 22 9 20 10 17 11
REMARK SMILES IDX 18 12 100 13 19 14 15 15 16 16 14 17 1 18 2 19 3 20 6 21
REMARK SMILES IDX 4 22 5 23 7 24 13 25 12 26 8 27 9 28 10 29 11 30 30 31 31 32
REMARK SMILES IDX 32 33 33 34 34 35 35 36 36 37 37 38 38 39 99 40 39 41 98 42
REMARK SMILES IDX 40 43 41 44 42 45 92 46 43 47 97 48 91 49 93 50 44 51 96 52
REMARK SMILES IDX 90 53 89 54 45 56 77 57 57 58 76 59 58 60 61 61 75 62 94 63
REMARK SMILES IDX 59 64 60 65 74 67 95 68 62 69 46 70 47 71 55 72 48 73 49 74
REMARK SMILES IDX 53 75 56 76 50 77 51 78 54 79 52 80 78 81 79 82 87 83 80 84
REMARK SMILES IDX 81 85 85 86 88 87 82 88 83 89 86 90 84 91 63 92 64 93 72 94
REMARK SMILES IDX 65 95 66 96 70 97 73 98 67 99 68 100 71 101 69 102
REMARK H PARENT 93 55 61 66
REMARK Flexibility Score: inf
ROOT
ATOM      1  C   UNL     1      -3.119  -6.513  -8.557  1.00  0.00     0.188 C 
ENDROOT
BRANCH   1   2
ATOM      2  O   UNL     1      -2.768  -7.385  -9.597  1.00  0.00    -0.376 OA
BRANCH   2   3
ATOM      3  C   UNL     1      -2.458  -6.833 -10.864  1.00  0.00     0.202 C 
BRANCH   3   4
ATOM      4  C   UNL     1      -3.041  -5.490 -11.365  1.00  0.00     0.261 C 
BRANCH   4   5
ATOM      5  O   UNL     1      -3.048  -4.379 -10.435  1.00  0.00    -0.462 OA
BRANCH   5   6
ATOM      6  C   UNL     1      -4.248  -3.813 -10.163  1.00  0.00     0.330 C 
ATOM      7  O   UNL     1      -5.296  -4.207 -10.680  1.00  0.00    -0.250 OA
BRANCH   6   8
ATOM      8  C   UNL     1      -4.301  -2.694  -9.132  1.00  0.00     0.213 C 
ATOM      9  C   UNL     1      -4.902  -1.447  -9.767  1.00  0.00     0.046 C 
BRANCH   8  10
ATOM     10  N   UNL     1      -3.116  -2.353  -8.334  1.00  0.00    -0.258 N 
ATOM     11  C   UNL     1      -1.806  -1.863  -6.597  1.00  0.00     0.078 A 
ATOM     12  C   UNL     1      -1.146  -1.759  -7.844  1.00  0.00     0.149 A 
ATOM     13  C   UNL     1      -3.087  -2.252  -6.954  1.00  0.00     0.123 A 
ATOM     14  N   UNL     1      -1.976  -1.895  -8.886  1.00  0.00    -0.180 NA
BRANCH  11  15
ATOM     15  C   UNL     1      -1.295  -1.688  -5.256  1.00  0.00     0.262 C 
ATOM     16  O   UNL     1      -1.299  -2.582  -4.402  1.00  0.00    -0.269 OA
BRANCH  15  17
ATOM     17  N   UNL     1      -0.898  -0.319  -4.930  1.00  0.00    -0.293 N 
ATOM     18  C   UNL     1       0.879  -0.149  -0.201  1.00  0.00     0.069 C 
ATOM     19  C   UNL     1       0.423   0.127  -1.587  1.00  0.00     0.062 A 
ATOM     20  C   UNL     1      -0.061  -0.778  -2.573  1.00  0.00     0.072 A 
ATOM     21  N   UNL     1       0.448   1.381  -2.051  1.00  0.00    -0.176 NA
ATOM     22  C   UNL     1      -0.381   0.002  -3.664  1.00  0.00     0.134 A 
ATOM     23  N   UNL     1      -0.088   1.281  -3.271  1.00  0.00    -0.237 N 
ATOM     24  C   UNL     1      -0.279   2.460  -4.080  1.00  0.00     0.216 C 
ATOM     25  C   UNL     1      -1.240   0.806  -5.839  1.00  0.00     0.130 C 
ATOM     26  C   UNL     1      -0.454   2.088  -5.556  1.00  0.00     0.059 C 
BRANCH  24  27
ATOM     27  C   UNL     1      -1.432   3.285  -3.552  1.00  0.00     0.410 C 
ATOM     28  F   UNL     1      -2.597   2.603  -3.626  1.00  0.00    -0.169 F 
ATOM     29  F   UNL     1      -1.261   3.700  -2.283  1.00  0.00    -0.169 F 
ATOM     30  F   UNL     1      -1.580   4.400  -4.311  1.00  0.00    -0.169 F 
ENDBRANCH  24  27
ENDBRANCH  15  17
ENDBRANCH  11  15
ENDBRANCH   8  10
ENDBRANCH   6   8
ENDBRANCH   5   6
ENDBRANCH   4   5
ENDBRANCH   3   4
ENDBRANCH   2   3
ENDBRANCH   1   2
BRANCH   1  31
ATOM     31  C   UNL     1      -2.097  -5.501  -8.030  1.00  0.00     0.188 C 
BRANCH  31  32
ATOM     32  O   UNL     1      -1.072  -4.893  -8.786  1.00  0.00    -0.376 OA
BRANCH  32  33
ATOM     33  C   UNL     1       0.119  -5.475  -9.287  1.00  0.00     0.202 C 
BRANCH  33  34
ATOM     34  C   UNL     1       0.836  -6.660  -8.654  1.00  0.00     0.261 C 
BRANCH  34  35
ATOM     35  O   UNL     1       0.080  -7.288  -7.656  1.00  0.00    -0.460 OA
BRANCH  35  36
ATOM     36  C   UNL     1       0.114  -6.639  -6.476  1.00  0.00     0.338 C 
ATOM     37  O   UNL     1       0.708  -5.610  -6.196  1.00  0.00    -0.246 OA
BRANCH  36  38
ATOM     38  C   UNL     1      -0.745  -7.395  -5.561  1.00  0.00     0.060 A 
ATOM     39  C   UNL     1      -0.899  -6.850  -4.287  1.00  0.00     0.016 A 
ATOM     40  C   UNL     1      -0.967  -8.743  -5.856  1.00  0.00     0.016 A 
ATOM     41  C   UNL     1      -0.841  -7.725  -3.240  1.00  0.00     0.010 A 
ATOM     42  C   UNL     1      -0.837  -9.611  -4.821  1.00  0.00     0.010 A 
ATOM     43  C   UNL     1      -0.649  -9.071  -3.550  1.00  0.00    -0.014 A 
BRANCH  43  44
ATOM     44  C   UNL     1      -0.223  -9.960  -2.506  1.00  0.00     0.031 A 
ATOM     45  C   UNL     1      -1.372 -10.502  -1.766  1.00  0.00     0.074 A 
ATOM     46  C   UNL     1       1.074 -10.299  -2.396  1.00  0.00     0.049 A 
ATOM     47  N   UNL     1      -1.727 -10.219  -0.559  1.00  0.00    -0.248 NA
ATOM     48  C   UNL     1      -2.393 -11.233  -2.539  1.00  0.00     0.031 C 
ATOM     49  C   UNL     1       2.180  -9.977  -3.306  1.00  0.00     0.029 A 
ATOM     50  N   UNL     1       1.647 -11.148  -1.505  1.00  0.00    -0.354 N 
ATOM     51  C   UNL     1      -2.889 -10.951  -0.359  1.00  0.00     0.074 A 
ATOM     52  C   UNL     1      -3.393 -11.274  -1.661  1.00  0.00     0.031 C 
ATOM     53  C   UNL     1       3.212 -10.817  -3.062  1.00  0.00     0.029 A 
ATOM     54  C   UNL     1       2.875 -11.654  -1.927  1.00  0.00     0.049 A 
ATOM     55  H   UNL     1       1.234 -11.384  -0.643  1.00  0.00     0.167 HD
ATOM     56  C   UNL     1      -3.116 -11.557   0.836  1.00  0.00     0.037 A 
ATOM     57  C   UNL     1       3.432 -12.790  -1.434  1.00  0.00     0.037 A 
ATOM     58  C   UNL     1      -2.318 -10.944   1.874  1.00  0.00     0.049 A 
ATOM     59  C   UNL     1       2.758 -13.069  -0.128  1.00  0.00     0.074 A 
ATOM     60  C   UNL     1      -2.175  -9.646   2.332  1.00  0.00     0.029 A 
ATOM     61  N   UNL     1      -1.207 -11.620   2.322  1.00  0.00    -0.354 N 
ATOM     62  N   UNL     1       2.888 -12.308   0.928  1.00  0.00    -0.248 NA
ATOM     63  C   UNL     1       1.537 -13.869  -0.170  1.00  0.00     0.031 C 
ATOM     64  C   UNL     1      -0.781  -9.494   2.587  1.00  0.00     0.029 A 
ATOM     65  C   UNL     1      -0.167 -10.726   2.361  1.00  0.00     0.049 A 
ATOM     66  H   UNL     1      -1.165 -12.572   2.569  1.00  0.00     0.167 HD
ATOM     67  C   UNL     1       1.605 -12.205   1.451  1.00  0.00     0.074 A 
ATOM     68  C   UNL     1       0.823 -13.227   0.759  1.00  0.00     0.031 C 
ATOM     69  C   UNL     1       1.211 -11.109   2.165  1.00  0.00     0.037 A 
BRANCH  56  70
ATOM     70  C   UNL     1      -3.696 -12.950   0.962  1.00  0.00     0.064 A 
ATOM     71  C   UNL     1      -3.938 -13.448   2.255  1.00  0.00     0.173 A 
ATOM     72  C   UNL     1      -3.750 -13.915  -0.073  1.00  0.00     0.173 A 
ATOM     73  F   UNL     1      -3.917 -12.627   3.316  1.00  0.00    -0.203 F 
ATOM     74  C   UNL     1      -4.103 -14.812   2.502  1.00  0.00     0.198 A 
ATOM     75  C   UNL     1      -3.969 -15.267   0.172  1.00  0.00     0.198 A 
ATOM     76  F   UNL     1      -3.494 -13.635  -1.354  1.00  0.00    -0.203 F 
ATOM     77  F   UNL     1      -4.186 -15.249   3.765  1.00  0.00    -0.200 F 
ATOM     78  C   UNL     1      -4.106 -15.722   1.462  1.00  0.00     0.200 A 
ATOM     79  F   UNL     1      -3.959 -16.129  -0.855  1.00  0.00    -0.200 F 
ATOM     80  F   UNL     1      -4.194 -17.036   1.701  1.00  0.00    -0.200 F 
ENDBRANCH  56  70
BRANCH  57  81
ATOM     81  C   UNL     1       4.183 -13.823  -2.193  1.00  0.00     0.064 A 
ATOM     82  C   UNL     1       4.928 -14.813  -1.533  1.00  0.00     0.173 A 
ATOM     83  C   UNL     1       3.991 -14.013  -3.578  1.00  0.00     0.173 A 
ATOM     84  F   UNL     1       5.113 -14.743  -0.206  1.00  0.00    -0.203 F 
ATOM     85  C   UNL     1       5.441 -15.925  -2.213  1.00  0.00     0.198 A 
ATOM     86  C   UNL     1       4.512 -15.114  -4.257  1.00  0.00     0.198 A 
ATOM     87  F   UNL     1       3.214 -13.185  -4.289  1.00  0.00    -0.203 F 
ATOM     88  F   UNL     1       6.102 -16.876  -1.538  1.00  0.00    -0.200 F 
ATOM     89  C   UNL     1       5.229 -16.076  -3.574  1.00  0.00     0.200 A 
ATOM     90  F   UNL     1       4.264 -15.264  -5.566  1.00  0.00    -0.200 F 
ATOM     91  F   UNL     1       5.677 -17.164  -4.217  1.00  0.00    -0.200 F 
ENDBRANCH  57  81
BRANCH  69  92
ATOM     92  C   UNL     1       2.252 -10.112   2.589  1.00  0.00     0.064 A 
ATOM     93  C   UNL     1       3.053  -9.380   1.696  1.00  0.00     0.173 A 
ATOM     94  C   UNL     1       2.312  -9.760   3.945  1.00  0.00     0.173 A 
ATOM     95  F   UNL     1       2.967  -9.575   0.373  1.00  0.00    -0.203 F 
ATOM     96  C   UNL     1       3.906  -8.373   2.150  1.00  0.00     0.198 A 
ATOM     97  C   UNL     1       3.133  -8.728   4.389  1.00  0.00     0.198 A 
ATOM     98  F   UNL     1       1.524 -10.382   4.835  1.00  0.00    -0.203 F 
ATOM     99  F   UNL     1       4.662  -7.690   1.278  1.00  0.00    -0.200 F 
ATOM    100  C   UNL     1       3.938  -8.043   3.494  1.00  0.00     0.200 A 
ATOM    101  F   UNL     1       3.114  -8.374   5.681  1.00  0.00    -0.200 F 
ATOM    102  F   UNL     1       4.717  -7.041   3.924  1.00  0.00    -0.200 F 
ENDBRANCH  69  92
ENDBRANCH  43  44
ENDBRANCH  36  38
ENDBRANCH  35  36
ENDBRANCH  34  35
ENDBRANCH  33  34
ENDBRANCH  32  33
ENDBRANCH  31  32
ENDBRANCH   1  31
TORSDOF 21
