REMARK SMILES CC1=Nc2c(c(C)nn2-c2ccc(F)cc2)[C@H](c2ccc(C(=O)OCCOCCOCCOC(=O)c3ccc(-c4c5nc(c(-c6c(F)c(F)c(F)c(F)c6F)c6ccc([nH]6)c(-c6c(F)c(F)c(F)c(F)c6F)c6nc(c(-c7c(F)c(F)c(F)c(F)c7F)c7ccc4[nH]7)C=C6)C=C5)cc3)cc2)S1
REMARK SMILES IDX 28 1 27 2 26 3 25 4 24 5 22 6 23 7 21 8 18 9 19 10 100 11
REMARK SMILES IDX 20 12 99 13 17 14 1 15 2 16 3 17 101 18 4 19 5 20 9 21 6 22
REMARK SMILES IDX 8 23 7 24 10 25 11 26 16 27 12 28 15 29 13 30 14 31 29 32
REMARK SMILES IDX 30 33 31 34 32 35 33 36 34 37 35 38 36 39 37 40 98 41 38 42
REMARK SMILES IDX 97 43 39 44 40 45 41 46 91 47 42 48 96 49 90 50 92 51 43 52
REMARK SMILES IDX 95 53 89 54 88 55 44 57 76 58 56 59 75 60 57 61 60 62 74 63
REMARK SMILES IDX 93 64 58 65 59 66 73 68 94 69 61 70 45 71 46 72 54 73 47 74
REMARK SMILES IDX 48 75 52 76 55 77 49 78 50 79 53 80 51 81 77 82 78 83 86 84
REMARK SMILES IDX 79 85 80 86 84 87 87 88 81 89 82 90 85 91 83 92 62 93 63 94
REMARK SMILES IDX 71 95 64 96 65 97 69 98 72 99 66 100 67 101 70 102 68 103
REMARK H PARENT 92 56 60 67
REMARK Flexibility Score: inf
ROOT
ATOM      1  C   UNL     1       5.895  -3.983   6.884  1.00  0.00     0.188 C 
ENDROOT
BRANCH   1   2
ATOM      2  O   UNL     1       7.201  -4.535   6.918  1.00  0.00    -0.376 OA
BRANCH   2   3
ATOM      3  C   UNL     1       7.337  -5.796   6.263  1.00  0.00     0.202 C 
BRANCH   3   4
ATOM      4  C   UNL     1       7.178  -5.798   4.730  1.00  0.00     0.261 C 
BRANCH   4   5
ATOM      5  O   UNL     1       6.013  -5.112   4.235  1.00  0.00    -0.460 OA
BRANCH   5   6
ATOM      6  C   UNL     1       4.845  -5.791   4.260  1.00  0.00     0.338 C 
ATOM      7  O   UNL     1       4.699  -6.943   4.628  1.00  0.00    -0.246 OA
BRANCH   6   8
ATOM      8  C   UNL     1       3.711  -4.877   3.934  1.00  0.00     0.060 A 
ATOM      9  C   UNL     1       1.451  -3.241   3.373  1.00  0.00    -0.030 A 
ATOM     10  C   UNL     1       1.367  -4.336   4.256  1.00  0.00     0.006 A 
ATOM     11  C   UNL     1       2.717  -2.946   2.829  1.00  0.00     0.006 A 
ATOM     12  C   UNL     1       2.478  -5.139   4.535  1.00  0.00     0.016 A 
ATOM     13  C   UNL     1       3.833  -3.764   3.092  1.00  0.00     0.016 A 
BRANCH   9  14
ATOM     14  C   UNL     1       0.165  -2.516   2.982  1.00  0.00     0.119 C 
ATOM     15  C   UNL     1       0.921   0.042  -0.199  1.00  0.00     0.075 C 
ATOM     16  C   UNL     1       0.431  -0.448   1.138  1.00  0.00     0.074 C 
ATOM     17  N   UNL     1       0.355   0.412   2.103  1.00  0.00    -0.227 NA
ATOM     18  S   UNL     1       0.038  -2.158   1.200  1.00  0.00    -0.098 SA
ATOM     19  C   UNL     1       0.010  -0.028   3.335  1.00  0.00     0.161 A 
ATOM     20  C   UNL     1      -0.020  -1.315   3.829  1.00  0.00     0.038 A 
ATOM     21  N   UNL     1      -0.342   0.811   4.385  1.00  0.00    -0.215 N 
ATOM     22  C   UNL     1      -0.374  -1.163   5.195  1.00  0.00     0.067 A 
ATOM     23  N   UNL     1      -0.444   0.126   5.554  1.00  0.00    -0.171 NA
ATOM     24  C   UNL     1      -0.668  -2.210   6.205  1.00  0.00     0.069 C 
BRANCH  21  25
ATOM     25  C   UNL     1      -0.645   2.197   4.330  1.00  0.00     0.067 A 
ATOM     26  C   UNL     1      -1.295   2.736   3.208  1.00  0.00     0.031 A 
ATOM     27  C   UNL     1      -0.305   3.024   5.410  1.00  0.00     0.031 A 
ATOM     28  C   UNL     1      -1.586   4.101   3.161  1.00  0.00     0.041 A 
ATOM     29  C   UNL     1      -0.555   4.396   5.333  1.00  0.00     0.041 A 
ATOM     30  C   UNL     1      -1.195   4.920   4.214  1.00  0.00     0.123 A 
ATOM     31  F   UNL     1      -1.442   6.236   4.149  1.00  0.00    -0.207 F 
ENDBRANCH  21  25
ENDBRANCH   9  14
ENDBRANCH   6   8
ENDBRANCH   5   6
ENDBRANCH   4   5
ENDBRANCH   3   4
ENDBRANCH   2   3
ENDBRANCH   1   2
BRANCH   1  32
ATOM     32  C   UNL     1       5.750  -2.704   6.034  1.00  0.00     0.188 C 
BRANCH  32  33
ATOM     33  O   UNL     1       6.752  -2.293   5.111  1.00  0.00    -0.376 OA
BRANCH  33  34
ATOM     34  C   UNL     1       8.135  -2.366   5.433  1.00  0.00     0.202 C 
BRANCH  34  35
ATOM     35  C   UNL     1       8.684  -1.617   6.644  1.00  0.00     0.261 C 
BRANCH  35  36
ATOM     36  O   UNL     1       7.952  -1.849   7.838  1.00  0.00    -0.460 OA
BRANCH  36  37
ATOM     37  C   UNL     1       7.050  -0.885   8.116  1.00  0.00     0.338 C 
ATOM     38  O   UNL     1       6.766   0.080   7.430  1.00  0.00    -0.246 OA
BRANCH  37  39
ATOM     39  C   UNL     1       6.471  -1.127   9.445  1.00  0.00     0.060 A 
ATOM     40  C   UNL     1       5.500  -0.214   9.860  1.00  0.00     0.016 A 
ATOM     41  C   UNL     1       7.059  -2.039  10.333  1.00  0.00     0.016 A 
ATOM     42  C   UNL     1       5.314  -0.029  11.210  1.00  0.00     0.010 A 
ATOM     43  C   UNL     1       6.872  -1.854  11.686  1.00  0.00     0.010 A 
ATOM     44  C   UNL     1       6.093  -0.774  12.100  1.00  0.00    -0.014 A 
BRANCH  44  45
ATOM     45  C   UNL     1       6.163  -0.282  13.461  1.00  0.00     0.031 A 
ATOM     46  C   UNL     1       4.988  -0.545  14.314  1.00  0.00     0.074 A 
ATOM     47  C   UNL     1       7.261   0.353  13.915  1.00  0.00     0.049 A 
ATOM     48  N   UNL     1       4.259   0.307  14.957  1.00  0.00    -0.248 NA
ATOM     49  C   UNL     1       4.542  -1.940  14.420  1.00  0.00     0.031 C 
ATOM     50  C   UNL     1       8.579   0.441  13.279  1.00  0.00     0.029 A 
ATOM     51  N   UNL     1       7.447   0.971  15.113  1.00  0.00    -0.354 N 
ATOM     52  C   UNL     1       3.344  -0.454  15.673  1.00  0.00     0.074 A 
ATOM     53  C   UNL     1       3.498  -1.820  15.237  1.00  0.00     0.031 C 
ATOM     54  C   UNL     1       9.476   0.880  14.189  1.00  0.00     0.029 A 
ATOM     55  C   UNL     1       8.775   1.212  15.418  1.00  0.00     0.049 A 
ATOM     56  H   UNL     1       6.704   1.223  15.708  1.00  0.00     0.167 HD
ATOM     57  C   UNL     1       2.645   0.052  16.721  1.00  0.00     0.037 A 
ATOM     58  C   UNL     1       9.262   1.560  16.631  1.00  0.00     0.037 A 
ATOM     59  C   UNL     1       2.563   1.483  16.694  1.00  0.00     0.049 A 
ATOM     60  C   UNL     1       8.140   2.111  17.432  1.00  0.00     0.074 A 
ATOM     61  C   UNL     1       2.028   2.402  15.812  1.00  0.00     0.029 A 
ATOM     62  N   UNL     1       3.357   2.207  17.546  1.00  0.00    -0.354 N 
ATOM     63  N   UNL     1       7.555   3.254  17.207  1.00  0.00    -0.248 NA
ATOM     64  C   UNL     1       7.411   1.200  18.304  1.00  0.00     0.031 C 
ATOM     65  C   UNL     1       2.874   3.545  15.896  1.00  0.00     0.029 A 
ATOM     66  C   UNL     1       3.873   3.254  16.825  1.00  0.00     0.049 A 
ATOM     67  H   UNL     1       3.525   2.013  18.497  1.00  0.00     0.167 HD
ATOM     68  C   UNL     1       6.232   3.053  17.570  1.00  0.00     0.074 A 
ATOM     69  C   UNL     1       6.232   1.823  18.349  1.00  0.00     0.031 C 
ATOM     70  C   UNL     1       5.222   3.748  16.971  1.00  0.00     0.037 A 
BRANCH  57  71
ATOM     71  C   UNL     1       2.278  -0.775  17.915  1.00  0.00     0.064 A 
ATOM     72  C   UNL     1       3.069  -1.859  18.357  1.00  0.00     0.173 A 
ATOM     73  C   UNL     1       1.270  -0.347  18.794  1.00  0.00     0.173 A 
ATOM     74  F   UNL     1       4.148  -2.265  17.674  1.00  0.00    -0.203 F 
ATOM     75  C   UNL     1       2.839  -2.499  19.570  1.00  0.00     0.198 A 
ATOM     76  C   UNL     1       1.077  -0.956  20.036  1.00  0.00     0.198 A 
ATOM     77  F   UNL     1       0.504   0.711  18.489  1.00  0.00    -0.203 F 
ATOM     78  F   UNL     1       3.621  -3.525  19.935  1.00  0.00    -0.200 F 
ATOM     79  C   UNL     1       1.856  -2.035  20.420  1.00  0.00     0.200 A 
ATOM     80  F   UNL     1       0.167  -0.461  20.885  1.00  0.00    -0.200 F 
ATOM     81  F   UNL     1       1.695  -2.596  21.625  1.00  0.00    -0.200 F 
ENDBRANCH  57  71
BRANCH  58  82
ATOM     82  C   UNL     1      10.555   1.163  17.238  1.00  0.00     0.064 A 
ATOM     83  C   UNL     1      11.212  -0.029  16.872  1.00  0.00     0.173 A 
ATOM     84  C   UNL     1      11.041   1.816  18.381  1.00  0.00     0.173 A 
ATOM     85  F   UNL     1      10.771  -0.780  15.852  1.00  0.00    -0.203 F 
ATOM     86  C   UNL     1      12.282  -0.538  17.606  1.00  0.00     0.198 A 
ATOM     87  C   UNL     1      12.102   1.295  19.127  1.00  0.00     0.198 A 
ATOM     88  F   UNL     1      10.443   2.931  18.827  1.00  0.00    -0.203 F 
ATOM     89  F   UNL     1      12.846  -1.698  17.240  1.00  0.00    -0.200 F 
ATOM     90  C   UNL     1      12.718   0.115  18.742  1.00  0.00     0.200 A 
ATOM     91  F   UNL     1      12.492   1.909  20.253  1.00  0.00    -0.200 F 
ATOM     92  F   UNL     1      13.698  -0.413  19.487  1.00  0.00    -0.200 F 
ENDBRANCH  58  82
BRANCH  70  93
ATOM     93  C   UNL     1       5.593   4.954  16.156  1.00  0.00     0.064 A 
ATOM     94  C   UNL     1       5.034   6.193  16.497  1.00  0.00     0.173 A 
ATOM     95  C   UNL     1       6.359   4.887  14.979  1.00  0.00     0.173 A 
ATOM     96  F   UNL     1       4.245   6.301  17.577  1.00  0.00    -0.203 F 
ATOM     97  C   UNL     1       5.239   7.319  15.703  1.00  0.00     0.198 A 
ATOM     98  C   UNL     1       6.591   6.024  14.206  1.00  0.00     0.198 A 
ATOM     99  F   UNL     1       6.837   3.718  14.534  1.00  0.00    -0.203 F 
ATOM    100  F   UNL     1       4.649   8.478  16.025  1.00  0.00    -0.200 F 
ATOM    101  C   UNL     1       6.025   7.236  14.565  1.00  0.00     0.200 A 
ATOM    102  F   UNL     1       7.335   5.939  13.093  1.00  0.00    -0.200 F 
ATOM    103  F   UNL     1       6.214   8.320  13.799  1.00  0.00    -0.200 F 
ENDBRANCH  70  93
ENDBRANCH  44  45
ENDBRANCH  37  39
ENDBRANCH  36  37
ENDBRANCH  35  36
ENDBRANCH  34  35
ENDBRANCH  33  34
ENDBRANCH  32  33
ENDBRANCH   1  32
TORSDOF 19
