REMARK SMILES CO[C@H]1C[C@@H](C(=O)OCCOCCOCCOC(=O)c2ccc(-c3c4nc(c(-c5c(F)c(F)c(F)c(F)c5F)c5ccc([nH]5)c(-c5c(F)c(F)c(F)c(F)c5F)c5nc(c(-c6c(F)c(F)c(F)c(F)c6F)c6ccc3[nH]6)C=C5)C=C4)cc2)N(C(=O)Nc2cc(C)cc(F)c2)C1
REMARK SMILES IDX 12 1 11 2 10 3 9 4 8 5 6 6 7 7 5 8 3 9 4 10 95 11 83 12 2 13
REMARK SMILES IDX 1 14 84 15 85 16 86 17 87 19 88 20 94 21 89 22 92 23 90 24
REMARK SMILES IDX 91 25 93 26 13 27 14 28 15 29 16 30 17 31 18 32 19 33 20 34
REMARK SMILES IDX 21 35 82 36 22 37 81 38 23 39 24 40 25 41 75 42 26 43 80 44
REMARK SMILES IDX 74 45 76 46 27 47 79 48 73 49 72 50 28 52 60 53 40 54 59 55
REMARK SMILES IDX 41 56 44 57 58 58 77 59 42 60 43 61 57 63 78 64 45 65 29 66
REMARK SMILES IDX 30 67 38 68 31 69 32 70 36 71 39 72 33 73 34 74 37 75 35 76
REMARK SMILES IDX 61 77 62 78 70 79 63 80 64 81 68 82 71 83 65 84 66 85 69 86
REMARK SMILES IDX 67 87 46 88 47 89 55 90 48 91 49 92 53 93 56 94 50 95 51 96
REMARK SMILES IDX 54 97 52 98
REMARK H PARENT 86 18 76 51 44 62
REMARK Flexibility Score: inf
ROOT
ATOM      1  C   UNL     1       1.724   7.397   0.271  1.00  0.00     0.188 C 
ENDROOT
BRANCH   1   2
ATOM      2  O   UNL     1       1.297   8.028   2.124  1.00  0.00    -0.376 OA
BRANCH   2   3
ATOM      3  C   UNL     1       1.651   7.926   3.670  1.00  0.00     0.202 C 
BRANCH   3   4
ATOM      4  C   UNL     1       1.286   6.692   4.623  1.00  0.00     0.261 C 
BRANCH   4   5
ATOM      5  O   UNL     1       1.850   5.390   4.295  1.00  0.00    -0.462 OA
BRANCH   5   6
ATOM      6  C   UNL     1       0.991   4.363   3.973  1.00  0.00     0.329 C 
ATOM      7  O   UNL     1      -0.140   4.266   4.439  1.00  0.00    -0.250 OA
BRANCH   6   8
ATOM      8  C   UNL     1       1.449   3.626   2.666  1.00  0.00     0.199 C 
ATOM      9  C   UNL     1       1.514   1.286   2.236  1.00  0.00     0.140 C 
ATOM     10  C   UNL     1       0.599   2.494   2.133  1.00  0.00     0.071 C 
ATOM     11  C   UNL     1       2.942   1.886   2.142  1.00  0.00     0.154 C 
ATOM     12  N   UNL     1       2.811   3.292   2.523  1.00  0.00    -0.308 N 
BRANCH   9  13
ATOM     13  O   UNL     1       1.363   0.571   3.460  1.00  0.00    -0.380 OA
ATOM     14  C   UNL     1       0.015   0.377   3.873  1.00  0.00     0.195 C 
ENDBRANCH   9  13
BRANCH  12  15
ATOM     15  C   UNL     1       3.791   4.216   2.372  1.00  0.00     0.322 C 
ATOM     16  O   UNL     1       4.968   3.855   2.269  1.00  0.00    -0.248 OA
ATOM     17  N   UNL     1       3.545   5.558   2.283  1.00  0.00    -0.308 N 
ATOM     18  H   UNL     1       4.380   6.047   2.464  1.00  0.00     0.171 HD
BRANCH  17  19
ATOM     19  C   UNL     1       2.492   6.512   2.016  1.00  0.00     0.046 A 
ATOM     20  C   UNL     1       3.144   8.206   1.643  1.00  0.00     0.029 A 
ATOM     21  C   UNL     1       0.683   6.255   1.811  1.00  0.00     0.065 A 
ATOM     22  C   UNL     1       2.027   9.495   1.058  1.00  0.00    -0.046 A 
ATOM     23  C   UNL     1      -0.376   7.586   1.268  1.00  0.00     0.125 A 
ATOM     24  C   UNL     1       2.507  10.715   0.330  1.00  0.00     0.044 C 
ATOM     25  C   UNL     1       0.283   9.159   0.872  1.00  0.00     0.042 A 
ATOM     26  F   UNL     1      -1.687   7.348   1.122  1.00  0.00    -0.207 F 
ENDBRANCH  17  19
ENDBRANCH  12  15
ENDBRANCH   6   8
ENDBRANCH   5   6
ENDBRANCH   4   5
ENDBRANCH   3   4
ENDBRANCH   2   3
ENDBRANCH   1   2
BRANCH   1  27
ATOM     27  C   UNL     1       3.058   6.489  -0.360  1.00  0.00     0.188 C 
BRANCH  27  28
ATOM     28  O   UNL     1       4.375   6.647   0.160  1.00  0.00    -0.376 OA
BRANCH  28  29
ATOM     29  C   UNL     1       5.457   7.296  -0.477  1.00  0.00     0.202 C 
BRANCH  29  30
ATOM     30  C   UNL     1       5.243   8.651  -1.153  1.00  0.00     0.261 C 
BRANCH  30  31
ATOM     31  O   UNL     1       4.151   8.684  -2.070  1.00  0.00    -0.460 OA
BRANCH  31  32
ATOM     32  C   UNL     1       4.262   7.853  -3.133  1.00  0.00     0.338 C 
ATOM     33  O   UNL     1       5.220   7.182  -3.457  1.00  0.00    -0.246 OA
BRANCH  32  34
ATOM     34  C   UNL     1       2.899   7.695  -3.674  1.00  0.00     0.060 A 
ATOM     35  C   UNL     1       2.393   6.393  -3.800  1.00  0.00     0.016 A 
ATOM     36  C   UNL     1       2.109   8.809  -3.967  1.00  0.00     0.016 A 
ATOM     37  C   UNL     1       1.099   6.199  -4.259  1.00  0.00     0.010 A 
ATOM     38  C   UNL     1       0.829   8.613  -4.478  1.00  0.00     0.010 A 
ATOM     39  C   UNL     1       0.347   7.306  -4.669  1.00  0.00    -0.014 A 
BRANCH  39  40
ATOM     40  C   UNL     1      -0.766   7.064  -5.607  1.00  0.00     0.031 A 
ATOM     41  C   UNL     1      -0.423   7.045  -7.071  1.00  0.00     0.074 A 
ATOM     42  C   UNL     1      -2.007   6.786  -5.181  1.00  0.00     0.049 A 
ATOM     43  N   UNL     1      -1.197   6.857  -8.106  1.00  0.00    -0.248 NA
ATOM     44  C   UNL     1       0.995   7.260  -7.411  1.00  0.00     0.031 C 
ATOM     45  C   UNL     1      -2.426   6.698  -3.785  1.00  0.00     0.029 A 
ATOM     46  N   UNL     1      -3.143   6.519  -5.898  1.00  0.00    -0.354 N 
ATOM     47  C   UNL     1      -0.361   6.931  -9.212  1.00  0.00     0.074 A 
ATOM     48  C   UNL     1       0.972   7.209  -8.732  1.00  0.00     0.031 C 
ATOM     49  C   UNL     1      -3.739   6.407  -3.747  1.00  0.00     0.029 A 
ATOM     50  C   UNL     1      -4.252   6.324  -5.115  1.00  0.00     0.049 A 
ATOM     51  H   UNL     1      -3.162   6.471  -6.881  1.00  0.00     0.167 HD
ATOM     52  C   UNL     1      -0.678   6.774 -10.517  1.00  0.00     0.037 A 
ATOM     53  C   UNL     1      -5.535   6.128  -5.476  1.00  0.00     0.037 A 
ATOM     54  C   UNL     1      -2.008   6.508 -10.988  1.00  0.00     0.049 A 
ATOM     55  C   UNL     1      -5.881   6.063  -6.944  1.00  0.00     0.074 A 
ATOM     56  C   UNL     1      -2.444   6.342 -12.288  1.00  0.00     0.029 A 
ATOM     57  N   UNL     1      -3.120   6.380 -10.168  1.00  0.00    -0.354 N 
ATOM     58  N   UNL     1      -5.091   6.131  -7.989  1.00  0.00    -0.248 NA
ATOM     59  C   UNL     1      -7.302   5.892  -7.281  1.00  0.00     0.031 C 
ATOM     60  C   UNL     1      -3.832   6.175 -12.261  1.00  0.00     0.029 A 
ATOM     61  C   UNL     1      -4.249   6.167 -10.938  1.00  0.00     0.049 A 
ATOM     62  H   UNL     1      -3.107   6.434  -9.185  1.00  0.00     0.167 HD
ATOM     63  C   UNL     1      -5.910   5.978  -9.101  1.00  0.00     0.074 A 
ATOM     64  C   UNL     1      -7.258   5.802  -8.602  1.00  0.00     0.031 C 
ATOM     65  C   UNL     1      -5.580   5.981 -10.417  1.00  0.00     0.037 A 
BRANCH  52  66
ATOM     66  C   UNL     1       0.426   6.938 -11.517  1.00  0.00     0.064 A 
ATOM     67  C   UNL     1       1.459   5.997 -11.644  1.00  0.00     0.173 A 
ATOM     68  C   UNL     1       0.447   8.055 -12.365  1.00  0.00     0.173 A 
ATOM     69  F   UNL     1       1.501   4.926 -10.837  1.00  0.00    -0.203 F 
ATOM     70  C   UNL     1       2.485   6.181 -12.568  1.00  0.00     0.198 A 
ATOM     71  C   UNL     1       1.455   8.219 -13.309  1.00  0.00     0.198 A 
ATOM     72  F   UNL     1      -0.513   8.988 -12.277  1.00  0.00    -0.203 F 
ATOM     73  F   UNL     1       3.491   5.298 -12.635  1.00  0.00    -0.200 F 
ATOM     74  C   UNL     1       2.477   7.287 -13.405  1.00  0.00     0.200 A 
ATOM     75  F   UNL     1       1.441   9.284 -14.123  1.00  0.00    -0.200 F 
ATOM     76  F   UNL     1       3.461   7.460 -14.298  1.00  0.00    -0.200 F 
ENDBRANCH  52  66
BRANCH  53  77
ATOM     77  C   UNL     1      -6.592   6.008  -4.438  1.00  0.00     0.064 A 
ATOM     78  C   UNL     1      -7.303   4.814  -4.258  1.00  0.00     0.173 A 
ATOM     79  C   UNL     1      -6.939   7.101  -3.628  1.00  0.00     0.173 A 
ATOM     80  F   UNL     1      -7.029   3.749  -5.025  1.00  0.00    -0.203 F 
ATOM     81  C   UNL     1      -8.335   4.724  -3.325  1.00  0.00     0.198 A 
ATOM     82  C   UNL     1      -7.949   7.000  -2.675  1.00  0.00     0.198 A 
ATOM     83  F   UNL     1      -6.294   8.269  -3.764  1.00  0.00    -0.203 F 
ATOM     84  F   UNL     1      -9.037   3.588  -3.213  1.00  0.00    -0.200 F 
ATOM     85  C   UNL     1      -8.654   5.816  -2.531  1.00  0.00     0.200 A 
ATOM     86  F   UNL     1      -8.246   8.055  -1.903  1.00  0.00    -0.200 F 
ATOM     87  F   UNL     1      -9.647   5.729  -1.636  1.00  0.00    -0.200 F 
ENDBRANCH  53  77
BRANCH  65  88
ATOM     88  C   UNL     1      -6.681   5.741 -11.411  1.00  0.00     0.064 A 
ATOM     89  C   UNL     1      -7.676   6.698 -11.660  1.00  0.00     0.173 A 
ATOM     90  C   UNL     1      -6.706   4.557 -12.165  1.00  0.00     0.173 A 
ATOM     91  F   UNL     1      -7.703   7.842 -10.959  1.00  0.00    -0.203 F 
ATOM     92  C   UNL     1      -8.670   6.466 -12.607  1.00  0.00     0.198 A 
ATOM     93  C   UNL     1      -7.680   4.344 -13.135  1.00  0.00     0.198 A 
ATOM     94  F   UNL     1      -5.770   3.614 -11.975  1.00  0.00    -0.203 F 
ATOM     95  F   UNL     1      -9.639   7.373 -12.793  1.00  0.00    -0.200 F 
ATOM     96  C   UNL     1      -8.666   5.294 -13.349  1.00  0.00     0.200 A 
ATOM     97  F   UNL     1      -7.662   3.220 -13.865  1.00  0.00    -0.200 F 
ATOM     98  F   UNL     1      -9.617   5.079 -14.268  1.00  0.00    -0.200 F 
ENDBRANCH  65  88
ENDBRANCH  39  40
ENDBRANCH  32  34
ENDBRANCH  31  32
ENDBRANCH  30  31
ENDBRANCH  29  30
ENDBRANCH  28  29
ENDBRANCH  27  28
ENDBRANCH   1  27
TORSDOF 20
