REMARK SMILES COCCCC(=O)N[C@H]1CC[C@@H](C(=O)OCCOCCOCCOC(=O)c2ccc(-c3c4nc(c(-c5c(F)c(F)c(F)c(F)c5F)c5ccc([nH]5)c(-c5c(F)c(F)c(F)c(F)c5F)c5nc(c(-c6c(F)c(F)c(F)c(F)c6F)c6ccc3[nH]6)C=C5)C=C4)cc2)CC1
REMARK SMILES IDX 18 1 17 2 16 3 15 4 13 5 14 6 12 7 9 8 10 9 91 10 11 11
REMARK SMILES IDX 90 12 8 13 6 14 7 15 5 17 4 18 3 19 2 20 1 21 19 22 20 23
REMARK SMILES IDX 21 24 22 25 23 26 24 27 25 28 26 29 27 30 28 31 89 32 29 33
REMARK SMILES IDX 88 34 30 35 31 36 32 37 82 38 33 39 87 40 81 41 83 42 34 43
REMARK SMILES IDX 86 44 80 45 79 46 35 48 67 49 47 50 66 51 48 52 51 53 65 54
REMARK SMILES IDX 84 55 49 56 50 57 64 59 85 60 52 61 36 62 37 63 45 64 38 65
REMARK SMILES IDX 39 66 43 67 46 68 40 69 41 70 44 71 42 72 68 73 69 74 77 75
REMARK SMILES IDX 70 76 71 77 75 78 78 79 72 80 73 81 76 82 74 83 53 84 54 85
REMARK SMILES IDX 62 86 55 87 56 88 60 89 63 90 57 91 58 92 61 93 59 94
REMARK H PARENT 8 16 83 47 51 58
REMARK Flexibility Score: inf
ROOT
ATOM      1  O   UNL     1       7.040   2.023   4.838  1.00  0.00    -0.376 OA
ENDROOT
BRANCH   1   2
ATOM      2  C   UNL     1       7.496   1.026   3.926  1.00  0.00     0.202 C 
BRANCH   2   3
ATOM      3  C   UNL     1       6.628  -0.230   3.777  1.00  0.00     0.261 C 
BRANCH   3   4
ATOM      4  O   UNL     1       5.289   0.023   3.316  1.00  0.00    -0.463 OA
BRANCH   4   5
ATOM      5  C   UNL     1       4.293  -0.242   4.200  1.00  0.00     0.309 C 
ATOM      6  O   UNL     1       4.462  -0.622   5.354  1.00  0.00    -0.252 OA
BRANCH   5   7
ATOM      7  C   UNL     1       2.901  -0.076   3.610  1.00  0.00     0.099 C 
ATOM      8  C   UNL     1       2.732  -1.196   0.880  1.00  0.00     0.082 C 
ATOM      9  C   UNL     1       2.959  -2.088   2.103  1.00  0.00     0.026 C 
ATOM     10  C   UNL     1       3.287   0.212   1.074  1.00  0.00     0.026 C 
ATOM     11  C   UNL     1       2.346  -1.475   3.356  1.00  0.00     0.017 C 
ATOM     12  C   UNL     1       2.755   0.824   2.373  1.00  0.00     0.017 C 
BRANCH   8  13
ATOM     13  N   UNL     1       3.247  -1.859  -0.295  1.00  0.00    -0.353 N 
ATOM     14  C   UNL     1       2.550  -2.498  -1.274  1.00  0.00     0.220 C 
ATOM     15  O   UNL     1       3.167  -3.263  -2.018  1.00  0.00    -0.275 OA
ATOM     16  H   UNL     1       4.226  -1.848  -0.401  1.00  0.00     0.163 HD
BRANCH  14  17
ATOM     17  C   UNL     1       1.085  -2.178  -1.526  1.00  0.00     0.102 C 
BRANCH  17  18
ATOM     18  C   UNL     1       0.002  -2.826  -0.659  1.00  0.00     0.038 C 
BRANCH  18  19
ATOM     19  C   UNL     1      -0.452  -2.231   0.683  1.00  0.00     0.160 C 
BRANCH  19  20
ATOM     20  O   UNL     1      -0.866  -0.881   0.848  1.00  0.00    -0.385 OA
ATOM     21  C   UNL     1      -0.704   0.056  -0.193  1.00  0.00     0.194 C 
ENDBRANCH  19  20
ENDBRANCH  18  19
ENDBRANCH  17  18
ENDBRANCH  14  17
ENDBRANCH   8  13
ENDBRANCH   5   7
ENDBRANCH   4   5
ENDBRANCH   3   4
ENDBRANCH   2   3
ENDBRANCH   1   2
BRANCH   1  22
ATOM     22  C   UNL     1       5.777   2.618   4.576  1.00  0.00     0.188 C 
BRANCH  22  23
ATOM     23  C   UNL     1       5.629   3.375   3.257  1.00  0.00     0.188 C 
BRANCH  23  24
ATOM     24  O   UNL     1       6.239   2.781   2.122  1.00  0.00    -0.376 OA
BRANCH  24  25
ATOM     25  C   UNL     1       6.286   3.600   0.946  1.00  0.00     0.202 C 
BRANCH  25  26
ATOM     26  C   UNL     1       7.030   4.947   1.101  1.00  0.00     0.261 C 
BRANCH  26  27
ATOM     27  O   UNL     1       6.415   5.888   2.012  1.00  0.00    -0.460 OA
BRANCH  27  28
ATOM     28  C   UNL     1       5.107   6.171   1.815  1.00  0.00     0.338 C 
ATOM     29  O   UNL     1       4.472   5.970   0.792  1.00  0.00    -0.246 OA
BRANCH  28  30
ATOM     30  C   UNL     1       4.476   6.514   3.122  1.00  0.00     0.060 A 
ATOM     31  C   UNL     1       3.174   6.051   3.356  1.00  0.00     0.016 A 
ATOM     32  C   UNL     1       5.151   7.211   4.131  1.00  0.00     0.016 A 
ATOM     33  C   UNL     1       2.522   6.340   4.559  1.00  0.00     0.010 A 
ATOM     34  C   UNL     1       4.495   7.505   5.337  1.00  0.00     0.010 A 
ATOM     35  C   UNL     1       3.160   7.110   5.541  1.00  0.00    -0.014 A 
BRANCH  35  36
ATOM     36  C   UNL     1       2.353   7.677   6.657  1.00  0.00     0.031 A 
ATOM     37  C   UNL     1       1.844   9.090   6.524  1.00  0.00     0.074 A 
ATOM     38  C   UNL     1       2.013   6.954   7.741  1.00  0.00     0.049 A 
ATOM     39  N   UNL     1       1.090   9.788   7.335  1.00  0.00    -0.248 NA
ATOM     40  C   UNL     1       2.241   9.811   5.304  1.00  0.00     0.031 C 
ATOM     41  C   UNL     1       2.408   5.572   7.998  1.00  0.00     0.029 A 
ATOM     42  N   UNL     1       1.249   7.295   8.833  1.00  0.00    -0.354 N 
ATOM     43  C   UNL     1       0.914  11.021   6.719  1.00  0.00     0.074 A 
ATOM     44  C   UNL     1       1.679  10.994   5.492  1.00  0.00     0.031 C 
ATOM     45  C   UNL     1       1.888   5.183   9.177  1.00  0.00     0.029 A 
ATOM     46  C   UNL     1       1.139   6.293   9.767  1.00  0.00     0.049 A 
ATOM     47  H   UNL     1       0.821   8.175   8.936  1.00  0.00     0.167 HD
ATOM     48  C   UNL     1       0.167  12.076   7.123  1.00  0.00     0.037 A 
ATOM     49  C   UNL     1       0.515   6.278  10.963  1.00  0.00     0.037 A 
ATOM     50  C   UNL     1      -0.588  12.124   8.347  1.00  0.00     0.049 A 
ATOM     51  C   UNL     1      -0.254   7.493  11.427  1.00  0.00     0.074 A 
ATOM     52  C   UNL     1      -1.374  13.154   8.836  1.00  0.00     0.029 A 
ATOM     53  N   UNL     1      -0.645  11.101   9.280  1.00  0.00    -0.354 N 
ATOM     54  N   UNL     1      -0.443   8.639  10.819  1.00  0.00    -0.248 NA
ATOM     55  C   UNL     1      -0.906   7.403  12.743  1.00  0.00     0.031 C 
ATOM     56  C   UNL     1      -1.866  12.773  10.089  1.00  0.00     0.029 A 
ATOM     57  C   UNL     1      -1.435  11.484  10.353  1.00  0.00     0.049 A 
ATOM     58  H   UNL     1      -0.192  10.231   9.194  1.00  0.00     0.167 HD
ATOM     59  C   UNL     1      -1.253   9.392  11.663  1.00  0.00     0.074 A 
ATOM     60  C   UNL     1      -1.539   8.565  12.815  1.00  0.00     0.031 C 
ATOM     61  C   UNL     1      -1.718  10.656  11.497  1.00  0.00     0.037 A 
BRANCH  48  62
ATOM     62  C   UNL     1       0.144  13.282   6.229  1.00  0.00     0.064 A 
ATOM     63  C   UNL     1      -0.525  13.267   4.995  1.00  0.00     0.173 A 
ATOM     64  C   UNL     1       0.775  14.472   6.620  1.00  0.00     0.173 A 
ATOM     65  F   UNL     1      -1.128  12.147   4.567  1.00  0.00    -0.203 F 
ATOM     66  C   UNL     1      -0.538  14.392   4.175  1.00  0.00     0.198 A 
ATOM     67  C   UNL     1       0.733  15.604   5.811  1.00  0.00     0.198 A 
ATOM     68  F   UNL     1       1.426  14.538   7.791  1.00  0.00    -0.203 F 
ATOM     69  F   UNL     1      -1.140  14.339   2.979  1.00  0.00    -0.200 F 
ATOM     70  C   UNL     1       0.083  15.561   4.587  1.00  0.00     0.200 A 
ATOM     71  F   UNL     1       1.325  16.736   6.216  1.00  0.00    -0.200 F 
ATOM     72  F   UNL     1       0.064  16.645   3.799  1.00  0.00    -0.200 F 
ENDBRANCH  48  62
BRANCH  49  73
ATOM     73  C   UNL     1       0.591   5.070  11.830  1.00  0.00     0.064 A 
ATOM     74  C   UNL     1      -0.545   4.294  12.101  1.00  0.00     0.173 A 
ATOM     75  C   UNL     1       1.796   4.697  12.445  1.00  0.00     0.173 A 
ATOM     76  F   UNL     1      -1.728   4.629  11.566  1.00  0.00    -0.203 F 
ATOM     77  C   UNL     1      -0.484   3.206  12.972  1.00  0.00     0.198 A 
ATOM     78  C   UNL     1       1.862   3.592  13.290  1.00  0.00     0.198 A 
ATOM     79  F   UNL     1       2.909   5.412  12.228  1.00  0.00    -0.203 F 
ATOM     80  F   UNL     1      -1.597   2.519  13.260  1.00  0.00    -0.200 F 
ATOM     81  C   UNL     1       0.721   2.853  13.561  1.00  0.00     0.200 A 
ATOM     82  F   UNL     1       3.029   3.251  13.854  1.00  0.00    -0.200 F 
ATOM     83  F   UNL     1       0.778   1.810  14.400  1.00  0.00    -0.200 F 
ENDBRANCH  49  73
BRANCH  61  84
ATOM     84  C   UNL     1      -2.610  11.215  12.571  1.00  0.00     0.064 A 
ATOM     85  C   UNL     1      -2.119  11.544  13.844  1.00  0.00     0.173 A 
ATOM     86  C   UNL     1      -3.971  11.449  12.315  1.00  0.00     0.173 A 
ATOM     87  F   UNL     1      -0.830  11.332  14.145  1.00  0.00    -0.203 F 
ATOM     88  C   UNL     1      -2.963  12.052  14.829  1.00  0.00     0.198 A 
ATOM     89  C   UNL     1      -4.804  11.987  13.293  1.00  0.00     0.198 A 
ATOM     90  F   UNL     1      -4.492  11.163  11.113  1.00  0.00    -0.203 F 
ATOM     91  F   UNL     1      -2.483  12.305  16.055  1.00  0.00    -0.200 F 
ATOM     92  C   UNL     1      -4.303  12.278  14.552  1.00  0.00     0.200 A 
ATOM     93  F   UNL     1      -6.095  12.220  13.017  1.00  0.00    -0.200 F 
ATOM     94  F   UNL     1      -5.112  12.767  15.501  1.00  0.00    -0.200 F 
ENDBRANCH  61  84
ENDBRANCH  35  36
ENDBRANCH  28  30
ENDBRANCH  27  28
ENDBRANCH  26  27
ENDBRANCH  25  26
ENDBRANCH  24  25
ENDBRANCH  23  24
ENDBRANCH  22  23
ENDBRANCH   1  22
TORSDOF 22
