REMARK SMILES Cc1ccc(F)cc1NC(=O)c1nn(C)cc1C(=O)OCCOCCOCCOC(=O)c1ccc(-c2c3nc(c(-c4c(F)c(F)c(F)c(F)c4F)c4ccc([nH]4)c(-c4c(F)c(F)c(F)c(F)c4F)c4nc(c(-c5c(F)c(F)c(F)c(F)c5F)c5ccc2[nH]5)C=C4)C=C3)cc1
REMARK SMILES IDX 24 1 23 2 22 3 21 4 20 5 18 6 19 7 17 8 12 9 13 10 14 11
REMARK SMILES IDX 16 12 15 13 10 14 9 15 11 17 8 18 1 19 2 20 3 21 4 22 7 23
REMARK SMILES IDX 5 24 6 25 25 26 26 27 27 28 28 29 29 30 30 31 31 32 32 33
REMARK SMILES IDX 33 34 94 35 34 36 93 37 35 38 36 39 37 40 87 41 38 42 92 43
REMARK SMILES IDX 86 44 88 45 39 46 91 47 85 48 84 49 40 51 72 52 52 53 71 54
REMARK SMILES IDX 53 55 56 56 70 57 89 58 54 59 55 60 69 62 90 63 57 64 41 65
REMARK SMILES IDX 42 66 50 67 43 68 44 69 48 70 51 71 45 72 46 73 49 74 47 75
REMARK SMILES IDX 73 76 74 77 82 78 75 79 76 80 80 81 83 82 77 83 78 84 81 85
REMARK SMILES IDX 79 86 58 87 59 88 67 89 60 90 61 91 65 92 68 93 62 94 63 95
REMARK SMILES IDX 66 96 64 97
REMARK H PARENT 9 16 88 50 56 61
REMARK Flexibility Score: inf
ROOT
ATOM      1  C   UNL     1       0.518  -0.090  -3.397  1.00  0.00     0.188 C 
ENDROOT
BRANCH   1   2
ATOM      2  O   UNL     1       0.195  -0.078  -4.774  1.00  0.00    -0.376 OA
BRANCH   2   3
ATOM      3  C   UNL     1      -1.171  -0.199  -5.136  1.00  0.00     0.202 C 
BRANCH   3   4
ATOM      4  C   UNL     1      -1.827  -1.563  -4.910  1.00  0.00     0.261 C 
BRANCH   4   5
ATOM      5  O   UNL     1      -1.986  -1.967  -3.534  1.00  0.00    -0.460 OA
BRANCH   5   6
ATOM      6  C   UNL     1      -1.229  -3.041  -3.138  1.00  0.00     0.342 C 
ATOM      7  O   UNL     1      -0.259  -3.459  -3.755  1.00  0.00    -0.246 OA
BRANCH   6   8
ATOM      8  C   UNL     1      -1.707  -3.672  -1.921  1.00  0.00     0.111 A 
ATOM      9  C   UNL     1      -0.983  -4.530  -1.030  1.00  0.00     0.165 A 
ATOM     10  N   UNL     1      -1.798  -5.040  -0.085  1.00  0.00    -0.167 NA
ATOM     11  N   UNL     1      -2.959  -4.394  -0.262  1.00  0.00    -0.274 N 
ATOM     12  C   UNL     1      -2.970  -3.584  -1.358  1.00  0.00     0.125 A 
ATOM     13  C   UNL     1      -3.996  -4.553   0.731  1.00  0.00     0.173 C 
BRANCH   9  14
ATOM     14  C   UNL     1       0.471  -4.777  -0.976  1.00  0.00     0.277 C 
ATOM     15  N   UNL     1       1.275  -3.890  -0.253  1.00  0.00    -0.320 N 
ATOM     16  H   UNL     1       2.234  -4.105  -0.198  1.00  0.00     0.170 HD
ATOM     17  O   UNL     1       1.010  -5.693  -1.597  1.00  0.00    -0.267 OA
BRANCH  15  18
ATOM     18  C   UNL     1       0.848  -2.724   0.404  1.00  0.00     0.047 A 
ATOM     19  C   UNL     1       2.922  -1.375  -0.339  1.00  0.00     0.046 C 
ATOM     20  C   UNL     1       1.516  -1.527   0.164  1.00  0.00    -0.027 A 
ATOM     21  C   UNL     1       0.774  -0.362   0.327  1.00  0.00     0.008 A 
ATOM     22  C   UNL     1      -0.546  -0.376   0.791  1.00  0.00     0.039 A 
ATOM     23  C   UNL     1      -0.341  -2.712   1.143  1.00  0.00     0.065 A 
ATOM     24  C   UNL     1      -1.058  -1.544   1.293  1.00  0.00     0.125 A 
ATOM     25  F   UNL     1      -2.273  -1.555   1.853  1.00  0.00    -0.207 F 
ENDBRANCH  15  18
ENDBRANCH   9  14
ENDBRANCH   6   8
ENDBRANCH   5   6
ENDBRANCH   4   5
ENDBRANCH   3   4
ENDBRANCH   2   3
ENDBRANCH   1   2
BRANCH   1  26
ATOM     26  C   UNL     1      -0.340   0.725  -2.421  1.00  0.00     0.188 C 
BRANCH  26  27
ATOM     27  O   UNL     1      -1.063   1.825  -2.954  1.00  0.00    -0.376 OA
BRANCH  27  28
ATOM     28  C   UNL     1      -1.800   2.530  -1.940  1.00  0.00     0.202 C 
BRANCH  28  29
ATOM     29  C   UNL     1      -0.982   3.702  -1.406  1.00  0.00     0.261 C 
BRANCH  29  30
ATOM     30  O   UNL     1       0.048   3.261  -0.519  1.00  0.00    -0.460 OA
BRANCH  30  31
ATOM     31  C   UNL     1      -0.312   3.126   0.782  1.00  0.00     0.338 C 
ATOM     32  O   UNL     1      -1.391   3.265   1.281  1.00  0.00    -0.246 OA
BRANCH  31  33
ATOM     33  C   UNL     1       0.885   2.647   1.493  1.00  0.00     0.060 A 
ATOM     34  C   UNL     1       0.711   1.720   2.532  1.00  0.00     0.016 A 
ATOM     35  C   UNL     1       2.153   3.082   1.103  1.00  0.00     0.016 A 
ATOM     36  C   UNL     1       1.797   1.252   3.240  1.00  0.00     0.010 A 
ATOM     37  C   UNL     1       3.235   2.688   1.852  1.00  0.00     0.010 A 
ATOM     38  C   UNL     1       3.000   1.901   2.991  1.00  0.00    -0.014 A 
BRANCH  38  39
ATOM     39  C   UNL     1       3.704   2.413   4.154  1.00  0.00     0.031 A 
ATOM     40  C   UNL     1       5.023   1.901   4.495  1.00  0.00     0.074 A 
ATOM     41  C   UNL     1       3.086   3.475   4.729  1.00  0.00     0.049 A 
ATOM     42  N   UNL     1       5.489   1.907   5.692  1.00  0.00    -0.248 NA
ATOM     43  C   UNL     1       5.911   1.262   3.523  1.00  0.00     0.031 C 
ATOM     44  C   UNL     1       3.603   4.494   5.618  1.00  0.00     0.029 A 
ATOM     45  N   UNL     1       1.708   3.775   4.640  1.00  0.00    -0.354 N 
ATOM     46  C   UNL     1       6.837   1.687   5.563  1.00  0.00     0.074 A 
ATOM     47  C   UNL     1       7.015   1.091   4.259  1.00  0.00     0.031 C 
ATOM     48  C   UNL     1       2.559   5.130   6.188  1.00  0.00     0.029 A 
ATOM     49  C   UNL     1       1.335   4.428   5.818  1.00  0.00     0.049 A 
ATOM     50  H   UNL     1       1.115   3.562   3.883  1.00  0.00     0.167 HD
ATOM     51  C   UNL     1       7.684   2.289   6.443  1.00  0.00     0.037 A 
ATOM     52  C   UNL     1       0.507   3.769   6.684  1.00  0.00     0.037 A 
ATOM     53  C   UNL     1       6.939   3.074   7.430  1.00  0.00     0.049 A 
ATOM     54  C   UNL     1       1.228   3.269   7.925  1.00  0.00     0.074 A 
ATOM     55  C   UNL     1       6.632   4.419   7.565  1.00  0.00     0.029 A 
ATOM     56  N   UNL     1       6.025   2.415   8.232  1.00  0.00    -0.354 N 
ATOM     57  N   UNL     1       2.510   3.398   8.138  1.00  0.00    -0.248 NA
ATOM     58  C   UNL     1       0.568   2.514   8.988  1.00  0.00     0.031 C 
ATOM     59  C   UNL     1       5.537   4.547   8.474  1.00  0.00     0.029 A 
ATOM     60  C   UNL     1       5.177   3.281   8.893  1.00  0.00     0.049 A 
ATOM     61  H   UNL     1       5.984   1.435   8.323  1.00  0.00     0.167 HD
ATOM     62  C   UNL     1       2.860   2.758   9.294  1.00  0.00     0.074 A 
ATOM     63  C   UNL     1       1.608   2.202   9.780  1.00  0.00     0.031 C 
ATOM     64  C   UNL     1       4.149   2.709   9.751  1.00  0.00     0.037 A 
BRANCH  51  65
ATOM     65  C   UNL     1       9.150   2.419   6.140  1.00  0.00     0.064 A 
ATOM     66  C   UNL     1       9.839   3.623   6.376  1.00  0.00     0.173 A 
ATOM     67  C   UNL     1       9.915   1.387   5.561  1.00  0.00     0.173 A 
ATOM     68  F   UNL     1       9.247   4.663   6.973  1.00  0.00    -0.203 F 
ATOM     69  C   UNL     1      11.164   3.812   5.983  1.00  0.00     0.198 A 
ATOM     70  C   UNL     1      11.228   1.591   5.126  1.00  0.00     0.198 A 
ATOM     71  F   UNL     1       9.404   0.156   5.407  1.00  0.00    -0.203 F 
ATOM     72  F   UNL     1      11.764   4.987   6.223  1.00  0.00    -0.200 F 
ATOM     73  C   UNL     1      11.850   2.808   5.332  1.00  0.00     0.200 A 
ATOM     74  F   UNL     1      11.883   0.608   4.492  1.00  0.00    -0.200 F 
ATOM     75  F   UNL     1      13.107   3.009   4.914  1.00  0.00    -0.200 F 
ENDBRANCH  51  65
BRANCH  52  76
ATOM     76  C   UNL     1      -0.667   3.096   6.042  1.00  0.00     0.064 A 
ATOM     77  C   UNL     1      -1.623   3.882   5.363  1.00  0.00     0.173 A 
ATOM     78  C   UNL     1      -0.763   1.708   5.874  1.00  0.00     0.173 A 
ATOM     79  F   UNL     1      -1.604   5.218   5.494  1.00  0.00    -0.203 F 
ATOM     80  C   UNL     1      -2.571   3.318   4.504  1.00  0.00     0.198 A 
ATOM     81  C   UNL     1      -1.721   1.143   5.020  1.00  0.00     0.198 A 
ATOM     82  F   UNL     1       0.122   0.890   6.460  1.00  0.00    -0.203 F 
ATOM     83  F   UNL     1      -3.420   4.108   3.829  1.00  0.00    -0.200 F 
ATOM     84  C   UNL     1      -2.604   1.948   4.315  1.00  0.00     0.200 A 
ATOM     85  F   UNL     1      -1.718  -0.180   4.801  1.00  0.00    -0.200 F 
ATOM     86  F   UNL     1      -3.444   1.406   3.421  1.00  0.00    -0.200 F 
ENDBRANCH  52  76
BRANCH  64  87
ATOM     87  C   UNL     1       4.557   2.062  11.051  1.00  0.00     0.064 A 
ATOM     88  C   UNL     1       3.763   2.129  12.206  1.00  0.00     0.173 A 
ATOM     89  C   UNL     1       5.815   1.434  11.218  1.00  0.00     0.173 A 
ATOM     90  F   UNL     1       2.620   2.829  12.220  1.00  0.00    -0.203 F 
ATOM     91  C   UNL     1       4.141   1.504  13.397  1.00  0.00     0.198 A 
ATOM     92  C   UNL     1       6.215   0.864  12.421  1.00  0.00     0.198 A 
ATOM     93  F   UNL     1       6.704   1.328  10.223  1.00  0.00    -0.203 F 
ATOM     94  F   UNL     1       3.311   1.525  14.447  1.00  0.00    -0.200 F 
ATOM     95  C   UNL     1       5.365   0.870  13.503  1.00  0.00     0.200 A 
ATOM     96  F   UNL     1       7.428   0.301  12.514  1.00  0.00    -0.200 F 
ATOM     97  F   UNL     1       5.729   0.275  14.646  1.00  0.00    -0.200 F 
ENDBRANCH  64  87
ENDBRANCH  38  39
ENDBRANCH  31  33
ENDBRANCH  30  31
ENDBRANCH  29  30
ENDBRANCH  28  29
ENDBRANCH  27  28
ENDBRANCH  26  27
ENDBRANCH   1  26
TORSDOF 19
