REMARK SMILES Cc1noc(C[N@H+]2CCC[C@@H](c3ccc(C(=O)OCCOCCOCCOC(=O)c4ccc(-c5c6nc(c(-c7c(F)c(F)c(F)c(F)c7F)c7ccc([nH]7)c(-c7c(F)c(F)c(F)c(F)c7F)c7nc(c(-c8c(F)c(F)c(F)c(F)c8F)c8ccc5[nH]8)C=C7)C=C6)cc4)cc3)C2)n1
REMARK SMILES IDX 22 1 21 2 20 3 19 4 18 5 16 6 17 7 15 8 12 9 13 10 94 11
REMARK SMILES IDX 14 12 93 13 11 14 7 15 8 16 95 17 9 19 10 20 6 21 5 22 1 23
REMARK SMILES IDX 2 24 3 25 96 26 4 27 23 28 24 29 25 30 26 31 27 32 28 33
REMARK SMILES IDX 29 34 30 35 31 36 92 37 32 38 91 39 33 40 34 41 35 42 85 43
REMARK SMILES IDX 36 44 90 45 84 46 86 47 37 48 89 49 83 50 82 51 38 53 70 54
REMARK SMILES IDX 50 55 69 56 51 57 54 58 68 59 87 60 52 61 53 62 67 64 88 65
REMARK SMILES IDX 55 66 39 67 40 68 48 69 41 70 42 71 46 72 49 73 43 74 44 75
REMARK SMILES IDX 47 76 45 77 71 78 72 79 80 80 73 81 74 82 78 83 81 84 75 85
REMARK SMILES IDX 76 86 79 87 77 88 56 89 57 90 65 91 58 92 59 93 63 94 66 95
REMARK SMILES IDX 60 96 61 97 64 98 62 99
REMARK H PARENT 7 18 86 52 54 63
REMARK Flexibility Score: inf
ROOT
ATOM      1  C   UNL     1      -5.421   6.757  -4.036  1.00  0.00     0.188 C 
ENDROOT
BRANCH   1   2
ATOM      2  O   UNL     1      -6.512   7.544  -3.586  1.00  0.00    -0.376 OA
BRANCH   2   3
ATOM      3  C   UNL     1      -6.269   8.719  -2.823  1.00  0.00     0.202 C 
BRANCH   3   4
ATOM      4  C   UNL     1      -5.365   8.665  -1.587  1.00  0.00     0.261 C 
BRANCH   4   5
ATOM      5  O   UNL     1      -4.063   8.121  -1.846  1.00  0.00    -0.460 OA
BRANCH   5   6
ATOM      6  C   UNL     1      -3.758   7.011  -1.131  1.00  0.00     0.338 C 
ATOM      7  O   UNL     1      -4.433   6.492  -0.257  1.00  0.00    -0.246 OA
BRANCH   6   8
ATOM      8  C   UNL     1      -2.558   6.359  -1.690  1.00  0.00     0.060 A 
ATOM      9  C   UNL     1      -0.286   4.950  -2.537  1.00  0.00    -0.039 A 
ATOM     10  C   UNL     1      -1.509   4.285  -2.342  1.00  0.00     0.005 A 
ATOM     11  C   UNL     1      -0.248   6.348  -2.399  1.00  0.00     0.005 A 
ATOM     12  C   UNL     1      -2.628   4.978  -1.896  1.00  0.00     0.016 A 
ATOM     13  C   UNL     1      -1.384   7.055  -1.987  1.00  0.00     0.016 A 
BRANCH   9  14
ATOM     14  C   UNL     1       1.006   4.153  -2.702  1.00  0.00     0.074 C 
ATOM     15  N   UNL     1       2.338   2.362  -1.465  1.00  0.00    -0.327 N 
ATOM     16  C   UNL     1       2.304   1.516  -2.665  1.00  0.00     0.262 C 
ATOM     17  C   UNL     1       1.204   3.299  -1.425  1.00  0.00     0.270 C 
ATOM     18  H   UNL     1       3.197   2.910  -1.517  1.00  0.00     0.348 HD
ATOM     19  C   UNL     1       2.248   2.355  -3.943  1.00  0.00     0.062 C 
ATOM     20  C   UNL     1       1.021   3.267  -3.955  1.00  0.00     0.020 C 
BRANCH  15  21
ATOM     21  C   UNL     1       2.380   1.544  -0.217  1.00  0.00     0.364 C 
BRANCH  21  22
ATOM     22  C   UNL     1       1.186   0.667   0.026  1.00  0.00     0.281 A 
ATOM     23  C   UNL     1      -2.183  -0.284   0.241  1.00  0.00     0.093 C 
ATOM     24  C   UNL     1      -0.713  -0.194   0.182  1.00  0.00     0.169 A 
ATOM     25  N   UNL     1       0.073  -1.244  -0.086  1.00  0.00    -0.063 NA
ATOM     26  N   UNL     1      -0.058   1.000   0.304  1.00  0.00    -0.191 NA
ATOM     27  O   UNL     1       1.346  -0.673  -0.189  1.00  0.00    -0.333 OA
ENDBRANCH  21  22
ENDBRANCH  15  21
ENDBRANCH   9  14
ENDBRANCH   6   8
ENDBRANCH   5   6
ENDBRANCH   4   5
ENDBRANCH   3   4
ENDBRANCH   2   3
ENDBRANCH   1   2
BRANCH   1  28
ATOM     28  C   UNL     1      -4.240   7.401  -4.792  1.00  0.00     0.188 C 
BRANCH  28  29
ATOM     29  O   UNL     1      -4.238   8.796  -4.968  1.00  0.00    -0.376 OA
BRANCH  29  30
ATOM     30  C   UNL     1      -5.008   9.424  -5.976  1.00  0.00     0.202 C 
BRANCH  30  31
ATOM     31  C   UNL     1      -5.837   8.723  -7.067  1.00  0.00     0.261 C 
BRANCH  31  32
ATOM     32  O   UNL     1      -6.099   7.329  -6.923  1.00  0.00    -0.460 OA
BRANCH  32  33
ATOM     33  C   UNL     1      -5.394   6.525  -7.754  1.00  0.00     0.338 C 
ATOM     34  O   UNL     1      -4.539   6.849  -8.558  1.00  0.00    -0.246 OA
BRANCH  33  35
ATOM     35  C   UNL     1      -5.709   5.123  -7.437  1.00  0.00     0.060 A 
ATOM     36  C   UNL     1      -4.678   4.297  -6.975  1.00  0.00     0.016 A 
ATOM     37  C   UNL     1      -6.992   4.616  -7.653  1.00  0.00     0.016 A 
ATOM     38  C   UNL     1      -4.920   2.942  -6.762  1.00  0.00     0.010 A 
ATOM     39  C   UNL     1      -7.228   3.254  -7.454  1.00  0.00     0.010 A 
ATOM     40  C   UNL     1      -6.185   2.406  -7.041  1.00  0.00    -0.014 A 
BRANCH  40  41
ATOM     41  C   UNL     1      -6.365   0.936  -7.077  1.00  0.00     0.031 A 
ATOM     42  C   UNL     1      -6.265   0.233  -8.402  1.00  0.00     0.074 A 
ATOM     43  C   UNL     1      -6.589   0.236  -5.953  1.00  0.00     0.049 A 
ATOM     44  N   UNL     1      -6.408  -1.037  -8.684  1.00  0.00    -0.248 NA
ATOM     45  C   UNL     1      -5.963   1.079  -9.568  1.00  0.00     0.031 C 
ATOM     46  C   UNL     1      -6.668   0.799  -4.608  1.00  0.00     0.029 A 
ATOM     47  N   UNL     1      -6.796  -1.109  -5.771  1.00  0.00    -0.354 N 
ATOM     48  C   UNL     1      -6.212  -1.142 -10.054  1.00  0.00     0.074 A 
ATOM     49  C   UNL     1      -5.976   0.195 -10.554  1.00  0.00     0.031 C 
ATOM     50  C   UNL     1      -6.914  -0.194  -3.736  1.00  0.00     0.029 A 
ATOM     51  C   UNL     1      -7.037  -1.455  -4.466  1.00  0.00     0.049 A 
ATOM     52  H   UNL     1      -6.773  -1.762  -6.508  1.00  0.00     0.167 HD
ATOM     53  C   UNL     1      -6.215  -2.255 -10.825  1.00  0.00     0.037 A 
ATOM     54  C   UNL     1      -7.340  -2.654  -3.930  1.00  0.00     0.037 A 
ATOM     55  C   UNL     1      -6.463  -3.583 -10.331  1.00  0.00     0.049 A 
ATOM     56  C   UNL     1      -7.427  -3.865  -4.824  1.00  0.00     0.074 A 
ATOM     57  C   UNL     1      -6.483  -4.776 -11.031  1.00  0.00     0.029 A 
ATOM     58  N   UNL     1      -6.745  -3.890  -9.008  1.00  0.00    -0.354 N 
ATOM     59  N   UNL     1      -7.213  -3.962  -6.114  1.00  0.00    -0.248 NA
ATOM     60  C   UNL     1      -7.796  -5.135  -4.182  1.00  0.00     0.031 C 
ATOM     61  C   UNL     1      -6.826  -5.799 -10.140  1.00  0.00     0.029 A 
ATOM     62  C   UNL     1      -6.966  -5.251  -8.875  1.00  0.00     0.049 A 
ATOM     63  H   UNL     1      -6.783  -3.237  -8.272  1.00  0.00     0.167 HD
ATOM     64  C   UNL     1      -7.388  -5.304  -6.432  1.00  0.00     0.074 A 
ATOM     65  C   UNL     1      -7.719  -5.985  -5.197  1.00  0.00     0.031 C 
ATOM     66  C   UNL     1      -7.282  -5.917  -7.637  1.00  0.00     0.037 A 
BRANCH  53  67
ATOM     67  C   UNL     1      -5.967  -2.073 -12.294  1.00  0.00     0.064 A 
ATOM     68  C   UNL     1      -4.701  -1.725 -12.788  1.00  0.00     0.173 A 
ATOM     69  C   UNL     1      -7.005  -2.261 -13.219  1.00  0.00     0.173 A 
ATOM     70  F   UNL     1      -3.680  -1.517 -11.943  1.00  0.00    -0.203 F 
ATOM     71  C   UNL     1      -4.490  -1.543 -14.152  1.00  0.00     0.198 A 
ATOM     72  C   UNL     1      -6.783  -2.107 -14.585  1.00  0.00     0.198 A 
ATOM     73  F   UNL     1      -8.233  -2.597 -12.799  1.00  0.00    -0.203 F 
ATOM     74  F   UNL     1      -3.285  -1.160 -14.597  1.00  0.00    -0.200 F 
ATOM     75  C   UNL     1      -5.529  -1.740 -15.050  1.00  0.00     0.200 A 
ATOM     76  F   UNL     1      -7.785  -2.308 -15.452  1.00  0.00    -0.200 F 
ATOM     77  F   UNL     1      -5.324  -1.567 -16.363  1.00  0.00    -0.200 F 
ENDBRANCH  53  67
BRANCH  54  78
ATOM     78  C   UNL     1      -7.583  -2.775  -2.470  1.00  0.00     0.064 A 
ATOM     79  C   UNL     1      -6.684  -3.463  -1.644  1.00  0.00     0.173 A 
ATOM     80  C   UNL     1      -8.727  -2.224  -1.873  1.00  0.00     0.173 A 
ATOM     81  F   UNL     1      -5.589  -4.028  -2.173  1.00  0.00    -0.203 F 
ATOM     82  C   UNL     1      -6.927  -3.611  -0.281  1.00  0.00     0.198 A 
ATOM     83  C   UNL     1      -8.957  -2.350  -0.505  1.00  0.00     0.198 A 
ATOM     84  F   UNL     1      -9.621  -1.560  -2.620  1.00  0.00    -0.203 F 
ATOM     85  F   UNL     1      -6.073  -4.311   0.478  1.00  0.00    -0.200 F 
ATOM     86  C   UNL     1      -8.060  -3.050   0.289  1.00  0.00     0.200 A 
ATOM     87  F   UNL     1     -10.048  -1.799   0.043  1.00  0.00    -0.200 F 
ATOM     88  F   UNL     1      -8.293  -3.191   1.601  1.00  0.00    -0.200 F 
ENDBRANCH  54  78
BRANCH  66  89
ATOM     89  C   UNL     1      -7.482  -7.404  -7.677  1.00  0.00     0.064 A 
ATOM     90  C   UNL     1      -8.749  -7.984  -7.519  1.00  0.00     0.173 A 
ATOM     91  C   UNL     1      -6.396  -8.258  -7.923  1.00  0.00     0.173 A 
ATOM     92  F   UNL     1      -9.818  -7.213  -7.269  1.00  0.00    -0.203 F 
ATOM     93  C   UNL     1      -8.917  -9.365  -7.583  1.00  0.00     0.198 A 
ATOM     94  C   UNL     1      -6.572  -9.636  -8.015  1.00  0.00     0.198 A 
ATOM     95  F   UNL     1      -5.163  -7.754  -8.089  1.00  0.00    -0.203 F 
ATOM     96  F   UNL     1     -10.130  -9.901  -7.385  1.00  0.00    -0.200 F 
ATOM     97  C   UNL     1      -7.831 -10.189  -7.838  1.00  0.00     0.200 A 
ATOM     98  F   UNL     1      -5.523 -10.429  -8.276  1.00  0.00    -0.200 F 
ATOM     99  F   UNL     1      -7.996 -11.517  -7.907  1.00  0.00    -0.200 F 
ENDBRANCH  66  89
ENDBRANCH  40  41
ENDBRANCH  33  35
ENDBRANCH  32  33
ENDBRANCH  31  32
ENDBRANCH  30  31
ENDBRANCH  29  30
ENDBRANCH  28  29
ENDBRANCH   1  28
TORSDOF 20
