REMARK SMILES C[C@@H]1CCCN(c2ccc(NC(=O)Cc3cccs3)c(C(=O)OCCOCCOCCOC(=O)c3ccc(-c4c5nc(c(-c6c(F)c(F)c(F)c(F)c6F)c6ccc([nH]6)c(-c6c(F)c(F)c(F)c(F)c6F)c6nc(c(-c7c(F)c(F)c(F)c(F)c7F)c7ccc4[nH]7)C=C6)C=C5)cc3)c2)C1
REMARK SMILES IDX 27 1 26 2 25 3 24 4 23 5 21 6 22 7 20 8 7 9 8 10 98 11 9 12
REMARK SMILES IDX 10 13 6 14 1 15 2 16 3 17 99 18 4 19 5 20 11 21 12 22 13 24
REMARK SMILES IDX 14 25 15 26 16 27 19 28 17 29 18 30 28 31 29 32 30 33 31 34
REMARK SMILES IDX 32 35 33 36 34 37 35 38 36 39 97 40 37 41 96 42 38 43 39 44
REMARK SMILES IDX 40 45 90 46 41 47 95 48 89 49 91 50 42 51 94 52 88 53 87 54
REMARK SMILES IDX 43 56 75 57 55 58 74 59 56 60 59 61 73 62 92 63 57 64 58 65
REMARK SMILES IDX 72 67 93 68 60 69 44 70 45 71 53 72 46 73 47 74 51 75 54 76
REMARK SMILES IDX 48 77 49 78 52 79 50 80 76 81 77 82 85 83 78 84 79 85 83 86
REMARK SMILES IDX 86 87 80 88 81 89 84 90 82 91 61 92 62 93 70 94 63 95 64 96
REMARK SMILES IDX 68 97 71 98 65 99 66 100 69 101 67 102
REMARK H PARENT 11 23 91 55 59 66
REMARK Flexibility Score: inf
ROOT
ATOM      1  C   UNL     1       2.563   3.129  -6.085  1.00  0.00     0.188 C 
ENDROOT
BRANCH   1   2
ATOM      2  O   UNL     1       3.304   2.469  -7.095  1.00  0.00    -0.376 OA
BRANCH   2   3
ATOM      3  C   UNL     1       3.731   1.131  -6.907  1.00  0.00     0.202 C 
BRANCH   3   4
ATOM      4  C   UNL     1       4.484   0.718  -5.639  1.00  0.00     0.261 C 
BRANCH   4   5
ATOM      5  O   UNL     1       3.833   1.064  -4.408  1.00  0.00    -0.460 OA
BRANCH   5   6
ATOM      6  C   UNL     1       4.472   1.999  -3.655  1.00  0.00     0.340 C 
ATOM      7  O   UNL     1       5.491   2.589  -3.954  1.00  0.00    -0.246 OA
BRANCH   6   8
ATOM      8  C   UNL     1       3.683   2.350  -2.444  1.00  0.00     0.085 A 
ATOM      9  C   UNL     1       2.128   1.672  -0.696  1.00  0.00     0.038 A 
ATOM     10  C   UNL     1       2.236   2.949  -0.151  1.00  0.00     0.028 A 
ATOM     11  C   UNL     1       2.907   1.368  -1.816  1.00  0.00     0.043 A 
ATOM     12  C   UNL     1       3.019   3.933  -0.759  1.00  0.00     0.029 A 
ATOM     13  C   UNL     1       3.668   3.681  -1.965  1.00  0.00     0.055 A 
BRANCH   9  14
ATOM     14  N   UNL     1       1.274   0.731  -0.171  1.00  0.00    -0.371 N 
ATOM     15  C   UNL     1      -2.467   0.136   0.115  1.00  0.00     0.009 C 
ATOM     16  C   UNL     1      -1.016  -0.099  -0.300  1.00  0.00     0.005 C 
ATOM     17  C   UNL     1      -0.509  -1.446   0.243  1.00  0.00     0.007 C 
ATOM     18  C   UNL     1      -0.112   1.060   0.158  1.00  0.00     0.119 C 
ATOM     19  C   UNL     1       0.963  -1.669  -0.106  1.00  0.00     0.022 C 
ATOM     20  C   UNL     1       1.820  -0.505   0.372  1.00  0.00     0.116 C 
ENDBRANCH   9  14
BRANCH  13  21
ATOM     21  N   UNL     1       4.199   4.702  -2.783  1.00  0.00    -0.325 N 
ATOM     22  C   UNL     1       3.981   6.042  -2.898  1.00  0.00     0.229 C 
ATOM     23  H   UNL     1       4.880   4.370  -3.412  1.00  0.00     0.169 HD
ATOM     24  O   UNL     1       4.523   6.595  -3.865  1.00  0.00    -0.274 OA
BRANCH  22  25
ATOM     25  C   UNL     1       3.172   6.877  -1.927  1.00  0.00     0.147 C 
BRANCH  25  26
ATOM     26  C   UNL     1       1.672   6.729  -2.004  1.00  0.00     0.014 A 
ATOM     27  C   UNL     1       0.858   5.670  -2.364  1.00  0.00     0.016 A 
ATOM     28  S   UNL     1       0.712   8.074  -1.500  1.00  0.00    -0.148 S 
ATOM     29  C   UNL     1      -0.532   5.949  -2.197  1.00  0.00     0.012 A 
ATOM     30  C   UNL     1      -0.749   7.233  -1.760  1.00  0.00     0.065 A 
ENDBRANCH  25  26
ENDBRANCH  22  25
ENDBRANCH  13  21
ENDBRANCH   6   8
ENDBRANCH   5   6
ENDBRANCH   4   5
ENDBRANCH   3   4
ENDBRANCH   2   3
ENDBRANCH   1   2
BRANCH   1  31
ATOM     31  C   UNL     1       1.315   2.477  -5.455  1.00  0.00     0.188 C 
BRANCH  31  32
ATOM     32  O   UNL     1       0.905   1.201  -5.884  1.00  0.00    -0.376 OA
BRANCH  32  33
ATOM     33  C   UNL     1       0.289   1.003  -7.145  1.00  0.00     0.202 C 
BRANCH  33  34
ATOM     34  C   UNL     1      -0.321   2.102  -8.032  1.00  0.00     0.261 C 
BRANCH  34  35
ATOM     35  O   UNL     1       0.180   3.430  -7.883  1.00  0.00    -0.460 OA
BRANCH  35  36
ATOM     36  C   UNL     1      -0.707   4.322  -7.382  1.00  0.00     0.338 C 
ATOM     37  O   UNL     1      -1.846   4.109  -7.003  1.00  0.00    -0.246 OA
BRANCH  36  38
ATOM     38  C   UNL     1      -0.035   5.616  -7.189  1.00  0.00     0.060 A 
ATOM     39  C   UNL     1       0.209   6.035  -5.880  1.00  0.00     0.016 A 
ATOM     40  C   UNL     1       0.290   6.435  -8.270  1.00  0.00     0.016 A 
ATOM     41  C   UNL     1       0.771   7.285  -5.644  1.00  0.00     0.010 A 
ATOM     42  C   UNL     1       0.833   7.703  -8.028  1.00  0.00     0.010 A 
ATOM     43  C   UNL     1       1.055   8.142  -6.711  1.00  0.00    -0.014 A 
BRANCH  43  44
ATOM     44  C   UNL     1       1.407   9.552  -6.420  1.00  0.00     0.031 A 
ATOM     45  C   UNL     1       0.320  10.586  -6.455  1.00  0.00     0.074 A 
ATOM     46  C   UNL     1       2.654   9.902  -6.061  1.00  0.00     0.049 A 
ATOM     47  N   UNL     1       0.395  11.882  -6.295  1.00  0.00    -0.248 NA
ATOM     48  C   UNL     1      -1.043  10.087  -6.702  1.00  0.00     0.031 C 
ATOM     49  C   UNL     1       3.773   8.981  -5.902  1.00  0.00     0.029 A 
ATOM     50  N   UNL     1       3.183  11.133  -5.757  1.00  0.00    -0.354 N 
ATOM     51  C   UNL     1      -0.901  12.355  -6.443  1.00  0.00     0.074 A 
ATOM     52  C   UNL     1      -1.743  11.211  -6.718  1.00  0.00     0.031 C 
ATOM     53  C   UNL     1       4.861   9.676  -5.529  1.00  0.00     0.029 A 
ATOM     54  C   UNL     1       4.526  11.097  -5.473  1.00  0.00     0.049 A 
ATOM     55  H   UNL     1       2.651  11.961  -5.745  1.00  0.00     0.167 HD
ATOM     56  C   UNL     1      -1.346  13.630  -6.359  1.00  0.00     0.037 A 
ATOM     57  C   UNL     1       5.389  12.102  -5.225  1.00  0.00     0.037 A 
ATOM     58  C   UNL     1      -0.506  14.765  -6.079  1.00  0.00     0.049 A 
ATOM     59  C   UNL     1       4.884  13.523  -5.222  1.00  0.00     0.074 A 
ATOM     60  C   UNL     1      -0.862  16.099  -5.982  1.00  0.00     0.029 A 
ATOM     61  N   UNL     1       0.861  14.698  -5.853  1.00  0.00    -0.354 N 
ATOM     62  N   UNL     1       3.662  13.970  -5.383  1.00  0.00    -0.248 NA
ATOM     63  C   UNL     1       5.882  14.581  -5.011  1.00  0.00     0.031 C 
ATOM     64  C   UNL     1       0.297  16.845  -5.749  1.00  0.00     0.029 A 
ATOM     65  C   UNL     1       1.367  15.971  -5.642  1.00  0.00     0.049 A 
ATOM     66  H   UNL     1       1.393  13.870  -5.844  1.00  0.00     0.167 HD
ATOM     67  C   UNL     1       3.740  15.352  -5.269  1.00  0.00     0.074 A 
ATOM     68  C   UNL     1       5.127  15.671  -5.007  1.00  0.00     0.031 C 
ATOM     69  C   UNL     1       2.751  16.273  -5.372  1.00  0.00     0.037 A 
BRANCH  56  70
ATOM     70  C   UNL     1      -2.802  13.868  -6.623  1.00  0.00     0.064 A 
ATOM     71  C   UNL     1      -3.796  13.475  -5.715  1.00  0.00     0.173 A 
ATOM     72  C   UNL     1      -3.207  14.515  -7.801  1.00  0.00     0.173 A 
ATOM     73  F   UNL     1      -3.463  12.836  -4.584  1.00  0.00    -0.203 F 
ATOM     74  C   UNL     1      -5.143  13.698  -5.989  1.00  0.00     0.198 A 
ATOM     75  C   UNL     1      -4.552  14.763  -8.057  1.00  0.00     0.198 A 
ATOM     76  F   UNL     1      -2.296  14.912  -8.703  1.00  0.00    -0.203 F 
ATOM     77  F   UNL     1      -6.079  13.269  -5.131  1.00  0.00    -0.200 F 
ATOM     78  C   UNL     1      -5.519  14.348  -7.155  1.00  0.00     0.200 A 
ATOM     79  F   UNL     1      -4.912  15.401  -9.180  1.00  0.00    -0.200 F 
ATOM     80  F   UNL     1      -6.816  14.566  -7.414  1.00  0.00    -0.200 F 
ENDBRANCH  56  70
BRANCH  57  81
ATOM     81  C   UNL     1       6.829  11.810  -4.993  1.00  0.00     0.064 A 
ATOM     82  C   UNL     1       7.428  12.055  -3.750  1.00  0.00     0.173 A 
ATOM     83  C   UNL     1       7.645  11.316  -6.023  1.00  0.00     0.173 A 
ATOM     84  F   UNL     1       6.701  12.562  -2.743  1.00  0.00    -0.203 F 
ATOM     85  C   UNL     1       8.790  11.835  -3.551  1.00  0.00     0.198 A 
ATOM     86  C   UNL     1       8.999  11.067  -5.814  1.00  0.00     0.198 A 
ATOM     87  F   UNL     1       7.126  11.081  -7.237  1.00  0.00    -0.203 F 
ATOM     88  F   UNL     1       9.350  12.134  -2.370  1.00  0.00    -0.200 F 
ATOM     89  C   UNL     1       9.573  11.336  -4.581  1.00  0.00     0.200 A 
ATOM     90  F   UNL     1       9.752  10.583  -6.811  1.00  0.00    -0.200 F 
ATOM     91  F   UNL     1      10.884  11.130  -4.390  1.00  0.00    -0.200 F 
ENDBRANCH  57  81
BRANCH  69  92
ATOM     92  C   UNL     1       3.121  17.714  -5.164  1.00  0.00     0.064 A 
ATOM     93  C   UNL     1       3.868  18.429  -6.112  1.00  0.00     0.173 A 
ATOM     94  C   UNL     1       2.680  18.401  -4.022  1.00  0.00     0.173 A 
ATOM     95  F   UNL     1       4.325  17.815  -7.215  1.00  0.00    -0.203 F 
ATOM     96  C   UNL     1       4.181  19.771  -5.913  1.00  0.00     0.198 A 
ATOM     97  C   UNL     1       2.968  19.751  -3.841  1.00  0.00     0.198 A 
ATOM     98  F   UNL     1       1.955  17.767  -3.089  1.00  0.00    -0.203 F 
ATOM     99  F   UNL     1       4.935  20.422  -6.809  1.00  0.00    -0.200 F 
ATOM    100  C   UNL     1       3.724  20.433  -4.782  1.00  0.00     0.200 A 
ATOM    101  F   UNL     1       2.512  20.392  -2.757  1.00  0.00    -0.200 F 
ATOM    102  F   UNL     1       4.018  21.727  -4.597  1.00  0.00    -0.200 F 
ENDBRANCH  69  92
ENDBRANCH  43  44
ENDBRANCH  36  38
ENDBRANCH  35  36
ENDBRANCH  34  35
ENDBRANCH  33  34
ENDBRANCH  32  33
ENDBRANCH  31  32
ENDBRANCH   1  31
TORSDOF 21
