REMARK SMILES Cc1ccc(CCC(=O)N2CCC3(CC2)[C@H](C(=O)OCCOCCOCCOC(=O)c2ccc(-c4c5nc(c(-c6c(F)c(F)c(F)c(F)c6F)c6ccc([nH]6)c(-c6c(F)c(F)c(F)c(F)c6F)c6nc(c(-c7c(F)c(F)c(F)c(F)c7F)c7ccc4[nH]7)C=C6)C=C5)cc2)CC(=O)N3C)cc1
REMARK SMILES IDX 23 1 22 2 21 3 20 4 19 5 17 6 18 7 16 8 8 9 9 10 10 11 11 12
REMARK SMILES IDX 15 13 12 14 14 15 13 16 97 17 94 18 95 19 98 20 96 21 7 22
REMARK SMILES IDX 6 23 5 24 1 25 2 26 3 27 100 28 4 29 99 30 24 31 25 32 26 33
REMARK SMILES IDX 27 34 28 35 29 36 30 37 31 38 32 39 93 40 33 41 92 42 34 43
REMARK SMILES IDX 35 44 36 45 86 46 37 47 91 48 85 49 87 50 38 51 90 52 84 53
REMARK SMILES IDX 83 54 39 56 71 57 51 58 70 59 52 60 55 61 69 62 88 63 53 64
REMARK SMILES IDX 54 65 68 67 89 68 56 69 40 70 41 71 49 72 42 73 43 74 47 75
REMARK SMILES IDX 50 76 44 77 45 78 48 79 46 80 72 81 73 82 81 83 74 84 75 85
REMARK SMILES IDX 79 86 82 87 76 88 77 89 80 90 78 91 57 92 58 93 66 94 59 95
REMARK SMILES IDX 60 96 64 97 67 98 61 99 62 100 65 101 63 102
REMARK H PARENT 87 55 55 66
REMARK Flexibility Score: inf
ROOT
ATOM      1  C   UNL     1      -0.963  -1.915  -7.918  1.00  0.00     0.188 C 
ENDROOT
BRANCH   1   2
ATOM      2  O   UNL     1       0.105  -2.874  -7.759  1.00  0.00    -0.376 OA
BRANCH   2   3
ATOM      3  C   UNL     1      -0.044  -4.162  -7.136  1.00  0.00     0.202 C 
BRANCH   3   4
ATOM      4  C   UNL     1       0.888  -4.642  -5.843  1.00  0.00     0.261 C 
BRANCH   4   5
ATOM      5  O   UNL     1       0.978  -4.153  -4.164  1.00  0.00    -0.463 OA
BRANCH   5   6
ATOM      6  C   UNL     1       1.736  -3.265  -3.350  1.00  0.00     0.311 C 
ATOM      7  O   UNL     1       2.616  -2.495  -3.736  1.00  0.00    -0.252 OA
BRANCH   6   8
ATOM      8  C   UNL     1       1.521  -2.822  -1.933  1.00  0.00     0.134 C 
ATOM      9  C   UNL     1      -3.165  -2.485  -0.737  1.00  0.00     0.222 C 
ATOM     10  O   UNL     1      -4.056  -3.088  -1.348  1.00  0.00    -0.275 OA
ATOM     11  N   UNL     1      -2.072  -3.187  -0.260  1.00  0.00    -0.343 N 
ATOM     12  C   UNL     1      -1.706  -4.480  -0.825  1.00  0.00     0.122 C 
ATOM     13  C   UNL     1      -1.126  -2.733   0.723  1.00  0.00     0.122 C 
ATOM     14  C   UNL     1      -0.365  -4.373  -1.541  1.00  0.00     0.051 C 
ATOM     15  C   UNL     1       0.145  -2.343   0.022  1.00  0.00     0.051 C 
ATOM     16  C   UNL     1       0.705  -3.502  -0.867  1.00  0.00     0.060 C 
ATOM     17  N   UNL     1       1.748  -4.225  -0.123  1.00  0.00    -0.339 N 
ATOM     18  C   UNL     1       2.922  -2.573  -1.253  1.00  0.00     0.118 C 
ATOM     19  C   UNL     1       3.023  -3.696  -0.283  1.00  0.00     0.223 C 
ATOM     20  C   UNL     1       1.515  -5.275   0.833  1.00  0.00     0.147 C 
ATOM     21  O   UNL     1       4.044  -4.046   0.286  1.00  0.00    -0.275 OA
BRANCH   9  22
ATOM     22  C   UNL     1      -3.203  -0.942  -0.739  1.00  0.00     0.105 C 
BRANCH  22  23
ATOM     23  C   UNL     1      -3.212  -0.088   0.541  1.00  0.00     0.045 C 
BRANCH  23  24
ATOM     24  C   UNL     1      -1.875   0.580   0.823  1.00  0.00    -0.047 A 
ATOM     25  C   UNL     1       2.348   1.291   1.068  1.00  0.00     0.044 C 
ATOM     26  C   UNL     1       0.852   1.193   1.061  1.00  0.00    -0.051 A 
ATOM     27  C   UNL     1       0.168   0.602   2.127  1.00  0.00     0.004 A 
ATOM     28  C   UNL     1       0.121   1.658  -0.037  1.00  0.00     0.004 A 
ATOM     29  C   UNL     1      -1.196   0.328   2.021  1.00  0.00     0.004 A 
ATOM     30  C   UNL     1      -1.237   1.358  -0.154  1.00  0.00     0.004 A 
ENDBRANCH  23  24
ENDBRANCH  22  23
ENDBRANCH   9  22
ENDBRANCH   6   8
ENDBRANCH   5   6
ENDBRANCH   4   5
ENDBRANCH   3   4
ENDBRANCH   2   3
ENDBRANCH   1   2
BRANCH   1  31
ATOM     31  C   UNL     1      -2.440  -2.288  -7.757  1.00  0.00     0.188 C 
BRANCH  31  32
ATOM     32  O   UNL     1      -2.605  -3.083  -6.599  1.00  0.00    -0.376 OA
BRANCH  32  33
ATOM     33  C   UNL     1      -3.931  -3.431  -6.243  1.00  0.00     0.202 C 
BRANCH  33  34
ATOM     34  C   UNL     1      -4.686  -2.277  -5.550  1.00  0.00     0.261 C 
BRANCH  34  35
ATOM     35  O   UNL     1      -3.995  -1.845  -4.349  1.00  0.00    -0.460 OA
BRANCH  35  36
ATOM     36  C   UNL     1      -3.406  -0.593  -4.327  1.00  0.00     0.338 C 
ATOM     37  O   UNL     1      -3.979   0.441  -4.492  1.00  0.00    -0.246 OA
BRANCH  36  38
ATOM     38  C   UNL     1      -1.902  -0.747  -4.221  1.00  0.00     0.060 A 
ATOM     39  C   UNL     1      -0.904   0.226  -4.370  1.00  0.00     0.016 A 
ATOM     40  C   UNL     1      -1.454  -2.013  -4.259  1.00  0.00     0.016 A 
ATOM     41  C   UNL     1       0.467  -0.116  -4.789  1.00  0.00     0.010 A 
ATOM     42  C   UNL     1      -0.261  -2.227  -4.934  1.00  0.00     0.010 A 
ATOM     43  C   UNL     1       0.832  -1.399  -5.220  1.00  0.00    -0.014 A 
BRANCH  43  44
ATOM     44  C   UNL     1       2.204  -1.880  -6.050  1.00  0.00     0.031 A 
ATOM     45  C   UNL     1       3.514  -2.949  -5.657  1.00  0.00     0.074 A 
ATOM     46  C   UNL     1       2.455  -1.149  -7.154  1.00  0.00     0.049 A 
ATOM     47  N   UNL     1       4.777  -2.575  -5.559  1.00  0.00    -0.248 NA
ATOM     48  C   UNL     1       3.479  -4.375  -5.107  1.00  0.00     0.031 C 
ATOM     49  C   UNL     1       3.562  -1.295  -8.088  1.00  0.00     0.029 A 
ATOM     50  N   UNL     1       1.803   0.026  -7.559  1.00  0.00    -0.354 N 
ATOM     51  C   UNL     1       5.533  -3.661  -5.056  1.00  0.00     0.074 A 
ATOM     52  C   UNL     1       4.645  -4.617  -4.551  1.00  0.00     0.031 C 
ATOM     53  C   UNL     1       3.716  -0.128  -8.737  1.00  0.00     0.029 A 
ATOM     54  C   UNL     1       2.792   0.827  -8.141  1.00  0.00     0.049 A 
ATOM     55  H   UNL     1       0.848   0.243  -7.455  1.00  0.00     0.167 HD
ATOM     56  C   UNL     1       6.840  -3.919  -5.325  1.00  0.00     0.037 A 
ATOM     57  C   UNL     1       3.117   2.037  -7.610  1.00  0.00     0.037 A 
ATOM     58  C   UNL     1       7.290  -2.918  -6.234  1.00  0.00     0.049 A 
ATOM     59  C   UNL     1       4.585   2.119  -7.281  1.00  0.00     0.074 A 
ATOM     60  C   UNL     1       7.166  -2.839  -7.610  1.00  0.00     0.029 A 
ATOM     61  N   UNL     1       7.431  -1.639  -5.748  1.00  0.00    -0.354 N 
ATOM     62  N   UNL     1       5.324   1.090  -6.964  1.00  0.00    -0.248 NA
ATOM     63  C   UNL     1       5.341   3.364  -7.334  1.00  0.00     0.031 C 
ATOM     64  C   UNL     1       7.185  -1.468  -7.951  1.00  0.00     0.029 A 
ATOM     65  C   UNL     1       7.382  -0.743  -6.788  1.00  0.00     0.049 A 
ATOM     66  H   UNL     1       7.548  -1.402  -4.800  1.00  0.00     0.167 HD
ATOM     67  C   UNL     1       6.623   1.505  -6.808  1.00  0.00     0.074 A 
ATOM     68  C   UNL     1       6.580   2.932  -7.044  1.00  0.00     0.031 C 
ATOM     69  C   UNL     1       7.643   0.648  -6.520  1.00  0.00     0.037 A 
BRANCH  56  70
ATOM     70  C   UNL     1       7.459  -5.295  -5.112  1.00  0.00     0.064 A 
ATOM     71  C   UNL     1       8.217  -5.901  -6.132  1.00  0.00     0.173 A 
ATOM     72  C   UNL     1       7.248  -6.105  -3.970  1.00  0.00     0.173 A 
ATOM     73  F   UNL     1       8.559  -5.222  -7.234  1.00  0.00    -0.203 F 
ATOM     74  C   UNL     1       8.627  -7.238  -6.070  1.00  0.00     0.198 A 
ATOM     75  C   UNL     1       7.602  -7.462  -3.936  1.00  0.00     0.198 A 
ATOM     76  F   UNL     1       6.659  -5.605  -2.872  1.00  0.00    -0.203 F 
ATOM     77  F   UNL     1       9.331  -7.762  -7.083  1.00  0.00    -0.200 F 
ATOM     78  C   UNL     1       8.284  -8.030  -4.993  1.00  0.00     0.200 A 
ATOM     79  F   UNL     1       7.250  -8.225  -2.889  1.00  0.00    -0.200 F 
ATOM     80  F   UNL     1       8.615  -9.329  -4.973  1.00  0.00    -0.200 F 
ENDBRANCH  56  70
BRANCH  57  81
ATOM     81  C   UNL     1       2.010   2.754  -6.902  1.00  0.00     0.064 A 
ATOM     82  C   UNL     1       0.778   2.928  -7.574  1.00  0.00     0.173 A 
ATOM     83  C   UNL     1       2.022   3.039  -5.531  1.00  0.00     0.173 A 
ATOM     84  F   UNL     1       0.693   2.690  -8.894  1.00  0.00    -0.203 F 
ATOM     85  C   UNL     1      -0.397   3.255  -6.897  1.00  0.00     0.198 A 
ATOM     86  C   UNL     1       0.842   3.386  -4.854  1.00  0.00     0.198 A 
ATOM     87  F   UNL     1       3.137   2.865  -4.809  1.00  0.00    -0.203 F 
ATOM     88  F   UNL     1      -1.564   3.285  -7.556  1.00  0.00    -0.200 F 
ATOM     89  C   UNL     1      -0.366   3.473  -5.534  1.00  0.00     0.200 A 
ATOM     90  F   UNL     1       0.850   3.516  -3.518  1.00  0.00    -0.200 F 
ATOM     91  F   UNL     1      -1.506   3.683  -4.860  1.00  0.00    -0.200 F 
ENDBRANCH  57  81
BRANCH  69  92
ATOM     92  C   UNL     1       9.022   0.995  -6.010  1.00  0.00     0.064 A 
ATOM     93  C   UNL     1       9.312   2.172  -5.310  1.00  0.00     0.173 A 
ATOM     94  C   UNL     1      10.068   0.029  -6.037  1.00  0.00     0.173 A 
ATOM     95  F   UNL     1       8.380   3.111  -5.105  1.00  0.00    -0.203 F 
ATOM     96  C   UNL     1      10.564   2.395  -4.735  1.00  0.00     0.198 A 
ATOM     97  C   UNL     1      11.282   0.220  -5.387  1.00  0.00     0.198 A 
ATOM     98  F   UNL     1       9.934  -1.149  -6.663  1.00  0.00    -0.203 F 
ATOM     99  F   UNL     1      10.809   3.563  -4.127  1.00  0.00    -0.200 F 
ATOM    100  C   UNL     1      11.539   1.415  -4.755  1.00  0.00     0.200 A 
ATOM    101  F   UNL     1      12.186  -0.770  -5.360  1.00  0.00    -0.200 F 
ATOM    102  F   UNL     1      12.716   1.615  -4.149  1.00  0.00    -0.200 F 
ENDBRANCH  69  92
ENDBRANCH  43  44
ENDBRANCH  36  38
ENDBRANCH  35  36
ENDBRANCH  34  35
ENDBRANCH  33  34
ENDBRANCH  32  33
ENDBRANCH  31  32
ENDBRANCH   1  31
TORSDOF 20
