REMARK SMILES C[C@H](Oc1ccc(/C=C2/SC(=S)N(c3ccc(F)c(Cl)c3)C2=O)cc1)C(=O)OCCOCCOCCOC(=O)c1ccc(-c2c3nc(c(-c4c(F)c(F)c(F)c(F)c4F)c4ccc([nH]4)c(-c4c(F)c(F)c(F)c(F)c4F)c4nc(c(-c5c(F)c(F)c(F)c(F)c5F)c5ccc2[nH]5)C=C4)C=C3)cc1
REMARK SMILES IDX 32 1 31 2 30 3 29 4 28 5 26 6 27 7 2 8 1 9 3 10 4 11 5 12
REMARK SMILES IDX 25 13 6 14 24 15 7 16 8 17 9 18 10 19 22 20 11 21 13 22
REMARK SMILES IDX 23 23 12 24 14 25 15 26 21 27 16 28 19 29 17 30 20 31 18 32
REMARK SMILES IDX 33 33 34 34 35 35 36 36 37 37 38 38 39 39 40 40 41 41 102 42
REMARK SMILES IDX 42 43 101 44 43 45 44 46 45 47 95 48 46 49 100 50 94 51
REMARK SMILES IDX 96 52 47 53 99 54 93 55 92 56 48 58 80 59 60 60 79 61 61 62
REMARK SMILES IDX 64 63 78 64 97 65 62 66 63 67 77 69 98 70 65 71 49 72 50 73
REMARK SMILES IDX 58 74 51 75 52 76 56 77 59 78 53 79 54 80 57 81 55 82 81 83
REMARK SMILES IDX 82 84 90 85 83 86 84 87 88 88 91 89 85 90 86 91 89 92 87 93
REMARK SMILES IDX 66 94 67 95 75 96 68 97 69 98 73 99 76 100 70 101 71 102
REMARK SMILES IDX 74 103 72 104
REMARK H PARENT 96 57 64 68
REMARK Flexibility Score: inf
ROOT
ATOM      1  C   UNL     1      -2.081   1.241  -1.249  1.00  0.00     0.188 C 
ENDROOT
BRANCH   1   2
ATOM      2  O   UNL     1      -3.436   0.845  -1.336  1.00  0.00    -0.376 OA
BRANCH   2   3
ATOM      3  C   UNL     1      -3.816  -0.452  -0.901  1.00  0.00     0.202 C 
BRANCH   3   4
ATOM      4  C   UNL     1      -2.954  -1.695  -1.189  1.00  0.00     0.261 C 
BRANCH   4   5
ATOM      5  O   UNL     1      -1.543  -1.577  -0.928  1.00  0.00    -0.461 OA
BRANCH   5   6
ATOM      6  C   UNL     1      -0.727  -1.652  -2.015  1.00  0.00     0.347 C 
ATOM      7  O   UNL     1      -1.127  -1.789  -3.169  1.00  0.00    -0.248 OA
BRANCH   6   8
ATOM      8  C   UNL     1       0.778  -1.562  -1.689  1.00  0.00     0.279 C 
ATOM      9  C   UNL     1       1.331  -2.978  -1.841  1.00  0.00     0.066 C 
BRANCH   8  10
ATOM     10  O   UNL     1       1.089  -1.000  -0.417  1.00  0.00    -0.479 OA
BRANCH  10  11
ATOM     11  C   UNL     1       2.379  -0.665  -0.105  1.00  0.00     0.120 A 
ATOM     12  C   UNL     1       3.490  -0.807  -0.932  1.00  0.00     0.047 A 
ATOM     13  C   UNL     1       2.571  -0.194   1.197  1.00  0.00     0.047 A 
ATOM     14  C   UNL     1       4.784  -0.678  -0.409  1.00  0.00     0.012 A 
ATOM     15  C   UNL     1       3.861  -0.013   1.708  1.00  0.00     0.012 A 
ATOM     16  C   UNL     1       4.975  -0.355   0.936  1.00  0.00    -0.024 A 
BRANCH  16  17
ATOM     17  C   UNL     1       6.322  -0.452   1.516  1.00  0.00     0.029 C 
ATOM     18  C   UNL     1       6.668  -1.257   2.536  1.00  0.00     0.081 C 
ATOM     19  S   UNL     1       8.262  -1.308   3.187  1.00  0.00    -0.054 SA
ATOM     20  C   UNL     1       5.787  -2.193   3.301  1.00  0.00     0.270 C 
ATOM     21  C   UNL     1       7.800  -2.376   4.515  1.00  0.00     0.152 C 
ATOM     22  N   UNL     1       6.447  -2.667   4.434  1.00  0.00    -0.261 N 
ATOM     23  O   UNL     1       4.641  -2.463   2.969  1.00  0.00    -0.268 OA
ATOM     24  S   UNL     1       8.951  -2.961   5.579  1.00  0.00    -0.051 S 
BRANCH  22  25
ATOM     25  C   UNL     1       5.694  -3.368   5.432  1.00  0.00     0.052 A 
ATOM     26  C   UNL     1       4.745  -4.338   5.065  1.00  0.00     0.030 A 
ATOM     27  C   UNL     1       5.792  -3.008   6.786  1.00  0.00     0.050 A 
ATOM     28  C   UNL     1       3.909  -4.926   6.018  1.00  0.00     0.043 A 
ATOM     29  C   UNL     1       4.945  -3.589   7.736  1.00  0.00     0.078 A 
ATOM     30  C   UNL     1       4.008  -4.542   7.348  1.00  0.00     0.141 A 
ATOM     31  Cl  UNL     1       5.042  -3.076   9.377  1.00  0.00    -0.081 Cl
ATOM     32  F   UNL     1       3.172  -5.090   8.242  1.00  0.00    -0.205 F 
ENDBRANCH  22  25
ENDBRANCH  16  17
ENDBRANCH  10  11
ENDBRANCH   8  10
ENDBRANCH   6   8
ENDBRANCH   5   6
ENDBRANCH   4   5
ENDBRANCH   3   4
ENDBRANCH   2   3
ENDBRANCH   1   2
BRANCH   1  33
ATOM     33  C   UNL     1      -1.335   1.144   0.094  1.00  0.00     0.188 C 
BRANCH  33  34
ATOM     34  O   UNL     1      -1.957   0.438   1.135  1.00  0.00    -0.376 OA
BRANCH  34  35
ATOM     35  C   UNL     1      -2.848   1.092   2.020  1.00  0.00     0.202 C 
BRANCH  35  36
ATOM     36  C   UNL     1      -3.282   2.571   1.946  1.00  0.00     0.261 C 
BRANCH  36  37
ATOM     37  O   UNL     1      -2.885   3.345   0.814  1.00  0.00    -0.460 OA
BRANCH  37  38
ATOM     38  C   UNL     1      -1.828   4.175   1.008  1.00  0.00     0.338 C 
ATOM     39  O   UNL     1      -1.160   4.311   2.012  1.00  0.00    -0.246 OA
BRANCH  38  40
ATOM     40  C   UNL     1      -1.491   4.781  -0.294  1.00  0.00     0.060 A 
ATOM     41  C   UNL     1      -0.303   4.411  -0.944  1.00  0.00     0.016 A 
ATOM     42  C   UNL     1      -2.354   5.716  -0.860  1.00  0.00     0.016 A 
ATOM     43  C   UNL     1       0.026   4.981  -2.175  1.00  0.00     0.010 A 
ATOM     44  C   UNL     1      -2.008   6.308  -2.073  1.00  0.00     0.010 A 
ATOM     45  C   UNL     1      -0.810   5.959  -2.724  1.00  0.00    -0.014 A 
BRANCH  45  46
ATOM     46  C   UNL     1      -0.373   6.780  -3.876  1.00  0.00     0.031 A 
ATOM     47  C   UNL     1       0.181   8.144  -3.595  1.00  0.00     0.074 A 
ATOM     48  C   UNL     1      -0.550   6.363  -5.140  1.00  0.00     0.049 A 
ATOM     49  N   UNL     1       0.412   9.136  -4.414  1.00  0.00    -0.248 NA
ATOM     50  C   UNL     1       0.494   8.431  -2.187  1.00  0.00     0.031 C 
ATOM     51  C   UNL     1      -1.039   5.046  -5.534  1.00  0.00     0.029 A 
ATOM     52  N   UNL     1      -0.380   7.036  -6.325  1.00  0.00    -0.354 N 
ATOM     53  C   UNL     1       0.864  10.178  -3.615  1.00  0.00     0.074 A 
ATOM     54  C   UNL     1       0.858   9.702  -2.249  1.00  0.00     0.031 C 
ATOM     55  C   UNL     1      -1.176   5.019  -6.871  1.00  0.00     0.029 A 
ATOM     56  C   UNL     1      -0.833   6.335  -7.414  1.00  0.00     0.049 A 
ATOM     57  H   UNL     1       0.026   7.931  -6.386  1.00  0.00     0.167 HD
ATOM     58  C   UNL     1       1.240  11.423  -3.992  1.00  0.00     0.037 A 
ATOM     59  C   UNL     1      -1.003   6.730  -8.691  1.00  0.00     0.037 A 
ATOM     60  C   UNL     1       1.228  11.886  -5.355  1.00  0.00     0.049 A 
ATOM     61  C   UNL     1      -0.641   8.139  -9.087  1.00  0.00     0.074 A 
ATOM     62  C   UNL     1       1.623  13.114  -5.852  1.00  0.00     0.029 A 
ATOM     63  N   UNL     1       0.778  11.141  -6.437  1.00  0.00    -0.354 N 
ATOM     64  N   UNL     1      -0.190   9.119  -8.341  1.00  0.00    -0.248 NA
ATOM     65  C   UNL     1      -0.812   8.498 -10.502  1.00  0.00     0.031 C 
ATOM     66  C   UNL     1       1.343  13.139  -7.222  1.00  0.00     0.029 A 
ATOM     67  C   UNL     1       0.851  11.898  -7.595  1.00  0.00     0.049 A 
ATOM     68  H   UNL     1       0.454  10.213  -6.388  1.00  0.00     0.167 HD
ATOM     69  C   UNL     1       0.008  10.196  -9.196  1.00  0.00     0.074 A 
ATOM     70  C   UNL     1      -0.374   9.750 -10.520  1.00  0.00     0.031 C 
ATOM     71  C   UNL     1       0.475  11.438  -8.910  1.00  0.00     0.037 A 
BRANCH  58  72
ATOM     72  C   UNL     1       1.632  12.381  -2.903  1.00  0.00     0.064 A 
ATOM     73  C   UNL     1       2.782  12.194  -2.122  1.00  0.00     0.173 A 
ATOM     74  C   UNL     1       0.828  13.498  -2.626  1.00  0.00     0.173 A 
ATOM     75  F   UNL     1       3.579  11.136  -2.334  1.00  0.00    -0.203 F 
ATOM     76  C   UNL     1       3.084  13.058  -1.072  1.00  0.00     0.198 A 
ATOM     77  C   UNL     1       1.155  14.383  -1.602  1.00  0.00     0.198 A 
ATOM     78  F   UNL     1      -0.281  13.730  -3.344  1.00  0.00    -0.203 F 
ATOM     79  F   UNL     1       4.145  12.814  -0.290  1.00  0.00    -0.200 F 
ATOM     80  C   UNL     1       2.273  14.154  -0.816  1.00  0.00     0.200 A 
ATOM     81  F   UNL     1       0.379  15.449  -1.368  1.00  0.00    -0.200 F 
ATOM     82  F   UNL     1       2.563  14.982   0.197  1.00  0.00    -0.200 F 
ENDBRANCH  58  72
BRANCH  59  83
ATOM     83  C   UNL     1      -1.571   5.775  -9.678  1.00  0.00     0.064 A 
ATOM     84  C   UNL     1      -0.779   5.232 -10.697  1.00  0.00     0.173 A 
ATOM     85  C   UNL     1      -2.909   5.361  -9.600  1.00  0.00     0.173 A 
ATOM     86  F   UNL     1       0.499   5.617 -10.829  1.00  0.00    -0.203 F 
ATOM     87  C   UNL     1      -1.304   4.311 -11.603  1.00  0.00     0.198 A 
ATOM     88  C   UNL     1      -3.425   4.419 -10.487  1.00  0.00     0.198 A 
ATOM     89  F   UNL     1      -3.710   5.853  -8.643  1.00  0.00    -0.203 F 
ATOM     90  F   UNL     1      -0.532   3.829 -12.587  1.00  0.00    -0.200 F 
ATOM     91  C   UNL     1      -2.623   3.897 -11.490  1.00  0.00     0.200 A 
ATOM     92  F   UNL     1      -4.696   4.012 -10.366  1.00  0.00    -0.200 F 
ATOM     93  F   UNL     1      -3.121   2.998 -12.350  1.00  0.00    -0.200 F 
ENDBRANCH  59  83
BRANCH  71  94
ATOM     94  C   UNL     1       0.659  12.399 -10.052  1.00  0.00     0.064 A 
ATOM     95  C   UNL     1      -0.428  12.993 -10.709  1.00  0.00     0.173 A 
ATOM     96  C   UNL     1       1.952  12.791 -10.437  1.00  0.00     0.173 A 
ATOM     97  F   UNL     1      -1.683  12.646 -10.389  1.00  0.00    -0.203 F 
ATOM     98  C   UNL     1      -0.227  13.934 -11.717  1.00  0.00     0.198 A 
ATOM     99  C   UNL     1       2.148  13.755 -11.421  1.00  0.00     0.198 A 
ATOM    100  F   UNL     1       3.027  12.259  -9.835  1.00  0.00    -0.203 F 
ATOM    101  F   UNL     1      -1.279  14.463 -12.357  1.00  0.00    -0.200 F 
ATOM    102  C   UNL     1       1.059  14.323 -12.064  1.00  0.00     0.200 A 
ATOM    103  F   UNL     1       3.391  14.142 -11.739  1.00  0.00    -0.200 F 
ATOM    104  F   UNL     1       1.249  15.243 -13.019  1.00  0.00    -0.200 F 
ENDBRANCH  71  94
ENDBRANCH  45  46
ENDBRANCH  38  40
ENDBRANCH  37  38
ENDBRANCH  36  37
ENDBRANCH  35  36
ENDBRANCH  34  35
ENDBRANCH  33  34
ENDBRANCH   1  33
TORSDOF 21
