REMARK SMILES CCSc1nc(CC(=O)N[C@@H](C(=O)OCCOCCOCCOC(=O)c2ccc(-c3c4nc(c(-c5c(F)c(F)c(F)c(F)c5F)c5ccc([nH]5)c(-c5c(F)c(F)c(F)c(F)c5F)c5nc(c(-c6c(F)c(F)c(F)c(F)c6F)c6ccc3[nH]6)C=C5)C=C4)cc2)C2=C(C)N=N[C@@H]2C)cs1
REMARK SMILES IDX 17 1 16 2 15 3 14 4 12 5 13 6 11 7 10 8 8 9 9 10 7 12 6 13
REMARK SMILES IDX 4 14 5 15 97 16 96 17 3 18 2 19 1 20 89 21 90 22 94 23 91 24
REMARK SMILES IDX 92 25 93 26 95 27 18 28 19 29 20 30 21 31 22 32 23 33 24 34
REMARK SMILES IDX 25 35 26 36 27 37 88 38 28 39 87 40 29 41 30 42 31 43 81 44
REMARK SMILES IDX 32 45 86 46 80 47 82 48 33 49 85 50 79 51 78 52 34 54 66 55
REMARK SMILES IDX 46 56 65 57 47 58 50 59 64 60 83 61 48 62 49 63 63 65 84 66
REMARK SMILES IDX 51 67 35 68 36 69 44 70 37 71 38 72 42 73 45 74 39 75 40 76
REMARK SMILES IDX 43 77 41 78 67 79 68 80 76 81 69 82 70 83 74 84 77 85 71 86
REMARK SMILES IDX 72 87 75 88 73 89 52 90 53 91 61 92 54 93 55 94 59 95 62 96
REMARK SMILES IDX 56 97 57 98 60 99 58 100
REMARK H PARENT 10 11 82 53 50 64
REMARK Flexibility Score: inf
ROOT
ATOM      1  O   UNL     1       4.090   1.115  -2.971  1.00  0.00    -0.376 OA
ENDROOT
BRANCH   1   2
ATOM      2  C   UNL     1       3.088   1.063  -1.964  1.00  0.00     0.202 C 
BRANCH   2   3
ATOM      3  C   UNL     1       3.654   0.947  -0.549  1.00  0.00     0.261 C 
BRANCH   3   4
ATOM      4  O   UNL     1       4.183  -0.338  -0.153  1.00  0.00    -0.461 OA
BRANCH   4   5
ATOM      5  C   UNL     1       3.441  -1.475  -0.233  1.00  0.00     0.333 C 
ATOM      6  O   UNL     1       2.304  -1.520  -0.685  1.00  0.00    -0.249 OA
BRANCH   5   7
ATOM      7  C   UNL     1       4.197  -2.700   0.394  1.00  0.00     0.223 C 
BRANCH   7   8
ATOM      8  N   UNL     1       5.628  -2.463   0.587  1.00  0.00    -0.339 N 
ATOM      9  C   UNL     1       6.267  -1.977   1.689  1.00  0.00     0.226 C 
ATOM     10  O   UNL     1       7.471  -1.727   1.600  1.00  0.00    -0.275 OA
ATOM     11  H   UNL     1       6.205  -2.683  -0.180  1.00  0.00     0.164 HD
BRANCH   9  12
ATOM     12  C   UNL     1       5.535  -1.845   3.007  1.00  0.00     0.157 C 
BRANCH  12  13
ATOM     13  C   UNL     1       4.540  -0.734   3.025  1.00  0.00     0.062 A 
ATOM     14  C   UNL     1       2.465   0.037   3.173  1.00  0.00     0.150 A 
ATOM     15  N   UNL     1       3.186  -1.056   3.051  1.00  0.00    -0.234 NA
ATOM     16  S   UNL     1       3.348   1.505   3.212  1.00  0.00    -0.116 S 
ATOM     17  C   UNL     1       4.809   0.621   3.051  1.00  0.00     0.092 A 
BRANCH  14  18
ATOM     18  S   UNL     1       0.727  -0.024   3.356  1.00  0.00    -0.096 SA
BRANCH  18  19
ATOM     19  C   UNL     1       0.232  -0.933   1.864  1.00  0.00     0.074 C 
ATOM     20  C   UNL     1       0.018   0.020   0.700  1.00  0.00     0.016 C 
ENDBRANCH  18  19
ENDBRANCH  14  18
ENDBRANCH  12  13
ENDBRANCH   9  12
ENDBRANCH   7   8
BRANCH   7  21
ATOM     21  C   UNL     1       4.044  -4.009  -0.317  1.00  0.00     0.012 C 
ATOM     22  C   UNL     1       4.384  -5.237   0.101  1.00  0.00     0.064 C 
ATOM     23  C   UNL     1       3.344  -4.236  -1.616  1.00  0.00     0.156 C 
ATOM     24  C   UNL     1       5.125  -5.640   1.327  1.00  0.00     0.069 C 
ATOM     25  N   UNL     1       3.922  -6.223  -0.734  1.00  0.00    -0.160 NA
ATOM     26  N   UNL     1       3.260  -5.720  -1.681  1.00  0.00    -0.181 NA
ATOM     27  C   UNL     1       4.154  -3.787  -2.824  1.00  0.00     0.040 C 
ENDBRANCH   7  21
ENDBRANCH   5   7
ENDBRANCH   4   5
ENDBRANCH   3   4
ENDBRANCH   2   3
ENDBRANCH   1   2
BRANCH   1  28
ATOM     28  C   UNL     1       4.711  -0.122  -3.279  1.00  0.00     0.188 C 
BRANCH  28  29
ATOM     29  C   UNL     1       6.003  -0.415  -2.495  1.00  0.00     0.188 C 
BRANCH  29  30
ATOM     30  O   UNL     1       6.863   0.637  -2.088  1.00  0.00    -0.376 OA
BRANCH  30  31
ATOM     31  C   UNL     1       6.983   1.786  -2.909  1.00  0.00     0.202 C 
BRANCH  31  32
ATOM     32  C   UNL     1       7.672   1.612  -4.266  1.00  0.00     0.261 C 
BRANCH  32  33
ATOM     33  O   UNL     1       7.196   0.489  -5.024  1.00  0.00    -0.460 OA
BRANCH  33  34
ATOM     34  C   UNL     1       7.990  -0.610  -4.999  1.00  0.00     0.338 C 
ATOM     35  O   UNL     1       9.084  -0.720  -4.470  1.00  0.00    -0.246 OA
BRANCH  34  36
ATOM     36  C   UNL     1       7.249  -1.765  -5.558  1.00  0.00     0.060 A 
ATOM     37  C   UNL     1       7.332  -2.995  -4.886  1.00  0.00     0.016 A 
ATOM     38  C   UNL     1       6.488  -1.654  -6.723  1.00  0.00     0.016 A 
ATOM     39  C   UNL     1       6.683  -4.121  -5.395  1.00  0.00     0.010 A 
ATOM     40  C   UNL     1       5.867  -2.790  -7.251  1.00  0.00     0.010 A 
ATOM     41  C   UNL     1       5.987  -4.034  -6.608  1.00  0.00    -0.014 A 
BRANCH  41  42
ATOM     42  C   UNL     1       5.601  -5.266  -7.338  1.00  0.00     0.031 A 
ATOM     43  C   UNL     1       6.653  -5.946  -8.168  1.00  0.00     0.074 A 
ATOM     44  C   UNL     1       4.347  -5.750  -7.313  1.00  0.00     0.049 A 
ATOM     45  N   UNL     1       6.537  -6.947  -9.002  1.00  0.00    -0.248 NA
ATOM     46  C   UNL     1       8.023  -5.423  -8.041  1.00  0.00     0.031 C 
ATOM     47  C   UNL     1       3.252  -5.225  -6.504  1.00  0.00     0.029 A 
ATOM     48  N   UNL     1       3.781  -6.790  -8.010  1.00  0.00    -0.354 N 
ATOM     49  C   UNL     1       7.815  -7.170  -9.497  1.00  0.00     0.074 A 
ATOM     50  C   UNL     1       8.690  -6.201  -8.878  1.00  0.00     0.031 C 
ATOM     51  C   UNL     1       2.139  -5.934  -6.762  1.00  0.00     0.029 A 
ATOM     52  C   UNL     1       2.431  -6.928  -7.795  1.00  0.00     0.049 A 
ATOM     53  H   UNL     1       4.295  -7.382  -8.607  1.00  0.00     0.167 HD
ATOM     54  C   UNL     1       8.222  -8.091 -10.399  1.00  0.00     0.037 A 
ATOM     55  C   UNL     1       1.533  -7.734  -8.396  1.00  0.00     0.037 A 
ATOM     56  C   UNL     1       7.348  -9.023 -11.055  1.00  0.00     0.049 A 
ATOM     57  C   UNL     1       1.990  -8.671  -9.488  1.00  0.00     0.074 A 
ATOM     58  C   UNL     1       7.661  -9.971 -12.012  1.00  0.00     0.029 A 
ATOM     59  N   UNL     1       5.982  -9.107 -10.834  1.00  0.00    -0.354 N 
ATOM     60  N   UNL     1       3.200  -8.882  -9.949  1.00  0.00    -0.248 NA
ATOM     61  C   UNL     1       0.953  -9.474 -10.156  1.00  0.00     0.031 C 
ATOM     62  C   UNL     1       6.475 -10.596 -12.408  1.00  0.00     0.029 A 
ATOM     63  C   UNL     1       5.433 -10.076 -11.656  1.00  0.00     0.049 A 
ATOM     64  H   UNL     1       5.479  -8.560 -10.189  1.00  0.00     0.167 HD
ATOM     65  C   UNL     1       3.075  -9.863 -10.925  1.00  0.00     0.074 A 
ATOM     66  C   UNL     1       1.671 -10.207 -10.997  1.00  0.00     0.031 C 
ATOM     67  C   UNL     1       4.038 -10.431 -11.690  1.00  0.00     0.037 A 
BRANCH  54  68
ATOM     68  C   UNL     1       9.673  -8.088 -10.768  1.00  0.00     0.064 A 
ATOM     69  C   UNL     1      10.656  -8.560  -9.885  1.00  0.00     0.173 A 
ATOM     70  C   UNL     1      10.084  -7.608 -12.020  1.00  0.00     0.173 A 
ATOM     71  F   UNL     1      10.312  -9.006  -8.668  1.00  0.00    -0.203 F 
ATOM     72  C   UNL     1      12.002  -8.530 -10.236  1.00  0.00     0.198 A 
ATOM     73  C   UNL     1      11.429  -7.604 -12.376  1.00  0.00     0.198 A 
ATOM     74  F   UNL     1       9.181  -7.142 -12.895  1.00  0.00    -0.203 F 
ATOM     75  F   UNL     1      12.930  -8.941  -9.360  1.00  0.00    -0.200 F 
ATOM     76  C   UNL     1      12.387  -8.058 -11.482  1.00  0.00     0.200 A 
ATOM     77  F   UNL     1      11.798  -7.153 -13.583  1.00  0.00    -0.200 F 
ATOM     78  F   UNL     1      13.684  -8.030 -11.819  1.00  0.00    -0.200 F 
ENDBRANCH  54  68
BRANCH  55  79
ATOM     79  C   UNL     1       0.095  -7.671  -8.019  1.00  0.00     0.064 A 
ATOM     80  C   UNL     1      -0.537  -8.758  -7.398  1.00  0.00     0.173 A 
ATOM     81  C   UNL     1      -0.689  -6.547  -8.318  1.00  0.00     0.173 A 
ATOM     82  F   UNL     1       0.161  -9.870  -7.123  1.00  0.00    -0.203 F 
ATOM     83  C   UNL     1      -1.901  -8.731  -7.111  1.00  0.00     0.198 A 
ATOM     84  C   UNL     1      -2.047  -6.510  -8.004  1.00  0.00     0.198 A 
ATOM     85  F   UNL     1      -0.138  -5.484  -8.922  1.00  0.00    -0.203 F 
ATOM     86  F   UNL     1      -2.491  -9.806  -6.569  1.00  0.00    -0.200 F 
ATOM     87  C   UNL     1      -2.654  -7.606  -7.410  1.00  0.00     0.200 A 
ATOM     88  F   UNL     1      -2.768  -5.418  -8.290  1.00  0.00    -0.200 F 
ATOM     89  F   UNL     1      -3.966  -7.582  -7.140  1.00  0.00    -0.200 F 
ENDBRANCH  55  79
BRANCH  67  90
ATOM     90  C   UNL     1       3.638 -11.531 -12.629  1.00  0.00     0.064 A 
ATOM     91  C   UNL     1       2.957 -11.271 -13.826  1.00  0.00     0.173 A 
ATOM     92  C   UNL     1       4.033 -12.852 -12.369  1.00  0.00     0.173 A 
ATOM     93  F   UNL     1       2.548 -10.026 -14.114  1.00  0.00    -0.203 F 
ATOM     94  C   UNL     1       2.683 -12.296 -14.728  1.00  0.00     0.198 A 
ATOM     95  C   UNL     1       3.781 -13.870 -13.284  1.00  0.00     0.198 A 
ATOM     96  F   UNL     1       4.695 -13.150 -11.240  1.00  0.00    -0.203 F 
ATOM     97  F   UNL     1       2.011 -12.031 -15.857  1.00  0.00    -0.200 F 
ATOM     98  C   UNL     1       3.105 -13.591 -14.462  1.00  0.00     0.200 A 
ATOM     99  F   UNL     1       4.205 -15.116 -13.033  1.00  0.00    -0.200 F 
ATOM    100  F   UNL     1       2.861 -14.571 -15.343  1.00  0.00    -0.200 F 
ENDBRANCH  67  90
ENDBRANCH  41  42
ENDBRANCH  34  36
ENDBRANCH  33  34
ENDBRANCH  32  33
ENDBRANCH  31  32
ENDBRANCH  30  31
ENDBRANCH  29  30
ENDBRANCH  28  29
ENDBRANCH   1  28
TORSDOF 23
