REMARK SMILES COc1cccc(NC(=O)COc2csc(C(=O)OCCOCCOCCOC(=O)c3ccc(-c4c5nc(c(-c6c(F)c(F)c(F)c(F)c6F)c6ccc([nH]6)c(-c6c(F)c(F)c(F)c(F)c6F)c6nc(c(-c7c(F)c(F)c(F)c(F)c7F)c7ccc4[nH]7)C=C6)C=C5)cc3)c2)c1
REMARK SMILES IDX 22 1 21 2 20 3 19 4 17 5 18 6 16 7 13 8 14 9 94 10 15 11
REMARK SMILES IDX 12 12 11 13 9 14 8 15 10 17 7 18 3 19 4 20 95 21 5 22 6 23
REMARK SMILES IDX 2 24 1 25 23 26 24 27 25 28 26 29 27 30 28 31 29 32 30 33
REMARK SMILES IDX 31 34 32 35 93 36 33 37 92 38 34 39 35 40 36 41 86 42 37 43
REMARK SMILES IDX 91 44 85 45 87 46 38 47 90 48 84 49 83 50 39 52 71 53 51 54
REMARK SMILES IDX 70 55 52 56 55 57 69 58 88 59 53 60 54 61 68 63 89 64 56 65
REMARK SMILES IDX 40 66 41 67 49 68 42 69 43 70 47 71 50 72 44 73 45 74 48 75
REMARK SMILES IDX 46 76 72 77 73 78 81 79 74 80 75 81 79 82 82 83 76 84 77 85
REMARK SMILES IDX 80 86 78 87 57 88 58 89 66 90 59 91 60 92 64 93 67 94 61 95
REMARK SMILES IDX 62 96 65 97 63 98
REMARK H PARENT 8 16 87 51 55 62
REMARK Flexibility Score: inf
ROOT
ATOM      1  O   UNL     1       5.111  10.005  -7.146  1.00  0.00    -0.376 OA
ENDROOT
BRANCH   1   2
ATOM      2  C   UNL     1       3.732  10.249  -7.390  1.00  0.00     0.202 C 
BRANCH   2   3
ATOM      3  C   UNL     1       2.770   9.076  -7.186  1.00  0.00     0.261 C 
BRANCH   3   4
ATOM      4  O   UNL     1       2.805   8.549  -5.850  1.00  0.00    -0.459 OA
BRANCH   4   5
ATOM      5  C   UNL     1       3.209   7.249  -5.736  1.00  0.00     0.348 C 
ATOM      6  O   UNL     1       3.395   6.492  -6.681  1.00  0.00    -0.245 OA
BRANCH   5   7
ATOM      7  C   UNL     1       3.505   6.950  -4.349  1.00  0.00     0.116 A 
ATOM      8  C   UNL     1       3.540   6.893  -2.010  1.00  0.00     0.131 A 
ATOM      9  C   UNL     1       4.651   6.141  -2.317  1.00  0.00     0.112 A 
ATOM     10  C   UNL     1       2.897   7.386  -3.186  1.00  0.00     0.074 A 
ATOM     11  S   UNL     1       4.842   5.936  -4.004  1.00  0.00    -0.133 S 
BRANCH   8  12
ATOM     12  O   UNL     1       3.031   7.156  -0.780  1.00  0.00    -0.483 OA
BRANCH  12  13
ATOM     13  C   UNL     1       3.834   6.871   0.346  1.00  0.00     0.329 C 
BRANCH  13  14
ATOM     14  C   UNL     1       4.356   5.468   0.685  1.00  0.00     0.262 C 
ATOM     15  N   UNL     1       3.628   4.327   0.566  1.00  0.00    -0.323 N 
ATOM     16  H   UNL     1       4.156   3.518   0.754  1.00  0.00     0.170 HD
ATOM     17  O   UNL     1       5.528   5.340   1.070  1.00  0.00    -0.271 OA
BRANCH  15  18
ATOM     18  C   UNL     1       2.294   4.040   0.237  1.00  0.00     0.044 A 
ATOM     19  C   UNL     1       0.719   2.305  -0.437  1.00  0.00     0.120 A 
ATOM     20  C   UNL     1      -0.290   3.258  -0.524  1.00  0.00     0.046 A 
ATOM     21  C   UNL     1       2.008   2.698  -0.069  1.00  0.00     0.072 A 
ATOM     22  C   UNL     1      -0.028   4.582  -0.182  1.00  0.00     0.006 A 
ATOM     23  C   UNL     1       1.256   4.968   0.215  1.00  0.00     0.026 A 
BRANCH  19  24
ATOM     24  O   UNL     1       0.362   1.030  -0.783  1.00  0.00    -0.497 OA
ATOM     25  C   UNL     1       1.022   0.001  -0.052  1.00  0.00     0.278 C 
ENDBRANCH  19  24
ENDBRANCH  15  18
ENDBRANCH  13  14
ENDBRANCH  12  13
ENDBRANCH   8  12
ENDBRANCH   5   7
ENDBRANCH   4   5
ENDBRANCH   3   4
ENDBRANCH   2   3
ENDBRANCH   1   2
BRANCH   1  26
ATOM     26  C   UNL     1       5.559   9.719  -5.825  1.00  0.00     0.188 C 
BRANCH  26  27
ATOM     27  C   UNL     1       4.930  10.435  -4.614  1.00  0.00     0.188 C 
BRANCH  27  28
ATOM     28  O   UNL     1       4.273  11.653  -4.933  1.00  0.00    -0.376 OA
BRANCH  28  29
ATOM     29  C   UNL     1       4.853  12.833  -4.395  1.00  0.00     0.202 C 
BRANCH  29  30
ATOM     30  C   UNL     1       6.059  13.323  -5.200  1.00  0.00     0.261 C 
BRANCH  30  31
ATOM     31  O   UNL     1       7.171  12.412  -5.220  1.00  0.00    -0.460 OA
BRANCH  31  32
ATOM     32  C   UNL     1       7.795  12.191  -4.042  1.00  0.00     0.338 C 
ATOM     33  O   UNL     1       7.526  12.675  -2.958  1.00  0.00    -0.246 OA
BRANCH  32  34
ATOM     34  C   UNL     1       8.793  11.125  -4.253  1.00  0.00     0.060 A 
ATOM     35  C   UNL     1       8.745   9.983  -3.446  1.00  0.00     0.016 A 
ATOM     36  C   UNL     1       9.774  11.260  -5.239  1.00  0.00     0.016 A 
ATOM     37  C   UNL     1       9.703   8.979  -3.608  1.00  0.00     0.010 A 
ATOM     38  C   UNL     1      10.738  10.262  -5.391  1.00  0.00     0.010 A 
ATOM     39  C   UNL     1      10.723   9.130  -4.559  1.00  0.00    -0.014 A 
BRANCH  39  40
ATOM     40  C   UNL     1      11.864   8.185  -4.587  1.00  0.00     0.031 A 
ATOM     41  C   UNL     1      13.113   8.537  -3.832  1.00  0.00     0.074 A 
ATOM     42  C   UNL     1      11.805   7.043  -5.294  1.00  0.00     0.049 A 
ATOM     43  N   UNL     1      14.246   7.889  -3.746  1.00  0.00    -0.248 NA
ATOM     44  C   UNL     1      13.081   9.800  -3.077  1.00  0.00     0.031 C 
ATOM     45  C   UNL     1      10.653   6.588  -6.068  1.00  0.00     0.029 A 
ATOM     46  N   UNL     1      12.753   6.070  -5.489  1.00  0.00    -0.354 N 
ATOM     47  C   UNL     1      15.062   8.663  -2.934  1.00  0.00     0.074 A 
ATOM     48  C   UNL     1      14.305   9.843  -2.573  1.00  0.00     0.031 C 
ATOM     49  C   UNL     1      10.970   5.431  -6.676  1.00  0.00     0.029 A 
ATOM     50  C   UNL     1      12.352   5.079  -6.349  1.00  0.00     0.049 A 
ATOM     51  H   UNL     1      13.636   6.082  -5.054  1.00  0.00     0.167 HD
ATOM     52  C   UNL     1      16.326   8.411  -2.519  1.00  0.00     0.037 A 
ATOM     53  C   UNL     1      13.031   4.020  -6.832  1.00  0.00     0.037 A 
ATOM     54  C   UNL     1      17.082   7.242  -2.879  1.00  0.00     0.049 A 
ATOM     55  C   UNL     1      14.451   3.779  -6.390  1.00  0.00     0.074 A 
ATOM     56  C   UNL     1      18.350   6.873  -2.466  1.00  0.00     0.029 A 
ATOM     57  N   UNL     1      16.644   6.260  -3.755  1.00  0.00    -0.354 N 
ATOM     58  N   UNL     1      15.194   4.480  -5.569  1.00  0.00    -0.248 NA
ATOM     59  C   UNL     1      15.125   2.592  -6.939  1.00  0.00     0.031 C 
ATOM     60  C   UNL     1      18.699   5.691  -3.130  1.00  0.00     0.029 A 
ATOM     61  C   UNL     1      17.630   5.301  -3.921  1.00  0.00     0.049 A 
ATOM     62  H   UNL     1      15.763   6.247  -4.194  1.00  0.00     0.167 HD
ATOM     63  C   UNL     1      16.410   3.815  -5.487  1.00  0.00     0.074 A 
ATOM     64  C   UNL     1      16.305   2.646  -6.335  1.00  0.00     0.031 C 
ATOM     65  C   UNL     1      17.514   4.144  -4.771  1.00  0.00     0.037 A 
BRANCH  52  66
ATOM     66  C   UNL     1      16.977   9.443  -1.649  1.00  0.00     0.064 A 
ATOM     67  C   UNL     1      16.590   9.630  -0.313  1.00  0.00     0.173 A 
ATOM     68  C   UNL     1      18.004  10.252  -2.156  1.00  0.00     0.173 A 
ATOM     69  F   UNL     1      15.602   8.892   0.213  1.00  0.00    -0.203 F 
ATOM     70  C   UNL     1      17.187  10.612   0.473  1.00  0.00     0.198 A 
ATOM     71  C   UNL     1      18.616  11.216  -1.360  1.00  0.00     0.198 A 
ATOM     72  F   UNL     1      18.411  10.111  -3.427  1.00  0.00    -0.203 F 
ATOM     73  F   UNL     1      16.766  10.809   1.730  1.00  0.00    -0.200 F 
ATOM     74  C   UNL     1      18.201  11.401  -0.050  1.00  0.00     0.200 A 
ATOM     75  F   UNL     1      19.601  11.972  -1.863  1.00  0.00    -0.200 F 
ATOM     76  F   UNL     1      18.772  12.348   0.707  1.00  0.00    -0.200 F 
ENDBRANCH  52  66
BRANCH  53  77
ATOM     77  C   UNL     1      12.373   3.111  -7.803  1.00  0.00     0.064 A 
ATOM     78  C   UNL     1      11.975   1.820  -7.433  1.00  0.00     0.173 A 
ATOM     79  C   UNL     1      12.124   3.521  -9.122  1.00  0.00     0.173 A 
ATOM     80  F   UNL     1      12.219   1.375  -6.192  1.00  0.00    -0.203 F 
ATOM     81  C   UNL     1      11.357   0.969  -8.347  1.00  0.00     0.198 A 
ATOM     82  C   UNL     1      11.487   2.677 -10.028  1.00  0.00     0.198 A 
ATOM     83  F   UNL     1      12.494   4.745  -9.525  1.00  0.00    -0.203 F 
ATOM     84  F   UNL     1      11.016  -0.273  -7.979  1.00  0.00    -0.200 F 
ATOM     85  C   UNL     1      11.107   1.401  -9.642  1.00  0.00     0.200 A 
ATOM     86  F   UNL     1      11.243   3.100 -11.277  1.00  0.00    -0.200 F 
ATOM     87  F   UNL     1      10.508   0.584 -10.519  1.00  0.00    -0.200 F 
ENDBRANCH  53  77
BRANCH  65  88
ATOM     88  C   UNL     1      18.694   3.220  -4.856  1.00  0.00     0.064 A 
ATOM     89  C   UNL     1      19.509   3.172  -5.996  1.00  0.00     0.173 A 
ATOM     90  C   UNL     1      19.046   2.413  -3.763  1.00  0.00     0.173 A 
ATOM     91  F   UNL     1      19.207   3.915  -7.072  1.00  0.00    -0.203 F 
ATOM     92  C   UNL     1      20.623   2.338  -6.046  1.00  0.00     0.198 A 
ATOM     93  C   UNL     1      20.174   1.598  -3.806  1.00  0.00     0.198 A 
ATOM     94  F   UNL     1      18.303   2.427  -2.646  1.00  0.00    -0.203 F 
ATOM     95  F   UNL     1      21.367   2.282  -7.159  1.00  0.00    -0.200 F 
ATOM     96  C   UNL     1      20.958   1.558  -4.949  1.00  0.00     0.200 A 
ATOM     97  F   UNL     1      20.503   0.854  -2.741  1.00  0.00    -0.200 F 
ATOM     98  F   UNL     1      22.036   0.762  -4.995  1.00  0.00    -0.200 F 
ENDBRANCH  65  88
ENDBRANCH  39  40
ENDBRANCH  32  34
ENDBRANCH  31  32
ENDBRANCH  30  31
ENDBRANCH  29  30
ENDBRANCH  28  29
ENDBRANCH  27  28
ENDBRANCH  26  27
ENDBRANCH   1  26
TORSDOF 22
