REMARK SMILES O=C(OCCOCCOCCOC(=O)[C@@]1([NH2+]C2CC2)CC[C@H](SC2CCCC2)C1)c1ccc(-c2c3nc(c(-c4c(F)c(F)c(F)c(F)c4F)c4ccc([nH]4)c(-c4c(F)c(F)c(F)c(F)c4F)c4nc(c(-c5c(F)c(F)c(F)c(F)c5F)c5ccc2[nH]5)C=C4)C=C3)cc1
REMARK SMILES IDX 7 1 6 2 5 3 4 4 3 5 2 6 1 7 30 8 31 9 92 10 32 11 91 12
REMARK SMILES IDX 33 13 34 14 35 15 85 16 36 17 90 18 84 19 86 20 37 21 89 22
REMARK SMILES IDX 83 23 82 24 38 26 70 27 50 28 69 29 51 30 54 31 68 32 87 33
REMARK SMILES IDX 52 34 53 35 67 37 88 38 55 39 39 40 40 41 48 42 41 43 42 44
REMARK SMILES IDX 46 45 49 46 43 47 44 48 47 49 45 50 71 51 72 52 80 53 73 54
REMARK SMILES IDX 74 55 78 56 81 57 75 58 76 59 79 60 77 61 56 62 57 63 65 64
REMARK SMILES IDX 58 65 59 66 63 67 66 68 60 69 61 70 64 71 62 72 8 73 9 74
REMARK SMILES IDX 10 75 11 76 12 77 13 78 14 79 15 80 20 81 29 82 21 83 22 84
REMARK SMILES IDX 16 85 17 88 18 89 19 90 23 91 24 92 25 93 28 94 26 95 27 96
REMARK H PARENT 86 25 54 36 16 86 16 87
REMARK Flexibility Score: inf
ROOT
ATOM      1  C   UNL     1       2.599  -0.344  -1.625  1.00  0.00     0.188 C 
ENDROOT
BRANCH   1   2
ATOM      2  O   UNL     1       3.936   0.127  -1.430  1.00  0.00    -0.376 OA
BRANCH   2   3
ATOM      3  C   UNL     1       4.881  -0.862  -1.034  1.00  0.00     0.202 C 
BRANCH   3   4
ATOM      4  C   UNL     1       4.643  -1.622   0.279  1.00  0.00     0.261 C 
BRANCH   4   5
ATOM      5  O   UNL     1       3.353  -1.490   0.896  1.00  0.00    -0.460 OA
BRANCH   5   6
ATOM      6  C   UNL     1       2.774  -0.471   1.567  1.00  0.00     0.338 C 
ATOM      7  O   UNL     1       1.651  -0.654   2.037  1.00  0.00    -0.246 OA
BRANCH   6   8
ATOM      8  C   UNL     1       3.375   0.889   1.726  1.00  0.00     0.060 A 
ATOM      9  C   UNL     1       4.719   1.200   1.535  1.00  0.00     0.016 A 
ATOM     10  C   UNL     1       2.512   1.923   2.154  1.00  0.00     0.016 A 
ATOM     11  C   UNL     1       5.188   2.495   1.745  1.00  0.00     0.010 A 
ATOM     12  C   UNL     1       2.982   3.218   2.406  1.00  0.00     0.010 A 
ATOM     13  C   UNL     1       4.333   3.499   2.217  1.00  0.00    -0.014 A 
BRANCH  13  14
ATOM     14  C   UNL     1       4.988   4.711   2.752  1.00  0.00     0.031 A 
ATOM     15  C   UNL     1       5.705   4.550   4.056  1.00  0.00     0.074 A 
ATOM     16  C   UNL     1       5.097   5.833   2.022  1.00  0.00     0.049 A 
ATOM     17  N   UNL     1       6.595   5.317   4.620  1.00  0.00    -0.248 NA
ATOM     18  C   UNL     1       5.379   3.332   4.820  1.00  0.00     0.031 C 
ATOM     19  C   UNL     1       4.426   6.071   0.753  1.00  0.00     0.029 A 
ATOM     20  N   UNL     1       5.883   6.944   2.200  1.00  0.00    -0.354 N 
ATOM     21  C   UNL     1       6.920   4.687   5.812  1.00  0.00     0.074 A 
ATOM     22  C   UNL     1       6.167   3.455   5.873  1.00  0.00     0.031 C 
ATOM     23  C   UNL     1       4.932   7.182   0.193  1.00  0.00     0.029 A 
ATOM     24  C   UNL     1       5.915   7.769   1.097  1.00  0.00     0.049 A 
ATOM     25  H   UNL     1       6.376   7.131   3.031  1.00  0.00     0.167 HD
ATOM     26  C   UNL     1       7.737   5.131   6.793  1.00  0.00     0.037 A 
ATOM     27  C   UNL     1       6.676   8.856   0.855  1.00  0.00     0.037 A 
ATOM     28  C   UNL     1       8.404   6.401   6.742  1.00  0.00     0.049 A 
ATOM     29  C   UNL     1       7.583   9.330   1.965  1.00  0.00     0.074 A 
ATOM     30  C   UNL     1       9.168   7.020   7.712  1.00  0.00     0.029 A 
ATOM     31  N   UNL     1       8.355   7.264   5.653  1.00  0.00    -0.354 N 
ATOM     32  N   UNL     1       7.874   8.750   3.107  1.00  0.00    -0.248 NA
ATOM     33  C   UNL     1       8.228  10.636   1.777  1.00  0.00     0.031 C 
ATOM     34  C   UNL     1       9.527   8.285   7.234  1.00  0.00     0.029 A 
ATOM     35  C   UNL     1       9.057   8.421   5.936  1.00  0.00     0.049 A 
ATOM     36  H   UNL     1       7.889   7.078   4.806  1.00  0.00     0.167 HD
ATOM     37  C   UNL     1       8.722   9.621   3.776  1.00  0.00     0.074 A 
ATOM     38  C   UNL     1       8.942  10.746   2.888  1.00  0.00     0.031 C 
ATOM     39  C   UNL     1       9.252   9.520   5.021  1.00  0.00     0.037 A 
BRANCH  26  40
ATOM     40  C   UNL     1       7.801   4.294   8.036  1.00  0.00     0.064 A 
ATOM     41  C   UNL     1       8.418   3.034   8.060  1.00  0.00     0.173 A 
ATOM     42  C   UNL     1       7.139   4.723   9.196  1.00  0.00     0.173 A 
ATOM     43  F   UNL     1       9.027   2.559   6.962  1.00  0.00    -0.203 F 
ATOM     44  C   UNL     1       8.329   2.216   9.184  1.00  0.00     0.198 A 
ATOM     45  C   UNL     1       7.080   3.917  10.329  1.00  0.00     0.198 A 
ATOM     46  F   UNL     1       6.518   5.912   9.220  1.00  0.00    -0.203 F 
ATOM     47  F   UNL     1       8.849   0.981   9.156  1.00  0.00    -0.200 F 
ATOM     48  C   UNL     1       7.662   2.659  10.317  1.00  0.00     0.200 A 
ATOM     49  F   UNL     1       6.434   4.347  11.421  1.00  0.00    -0.200 F 
ATOM     50  F   UNL     1       7.558   1.863  11.390  1.00  0.00    -0.200 F 
ENDBRANCH  26  40
BRANCH  27  51
ATOM     51  C   UNL     1       6.622   9.576  -0.453  1.00  0.00     0.064 A 
ATOM     52  C   UNL     1       7.774   9.731  -1.243  1.00  0.00     0.173 A 
ATOM     53  C   UNL     1       5.440  10.163  -0.930  1.00  0.00     0.173 A 
ATOM     54  F   UNL     1       8.943   9.215  -0.833  1.00  0.00    -0.203 F 
ATOM     55  C   UNL     1       7.749  10.457  -2.435  1.00  0.00     0.198 A 
ATOM     56  C   UNL     1       5.405  10.851  -2.143  1.00  0.00     0.198 A 
ATOM     57  F   UNL     1       4.306  10.069  -0.220  1.00  0.00    -0.203 F 
ATOM     58  F   UNL     1       8.880  10.639  -3.132  1.00  0.00    -0.200 F 
ATOM     59  C   UNL     1       6.562  11.009  -2.889  1.00  0.00     0.200 A 
ATOM     60  F   UNL     1       4.250  11.367  -2.584  1.00  0.00    -0.200 F 
ATOM     61  F   UNL     1       6.535  11.703  -4.034  1.00  0.00    -0.200 F 
ENDBRANCH  27  51
BRANCH  39  62
ATOM     62  C   UNL     1      10.134  10.643   5.483  1.00  0.00     0.064 A 
ATOM     63  C   UNL     1       9.618  11.912   5.787  1.00  0.00     0.173 A 
ATOM     64  C   UNL     1      11.506  10.425   5.677  1.00  0.00     0.173 A 
ATOM     65  F   UNL     1       8.314  12.172   5.609  1.00  0.00    -0.203 F 
ATOM     66  C   UNL     1      10.451  12.930   6.240  1.00  0.00     0.198 A 
ATOM     67  C   UNL     1      12.329  11.435   6.165  1.00  0.00     0.198 A 
ATOM     68  F   UNL     1      12.045   9.226   5.411  1.00  0.00    -0.203 F 
ATOM     69  F   UNL     1       9.947  14.150   6.476  1.00  0.00    -0.200 F 
ATOM     70  C   UNL     1      11.803  12.689   6.437  1.00  0.00     0.200 A 
ATOM     71  F   UNL     1      13.630  11.194   6.373  1.00  0.00    -0.200 F 
ATOM     72  F   UNL     1      12.601  13.668   6.885  1.00  0.00    -0.200 F 
ENDBRANCH  39  62
ENDBRANCH  13  14
ENDBRANCH   6   8
ENDBRANCH   5   6
ENDBRANCH   4   5
ENDBRANCH   3   4
ENDBRANCH   2   3
ENDBRANCH   1   2
BRANCH   1  73
ATOM     73  C   UNL     1       1.947   0.120  -2.930  1.00  0.00     0.188 C 
BRANCH  73  74
ATOM     74  O   UNL     1       2.345  -0.559  -4.123  1.00  0.00    -0.376 OA
BRANCH  74  75
ATOM     75  C   UNL     1       3.728  -0.540  -4.455  1.00  0.00     0.202 C 
BRANCH  75  76
ATOM     76  C   UNL     1       4.298   0.789  -4.947  1.00  0.00     0.261 C 
BRANCH  76  77
ATOM     77  O   UNL     1       3.966   1.869  -4.074  1.00  0.00    -0.459 OA
BRANCH  77  78
ATOM     78  C   UNL     1       3.213   2.877  -4.579  1.00  0.00     0.368 C 
ATOM     79  O   UNL     1       2.839   2.928  -5.753  1.00  0.00    -0.245 OA
BRANCH  78  80
ATOM     80  C   UNL     1       2.885   3.984  -3.558  1.00  0.00     0.195 C 
ATOM     81  C   UNL     1       3.391   5.335  -4.072  1.00  0.00     0.082 C 
ATOM     82  C   UNL     1       1.349   4.235  -3.553  1.00  0.00     0.095 C 
ATOM     83  C   UNL     1       2.547   6.356  -3.328  1.00  0.00     0.022 C 
ATOM     84  C   UNL     1       1.149   5.738  -3.248  1.00  0.00     0.054 C 
BRANCH  80  85
ATOM     85  N   UNL     1       3.240   3.708  -2.155  1.00  0.00    -0.330 N 
ATOM     86  H   UNL     1       2.636   2.936  -1.873  1.00  0.00     0.347 HD
ATOM     87  H   UNL     1       3.150   4.644  -1.762  1.00  0.00     0.347 HD
BRANCH  85  88
ATOM     88  C   UNL     1       4.562   3.356  -1.670  1.00  0.00     0.183 C 
ATOM     89  C   UNL     1       5.820   3.192  -2.465  1.00  0.00     0.071 C 
ATOM     90  C   UNL     1       5.667   4.370  -1.565  1.00  0.00     0.071 C 
ENDBRANCH  85  88
ENDBRANCH  80  85
BRANCH  84  91
ATOM     91  S   UNL     1       0.352   5.993  -1.614  1.00  0.00    -0.155 SA
BRANCH  91  92
ATOM     92  C   UNL     1       0.064   7.805  -1.531  1.00  0.00     0.047 C 
ATOM     93  C   UNL     1       1.296   8.635  -1.192  1.00  0.00     0.014 C 
ATOM     94  C   UNL     1      -0.520   8.483  -2.766  1.00  0.00     0.014 C 
ATOM     95  C   UNL     1       0.866  10.063  -1.493  1.00  0.00     0.001 C 
ATOM     96  C   UNL     1      -0.163   9.964  -2.616  1.00  0.00     0.001 C 
ENDBRANCH  91  92
ENDBRANCH  84  91
ENDBRANCH  78  80
ENDBRANCH  77  78
ENDBRANCH  76  77
ENDBRANCH  75  76
ENDBRANCH  74  75
ENDBRANCH  73  74
ENDBRANCH   1  73
TORSDOF 21
