REMARK SMILES Cc1coc2cc3c(cc12)[C@@H](C)[C@H](CCC(=O)N[C@@H](Cc1c[nH]c2ccccc12)C(=O)OCCOCCOCCOC(=O)c1ccc(-c2c4nc(c(-c5c(F)c(F)c(F)c(F)c5F)c5ccc([nH]5)c(-c5c(F)c(F)c(F)c(F)c5F)c5nc(c(-c6c(F)c(F)c(F)c(F)c6F)c6ccc2[nH]6)C=C5)C=C4)cc1)C(=O)O3
REMARK SMILES IDX 36 1 35 2 34 3 33 4 32 5 30 6 31 7 19 8 18 9 16 10 17 11
REMARK SMILES IDX 15 13 14 14 13 15 1 16 2 17 3 18 10 19 4 20 5 21 9 22 6 23
REMARK SMILES IDX 8 24 7 25 11 26 109 27 12 28 107 29 108 30 20 31 21 32 22 33
REMARK SMILES IDX 29 34 23 35 24 36 28 37 25 39 27 40 26 41 37 42 38 43 39 44
REMARK SMILES IDX 40 45 41 46 42 47 43 48 44 49 45 50 106 51 46 52 105 53
REMARK SMILES IDX 47 54 48 55 49 56 99 57 50 58 104 59 98 60 100 61 51 62
REMARK SMILES IDX 103 63 97 64 96 65 52 67 84 68 64 69 83 70 65 71 68 72 82 73
REMARK SMILES IDX 101 74 66 75 67 76 81 78 102 79 69 80 53 81 54 82 62 83
REMARK SMILES IDX 55 84 56 85 60 86 63 87 57 88 58 89 61 90 59 91 85 92 86 93
REMARK SMILES IDX 94 94 87 95 88 96 92 97 95 98 89 99 90 100 93 101 91 102
REMARK SMILES IDX 70 103 71 104 79 105 72 106 73 107 77 108 80 109 74 110
REMARK SMILES IDX 75 111 78 112 76 113
REMARK H PARENT 18 12 23 38 100 66 68 77
REMARK Flexibility Score: inf
ROOT
ATOM      1  C   UNL     1      -4.702  -6.404  -8.679  1.00  0.00     0.188 C 
ENDROOT
BRANCH   1   2
ATOM      2  O   UNL     1      -6.094  -6.379  -8.949  1.00  0.00    -0.376 OA
BRANCH   2   3
ATOM      3  C   UNL     1      -6.839  -5.222  -8.600  1.00  0.00     0.202 C 
BRANCH   3   4
ATOM      4  C   UNL     1      -6.687  -4.740  -7.162  1.00  0.00     0.261 C 
BRANCH   4   5
ATOM      5  O   UNL     1      -5.446  -4.026  -6.987  1.00  0.00    -0.462 OA
BRANCH   5   6
ATOM      6  C   UNL     1      -4.627  -4.514  -6.023  1.00  0.00     0.329 C 
ATOM      7  O   UNL     1      -4.920  -5.455  -5.287  1.00  0.00    -0.250 OA
BRANCH   6   8
ATOM      8  C   UNL     1      -3.326  -3.712  -5.811  1.00  0.00     0.196 C 
BRANCH   8   9
ATOM      9  N   UNL     1      -2.576  -2.922  -6.849  1.00  0.00    -0.342 N 
ATOM     10  C   UNL     1      -1.231  -2.735  -7.127  1.00  0.00     0.220 C 
ATOM     11  O   UNL     1      -0.925  -1.767  -7.833  1.00  0.00    -0.275 OA
ATOM     12  H   UNL     1      -3.168  -2.433  -7.464  1.00  0.00     0.164 HD
BRANCH  10  13
ATOM     13  C   UNL     1      -0.092  -3.700  -6.682  1.00  0.00     0.101 C 
BRANCH  13  14
ATOM     14  C   UNL     1       1.092  -3.245  -5.708  1.00  0.00     0.026 C 
BRANCH  14  15
ATOM     15  C   UNL     1       0.711  -3.444  -4.216  1.00  0.00     0.107 C 
ATOM     16  C   UNL     1       1.177   1.631   0.431  1.00  0.00     0.048 C 
ATOM     17  C   UNL     1       0.943   1.853  -1.016  1.00  0.00    -0.005 A 
ATOM     18  C   UNL     1       0.388   2.956  -1.630  1.00  0.00     0.199 A 
ATOM     19  C   UNL     1       1.108   0.889  -2.048  1.00  0.00     0.024 A 
ATOM     20  O   UNL     1       0.070   2.684  -2.923  1.00  0.00    -0.464 OA
ATOM     21  C   UNL     1       0.407   1.385  -3.141  1.00  0.00     0.137 A 
ATOM     22  C   UNL     1       1.621  -0.412  -2.092  1.00  0.00     0.020 A 
ATOM     23  C   UNL     1      -0.015   0.622  -4.221  1.00  0.00     0.095 A 
ATOM     24  C   UNL     1       1.123  -1.241  -3.101  1.00  0.00    -0.001 A 
ATOM     25  C   UNL     1       0.215  -0.733  -4.040  1.00  0.00     0.138 A 
ATOM     26  C   UNL     1       1.172  -2.728  -2.925  1.00  0.00     0.034 C 
ATOM     27  O   UNL     1      -0.761  -1.612  -4.583  1.00  0.00    -0.426 OA
ATOM     28  C   UNL     1       0.131  -2.914  -1.749  1.00  0.00     0.014 C 
ATOM     29  C   UNL     1      -0.651  -2.944  -4.211  1.00  0.00     0.314 C 
ATOM     30  O   UNL     1      -1.548  -3.692  -3.861  1.00  0.00    -0.251 OA
ENDBRANCH  14  15
ENDBRANCH  13  14
ENDBRANCH  10  13
ENDBRANCH   8   9
BRANCH   8  31
ATOM     31  C   UNL     1      -3.745  -2.854  -4.581  1.00  0.00     0.074 C 
BRANCH  31  32
ATOM     32  C   UNL     1      -4.773  -1.808  -4.792  1.00  0.00    -0.020 A 
ATOM     33  C   UNL     1      -6.059  -1.819  -4.301  1.00  0.00     0.087 A 
ATOM     34  C   UNL     1      -4.543  -0.537  -5.391  1.00  0.00     0.003 A 
ATOM     35  N   UNL     1      -6.621  -0.609  -4.592  1.00  0.00    -0.361 N 
ATOM     36  C   UNL     1      -5.722   0.187  -5.266  1.00  0.00     0.046 A 
ATOM     37  C   UNL     1      -3.428   0.079  -5.993  1.00  0.00     0.010 A 
ATOM     38  H   UNL     1      -7.538  -0.344  -4.354  1.00  0.00     0.166 HD
ATOM     39  C   UNL     1      -5.846   1.492  -5.751  1.00  0.00     0.026 A 
ATOM     40  C   UNL     1      -3.537   1.369  -6.505  1.00  0.00     0.001 A 
ATOM     41  C   UNL     1      -4.735   2.062  -6.386  1.00  0.00     0.002 A 
ENDBRANCH  31  32
ENDBRANCH   8  31
ENDBRANCH   6   8
ENDBRANCH   5   6
ENDBRANCH   4   5
ENDBRANCH   3   4
ENDBRANCH   2   3
ENDBRANCH   1   2
BRANCH   1  42
ATOM     42  C   UNL     1      -3.826  -5.202  -9.083  1.00  0.00     0.188 C 
BRANCH  42  43
ATOM     43  O   UNL     1      -4.244  -4.373 -10.149  1.00  0.00    -0.376 OA
BRANCH  43  44
ATOM     44  C   UNL     1      -4.487  -5.033 -11.384  1.00  0.00     0.202 C 
BRANCH  44  45
ATOM     45  C   UNL     1      -3.292  -5.820 -11.944  1.00  0.00     0.261 C 
BRANCH  45  46
ATOM     46  O   UNL     1      -2.947  -6.926 -11.074  1.00  0.00    -0.460 OA
BRANCH  46  47
ATOM     47  C   UNL     1      -1.618  -7.180 -10.960  1.00  0.00     0.338 C 
ATOM     48  O   UNL     1      -0.771  -6.918 -11.803  1.00  0.00    -0.246 OA
BRANCH  47  49
ATOM     49  C   UNL     1      -1.284  -7.457  -9.528  1.00  0.00     0.060 A 
ATOM     50  C   UNL     1      -2.003  -8.301  -8.667  1.00  0.00     0.016 A 
ATOM     51  C   UNL     1      -0.262  -6.680  -8.992  1.00  0.00     0.016 A 
ATOM     52  C   UNL     1      -1.753  -8.301  -7.266  1.00  0.00     0.010 A 
ATOM     53  C   UNL     1      -0.005  -6.713  -7.620  1.00  0.00     0.010 A 
ATOM     54  C   UNL     1      -0.769  -7.473  -6.715  1.00  0.00    -0.014 A 
BRANCH  54  55
ATOM     55  C   UNL     1      -0.212  -7.596  -5.338  1.00  0.00     0.031 A 
ATOM     56  C   UNL     1       0.915  -8.537  -5.313  1.00  0.00     0.074 A 
ATOM     57  C   UNL     1      -0.532  -7.148  -4.092  1.00  0.00     0.049 A 
ATOM     58  N   UNL     1       0.769  -9.756  -4.914  1.00  0.00    -0.248 NA
ATOM     59  C   UNL     1       2.240  -8.201  -5.827  1.00  0.00     0.031 C 
ATOM     60  C   UNL     1      -1.753  -6.484  -3.667  1.00  0.00     0.029 A 
ATOM     61  N   UNL     1       0.223  -7.186  -2.907  1.00  0.00    -0.354 N 
ATOM     62  C   UNL     1       2.035 -10.277  -4.895  1.00  0.00     0.074 A 
ATOM     63  C   UNL     1       2.866  -9.368  -5.650  1.00  0.00     0.031 C 
ATOM     64  C   UNL     1      -1.637  -6.097  -2.373  1.00  0.00     0.029 A 
ATOM     65  C   UNL     1      -0.302  -6.430  -1.861  1.00  0.00     0.049 A 
ATOM     66  H   UNL     1       1.055  -7.705  -2.823  1.00  0.00     0.167 HD
ATOM     67  C   UNL     1       2.342 -11.248  -4.002  1.00  0.00     0.037 A 
ATOM     68  C   UNL     1      -0.031  -6.389  -0.523  1.00  0.00     0.037 A 
ATOM     69  C   UNL     1       1.188 -11.780  -3.316  1.00  0.00     0.049 A 
ATOM     70  C   UNL     1       0.061  -7.758  -0.006  1.00  0.00     0.074 A 
ATOM     71  C   UNL     1       0.190 -12.697  -3.573  1.00  0.00     0.029 A 
ATOM     72  N   UNL     1       0.771 -11.050  -2.237  1.00  0.00    -0.354 N 
ATOM     73  N   UNL     1      -0.973  -8.524   0.163  1.00  0.00    -0.248 NA
ATOM     74  C   UNL     1       1.365  -8.392   0.192  1.00  0.00     0.031 C 
ATOM     75  C   UNL     1      -0.837 -12.500  -2.598  1.00  0.00     0.029 A 
ATOM     76  C   UNL     1      -0.450 -11.466  -1.764  1.00  0.00     0.049 A 
ATOM     77  H   UNL     1       1.288 -10.310  -1.844  1.00  0.00     0.167 HD
ATOM     78  C   UNL     1      -0.445  -9.784  -0.000  1.00  0.00     0.074 A 
ATOM     79  C   UNL     1       0.982  -9.667   0.239  1.00  0.00     0.031 C 
ATOM     80  C   UNL     1      -1.121 -10.668  -0.777  1.00  0.00     0.037 A 
BRANCH  67  81
ATOM     81  C   UNL     1       3.725 -11.433  -3.470  1.00  0.00     0.064 A 
ATOM     82  C   UNL     1       4.109 -12.676  -2.950  1.00  0.00     0.173 A 
ATOM     83  C   UNL     1       4.619 -10.361  -3.260  1.00  0.00     0.173 A 
ATOM     84  F   UNL     1       3.287 -13.732  -3.036  1.00  0.00    -0.203 F 
ATOM     85  C   UNL     1       5.325 -12.841  -2.285  1.00  0.00     0.198 A 
ATOM     86  C   UNL     1       5.859 -10.542  -2.658  1.00  0.00     0.198 A 
ATOM     87  F   UNL     1       4.277  -9.096  -3.545  1.00  0.00    -0.203 F 
ATOM     88  F   UNL     1       5.625 -14.024  -1.734  1.00  0.00    -0.200 F 
ATOM     89  C   UNL     1       6.207 -11.780  -2.158  1.00  0.00     0.200 A 
ATOM     90  F   UNL     1       6.684  -9.495  -2.515  1.00  0.00    -0.200 F 
ATOM     91  F   UNL     1       7.370 -11.937  -1.513  1.00  0.00    -0.200 F 
ENDBRANCH  67  81
BRANCH  68  92
ATOM     92  C   UNL     1       0.767  -5.357   0.195  1.00  0.00     0.064 A 
ATOM     93  C   UNL     1       0.317  -4.855   1.429  1.00  0.00     0.173 A 
ATOM     94  C   UNL     1       2.005  -4.884  -0.267  1.00  0.00     0.173 A 
ATOM     95  F   UNL     1      -0.832  -5.304   1.954  1.00  0.00    -0.203 F 
ATOM     96  C   UNL     1       1.037  -3.885   2.134  1.00  0.00     0.198 A 
ATOM     97  C   UNL     1       2.714  -3.896   0.427  1.00  0.00     0.198 A 
ATOM     98  F   UNL     1       2.510  -5.346  -1.420  1.00  0.00    -0.203 F 
ATOM     99  F   UNL     1       0.577  -3.424   3.306  1.00  0.00    -0.200 F 
ATOM    100  C   UNL     1       2.227  -3.392   1.623  1.00  0.00     0.200 A 
ATOM    101  F   UNL     1       3.849  -3.403  -0.090  1.00  0.00    -0.200 F 
ATOM    102  F   UNL     1       2.897  -2.430   2.273  1.00  0.00    -0.200 F 
ENDBRANCH  68  92
BRANCH  80 103
ATOM    103  C   UNL     1      -2.599 -10.503  -0.738  1.00  0.00     0.064 A 
ATOM    104  C   UNL     1      -3.297  -9.658  -1.613  1.00  0.00     0.173 A 
ATOM    105  C   UNL     1      -3.313 -11.110   0.300  1.00  0.00     0.173 A 
ATOM    106  F   UNL     1      -2.664  -9.071  -2.636  1.00  0.00    -0.203 F 
ATOM    107  C   UNL     1      -4.654  -9.401  -1.427  1.00  0.00     0.198 A 
ATOM    108  C   UNL     1      -4.675 -10.878   0.464  1.00  0.00     0.198 A 
ATOM    109  F   UNL     1      -2.682 -11.922   1.162  1.00  0.00    -0.203 F 
ATOM    110  F   UNL     1      -5.299  -8.557  -2.246  1.00  0.00    -0.200 F 
ATOM    111  C   UNL     1      -5.342 -10.014  -0.391  1.00  0.00     0.200 A 
ATOM    112  F   UNL     1      -5.340 -11.486   1.457  1.00  0.00    -0.200 F 
ATOM    113  F   UNL     1      -6.651  -9.778  -0.217  1.00  0.00    -0.200 F 
ENDBRANCH  80 103
ENDBRANCH  54  55
ENDBRANCH  47  49
ENDBRANCH  46  47
ENDBRANCH  45  46
ENDBRANCH  44  45
ENDBRANCH  43  44
ENDBRANCH  42  43
ENDBRANCH   1  42
TORSDOF 23
