REMARK SMILES O=C(OCCOCCOCCOC(=O)[C@@H]1CC2(CC[NH2+]CC2)C[N@@H+]1Cc1cccc2nonc12)c1ccc(-c2c3nc(c(-c4c(F)c(F)c(F)c(F)c4F)c4ccc([nH]4)c(-c4c(F)c(F)c(F)c(F)c4F)c4nc(c(-c5c(F)c(F)c(F)c(F)c5F)c5ccc2[nH]5)C=C4)C=C3)cc1
REMARK SMILES IDX 7 1 6 2 5 3 4 4 3 5 2 6 1 7 35 8 36 9 97 10 37 11 96 12
REMARK SMILES IDX 38 13 39 14 40 15 90 16 41 17 95 18 89 19 91 20 42 21 94 22
REMARK SMILES IDX 88 23 87 24 43 26 75 27 55 28 74 29 56 30 59 31 73 32 92 33
REMARK SMILES IDX 57 34 58 35 72 37 93 38 60 39 44 40 45 41 53 42 46 43 47 44
REMARK SMILES IDX 51 45 54 46 48 47 49 48 52 49 50 50 76 51 77 52 85 53 78 54
REMARK SMILES IDX 79 55 83 56 86 57 80 58 81 59 84 60 82 61 61 62 62 63 70 64
REMARK SMILES IDX 63 65 64 66 68 67 71 68 65 69 66 70 69 71 67 72 8 73 9 74
REMARK SMILES IDX 10 75 11 76 12 77 13 78 14 79 15 80 16 81 24 82 17 83 23 84
REMARK SMILES IDX 18 86 22 87 19 88 21 89 20 90 25 93 26 94 27 95 34 96 28 97
REMARK SMILES IDX 30 98 33 99 29 100 31 101 32 102
REMARK H PARENT 91 25 59 36 24 85 20 91 20 92
REMARK Flexibility Score: inf
ROOT
ATOM      1  C   UNL     1       2.719   0.538   0.929  1.00  0.00     0.188 C 
ENDROOT
BRANCH   1   2
ATOM      2  O   UNL     1       3.849  -0.256   0.582  1.00  0.00    -0.376 OA
BRANCH   2   3
ATOM      3  C   UNL     1       4.924   0.485  -0.006  1.00  0.00     0.202 C 
BRANCH   3   4
ATOM      4  C   UNL     1       4.585   0.977  -1.411  1.00  0.00     0.261 C 
BRANCH   4   5
ATOM      5  O   UNL     1       4.313  -0.176  -2.220  1.00  0.00    -0.460 OA
BRANCH   5   6
ATOM      6  C   UNL     1       3.002  -0.514  -2.344  1.00  0.00     0.338 C 
ATOM      7  O   UNL     1       2.052   0.246  -2.333  1.00  0.00    -0.246 OA
BRANCH   6   8
ATOM      8  C   UNL     1       2.891  -1.995  -2.401  1.00  0.00     0.060 A 
ATOM      9  C   UNL     1       1.759  -2.616  -2.941  1.00  0.00     0.016 A 
ATOM     10  C   UNL     1       3.881  -2.782  -1.819  1.00  0.00     0.016 A 
ATOM     11  C   UNL     1       1.650  -4.023  -2.949  1.00  0.00     0.010 A 
ATOM     12  C   UNL     1       3.759  -4.169  -1.813  1.00  0.00     0.010 A 
ATOM     13  C   UNL     1       2.657  -4.831  -2.389  1.00  0.00    -0.014 A 
BRANCH  13  14
ATOM     14  C   UNL     1       2.600  -6.346  -2.446  1.00  0.00     0.031 A 
ATOM     15  C   UNL     1       3.887  -6.980  -1.950  1.00  0.00     0.074 A 
ATOM     16  C   UNL     1       1.512  -7.001  -1.969  1.00  0.00     0.049 A 
ATOM     17  N   UNL     1       4.176  -7.266  -0.710  1.00  0.00    -0.248 NA
ATOM     18  C   UNL     1       5.035  -7.032  -2.860  1.00  0.00     0.031 C 
ATOM     19  C   UNL     1       1.166  -6.885  -0.560  1.00  0.00     0.029 A 
ATOM     20  N   UNL     1       0.921  -8.205  -2.353  1.00  0.00    -0.354 N 
ATOM     21  C   UNL     1       5.545  -7.469  -0.655  1.00  0.00     0.074 A 
ATOM     22  C   UNL     1       6.033  -7.304  -2.011  1.00  0.00     0.031 C 
ATOM     23  C   UNL     1       0.475  -7.958  -0.160  1.00  0.00     0.029 A 
ATOM     24  C   UNL     1       0.382  -8.895  -1.269  1.00  0.00     0.049 A 
ATOM     25  H   UNL     1       0.889  -8.529  -3.281  1.00  0.00     0.167 HD
ATOM     26  C   UNL     1       6.244  -7.742   0.479  1.00  0.00     0.037 A 
ATOM     27  C   UNL     1       0.189 -10.232  -1.111  1.00  0.00     0.037 A 
ATOM     28  C   UNL     1       5.567  -7.965   1.741  1.00  0.00     0.049 A 
ATOM     29  C   UNL     1       1.164 -10.608  -0.026  1.00  0.00     0.074 A 
ATOM     30  C   UNL     1       5.954  -8.043   3.069  1.00  0.00     0.029 A 
ATOM     31  N   UNL     1       4.225  -8.264   1.754  1.00  0.00    -0.354 N 
ATOM     32  N   UNL     1       1.012 -10.541   1.271  1.00  0.00    -0.248 NA
ATOM     33  C   UNL     1       2.556 -10.790  -0.482  1.00  0.00     0.031 C 
ATOM     34  C   UNL     1       4.895  -8.682   3.795  1.00  0.00     0.029 A 
ATOM     35  C   UNL     1       3.893  -8.986   2.892  1.00  0.00     0.049 A 
ATOM     36  H   UNL     1       3.587  -8.001   1.052  1.00  0.00     0.167 HD
ATOM     37  C   UNL     1       2.309 -10.383   1.747  1.00  0.00     0.074 A 
ATOM     38  C   UNL     1       3.216 -10.687   0.661  1.00  0.00     0.031 C 
ATOM     39  C   UNL     1       2.640  -9.712   2.882  1.00  0.00     0.037 A 
BRANCH  26  40
ATOM     40  C   UNL     1       7.694  -8.064   0.392  1.00  0.00     0.064 A 
ATOM     41  C   UNL     1       8.067  -9.416   0.441  1.00  0.00     0.173 A 
ATOM     42  C   UNL     1       8.708  -7.101   0.360  1.00  0.00     0.173 A 
ATOM     43  F   UNL     1       7.124 -10.372   0.441  1.00  0.00    -0.203 F 
ATOM     44  C   UNL     1       9.403  -9.794   0.494  1.00  0.00     0.198 A 
ATOM     45  C   UNL     1      10.051  -7.484   0.406  1.00  0.00     0.198 A 
ATOM     46  F   UNL     1       8.404  -5.797   0.291  1.00  0.00    -0.203 F 
ATOM     47  F   UNL     1       9.727 -11.093   0.560  1.00  0.00    -0.200 F 
ATOM     48  C   UNL     1      10.396  -8.828   0.485  1.00  0.00     0.200 A 
ATOM     49  F   UNL     1      11.015  -6.553   0.381  1.00  0.00    -0.200 F 
ATOM     50  F   UNL     1      11.684  -9.192   0.548  1.00  0.00    -0.200 F 
ENDBRANCH  26  40
BRANCH  27  51
ATOM     51  C   UNL     1      -0.147 -11.119  -2.252  1.00  0.00     0.064 A 
ATOM     52  C   UNL     1      -1.234 -10.780  -3.080  1.00  0.00     0.173 A 
ATOM     53  C   UNL     1       0.511 -12.321  -2.551  1.00  0.00     0.173 A 
ATOM     54  F   UNL     1      -1.991  -9.709  -2.795  1.00  0.00    -0.203 F 
ATOM     55  C   UNL     1      -1.566 -11.538  -4.204  1.00  0.00     0.198 A 
ATOM     56  C   UNL     1       0.197 -13.064  -3.689  1.00  0.00     0.198 A 
ATOM     57  F   UNL     1       1.475 -12.802  -1.758  1.00  0.00    -0.203 F 
ATOM     58  F   UNL     1      -2.592 -11.166  -4.982  1.00  0.00    -0.200 F 
ATOM     59  C   UNL     1      -0.829 -12.663  -4.525  1.00  0.00     0.200 A 
ATOM     60  F   UNL     1       0.908 -14.163  -3.979  1.00  0.00    -0.200 F 
ATOM     61  F   UNL     1      -1.108 -13.363  -5.633  1.00  0.00    -0.200 F 
ENDBRANCH  27  51
BRANCH  39  62
ATOM     62  C   UNL     1       1.651  -9.706   3.994  1.00  0.00     0.064 A 
ATOM     63  C   UNL     1       1.342 -10.889   4.675  1.00  0.00     0.173 A 
ATOM     64  C   UNL     1       0.988  -8.556   4.425  1.00  0.00     0.173 A 
ATOM     65  F   UNL     1       1.903 -12.048   4.298  1.00  0.00    -0.203 F 
ATOM     66  C   UNL     1       0.453 -10.895   5.753  1.00  0.00     0.198 A 
ATOM     67  C   UNL     1       0.153  -8.539   5.537  1.00  0.00     0.198 A 
ATOM     68  F   UNL     1       1.067  -7.435   3.722  1.00  0.00    -0.203 F 
ATOM     69  F   UNL     1       0.151 -12.050   6.362  1.00  0.00    -0.200 F 
ATOM     70  C   UNL     1      -0.118  -9.715   6.202  1.00  0.00     0.200 A 
ATOM     71  F   UNL     1      -0.400  -7.384   5.938  1.00  0.00    -0.200 F 
ATOM     72  F   UNL     1      -0.945  -9.713   7.256  1.00  0.00    -0.200 F 
ENDBRANCH  39  62
ENDBRANCH  13  14
ENDBRANCH   6   8
ENDBRANCH   5   6
ENDBRANCH   4   5
ENDBRANCH   3   4
ENDBRANCH   2   3
ENDBRANCH   1   2
BRANCH   1  73
ATOM     73  C   UNL     1       2.172   0.242   2.325  1.00  0.00     0.188 C 
BRANCH  73  74
ATOM     74  O   UNL     1       3.034   0.316   3.457  1.00  0.00    -0.376 OA
BRANCH  74  75
ATOM     75  C   UNL     1       4.393  -0.086   3.361  1.00  0.00     0.202 C 
BRANCH  75  76
ATOM     76  C   UNL     1       4.764  -1.566   3.210  1.00  0.00     0.261 C 
BRANCH  76  77
ATOM     77  O   UNL     1       4.115  -2.322   2.191  1.00  0.00    -0.459 OA
BRANCH  77  78
ATOM     78  C   UNL     1       2.887  -2.781   2.545  1.00  0.00     0.365 C 
ATOM     79  O   UNL     1       2.276  -2.435   3.547  1.00  0.00    -0.245 OA
BRANCH  78  80
ATOM     80  C   UNL     1       2.418  -3.861   1.588  1.00  0.00     0.296 C 
ATOM     81  C   UNL     1       1.169  -3.470   0.799  1.00  0.00     0.091 C 
ATOM     82  N   UNL     1       2.028  -5.068   2.313  1.00  0.00    -0.319 N 
ATOM     83  C   UNL     1      -0.042  -4.028   1.574  1.00  0.00     0.036 C 
ATOM     84  C   UNL     1       0.585  -5.101   2.501  1.00  0.00     0.270 C 
ATOM     85  H   UNL     1       2.159  -5.910   1.752  1.00  0.00     0.349 HD
ATOM     86  C   UNL     1      -1.127  -4.641   0.648  1.00  0.00     0.074 C 
ATOM     87  C   UNL     1      -0.750  -2.927   2.394  1.00  0.00     0.074 C 
ATOM     88  C   UNL     1      -1.877  -3.601  -0.180  1.00  0.00     0.261 C 
ATOM     89  C   UNL     1      -1.497  -1.928   1.508  1.00  0.00     0.261 C 
ATOM     90  N   UNL     1      -2.497  -2.587   0.667  1.00  0.00    -0.346 N 
ATOM     91  H   UNL     1      -3.194  -3.032   1.264  1.00  0.00     0.346 HD
ATOM     92  H   UNL     1      -2.935  -1.886   0.070  1.00  0.00     0.346 HD
BRANCH  82  93
ATOM     93  C   UNL     1       2.991  -5.571   3.308  1.00  0.00     0.302 C 
BRANCH  93  94
ATOM     94  C   UNL     1       3.123  -4.905   4.655  1.00  0.00     0.038 A 
ATOM     95  C   UNL     1       2.034  -4.564   5.497  1.00  0.00     0.012 A 
ATOM     96  C   UNL     1       4.362  -4.484   5.200  1.00  0.00     0.144 A 
ATOM     97  C   UNL     1       2.123  -3.684   6.610  1.00  0.00     0.003 A 
ATOM     98  C   UNL     1       4.459  -3.616   6.373  1.00  0.00     0.135 A 
ATOM     99  N   UNL     1       5.609  -4.714   4.760  1.00  0.00    -0.049 NA
ATOM    100  C   UNL     1       3.333  -3.146   7.066  1.00  0.00     0.034 A 
ATOM    101  N   UNL     1       5.752  -3.345   6.592  1.00  0.00    -0.050 NA
ATOM    102  O   UNL     1       6.452  -4.041   5.624  1.00  0.00    -0.243 OA
ENDBRANCH  93  94
ENDBRANCH  82  93
ENDBRANCH  78  80
ENDBRANCH  77  78
ENDBRANCH  76  77
ENDBRANCH  75  76
ENDBRANCH  74  75
ENDBRANCH  73  74
ENDBRANCH   1  73
TORSDOF 19
