REMARK SMILES O=C(OCCOCCOCCOC(=O)c1[nH]ncc1C[N@H+]1CCC[C@@H](C(=O)c2ccc(Oc3ccccc3)cc2)C1)c1ccc(-c2c3nc(c(-c4c(F)c(F)c(F)c(F)c4F)c4ccc([nH]4)c(-c4c(F)c(F)c(F)c(F)c4F)c4nc(c(-c5c(F)c(F)c(F)c(F)c5F)c5ccc2[nH]5)C=C4)C=C3)cc1
REMARK SMILES IDX 10 1 9 2 8 3 7 4 6 5 5 6 4 7 3 8 2 9 1 10 42 11 43 12 104 13
REMARK SMILES IDX 44 14 103 15 45 16 46 17 47 18 97 19 48 20 102 21 96 22
REMARK SMILES IDX 98 23 49 24 101 25 95 26 94 27 50 29 82 30 62 31 81 32 63 33
REMARK SMILES IDX 66 34 80 35 99 36 64 37 65 38 79 40 100 41 67 42 51 43 52 44
REMARK SMILES IDX 60 45 53 46 54 47 58 48 61 49 55 50 56 51 59 52 57 53 83 54
REMARK SMILES IDX 84 55 92 56 85 57 86 58 90 59 93 60 87 61 88 62 91 63 89 64
REMARK SMILES IDX 68 65 69 66 77 67 70 68 71 69 75 70 78 71 72 72 73 73 76 74
REMARK SMILES IDX 74 75 11 76 12 77 13 78 14 79 15 80 16 81 19 82 17 83 18 85
REMARK SMILES IDX 20 86 21 87 22 88 41 89 23 91 25 92 24 93 26 94 27 95 28 96
REMARK SMILES IDX 29 97 40 98 30 99 39 100 31 101 32 102 33 103 34 104 38 105
REMARK SMILES IDX 35 106 37 107 36 108
REMARK H PARENT 98 28 66 39 16 84 21 90
REMARK Flexibility Score: inf
ROOT
ATOM      1  C   UNL     1       4.351   1.468   4.248  1.00  0.00     0.202 C 
ENDROOT
BRANCH   1   2
ATOM      2  O   UNL     1       3.091   2.058   3.933  1.00  0.00    -0.376 OA
BRANCH   2   3
ATOM      3  C   UNL     1       2.464   1.547   2.754  1.00  0.00     0.188 C 
BRANCH   3   4
ATOM      4  C   UNL     1       2.929   2.295   1.506  1.00  0.00     0.188 C 
BRANCH   4   5
ATOM      5  O   UNL     1       4.139   1.708   0.994  1.00  0.00    -0.376 OA
BRANCH   5   6
ATOM      6  C   UNL     1       4.482   2.250  -0.287  1.00  0.00     0.202 C 
BRANCH   6   7
ATOM      7  C   UNL     1       4.215   1.240  -1.408  1.00  0.00     0.261 C 
BRANCH   7   8
ATOM      8  O   UNL     1       2.837   0.809  -1.382  1.00  0.00    -0.460 OA
BRANCH   8   9
ATOM      9  C   UNL     1       2.420  -0.271  -0.672  1.00  0.00     0.338 C 
ATOM     10  O   UNL     1       1.330  -0.306  -0.114  1.00  0.00    -0.246 OA
BRANCH   9  11
ATOM     11  C   UNL     1       3.227  -1.504  -0.773  1.00  0.00     0.060 A 
ATOM     12  C   UNL     1       4.403  -1.667  -0.038  1.00  0.00     0.016 A 
ATOM     13  C   UNL     1       2.727  -2.560  -1.544  1.00  0.00     0.016 A 
ATOM     14  C   UNL     1       5.129  -2.855  -0.150  1.00  0.00     0.010 A 
ATOM     15  C   UNL     1       3.426  -3.769  -1.609  1.00  0.00     0.010 A 
ATOM     16  C   UNL     1       4.644  -3.921  -0.929  1.00  0.00    -0.014 A 
BRANCH  16  17
ATOM     17  C   UNL     1       5.394  -5.203  -0.992  1.00  0.00     0.031 A 
ATOM     18  C   UNL     1       6.079  -5.637  -2.255  1.00  0.00     0.074 A 
ATOM     19  C   UNL     1       5.462  -5.989   0.099  1.00  0.00     0.049 A 
ATOM     20  N   UNL     1       6.760  -6.732  -2.490  1.00  0.00    -0.248 NA
ATOM     21  C   UNL     1       5.989  -4.726  -3.405  1.00  0.00     0.031 C 
ATOM     22  C   UNL     1       4.822  -5.699   1.379  1.00  0.00     0.029 A 
ATOM     23  N   UNL     1       6.101  -7.185   0.308  1.00  0.00    -0.354 N 
ATOM     24  C   UNL     1       7.164  -6.651  -3.813  1.00  0.00     0.074 A 
ATOM     25  C   UNL     1       6.646  -5.403  -4.337  1.00  0.00     0.031 C 
ATOM     26  C   UNL     1       5.115  -6.678   2.250  1.00  0.00     0.029 A 
ATOM     27  C   UNL     1       5.947  -7.672   1.581  1.00  0.00     0.049 A 
ATOM     28  H   UNL     1       6.619  -7.649  -0.389  1.00  0.00     0.167 HD
ATOM     29  C   UNL     1       7.905  -7.531  -4.526  1.00  0.00     0.037 A 
ATOM     30  C   UNL     1       6.420  -8.796   2.151  1.00  0.00     0.037 A 
ATOM     31  C   UNL     1       8.440  -8.765  -4.016  1.00  0.00     0.049 A 
ATOM     32  C   UNL     1       7.263  -9.739   1.349  1.00  0.00     0.074 A 
ATOM     33  C   UNL     1       9.202  -9.717  -4.674  1.00  0.00     0.029 A 
ATOM     34  N   UNL     1       8.276  -9.216  -2.716  1.00  0.00    -0.354 N 
ATOM     35  N   UNL     1       7.629  -9.652   0.096  1.00  0.00    -0.248 NA
ATOM     36  C   UNL     1       7.758 -10.937   2.043  1.00  0.00     0.031 C 
ATOM     37  C   UNL     1       9.498 -10.745  -3.770  1.00  0.00     0.029 A 
ATOM     38  C   UNL     1       8.927 -10.428  -2.549  1.00  0.00     0.049 A 
ATOM     39  H   UNL     1       7.771  -8.744  -2.014  1.00  0.00     0.167 HD
ATOM     40  C   UNL     1       8.385 -10.786  -0.157  1.00  0.00     0.074 A 
ATOM     41  C   UNL     1       8.445 -11.538   1.080  1.00  0.00     0.031 C 
ATOM     42  C   UNL     1       8.970 -11.168  -1.317  1.00  0.00     0.037 A 
BRANCH  29  43
ATOM     43  C   UNL     1       8.184  -7.180  -5.952  1.00  0.00     0.064 A 
ATOM     44  C   UNL     1       9.231  -6.311  -6.289  1.00  0.00     0.173 A 
ATOM     45  C   UNL     1       7.412  -7.724  -6.987  1.00  0.00     0.173 A 
ATOM     46  F   UNL     1       9.984  -5.756  -5.328  1.00  0.00    -0.203 F 
ATOM     47  C   UNL     1       9.490  -5.991  -7.619  1.00  0.00     0.198 A 
ATOM     48  C   UNL     1       7.679  -7.408  -8.316  1.00  0.00     0.198 A 
ATOM     49  F   UNL     1       6.397  -8.556  -6.708  1.00  0.00    -0.203 F 
ATOM     50  F   UNL     1      10.479  -5.139  -7.921  1.00  0.00    -0.200 F 
ATOM     51  C   UNL     1       8.716  -6.540  -8.630  1.00  0.00     0.200 A 
ATOM     52  F   UNL     1       6.930  -7.936  -9.294  1.00  0.00    -0.200 F 
ATOM     53  F   UNL     1       8.962  -6.225  -9.910  1.00  0.00    -0.200 F 
ENDBRANCH  29  43
BRANCH  30  54
ATOM     54  C   UNL     1       6.105  -9.074   3.570  1.00  0.00     0.064 A 
ATOM     55  C   UNL     1       6.991  -8.694   4.585  1.00  0.00     0.173 A 
ATOM     56  C   UNL     1       4.900  -9.687   3.937  1.00  0.00     0.173 A 
ATOM     57  F   UNL     1       8.162  -8.120   4.272  1.00  0.00    -0.203 F 
ATOM     58  C   UNL     1       6.679  -8.914   5.925  1.00  0.00     0.198 A 
ATOM     59  C   UNL     1       4.588  -9.903   5.277  1.00  0.00     0.198 A 
ATOM     60  F   UNL     1       4.032 -10.073   2.992  1.00  0.00    -0.203 F 
ATOM     61  F   UNL     1       7.545  -8.550   6.880  1.00  0.00    -0.200 F 
ATOM     62  C   UNL     1       5.475  -9.512   6.270  1.00  0.00     0.200 A 
ATOM     63  F   UNL     1       3.435 -10.499   5.610  1.00  0.00    -0.200 F 
ATOM     64  F   UNL     1       5.174  -9.715   7.560  1.00  0.00    -0.200 F 
ENDBRANCH  30  54
BRANCH  42  65
ATOM     65  C   UNL     1       9.713 -12.465  -1.302  1.00  0.00     0.064 A 
ATOM     66  C   UNL     1       9.041 -13.681  -1.487  1.00  0.00     0.173 A 
ATOM     67  C   UNL     1      11.103 -12.493  -1.127  1.00  0.00     0.173 A 
ATOM     68  F   UNL     1       7.709 -13.698  -1.644  1.00  0.00    -0.203 F 
ATOM     69  C   UNL     1       9.737 -14.886  -1.488  1.00  0.00     0.198 A 
ATOM     70  C   UNL     1      11.797 -13.700  -1.136  1.00  0.00     0.198 A 
ATOM     71  F   UNL     1      11.784 -11.352  -0.940  1.00  0.00    -0.203 F 
ATOM     72  F   UNL     1       9.076 -16.041  -1.647  1.00  0.00    -0.200 F 
ATOM     73  C   UNL     1      11.114 -14.894  -1.315  1.00  0.00     0.200 A 
ATOM     74  F   UNL     1      13.126 -13.708  -0.963  1.00  0.00    -0.200 F 
ATOM     75  F   UNL     1      11.783 -16.056  -1.312  1.00  0.00    -0.200 F 
ENDBRANCH  42  65
ENDBRANCH  16  17
ENDBRANCH   9  11
ENDBRANCH   8   9
ENDBRANCH   7   8
ENDBRANCH   6   7
ENDBRANCH   5   6
ENDBRANCH   4   5
ENDBRANCH   3   4
ENDBRANCH   2   3
ENDBRANCH   1   2
BRANCH   1  76
ATOM     76  C   UNL     1       4.219   0.492   5.422  1.00  0.00     0.261 C 
BRANCH  76  77
ATOM     77  O   UNL     1       3.859  -0.827   4.970  1.00  0.00    -0.459 OA
BRANCH  77  78
ATOM     78  C   UNL     1       2.534  -1.087   4.856  1.00  0.00     0.356 C 
ATOM     79  O   UNL     1       1.622  -0.316   5.133  1.00  0.00    -0.244 OA
BRANCH  78  80
ATOM     80  C   UNL     1       2.345  -2.374   4.262  1.00  0.00     0.152 A 
ATOM     81  N   UNL     1       1.404  -2.587   3.292  1.00  0.00    -0.271 N 
ATOM     82  C   UNL     1       2.929  -3.611   4.506  1.00  0.00     0.059 A 
ATOM     83  N   UNL     1       1.382  -3.846   2.830  1.00  0.00    -0.183 NA
ATOM     84  H   UNL     1       0.799  -1.883   2.964  1.00  0.00     0.190 HD
ATOM     85  C   UNL     1       2.278  -4.473   3.590  1.00  0.00     0.145 A 
BRANCH  82  86
ATOM     86  C   UNL     1       3.967  -3.981   5.519  1.00  0.00     0.303 C 
BRANCH  86  87
ATOM     87  N   UNL     1       3.409  -4.496   6.785  1.00  0.00    -0.330 N 
ATOM     88  C   UNL     1       2.532  -3.532   7.462  1.00  0.00     0.262 C 
ATOM     89  C   UNL     1       2.777  -5.815   6.634  1.00  0.00     0.274 C 
ATOM     90  H   UNL     1       4.211  -4.629   7.401  1.00  0.00     0.348 HD
ATOM     91  C   UNL     1       2.041  -4.060   8.810  1.00  0.00     0.062 C 
ATOM     92  C   UNL     1       2.320  -6.402   7.985  1.00  0.00     0.116 C 
ATOM     93  C   UNL     1       1.357  -5.415   8.652  1.00  0.00     0.023 C 
BRANCH  92  94
ATOM     94  C   UNL     1       1.674  -7.763   7.738  1.00  0.00     0.171 C 
ATOM     95  O   UNL     1       1.310  -8.103   6.612  1.00  0.00    -0.294 OA
BRANCH  94  96
ATOM     96  C   UNL     1       1.498  -8.733   8.866  1.00  0.00     0.018 A 
ATOM     97  C   UNL     1       1.022 -10.018   8.559  1.00  0.00     0.015 A 
ATOM     98  C   UNL     1       1.793  -8.420  10.198  1.00  0.00     0.015 A 
ATOM     99  C   UNL     1       0.823 -10.965   9.566  1.00  0.00     0.048 A 
ATOM    100  C   UNL     1       1.577  -9.362  11.209  1.00  0.00     0.048 A 
ATOM    101  C   UNL     1       1.075 -10.627  10.893  1.00  0.00     0.127 A 
BRANCH 101 102
ATOM    102  O   UNL     1       0.884 -11.609  11.838  1.00  0.00    -0.457 OA
BRANCH 102 103
ATOM    103  C   UNL     1       0.229 -11.234  12.988  1.00  0.00     0.127 A 
ATOM    104  C   UNL     1       0.872 -11.463  14.205  1.00  0.00     0.047 A 
ATOM    105  C   UNL     1      -1.065 -10.710  12.959  1.00  0.00     0.047 A 
ATOM    106  C   UNL     1       0.233 -11.125  15.398  1.00  0.00     0.004 A 
ATOM    107  C   UNL     1      -1.703 -10.378  14.155  1.00  0.00     0.004 A 
ATOM    108  C   UNL     1      -1.052 -10.580  15.372  1.00  0.00     0.000 A 
ENDBRANCH 102 103
ENDBRANCH 101 102
ENDBRANCH  94  96
ENDBRANCH  92  94
ENDBRANCH  86  87
ENDBRANCH  82  86
ENDBRANCH  78  80
ENDBRANCH  77  78
ENDBRANCH  76  77
ENDBRANCH   1  76
TORSDOF 23
