REMARK SMILES CCCC[C@H](NC(=O)CC1([NH3+])CCC1)C(=O)OCCOCCOCCOC(=O)c1ccc(-c2c3nc(c(-c4c(F)c(F)c(F)c(F)c4F)c4ccc([nH]4)c(-c4c(F)c(F)c(F)c(F)c4F)c4nc(c(-c5c(F)c(F)c(F)c(F)c5F)c5ccc2[nH]5)C=C4)C=C3)cc1
REMARK SMILES IDX 21 1 20 2 19 3 18 4 17 5 15 6 16 7 5 8 4 9 3 10 2 11 1 12
REMARK SMILES IDX 6 13 7 14 8 16 9 17 10 18 12 19 14 20 13 21 11 22 22 26
REMARK SMILES IDX 23 27 24 28 25 29 26 30 27 31 28 32 29 33 30 34 91 35 31 36
REMARK SMILES IDX 90 37 32 38 33 39 34 40 84 41 35 42 89 43 83 44 85 45 36 46
REMARK SMILES IDX 88 47 82 48 81 49 37 51 69 52 49 53 68 54 50 55 53 56 67 57
REMARK SMILES IDX 86 58 51 59 52 60 66 62 87 63 54 64 38 65 39 66 47 67 40 68
REMARK SMILES IDX 41 69 45 70 48 71 42 72 43 73 46 74 44 75 70 76 71 77 79 78
REMARK SMILES IDX 72 79 73 80 77 81 80 82 74 83 75 84 78 85 76 86 55 87 56 88
REMARK SMILES IDX 64 89 57 90 58 91 62 92 65 93 59 94 60 95 63 96 61 97
REMARK H PARENT 6 15 11 23 11 24 11 25 85 50 53 61
REMARK Flexibility Score: inf
ROOT
ATOM      1  C   UNL     1      -1.391   0.844   3.545  1.00  0.00     0.188 C 
ENDROOT
BRANCH   1   2
ATOM      2  O   UNL     1      -2.480   1.229   4.378  1.00  0.00    -0.376 OA
BRANCH   2   3
ATOM      3  C   UNL     1      -2.849   0.303   5.400  1.00  0.00     0.202 C 
BRANCH   3   4
ATOM      4  C   UNL     1      -3.571  -0.937   4.838  1.00  0.00     0.261 C 
BRANCH   4   5
ATOM      5  O   UNL     1      -2.622  -1.783   4.144  1.00  0.00    -0.462 OA
BRANCH   5   6
ATOM      6  C   UNL     1      -2.864  -2.116   2.858  1.00  0.00     0.328 C 
ATOM      7  O   UNL     1      -3.953  -1.998   2.308  1.00  0.00    -0.250 OA
BRANCH   6   8
ATOM      8  C   UNL     1      -1.585  -2.600   2.111  1.00  0.00     0.192 C 
BRANCH   8   9
ATOM      9  C   UNL     1      -1.819  -3.979   1.482  1.00  0.00     0.037 C 
BRANCH   9  10
ATOM     10  C   UNL     1      -1.438  -4.036  -0.006  1.00  0.00     0.002 C 
BRANCH  10  11
ATOM     11  C   UNL     1       0.032  -3.771  -0.339  1.00  0.00    -0.003 C 
ATOM     12  C   UNL     1       0.984  -4.780   0.282  1.00  0.00     0.004 C 
ENDBRANCH  10  11
ENDBRANCH   9  10
ENDBRANCH   8   9
BRANCH   8  13
ATOM     13  N   UNL     1      -0.198  -2.427   2.622  1.00  0.00    -0.343 N 
ATOM     14  C   UNL     1       0.634  -3.029   3.513  1.00  0.00     0.226 C 
ATOM     15  H   UNL     1       0.241  -1.657   2.193  1.00  0.00     0.164 HD
ATOM     16  O   UNL     1       1.829  -2.723   3.439  1.00  0.00    -0.275 OA
BRANCH  14  17
ATOM     17  C   UNL     1       0.154  -3.970   4.595  1.00  0.00     0.168 C 
BRANCH  17  18
ATOM     18  C   UNL     1      -0.328  -3.300   5.875  1.00  0.00     0.103 C 
ATOM     19  C   UNL     1      -1.626  -3.931   6.459  1.00  0.00     0.069 C 
ATOM     20  C   UNL     1       0.255  -3.441   7.322  1.00  0.00     0.069 C 
ATOM     21  C   UNL     1      -1.215  -3.390   7.842  1.00  0.00     0.013 C 
BRANCH  18  22
ATOM     22  N   UNL     1      -0.533  -1.867   5.734  1.00  0.00    -0.352 N 
ATOM     23  H   UNL     1      -0.917  -1.668   4.810  1.00  0.00     0.344 HD
ATOM     24  H   UNL     1       0.358  -1.383   5.844  1.00  0.00     0.344 HD
ATOM     25  H   UNL     1      -1.185  -1.545   6.450  1.00  0.00     0.344 HD
ENDBRANCH  18  22
ENDBRANCH  17  18
ENDBRANCH  14  17
ENDBRANCH   8  13
ENDBRANCH   6   8
ENDBRANCH   5   6
ENDBRANCH   4   5
ENDBRANCH   3   4
ENDBRANCH   2   3
ENDBRANCH   1   2
BRANCH   1  26
ATOM     26  C   UNL     1      -0.034   1.283   4.057  1.00  0.00     0.188 C 
BRANCH  26  27
ATOM     27  O   UNL     1       0.637   0.437   4.979  1.00  0.00    -0.376 OA
BRANCH  27  28
ATOM     28  C   UNL     1       1.088   1.101   6.166  1.00  0.00     0.202 C 
BRANCH  28  29
ATOM     29  C   UNL     1       2.127   2.239   6.023  1.00  0.00     0.261 C 
BRANCH  29  30
ATOM     30  O   UNL     1       1.719   3.277   5.109  1.00  0.00    -0.460 OA
BRANCH  30  31
ATOM     31  C   UNL     1       2.281   3.233   3.865  1.00  0.00     0.338 C 
ATOM     32  O   UNL     1       3.249   2.595   3.526  1.00  0.00    -0.246 OA
BRANCH  31  33
ATOM     33  C   UNL     1       1.320   3.848   2.897  1.00  0.00     0.060 A 
ATOM     34  C   UNL     1       1.113   3.184   1.673  1.00  0.00     0.016 A 
ATOM     35  C   UNL     1       0.511   4.933   3.241  1.00  0.00     0.016 A 
ATOM     36  C   UNL     1       0.083   3.577   0.815  1.00  0.00     0.010 A 
ATOM     37  C   UNL     1      -0.486   5.360   2.359  1.00  0.00     0.010 A 
ATOM     38  C   UNL     1      -0.698   4.692   1.139  1.00  0.00    -0.014 A 
BRANCH  38  39
ATOM     39  C   UNL     1      -1.546   5.334   0.105  1.00  0.00     0.031 A 
ATOM     40  C   UNL     1      -0.891   6.376  -0.757  1.00  0.00     0.074 A 
ATOM     41  C   UNL     1      -2.851   5.048  -0.043  1.00  0.00     0.049 A 
ATOM     42  N   UNL     1      -1.421   7.201  -1.620  1.00  0.00    -0.248 NA
ATOM     43  C   UNL     1       0.569   6.510  -0.612  1.00  0.00     0.031 C 
ATOM     44  C   UNL     1      -3.587   4.020   0.688  1.00  0.00     0.029 A 
ATOM     45  N   UNL     1      -3.797   5.628  -0.855  1.00  0.00    -0.354 N 
ATOM     46  C   UNL     1      -0.364   7.957  -2.108  1.00  0.00     0.074 A 
ATOM     47  C   UNL     1       0.834   7.508  -1.437  1.00  0.00     0.031 C 
ATOM     48  C   UNL     1      -4.879   4.063   0.315  1.00  0.00     0.029 A 
ATOM     49  C   UNL     1      -5.069   5.151  -0.645  1.00  0.00     0.049 A 
ATOM     50  H   UNL     1      -3.584   6.319  -1.523  1.00  0.00     0.167 HD
ATOM     51  C   UNL     1      -0.392   8.946  -3.030  1.00  0.00     0.037 A 
ATOM     52  C   UNL     1      -6.249   5.580  -1.140  1.00  0.00     0.037 A 
ATOM     53  C   UNL     1      -1.588   9.405  -3.678  1.00  0.00     0.049 A 
ATOM     54  C   UNL     1      -6.268   6.756  -2.090  1.00  0.00     0.074 A 
ATOM     55  C   UNL     1      -1.724  10.389  -4.640  1.00  0.00     0.029 A 
ATOM     56  N   UNL     1      -2.861   8.920  -3.413  1.00  0.00    -0.354 N 
ATOM     57  N   UNL     1      -5.266   7.452  -2.571  1.00  0.00    -0.248 NA
ATOM     58  C   UNL     1      -7.587   7.215  -2.556  1.00  0.00     0.031 C 
ATOM     59  C   UNL     1      -3.087  10.545  -4.910  1.00  0.00     0.029 A 
ATOM     60  C   UNL     1      -3.794   9.615  -4.164  1.00  0.00     0.049 A 
ATOM     61  H   UNL     1      -3.069   8.192  -2.785  1.00  0.00     0.167 HD
ATOM     62  C   UNL     1      -5.827   8.410  -3.408  1.00  0.00     0.074 A 
ATOM     63  C   UNL     1      -7.258   8.196  -3.385  1.00  0.00     0.031 C 
ATOM     64  C   UNL     1      -5.215   9.383  -4.128  1.00  0.00     0.037 A 
BRANCH  51  65
ATOM     65  C   UNL     1       0.906   9.625  -3.351  1.00  0.00     0.064 A 
ATOM     66  C   UNL     1       1.925   8.973  -4.061  1.00  0.00     0.173 A 
ATOM     67  C   UNL     1       1.126  10.951  -2.952  1.00  0.00     0.173 A 
ATOM     68  F   UNL     1       1.773   7.697  -4.444  1.00  0.00    -0.203 F 
ATOM     69  C   UNL     1       3.127   9.619  -4.340  1.00  0.00     0.198 A 
ATOM     70  C   UNL     1       2.316  11.604  -3.260  1.00  0.00     0.198 A 
ATOM     71  F   UNL     1       0.185  11.617  -2.265  1.00  0.00    -0.203 F 
ATOM     72  F   UNL     1       4.108   8.961  -4.974  1.00  0.00    -0.200 F 
ATOM     73  C   UNL     1       3.318  10.935  -3.946  1.00  0.00     0.200 A 
ATOM     74  F   UNL     1       2.495  12.878  -2.887  1.00  0.00    -0.200 F 
ATOM     75  F   UNL     1       4.473  11.557  -4.221  1.00  0.00    -0.200 F 
ENDBRANCH  51  65
BRANCH  52  76
ATOM     76  C   UNL     1      -7.523   4.934  -0.717  1.00  0.00     0.064 A 
ATOM     77  C   UNL     1      -8.319   4.230  -1.632  1.00  0.00     0.173 A 
ATOM     78  C   UNL     1      -7.995   5.045   0.601  1.00  0.00     0.173 A 
ATOM     79  F   UNL     1      -7.934   4.127  -2.912  1.00  0.00    -0.203 F 
ATOM     80  C   UNL     1      -9.542   3.678  -1.251  1.00  0.00     0.198 A 
ATOM     81  C   UNL     1      -9.202   4.465   0.988  1.00  0.00     0.198 A 
ATOM     82  F   UNL     1      -7.283   5.720   1.515  1.00  0.00    -0.203 F 
ATOM     83  F   UNL     1     -10.308   3.060  -2.161  1.00  0.00    -0.200 F 
ATOM     84  C   UNL     1      -9.979   3.789   0.060  1.00  0.00     0.200 A 
ATOM     85  F   UNL     1      -9.617   4.571   2.258  1.00  0.00    -0.200 F 
ATOM     86  F   UNL     1     -11.154   3.260   0.425  1.00  0.00    -0.200 F 
ENDBRANCH  52  76
BRANCH  64  87
ATOM     87  C   UNL     1      -6.081  10.279  -4.969  1.00  0.00     0.064 A 
ATOM     88  C   UNL     1      -6.908  11.253  -4.392  1.00  0.00     0.173 A 
ATOM     89  C   UNL     1      -6.025  10.211  -6.370  1.00  0.00     0.173 A 
ATOM     90  F   UNL     1      -7.006  11.352  -3.058  1.00  0.00    -0.203 F 
ATOM     91  C   UNL     1      -7.661  12.114  -5.187  1.00  0.00     0.198 A 
ATOM     92  C   UNL     1      -6.753  11.094  -7.161  1.00  0.00     0.198 A 
ATOM     93  F   UNL     1      -5.241   9.304  -6.972  1.00  0.00    -0.203 F 
ATOM     94  F   UNL     1      -8.475  13.012  -4.614  1.00  0.00    -0.200 F 
ATOM     95  C   UNL     1      -7.575  12.041  -6.569  1.00  0.00     0.200 A 
ATOM     96  F   UNL     1      -6.654  11.034  -8.496  1.00  0.00    -0.200 F 
ATOM     97  F   UNL     1      -8.287  12.882  -7.332  1.00  0.00    -0.200 F 
ENDBRANCH  64  87
ENDBRANCH  38  39
ENDBRANCH  31  33
ENDBRANCH  30  31
ENDBRANCH  29  30
ENDBRANCH  28  29
ENDBRANCH  27  28
ENDBRANCH  26  27
ENDBRANCH   1  26
TORSDOF 24
