REMARK SMILES C[C@@H](CC(=O)OCCOCCOCCOC(=O)c1ccc(-c2c3nc(c(-c4c(F)c(F)c(F)c(F)c4F)c4ccc([nH]4)c(-c4c(F)c(F)c(F)c(F)c4F)c4nc(c(-c5c(F)c(F)c(F)c(F)c5F)c5ccc2[nH]5)C=C4)C=C3)cc1)Cc1nnc(C2C(C)(C)C2(C)C)o1
REMARK SMILES IDX 10 1 9 2 8 3 7 4 6 5 4 6 5 7 3 8 2 9 1 10 81 11 82 12 83 13
REMARK SMILES IDX 93 14 84 15 85 16 86 17 87 18 90 19 88 20 89 21 91 22 92 23
REMARK SMILES IDX 11 24 12 25 13 26 14 27 15 28 16 29 17 30 18 31 19 32 80 33
REMARK SMILES IDX 20 34 79 35 21 36 22 37 23 38 73 39 24 40 78 41 72 42 74 43
REMARK SMILES IDX 25 44 77 45 71 46 70 47 26 49 58 50 38 51 57 52 39 53 42 54
REMARK SMILES IDX 56 55 75 56 40 57 41 58 55 60 76 61 43 62 27 63 28 64 36 65
REMARK SMILES IDX 29 66 30 67 34 68 37 69 31 70 32 71 35 72 33 73 59 74 60 75
REMARK SMILES IDX 68 76 61 77 62 78 66 79 69 80 63 81 64 82 67 83 65 84 44 85
REMARK SMILES IDX 45 86 53 87 46 88 47 89 51 90 54 91 48 92 49 93 52 94 50 95
REMARK H PARENT 74 48 42 59
REMARK Flexibility Score: inf
ROOT
ATOM      1  C   UNL     1      -1.031   4.341   0.901  1.00  0.00     0.188 C 
ENDROOT
BRANCH   1   2
ATOM      2  O   UNL     1      -0.575   5.317  -0.033  1.00  0.00    -0.376 OA
BRANCH   2   3
ATOM      3  C   UNL     1       0.137   4.823  -1.175  1.00  0.00     0.202 C 
BRANCH   3   4
ATOM      4  C   UNL     1       1.386   3.973  -0.875  1.00  0.00     0.261 C 
BRANCH   4   5
ATOM      5  O   UNL     1       1.093   2.710  -0.227  1.00  0.00    -0.463 OA
BRANCH   5   6
ATOM      6  C   UNL     1       1.965   2.331   0.743  1.00  0.00     0.306 C 
ATOM      7  O   UNL     1       2.979   2.953   1.043  1.00  0.00    -0.252 OA
BRANCH   6   8
ATOM      8  C   UNL     1       1.493   1.137   1.559  1.00  0.00     0.126 C 
BRANCH   8   9
ATOM      9  C   UNL     1       1.050  -0.181   0.877  1.00  0.00     0.006 C 
ATOM     10  C   UNL     1       1.576  -0.343  -0.546  1.00  0.00     0.009 C 
BRANCH   9  11
ATOM     11  C   UNL     1      -0.476  -0.348   0.975  1.00  0.00     0.103 C 
BRANCH  11  12
ATOM     12  C   UNL     1      -1.022  -1.665   0.541  1.00  0.00     0.216 A 
ATOM     13  N   UNL     1      -0.983  -2.823   1.164  1.00  0.00    -0.113 NA
ATOM     14  O   UNL     1      -1.839  -1.688  -0.560  1.00  0.00    -0.425 OA
ATOM     15  N   UNL     1      -1.851  -3.655   0.482  1.00  0.00    -0.113 NA
ATOM     16  C   UNL     1      -2.370  -2.953  -0.510  1.00  0.00     0.220 A 
BRANCH  16  17
ATOM     17  C   UNL     1      -3.440  -3.550  -1.437  1.00  0.00     0.090 C 
ATOM     18  C   UNL     1      -4.590  -2.730  -2.045  1.00  0.00    -0.017 C 
ATOM     19  C   UNL     1      -3.484  -3.270  -2.944  1.00  0.00    -0.017 C 
ATOM     20  C   UNL     1      -5.962  -3.379  -2.015  1.00  0.00     0.012 C 
ATOM     21  C   UNL     1      -4.726  -1.242  -1.923  1.00  0.00     0.012 C 
ATOM     22  C   UNL     1      -2.469  -2.337  -3.573  1.00  0.00     0.012 C 
ATOM     23  C   UNL     1      -3.840  -4.405  -3.880  1.00  0.00     0.012 C 
ENDBRANCH  16  17
ENDBRANCH  11  12
ENDBRANCH   9  11
ENDBRANCH   8   9
ENDBRANCH   6   8
ENDBRANCH   5   6
ENDBRANCH   4   5
ENDBRANCH   3   4
ENDBRANCH   2   3
ENDBRANCH   1   2
BRANCH   1  24
ATOM     24  C   UNL     1      -2.047   3.335   0.349  1.00  0.00     0.188 C 
BRANCH  24  25
ATOM     25  O   UNL     1      -1.612   2.741  -0.864  1.00  0.00    -0.376 OA
BRANCH  25  26
ATOM     26  C   UNL     1      -2.475   1.848  -1.555  1.00  0.00     0.202 C 
BRANCH  26  27
ATOM     27  C   UNL     1      -3.971   2.180  -1.558  1.00  0.00     0.261 C 
BRANCH  27  28
ATOM     28  O   UNL     1      -4.620   2.171  -0.269  1.00  0.00    -0.460 OA
BRANCH  28  29
ATOM     29  C   UNL     1      -4.343   1.169   0.590  1.00  0.00     0.338 C 
ATOM     30  O   UNL     1      -3.728   0.142   0.372  1.00  0.00    -0.246 OA
BRANCH  29  31
ATOM     31  C   UNL     1      -4.660   1.577   1.961  1.00  0.00     0.060 A 
ATOM     32  C   UNL     1      -3.837   1.063   2.974  1.00  0.00     0.016 A 
ATOM     33  C   UNL     1      -5.694   2.466   2.249  1.00  0.00     0.016 A 
ATOM     34  C   UNL     1      -4.060   1.421   4.290  1.00  0.00     0.010 A 
ATOM     35  C   UNL     1      -5.921   2.825   3.572  1.00  0.00     0.010 A 
ATOM     36  C   UNL     1      -5.119   2.284   4.590  1.00  0.00    -0.014 A 
BRANCH  36  37
ATOM     37  C   UNL     1      -5.480   2.487   6.000  1.00  0.00     0.031 A 
ATOM     38  C   UNL     1      -6.603   1.675   6.565  1.00  0.00     0.074 A 
ATOM     39  C   UNL     1      -4.772   3.340   6.756  1.00  0.00     0.049 A 
ATOM     40  N   UNL     1      -7.124   1.705   7.762  1.00  0.00    -0.248 NA
ATOM     41  C   UNL     1      -7.223   0.695   5.657  1.00  0.00     0.031 C 
ATOM     42  C   UNL     1      -3.624   4.122   6.298  1.00  0.00     0.029 A 
ATOM     43  N   UNL     1      -4.918   3.686   8.071  1.00  0.00    -0.354 N 
ATOM     44  C   UNL     1      -8.137   0.757   7.748  1.00  0.00     0.074 A 
ATOM     45  C   UNL     1      -8.178   0.187   6.420  1.00  0.00     0.031 C 
ATOM     46  C   UNL     1      -3.170   4.864   7.322  1.00  0.00     0.029 A 
ATOM     47  C   UNL     1      -4.019   4.635   8.488  1.00  0.00     0.049 A 
ATOM     48  H   UNL     1      -5.600   3.292   8.662  1.00  0.00     0.167 HD
ATOM     49  C   UNL     1      -8.953   0.396   8.763  1.00  0.00     0.037 A 
ATOM     50  C   UNL     1      -3.922   5.259   9.675  1.00  0.00     0.037 A 
ATOM     51  C   UNL     1      -8.893   0.975  10.077  1.00  0.00     0.049 A 
ATOM     52  C   UNL     1      -4.891   4.887  10.766  1.00  0.00     0.074 A 
ATOM     53  C   UNL     1      -9.672   0.691  11.183  1.00  0.00     0.029 A 
ATOM     54  N   UNL     1      -7.996   1.964  10.458  1.00  0.00    -0.354 N 
ATOM     55  N   UNL     1      -5.852   3.994  10.752  1.00  0.00    -0.248 NA
ATOM     56  C   UNL     1      -4.762   5.611  12.037  1.00  0.00     0.031 C 
ATOM     57  C   UNL     1      -9.277   1.542  12.221  1.00  0.00     0.029 A 
ATOM     58  C   UNL     1      -8.217   2.318  11.778  1.00  0.00     0.049 A 
ATOM     59  H   UNL     1      -7.305   2.355   9.876  1.00  0.00     0.167 HD
ATOM     60  C   UNL     1      -6.426   4.029  12.015  1.00  0.00     0.074 A 
ATOM     61  C   UNL     1      -5.694   5.023  12.775  1.00  0.00     0.031 C 
ATOM     62  C   UNL     1      -7.465   3.308  12.506  1.00  0.00     0.037 A 
BRANCH  49  63
ATOM     63  C   UNL     1      -9.996  -0.639   8.472  1.00  0.00     0.064 A 
ATOM     64  C   UNL     1      -9.665  -1.987   8.268  1.00  0.00     0.173 A 
ATOM     65  C   UNL     1     -11.349  -0.277   8.400  1.00  0.00     0.173 A 
ATOM     66  F   UNL     1      -8.382  -2.380   8.300  1.00  0.00    -0.203 F 
ATOM     67  C   UNL     1     -10.649  -2.930   7.981  1.00  0.00     0.198 A 
ATOM     68  C   UNL     1     -12.333  -1.227   8.141  1.00  0.00     0.198 A 
ATOM     69  F   UNL     1     -11.718   1.000   8.579  1.00  0.00    -0.203 F 
ATOM     70  F   UNL     1     -10.305  -4.203   7.740  1.00  0.00    -0.200 F 
ATOM     71  C   UNL     1     -11.982  -2.551   7.925  1.00  0.00     0.200 A 
ATOM     72  F   UNL     1     -13.621  -0.860   8.092  1.00  0.00    -0.200 F 
ATOM     73  F   UNL     1     -12.928  -3.460   7.652  1.00  0.00    -0.200 F 
ENDBRANCH  49  63
BRANCH  50  74
ATOM     74  C   UNL     1      -2.887   6.303   9.883  1.00  0.00     0.064 A 
ATOM     75  C   UNL     1      -1.819   6.098  10.766  1.00  0.00     0.173 A 
ATOM     76  C   UNL     1      -2.950   7.531   9.208  1.00  0.00     0.173 A 
ATOM     77  F   UNL     1      -1.727   4.948  11.450  1.00  0.00    -0.203 F 
ATOM     78  C   UNL     1      -0.865   7.090  10.982  1.00  0.00     0.198 A 
ATOM     79  C   UNL     1      -1.980   8.511   9.403  1.00  0.00     0.198 A 
ATOM     80  F   UNL     1      -3.952   7.776   8.350  1.00  0.00    -0.203 F 
ATOM     81  F   UNL     1       0.121   6.887  11.867  1.00  0.00    -0.200 F 
ATOM     82  C   UNL     1      -0.943   8.293  10.296  1.00  0.00     0.200 A 
ATOM     83  F   UNL     1      -2.053   9.666   8.728  1.00  0.00    -0.200 F 
ATOM     84  F   UNL     1      -0.023   9.246  10.503  1.00  0.00    -0.200 F 
ENDBRANCH  50  74
BRANCH  62  85
ATOM     85  C   UNL     1      -7.843   3.547  13.938  1.00  0.00     0.064 A 
ATOM     86  C   UNL     1      -8.492   4.723  14.341  1.00  0.00     0.173 A 
ATOM     87  C   UNL     1      -7.589   2.567  14.909  1.00  0.00     0.173 A 
ATOM     88  F   UNL     1      -8.743   5.694  13.450  1.00  0.00    -0.203 F 
ATOM     89  C   UNL     1      -8.848   4.920  15.671  1.00  0.00     0.198 A 
ATOM     90  C   UNL     1      -7.976   2.755  16.233  1.00  0.00     0.198 A 
ATOM     91  F   UNL     1      -6.979   1.421  14.571  1.00  0.00    -0.203 F 
ATOM     92  F   UNL     1      -9.424   6.072  16.044  1.00  0.00    -0.200 F 
ATOM     93  C   UNL     1      -8.597   3.934  16.614  1.00  0.00     0.200 A 
ATOM     94  F   UNL     1      -7.745   1.795  17.139  1.00  0.00    -0.200 F 
ATOM     95  F   UNL     1      -8.948   4.124  17.893  1.00  0.00    -0.200 F 
ENDBRANCH  62  85
ENDBRANCH  36  37
ENDBRANCH  29  31
ENDBRANCH  28  29
ENDBRANCH  27  28
ENDBRANCH  26  27
ENDBRANCH  25  26
ENDBRANCH  24  25
ENDBRANCH   1  24
TORSDOF 21
