REMARK SMILES Cc1ccc(NC(=O)C[C@@H](C(=O)OCCOCCOCCOC(=O)c2ccc(-c3c4nc(c(-c5c(F)c(F)c(F)c(F)c5F)c5ccc([nH]5)c(-c5c(F)c(F)c(F)c(F)c5F)c5nc(c(-c6c(F)c(F)c(F)c(F)c6F)c6ccc3[nH]6)C=C5)C=C4)cc2)[NH+]2CCOCC2)cc1
REMARK SMILES IDX 17 1 16 2 15 3 14 4 13 5 11 6 12 7 10 8 9 9 7 10 6 11 8 13
REMARK SMILES IDX 5 14 1 15 2 16 3 17 95 18 4 19 94 20 88 21 89 22 93 23 90 25
REMARK SMILES IDX 92 26 91 27 18 28 19 29 20 30 21 31 22 32 23 33 24 34 25 35
REMARK SMILES IDX 26 36 87 37 27 38 86 39 28 40 29 41 30 42 80 43 31 44 85 45
REMARK SMILES IDX 79 46 81 47 32 48 84 49 78 50 77 51 33 53 65 54 45 55 64 56
REMARK SMILES IDX 46 57 49 58 63 59 82 60 47 61 48 62 62 64 83 65 50 66 34 67
REMARK SMILES IDX 35 68 43 69 36 70 37 71 41 72 44 73 38 74 39 75 42 76 40 77
REMARK SMILES IDX 66 78 67 79 75 80 68 81 69 82 73 83 76 84 70 85 71 86 74 87
REMARK SMILES IDX 72 88 51 89 52 90 60 91 53 92 54 93 58 94 61 95 55 96 56 97
REMARK SMILES IDX 59 98 57 99
REMARK H PARENT 6 12 88 24 81 52 49 63
REMARK Flexibility Score: inf
ROOT
ATOM      1  C   UNL     1       1.182   0.433   1.860  1.00  0.00     0.188 C 
ENDROOT
BRANCH   1   2
ATOM      2  O   UNL     1       0.791   1.785   1.458  1.00  0.00    -0.376 OA
BRANCH   2   3
ATOM      3  C   UNL     1      -0.462   2.226   0.358  1.00  0.00     0.202 C 
BRANCH   3   4
ATOM      4  C   UNL     1      -0.747   1.661  -1.781  1.00  0.00     0.261 C 
BRANCH   4   5
ATOM      5  O   UNL     1      -1.091   0.137  -2.860  1.00  0.00    -0.459 OA
BRANCH   5   6
ATOM      6  C   UNL     1      -1.627  -1.368  -3.493  1.00  0.00     0.365 C 
ATOM      7  O   UNL     1      -1.407  -1.712  -4.652  1.00  0.00    -0.245 OA
BRANCH   6   8
ATOM      8  C   UNL     1      -2.648  -2.697  -2.578  1.00  0.00     0.304 C 
BRANCH   8   9
ATOM      9  C   UNL     1      -3.755  -2.372  -1.108  1.00  0.00     0.177 C 
BRANCH   9  10
ATOM     10  C   UNL     1      -4.301  -0.760  -0.268  1.00  0.00     0.231 C 
ATOM     11  N   UNL     1      -3.677   0.627  -0.182  1.00  0.00    -0.326 N 
ATOM     12  H   UNL     1      -4.363   1.295   0.046  1.00  0.00     0.169 HD
ATOM     13  O   UNL     1      -5.445  -0.810   0.232  1.00  0.00    -0.274 OA
BRANCH  11  14
ATOM     14  C   UNL     1      -2.298   1.310  -0.342  1.00  0.00     0.041 A 
ATOM     15  C   UNL     1       2.421   3.244  -0.664  1.00  0.00     0.044 C 
ATOM     16  C   UNL     1       1.027   2.787  -1.042  1.00  0.00    -0.051 A 
ATOM     17  C   UNL     1       0.882   1.098  -0.667  1.00  0.00     0.005 A 
ATOM     18  C   UNL     1      -0.464   3.748  -1.146  1.00  0.00     0.005 A 
ATOM     19  C   UNL     1      -0.744   0.423  -0.192  1.00  0.00     0.026 A 
ATOM     20  C   UNL     1      -2.093   3.039  -0.747  1.00  0.00     0.026 A 
ENDBRANCH  11  14
ENDBRANCH   9  10
ENDBRANCH   8   9
BRANCH   8  21
ATOM     21  N   UNL     1      -1.742  -3.932  -2.464  1.00  0.00    -0.319 N 
ATOM     22  C   UNL     1      -0.938  -4.361  -3.626  1.00  0.00     0.291 C 
ATOM     23  C   UNL     1      -2.054  -5.120  -1.661  1.00  0.00     0.291 C 
ATOM     24  H   UNL     1      -1.218  -3.332  -1.828  1.00  0.00     0.348 HD
ATOM     25  C   UNL     1      -1.583  -5.514  -4.394  1.00  0.00     0.221 C 
ATOM     26  C   UNL     1      -2.345  -6.460  -2.390  1.00  0.00     0.221 C 
ATOM     27  O   UNL     1      -1.571  -6.681  -3.572  1.00  0.00    -0.370 OA
ENDBRANCH   8  21
ENDBRANCH   6   8
ENDBRANCH   5   6
ENDBRANCH   4   5
ENDBRANCH   3   4
ENDBRANCH   2   3
ENDBRANCH   1   2
BRANCH   1  28
ATOM     28  C   UNL     1       0.384  -0.254   2.933  1.00  0.00     0.188 C 
BRANCH  28  29
ATOM     29  O   UNL     1      -0.927   0.258   2.933  1.00  0.00    -0.376 OA
BRANCH  29  30
ATOM     30  C   UNL     1      -1.220   0.995   4.101  1.00  0.00     0.202 C 
BRANCH  30  31
ATOM     31  C   UNL     1      -1.315   0.037   5.302  1.00  0.00     0.261 C 
BRANCH  31  32
ATOM     32  O   UNL     1      -2.175  -1.094   4.974  1.00  0.00    -0.460 OA
BRANCH  32  33
ATOM     33  C   UNL     1      -1.581  -2.279   4.590  1.00  0.00     0.338 C 
ATOM     34  O   UNL     1      -0.624  -2.788   5.150  1.00  0.00    -0.246 OA
BRANCH  33  35
ATOM     35  C   UNL     1      -2.055  -2.699   3.211  1.00  0.00     0.060 A 
ATOM     36  C   UNL     1      -1.285  -3.510   2.342  1.00  0.00     0.016 A 
ATOM     37  C   UNL     1      -2.916  -1.829   2.626  1.00  0.00     0.016 A 
ATOM     38  C   UNL     1      -1.176  -3.227   0.921  1.00  0.00     0.010 A 
ATOM     39  C   UNL     1      -2.544  -1.435   1.352  1.00  0.00     0.010 A 
ATOM     40  C   UNL     1      -1.769  -2.085   0.363  1.00  0.00    -0.014 A 
BRANCH  40  41
ATOM     41  C   UNL     1      -1.559  -1.344  -1.221  1.00  0.00     0.031 A 
ATOM     42  C   UNL     1      -3.020  -0.357  -2.214  1.00  0.00     0.074 A 
ATOM     43  C   UNL     1      -0.064  -1.470  -1.619  1.00  0.00     0.049 A 
ATOM     44  N   UNL     1      -2.943   0.787  -2.954  1.00  0.00    -0.248 NA
ATOM     45  C   UNL     1      -4.513  -0.738  -2.712  1.00  0.00     0.031 C 
ATOM     46  C   UNL     1       0.817  -0.663  -2.705  1.00  0.00     0.029 A 
ATOM     47  N   UNL     1       1.046  -2.084  -1.028  1.00  0.00    -0.354 N 
ATOM     48  C   UNL     1      -3.788   0.888  -4.029  1.00  0.00     0.074 A 
ATOM     49  C   UNL     1      -4.925   0.209  -3.551  1.00  0.00     0.031 C 
ATOM     50  C   UNL     1       2.122  -0.645  -2.503  1.00  0.00     0.029 A 
ATOM     51  C   UNL     1       2.272  -1.795  -1.714  1.00  0.00     0.049 A 
ATOM     52  H   UNL     1       0.991  -2.654  -0.227  1.00  0.00     0.167 HD
ATOM     53  C   UNL     1      -3.452   1.134  -5.348  1.00  0.00     0.037 A 
ATOM     54  C   UNL     1       3.013  -2.749  -2.328  1.00  0.00     0.037 A 
ATOM     55  C   UNL     1      -2.006   1.014  -5.731  1.00  0.00     0.049 A 
ATOM     56  C   UNL     1       2.687  -2.809  -3.878  1.00  0.00     0.074 A 
ATOM     57  C   UNL     1      -0.885   1.825  -5.660  1.00  0.00     0.029 A 
ATOM     58  N   UNL     1      -1.488  -0.180  -6.274  1.00  0.00    -0.354 N 
ATOM     59  N   UNL     1       1.593  -2.278  -4.426  1.00  0.00    -0.248 NA
ATOM     60  C   UNL     1       3.614  -3.200  -4.931  1.00  0.00     0.031 C 
ATOM     61  C   UNL     1       0.298   1.048  -5.981  1.00  0.00     0.029 A 
ATOM     62  C   UNL     1      -0.055  -0.268  -6.274  1.00  0.00     0.049 A 
ATOM     63  H   UNL     1      -2.063  -0.898  -6.624  1.00  0.00     0.167 HD
ATOM     64  C   UNL     1       1.679  -2.128  -5.795  1.00  0.00     0.074 A 
ATOM     65  C   UNL     1       2.979  -2.764  -6.045  1.00  0.00     0.031 C 
ATOM     66  C   UNL     1       0.722  -1.555  -6.648  1.00  0.00     0.037 A 
BRANCH  53  67
ATOM     67  C   UNL     1      -4.525   1.779  -6.263  1.00  0.00     0.064 A 
ATOM     68  C   UNL     1      -4.138   2.765  -7.194  1.00  0.00     0.173 A 
ATOM     69  C   UNL     1      -5.930   1.615  -6.170  1.00  0.00     0.173 A 
ATOM     70  F   UNL     1      -2.846   2.977  -7.476  1.00  0.00    -0.203 F 
ATOM     71  C   UNL     1      -5.063   3.591  -7.857  1.00  0.00     0.198 A 
ATOM     72  C   UNL     1      -6.850   2.493  -6.761  1.00  0.00     0.198 A 
ATOM     73  F   UNL     1      -6.483   0.549  -5.586  1.00  0.00    -0.203 F 
ATOM     74  F   UNL     1      -4.629   4.510  -8.730  1.00  0.00    -0.200 F 
ATOM     75  C   UNL     1      -6.415   3.491  -7.599  1.00  0.00     0.200 A 
ATOM     76  F   UNL     1      -8.162   2.352  -6.512  1.00  0.00    -0.200 F 
ATOM     77  F   UNL     1      -7.292   4.324  -8.178  1.00  0.00    -0.200 F 
ENDBRANCH  53  67
BRANCH  54  78
ATOM     78  C   UNL     1       3.572  -3.510  -1.163  1.00  0.00     0.064 A 
ATOM     79  C   UNL     1       4.308  -2.683  -0.235  1.00  0.00     0.173 A 
ATOM     80  C   UNL     1       2.716  -4.460  -0.582  1.00  0.00     0.173 A 
ATOM     81  F   UNL     1       5.092  -1.695  -0.706  1.00  0.00    -0.203 F 
ATOM     82  C   UNL     1       3.970  -2.621   1.126  1.00  0.00     0.198 A 
ATOM     83  C   UNL     1       2.414  -4.410   0.792  1.00  0.00     0.198 A 
ATOM     84  F   UNL     1       1.932  -5.205  -1.374  1.00  0.00    -0.203 F 
ATOM     85  F   UNL     1       4.452  -1.634   1.901  1.00  0.00    -0.200 F 
ATOM     86  C   UNL     1       2.992  -3.458   1.626  1.00  0.00     0.200 A 
ATOM     87  F   UNL     1       1.411  -5.160   1.270  1.00  0.00    -0.200 F 
ATOM     88  F   UNL     1       2.518  -3.270   2.868  1.00  0.00    -0.200 F 
ENDBRANCH  54  78
BRANCH  66  89
ATOM     89  C   UNL     1       0.404  -2.250  -8.005  1.00  0.00     0.064 A 
ATOM     90  C   UNL     1       1.000  -3.448  -8.465  1.00  0.00     0.173 A 
ATOM     91  C   UNL     1      -0.654  -1.803  -8.840  1.00  0.00     0.173 A 
ATOM     92  F   UNL     1       1.906  -4.126  -7.755  1.00  0.00    -0.203 F 
ATOM     93  C   UNL     1       0.647  -4.070  -9.670  1.00  0.00     0.198 A 
ATOM     94  C   UNL     1      -1.072  -2.483  -9.990  1.00  0.00     0.198 A 
ATOM     95  F   UNL     1      -1.366  -0.702  -8.579  1.00  0.00    -0.203 F 
ATOM     96  F   UNL     1       1.318  -5.160 -10.071  1.00  0.00    -0.200 F 
ATOM     97  C   UNL     1      -0.401  -3.600 -10.425  1.00  0.00     0.200 A 
ATOM     98  F   UNL     1      -2.148  -2.048 -10.661  1.00  0.00    -0.200 F 
ATOM     99  F   UNL     1      -0.777  -4.231 -11.544  1.00  0.00    -0.200 F 
ENDBRANCH  66  89
ENDBRANCH  40  41
ENDBRANCH  33  35
ENDBRANCH  32  33
ENDBRANCH  31  32
ENDBRANCH  30  31
ENDBRANCH  29  30
ENDBRANCH  28  29
ENDBRANCH   1  28
TORSDOF 21
