REMARK SMILES COc1ccc(NC(=O)[C@@H]2[C@@H](C(=O)OCCOCCOCCOC(=O)c3ccc(-c4c5nc(c(-c6c(F)c(F)c(F)c(F)c6F)c6ccc([nH]6)c(-c6c(F)c(F)c(F)c(F)c6F)c6nc(c(-c7c(F)c(F)c(F)c(F)c7F)c7ccc4[nH]7)C=C6)C=C5)cc3)[C@@H]3CC[C@H]2C3=C(C)C)cc1
REMARK SMILES IDX 18 1 17 2 16 3 15 4 14 5 12 6 13 7 11 8 10 9 92 10 89 11
REMARK SMILES IDX 91 12 93 13 90 14 94 15 95 16 96 17 8 18 7 19 9 21 6 22 3 23
REMARK SMILES IDX 4 24 98 25 5 26 97 27 2 28 1 29 19 30 20 31 21 32 22 33
REMARK SMILES IDX 23 34 24 35 25 36 26 37 27 38 88 39 28 40 87 41 29 42 30 43
REMARK SMILES IDX 31 44 81 45 32 46 86 47 80 48 82 49 33 50 85 51 79 52 78 53
REMARK SMILES IDX 34 55 66 56 46 57 65 58 47 59 50 60 64 61 83 62 48 63 49 64
REMARK SMILES IDX 63 66 84 67 51 68 35 69 36 70 44 71 37 72 38 73 42 74 45 75
REMARK SMILES IDX 39 76 40 77 43 78 41 79 67 80 68 81 76 82 69 83 70 84 74 85
REMARK SMILES IDX 77 86 71 87 72 88 75 89 73 90 52 91 53 92 61 93 54 94 55 95
REMARK SMILES IDX 59 96 62 97 56 98 57 99 60 100 58 101
REMARK H PARENT 7 20 82 54 50 65
REMARK Flexibility Score: inf
ROOT
ATOM      1  C   UNL     1      -4.802   6.837   5.237  1.00  0.00     0.188 C 
ENDROOT
BRANCH   1   2
ATOM      2  O   UNL     1      -5.027   8.243   5.353  1.00  0.00    -0.376 OA
BRANCH   2   3
ATOM      3  C   UNL     1      -4.652   9.036   4.222  1.00  0.00     0.202 C 
BRANCH   3   4
ATOM      4  C   UNL     1      -3.139   9.211   4.069  1.00  0.00     0.261 C 
BRANCH   4   5
ATOM      5  O   UNL     1      -2.540   8.002   3.570  1.00  0.00    -0.463 OA
BRANCH   5   6
ATOM      6  C   UNL     1      -1.193   7.931   3.720  1.00  0.00     0.310 C 
ATOM      7  O   UNL     1      -0.503   8.867   4.108  1.00  0.00    -0.252 OA
BRANCH   6   8
ATOM      8  C   UNL     1      -0.631   6.547   3.443  1.00  0.00     0.119 C 
ATOM      9  C   UNL     1       0.433   6.559   2.285  1.00  0.00     0.101 C 
ATOM     10  C   UNL     1      -0.015   5.352   1.489  1.00  0.00     0.029 C 
ATOM     11  C   UNL     1      -1.677   5.465   2.989  1.00  0.00     0.030 C 
ATOM     12  C   UNL     1       0.102   4.044   2.304  1.00  0.00     0.009 C 
ATOM     13  C   UNL     1      -1.501   5.488   1.502  1.00  0.00    -0.064 C 
ATOM     14  C   UNL     1      -1.075   4.092   3.274  1.00  0.00     0.009 C 
ATOM     15  C   UNL     1      -2.292   5.386   0.422  1.00  0.00    -0.077 C 
ATOM     16  C   UNL     1      -3.706   4.914   0.487  1.00  0.00     0.039 C 
ATOM     17  C   UNL     1      -1.778   5.607  -0.978  1.00  0.00     0.039 C 
BRANCH   9  18
ATOM     18  C   UNL     1       1.889   6.562   2.780  1.00  0.00     0.228 C 
ATOM     19  N   UNL     1       2.952   5.916   2.190  1.00  0.00    -0.326 N 
ATOM     20  H   UNL     1       3.838   6.260   2.448  1.00  0.00     0.169 HD
ATOM     21  O   UNL     1       2.174   7.220   3.791  1.00  0.00    -0.274 OA
BRANCH  19  22
ATOM     22  C   UNL     1       2.978   4.846   1.280  1.00  0.00     0.041 A 
ATOM     23  C   UNL     1       2.477   2.525  -0.205  1.00  0.00     0.119 A 
ATOM     24  C   UNL     1       2.271   3.785  -0.771  1.00  0.00     0.048 A 
ATOM     25  C   UNL     1       3.103   2.434   1.036  1.00  0.00     0.048 A 
ATOM     26  C   UNL     1       2.542   4.951  -0.037  1.00  0.00     0.030 A 
ATOM     27  C   UNL     1       3.378   3.596   1.767  1.00  0.00     0.030 A 
BRANCH  23  28
ATOM     28  O   UNL     1       2.019   1.461  -0.935  1.00  0.00    -0.497 OA
ATOM     29  C   UNL     1       1.691   0.291  -0.186  1.00  0.00     0.278 C 
ENDBRANCH  23  28
ENDBRANCH  19  22
ENDBRANCH   9  18
ENDBRANCH   6   8
ENDBRANCH   5   6
ENDBRANCH   4   5
ENDBRANCH   3   4
ENDBRANCH   2   3
ENDBRANCH   1   2
BRANCH   1  30
ATOM     30  C   UNL     1      -5.763   6.143   4.270  1.00  0.00     0.188 C 
BRANCH  30  31
ATOM     31  O   UNL     1      -5.364   6.318   2.906  1.00  0.00    -0.376 OA
BRANCH  31  32
ATOM     32  C   UNL     1      -6.467   6.351   1.995  1.00  0.00     0.202 C 
BRANCH  32  33
ATOM     33  C   UNL     1      -7.063   4.983   1.622  1.00  0.00     0.261 C 
BRANCH  33  34
ATOM     34  O   UNL     1      -6.921   4.023   2.680  1.00  0.00    -0.460 OA
BRANCH  34  35
ATOM     35  C   UNL     1      -6.214   2.915   2.358  1.00  0.00     0.338 C 
ATOM     36  O   UNL     1      -5.879   2.534   1.251  1.00  0.00    -0.246 OA
BRANCH  35  37
ATOM     37  C   UNL     1      -5.722   2.284   3.593  1.00  0.00     0.060 A 
ATOM     38  C   UNL     1      -4.364   2.419   3.889  1.00  0.00     0.016 A 
ATOM     39  C   UNL     1      -6.546   1.505   4.397  1.00  0.00     0.016 A 
ATOM     40  C   UNL     1      -3.801   1.738   4.970  1.00  0.00     0.010 A 
ATOM     41  C   UNL     1      -5.986   0.827   5.486  1.00  0.00     0.010 A 
ATOM     42  C   UNL     1      -4.606   0.911   5.762  1.00  0.00    -0.014 A 
BRANCH  42  43
ATOM     43  C   UNL     1      -4.011   0.011   6.785  1.00  0.00     0.031 A 
ATOM     44  C   UNL     1      -3.940  -1.462   6.493  1.00  0.00     0.074 A 
ATOM     45  C   UNL     1      -3.562   0.475   7.965  1.00  0.00     0.049 A 
ATOM     46  N   UNL     1      -3.704  -2.463   7.301  1.00  0.00    -0.248 NA
ATOM     47  C   UNL     1      -4.175  -1.858   5.095  1.00  0.00     0.031 C 
ATOM     48  C   UNL     1      -3.490   1.881   8.353  1.00  0.00     0.029 A 
ATOM     49  N   UNL     1      -3.104  -0.204   9.070  1.00  0.00    -0.354 N 
ATOM     50  C   UNL     1      -3.816  -3.608   6.524  1.00  0.00     0.074 A 
ATOM     51  C   UNL     1      -4.125  -3.179   5.177  1.00  0.00     0.031 C 
ATOM     52  C   UNL     1      -3.042   1.961   9.618  1.00  0.00     0.029 A 
ATOM     53  C   UNL     1      -2.853   0.611  10.147  1.00  0.00     0.049 A 
ATOM     54  H   UNL     1      -2.969  -1.179   9.087  1.00  0.00     0.167 HD
ATOM     55  C   UNL     1      -3.684  -4.901   6.905  1.00  0.00     0.037 A 
ATOM     56  C   UNL     1      -2.560   0.300  11.426  1.00  0.00     0.037 A 
ATOM     57  C   UNL     1      -3.340  -5.326   8.235  1.00  0.00     0.049 A 
ATOM     58  C   UNL     1      -2.467  -1.147  11.840  1.00  0.00     0.074 A 
ATOM     59  C   UNL     1      -3.173  -6.614   8.714  1.00  0.00     0.029 A 
ATOM     60  N   UNL     1      -3.100  -4.469   9.298  1.00  0.00    -0.354 N 
ATOM     61  N   UNL     1      -2.620  -2.229  11.116  1.00  0.00    -0.248 NA
ATOM     62  C   UNL     1      -2.176  -1.416  13.257  1.00  0.00     0.031 C 
ATOM     63  C   UNL     1      -2.866  -6.537  10.077  1.00  0.00     0.029 A 
ATOM     64  C   UNL     1      -2.803  -5.201  10.435  1.00  0.00     0.049 A 
ATOM     65  H   UNL     1      -3.137  -3.487   9.251  1.00  0.00     0.167 HD
ATOM     66  C   UNL     1      -2.430  -3.300  11.980  1.00  0.00     0.074 A 
ATOM     67  C   UNL     1      -2.134  -2.740  13.281  1.00  0.00     0.031 C 
ATOM     68  C   UNL     1      -2.500  -4.628  11.721  1.00  0.00     0.037 A 
BRANCH  55  69
ATOM     69  C   UNL     1      -3.961  -5.955   5.877  1.00  0.00     0.064 A 
ATOM     70  C   UNL     1      -3.055  -6.244   4.848  1.00  0.00     0.173 A 
ATOM     71  C   UNL     1      -5.141  -6.712   5.950  1.00  0.00     0.173 A 
ATOM     72  F   UNL     1      -1.922  -5.536   4.727  1.00  0.00    -0.203 F 
ATOM     73  C   UNL     1      -3.329  -7.242   3.916  1.00  0.00     0.198 A 
ATOM     74  C   UNL     1      -5.400  -7.724   5.031  1.00  0.00     0.198 A 
ATOM     75  F   UNL     1      -6.038  -6.473   6.918  1.00  0.00    -0.203 F 
ATOM     76  F   UNL     1      -2.468  -7.477   2.916  1.00  0.00    -0.200 F 
ATOM     77  C   UNL     1      -4.497  -7.985   4.012  1.00  0.00     0.200 A 
ATOM     78  F   UNL     1      -6.525  -8.445   5.131  1.00  0.00    -0.200 F 
ATOM     79  F   UNL     1      -4.756  -8.948   3.117  1.00  0.00    -0.200 F 
ENDBRANCH  55  69
BRANCH  56  80
ATOM     80  C   UNL     1      -2.393   1.381  12.433  1.00  0.00     0.064 A 
ATOM     81  C   UNL     1      -1.144   1.642  13.014  1.00  0.00     0.173 A 
ATOM     82  C   UNL     1      -3.485   2.152  12.859  1.00  0.00     0.173 A 
ATOM     83  F   UNL     1      -0.077   0.908  12.666  1.00  0.00    -0.203 F 
ATOM     84  C   UNL     1      -0.998   2.624  13.992  1.00  0.00     0.198 A 
ATOM     85  C   UNL     1      -3.332   3.152  13.816  1.00  0.00     0.198 A 
ATOM     86  F   UNL     1      -4.703   1.934  12.341  1.00  0.00    -0.203 F 
ATOM     87  F   UNL     1       0.197   2.820  14.568  1.00  0.00    -0.200 F 
ATOM     88  C   UNL     1      -2.090   3.383  14.387  1.00  0.00     0.200 A 
ATOM     89  F   UNL     1      -4.388   3.886  14.189  1.00  0.00    -0.200 F 
ATOM     90  F   UNL     1      -1.948   4.327  15.328  1.00  0.00    -0.200 F 
ENDBRANCH  56  80
BRANCH  68  91
ATOM     91  C   UNL     1      -2.221  -5.570  12.854  1.00  0.00     0.064 A 
ATOM     92  C   UNL     1      -3.160  -5.789  13.873  1.00  0.00     0.173 A 
ATOM     93  C   UNL     1      -1.024  -6.299  12.894  1.00  0.00     0.173 A 
ATOM     94  F   UNL     1      -4.314  -5.105  13.885  1.00  0.00    -0.203 F 
ATOM     95  C   UNL     1      -2.901  -6.691  14.901  1.00  0.00     0.198 A 
ATOM     96  C   UNL     1      -0.778  -7.218  13.911  1.00  0.00     0.198 A 
ATOM     97  F   UNL     1      -0.098  -6.130  11.938  1.00  0.00    -0.203 F 
ATOM     98  F   UNL     1      -3.796  -6.860  15.884  1.00  0.00    -0.200 F 
ATOM     99  C   UNL     1      -1.714  -7.410  14.916  1.00  0.00     0.200 A 
ATOM    100  F   UNL     1       0.364  -7.919  13.917  1.00  0.00    -0.200 F 
ATOM    101  F   UNL     1      -1.470  -8.283  15.902  1.00  0.00    -0.200 F 
ENDBRANCH  68  91
ENDBRANCH  42  43
ENDBRANCH  35  37
ENDBRANCH  34  35
ENDBRANCH  33  34
ENDBRANCH  32  33
ENDBRANCH  31  32
ENDBRANCH  30  31
ENDBRANCH   1  30
TORSDOF 20
