REMARK SMILES CC(C)(Br)[C@H](Br)C(=O)OCCOCCOCCOC(=O)c1ccc(-c2c3nc(c(-c4c(F)c(F)c(F)c(F)c4F)c4ccc([nH]4)c(-c4c(F)c(F)c(F)c(F)c4F)c4nc(c(-c5c(F)c(F)c(F)c(F)c5F)c5ccc2[nH]5)C=C4)C=C3)cc1
REMARK SMILES IDX 14 1 13 2 12 3 11 4 10 5 9 6 7 7 8 8 5 9 6 10 2 11 1 12 3 13
REMARK SMILES IDX 4 14 15 15 16 16 17 17 18 18 19 19 20 20 21 21 22 22 83 23
REMARK SMILES IDX 23 24 82 25 24 26 25 27 26 28 76 29 27 30 81 31 75 32 77 33
REMARK SMILES IDX 28 34 80 35 74 36 73 37 29 39 61 40 41 41 60 42 42 43 45 44
REMARK SMILES IDX 59 45 78 46 43 47 44 48 58 50 79 51 46 52 30 53 31 54 39 55
REMARK SMILES IDX 32 56 33 57 37 58 40 59 34 60 35 61 38 62 36 63 62 64 63 65
REMARK SMILES IDX 71 66 64 67 65 68 69 69 72 70 66 71 67 72 70 73 68 74 47 75
REMARK SMILES IDX 48 76 56 77 49 78 50 79 54 80 57 81 51 82 52 83 55 84 53 85
REMARK H PARENT 77 38 45 49
REMARK Flexibility Score: inf
ROOT
ATOM      1  C   UNL     1       3.037   2.398   0.509  1.00  0.00     0.188 C 
ENDROOT
BRANCH   1   2
ATOM      2  C   UNL     1       3.702   2.781   1.840  1.00  0.00     0.188 C 
BRANCH   2   3
ATOM      3  O   UNL     1       5.036   2.380   2.113  1.00  0.00    -0.376 OA
BRANCH   3   4
ATOM      4  C   UNL     1       5.466   1.065   1.779  1.00  0.00     0.202 C 
BRANCH   4   5
ATOM      5  C   UNL     1       4.692  -0.139   2.337  1.00  0.00     0.261 C 
BRANCH   5   6
ATOM      6  O   UNL     1       3.312  -0.228   1.927  1.00  0.00    -0.462 OA
BRANCH   6   7
ATOM      7  C   UNL     1       2.382  -0.103   2.909  1.00  0.00     0.321 C 
ATOM      8  O   UNL     1       2.683   0.144   4.074  1.00  0.00    -0.251 OA
BRANCH   7   9
ATOM      9  C   UNL     1       0.926  -0.106   2.448  1.00  0.00     0.183 C 
ATOM     10  Br  UNL     1       0.736  -0.522   0.525  1.00  0.00    -0.075 Br
BRANCH   9  11
ATOM     11  C   UNL     1      -0.077  -0.898   3.324  1.00  0.00     0.043 C 
ATOM     12  C   UNL     1      -1.500  -0.335   3.145  1.00  0.00     0.025 C 
ATOM     13  C   UNL     1       0.239  -0.888   4.828  1.00  0.00     0.025 C 
ATOM     14  Br  UNL     1      -0.129  -2.825   2.840  1.00  0.00    -0.084 Br
ENDBRANCH   9  11
ENDBRANCH   7   9
ENDBRANCH   6   7
ENDBRANCH   5   6
ENDBRANCH   4   5
ENDBRANCH   3   4
ENDBRANCH   2   3
ENDBRANCH   1   2
BRANCH   1  15
ATOM     15  O   UNL     1       3.843   1.631  -0.360  1.00  0.00    -0.376 OA
BRANCH  15  16
ATOM     16  C   UNL     1       4.129   2.204  -1.629  1.00  0.00     0.202 C 
BRANCH  16  17
ATOM     17  C   UNL     1       4.995   3.476  -1.597  1.00  0.00     0.261 C 
BRANCH  17  18
ATOM     18  O   UNL     1       4.449   4.567  -0.831  1.00  0.00    -0.460 OA
BRANCH  18  19
ATOM     19  C   UNL     1       3.337   5.157  -1.329  1.00  0.00     0.338 C 
ATOM     20  O   UNL     1       2.776   4.900  -2.377  1.00  0.00    -0.246 OA
BRANCH  19  21
ATOM     21  C   UNL     1       2.765   6.023  -0.272  1.00  0.00     0.060 A 
ATOM     22  C   UNL     1       1.458   5.769   0.164  1.00  0.00     0.016 A 
ATOM     23  C   UNL     1       3.502   7.070   0.285  1.00  0.00     0.016 A 
ATOM     24  C   UNL     1       0.873   6.583   1.135  1.00  0.00     0.010 A 
ATOM     25  C   UNL     1       2.907   7.898   1.245  1.00  0.00     0.010 A 
ATOM     26  C   UNL     1       1.579   7.677   1.654  1.00  0.00    -0.014 A 
BRANCH  26  27
ATOM     27  C   UNL     1       0.864   8.673   2.493  1.00  0.00     0.031 A 
ATOM     28  C   UNL     1       0.346   9.928   1.842  1.00  0.00     0.074 A 
ATOM     29  C   UNL     1       0.630   8.450   3.798  1.00  0.00     0.049 A 
ATOM     30  N   UNL     1      -0.316  10.928   2.368  1.00  0.00    -0.248 NA
ATOM     31  C   UNL     1       0.606  10.071   0.401  1.00  0.00     0.031 C 
ATOM     32  C   UNL     1       1.053   7.267   4.544  1.00  0.00     0.029 A 
ATOM     33  N   UNL     1      -0.025   9.219   4.730  1.00  0.00    -0.354 N 
ATOM     34  C   UNL     1      -0.559  11.811   1.323  1.00  0.00     0.074 A 
ATOM     35  C   UNL     1       0.062  11.251   0.142  1.00  0.00     0.031 C 
ATOM     36  C   UNL     1       0.658   7.394   5.823  1.00  0.00     0.029 A 
ATOM     37  C   UNL     1      -0.026   8.676   5.991  1.00  0.00     0.049 A 
ATOM     38  H   UNL     1      -0.453  10.079   4.514  1.00  0.00     0.167 HD
ATOM     39  C   UNL     1      -1.252  12.974   1.341  1.00  0.00     0.037 A 
ATOM     40  C   UNL     1      -0.508   9.167   7.151  1.00  0.00     0.037 A 
ATOM     41  C   UNL     1      -1.859  13.543   2.515  1.00  0.00     0.049 A 
ATOM     42  C   UNL     1      -1.216  10.500   7.155  1.00  0.00     0.074 A 
ATOM     43  C   UNL     1      -2.577  14.722   2.632  1.00  0.00     0.029 A 
ATOM     44  N   UNL     1      -1.815  12.977   3.780  1.00  0.00    -0.354 N 
ATOM     45  N   UNL     1      -1.464  11.313   6.158  1.00  0.00    -0.248 NA
ATOM     46  C   UNL     1      -1.722  10.976   8.452  1.00  0.00     0.031 C 
ATOM     47  C   UNL     1      -2.926  14.892   3.976  1.00  0.00     0.029 A 
ATOM     48  C   UNL     1      -2.477  13.791   4.687  1.00  0.00     0.049 A 
ATOM     49  H   UNL     1      -1.379  12.123   4.002  1.00  0.00     0.167 HD
ATOM     50  C   UNL     1      -2.171  12.380   6.699  1.00  0.00     0.074 A 
ATOM     51  C   UNL     1      -2.339  12.096   8.108  1.00  0.00     0.031 C 
ATOM     52  C   UNL     1      -2.636  13.498   6.088  1.00  0.00     0.037 A 
BRANCH  39  53
ATOM     53  C   UNL     1      -1.382  13.722   0.045  1.00  0.00     0.064 A 
ATOM     54  C   UNL     1      -2.202  13.252  -0.992  1.00  0.00     0.173 A 
ATOM     55  C   UNL     1      -0.720  14.943  -0.144  1.00  0.00     0.173 A 
ATOM     56  F   UNL     1      -2.845  12.080  -0.867  1.00  0.00    -0.203 F 
ATOM     57  C   UNL     1      -2.339  13.969  -2.178  1.00  0.00     0.198 A 
ATOM     58  C   UNL     1      -0.882  15.672  -1.319  1.00  0.00     0.198 A 
ATOM     59  F   UNL     1       0.074  15.438   0.818  1.00  0.00    -0.203 F 
ATOM     60  F   UNL     1      -3.096  13.481  -3.170  1.00  0.00    -0.200 F 
ATOM     61  C   UNL     1      -1.687  15.183  -2.336  1.00  0.00     0.200 A 
ATOM     62  F   UNL     1      -0.261  16.851  -1.466  1.00  0.00    -0.200 F 
ATOM     63  F   UNL     1      -1.831  15.878  -3.473  1.00  0.00    -0.200 F 
ENDBRANCH  39  53
BRANCH  40  64
ATOM     64  C   UNL     1      -0.325   8.410   8.419  1.00  0.00     0.064 A 
ATOM     65  C   UNL     1      -1.418   7.877   9.116  1.00  0.00     0.173 A 
ATOM     66  C   UNL     1       0.949   8.250   8.986  1.00  0.00     0.173 A 
ATOM     67  F   UNL     1      -2.659   8.029   8.631  1.00  0.00    -0.203 F 
ATOM     68  C   UNL     1      -1.249   7.242  10.345  1.00  0.00     0.198 A 
ATOM     69  C   UNL     1       1.120   7.585  10.198  1.00  0.00     0.198 A 
ATOM     70  F   UNL     1       2.029   8.744   8.364  1.00  0.00    -0.203 F 
ATOM     71  F   UNL     1      -2.319   6.800  11.021  1.00  0.00    -0.200 F 
ATOM     72  C   UNL     1       0.020   7.092  10.883  1.00  0.00     0.200 A 
ATOM     73  F   UNL     1       2.350   7.433  10.709  1.00  0.00    -0.200 F 
ATOM     74  F   UNL     1       0.181   6.485  12.067  1.00  0.00    -0.200 F 
ENDBRANCH  40  64
BRANCH  52  75
ATOM     75  C   UNL     1      -3.396  14.481   6.936  1.00  0.00     0.064 A 
ATOM     76  C   UNL     1      -2.761  15.245   7.927  1.00  0.00     0.173 A 
ATOM     77  C   UNL     1      -4.774  14.668   6.748  1.00  0.00     0.173 A 
ATOM     78  F   UNL     1      -1.447  15.097   8.156  1.00  0.00    -0.203 F 
ATOM     79  C   UNL     1      -3.485  16.126   8.728  1.00  0.00     0.198 A 
ATOM     80  C   UNL     1      -5.488  15.576   7.527  1.00  0.00     0.198 A 
ATOM     81  F   UNL     1      -5.430  13.973   5.807  1.00  0.00    -0.203 F 
ATOM     82  F   UNL     1      -2.869  16.794   9.712  1.00  0.00    -0.200 F 
ATOM     83  C   UNL     1      -4.847  16.294   8.524  1.00  0.00     0.200 A 
ATOM     84  F   UNL     1      -6.801  15.748   7.317  1.00  0.00    -0.200 F 
ATOM     85  F   UNL     1      -5.542  17.139   9.297  1.00  0.00    -0.200 F 
ENDBRANCH  52  75
ENDBRANCH  26  27
ENDBRANCH  19  21
ENDBRANCH  18  19
ENDBRANCH  17  18
ENDBRANCH  16  17
ENDBRANCH  15  16
ENDBRANCH   1  15
TORSDOF 18
