REMARK SMILES Cc1ccc(-c2nc(C)c(C(=O)N3CCC(C(=O)OCCOCCOCCOC(=O)c4ccc(-c5c6nc(c(-c7c(F)c(F)c(F)c(F)c7F)c7ccc([nH]7)c(-c7c(F)c(F)c(F)c(F)c7F)c7nc(c(-c8c(F)c(F)c(F)c(F)c8F)c8ccc5[nH]8)C=C7)C=C6)cc4)CC3)s2)o1
REMARK SMILES IDX 23 1 22 2 21 3 20 4 19 5 17 6 18 7 16 8 11 9 12 10 13 11
REMARK SMILES IDX 14 12 95 13 15 14 94 15 10 16 6 17 7 18 96 19 8 20 9 21 5 22
REMARK SMILES IDX 1 23 2 24 3 25 97 26 4 27 24 28 25 29 26 30 27 31 28 32
REMARK SMILES IDX 29 33 30 34 31 35 32 36 93 37 33 38 92 39 34 40 35 41 36 42
REMARK SMILES IDX 86 43 37 44 91 45 85 46 87 47 38 48 90 49 84 50 83 51 39 53
REMARK SMILES IDX 71 54 51 55 70 56 52 57 55 58 69 59 88 60 53 61 54 62 68 64
REMARK SMILES IDX 89 65 56 66 40 67 41 68 49 69 42 70 43 71 47 72 50 73 44 74
REMARK SMILES IDX 45 75 48 76 46 77 72 78 73 79 81 80 74 81 75 82 79 83 82 84
REMARK SMILES IDX 76 85 77 86 80 87 78 88 57 89 58 90 66 91 59 92 60 93 64 94
REMARK SMILES IDX 67 95 61 96 62 97 65 98 63 99
REMARK H PARENT 87 52 55 63
REMARK Flexibility Score: inf
ROOT
ATOM      1  C   UNL     1     -11.037   8.584  -0.581  1.00  0.00     0.188 C 
ENDROOT
BRANCH   1   2
ATOM      2  O   UNL     1     -12.382   8.203  -0.848  1.00  0.00    -0.376 OA
BRANCH   2   3
ATOM      3  C   UNL     1     -12.914   7.125  -0.079  1.00  0.00     0.202 C 
BRANCH   3   4
ATOM      4  C   UNL     1     -12.263   5.748  -0.280  1.00  0.00     0.261 C 
BRANCH   4   5
ATOM      5  O   UNL     1     -10.838   5.715  -0.060  1.00  0.00    -0.463 OA
BRANCH   5   6
ATOM      6  C   UNL     1     -10.079   5.564  -1.174  1.00  0.00     0.309 C 
ATOM      7  O   UNL     1     -10.521   5.431  -2.311  1.00  0.00    -0.252 OA
BRANCH   6   8
ATOM      8  C   UNL     1      -8.585   5.630  -0.919  1.00  0.00     0.103 C 
ATOM      9  C   UNL     1      -5.285   3.856   0.895  1.00  0.00     0.265 C 
ATOM     10  O   UNL     1      -5.487   3.841   2.111  1.00  0.00    -0.268 OA
ATOM     11  N   UNL     1      -6.059   4.679   0.076  1.00  0.00    -0.338 N 
ATOM     12  C   UNL     1      -6.603   5.919   0.618  1.00  0.00     0.120 C 
ATOM     13  C   UNL     1      -6.479   4.315  -1.270  1.00  0.00     0.120 C 
ATOM     14  C   UNL     1      -8.125   5.990   0.500  1.00  0.00     0.037 C 
ATOM     15  C   UNL     1      -7.995   4.287  -1.354  1.00  0.00     0.037 C 
BRANCH   9  16
ATOM     16  C   UNL     1      -4.200   3.107   0.279  1.00  0.00     0.115 A 
ATOM     17  C   UNL     1      -2.372   1.553  -0.089  1.00  0.00     0.159 A 
ATOM     18  N   UNL     1      -2.325   2.514  -0.983  1.00  0.00    -0.237 NA
ATOM     19  S   UNL     1      -3.696   1.619   0.991  1.00  0.00    -0.105 S 
ATOM     20  C   UNL     1      -3.351   3.419  -0.776  1.00  0.00     0.062 A 
ATOM     21  C   UNL     1      -3.352   4.609  -1.668  1.00  0.00     0.068 C 
BRANCH  17  22
ATOM     22  C   UNL     1      -1.345   0.557  -0.008  1.00  0.00     0.162 A 
ATOM     23  C   UNL     1       2.177  -0.102  -0.014  1.00  0.00     0.087 C 
ATOM     24  C   UNL     1       0.710  -0.262   0.018  1.00  0.00     0.101 A 
ATOM     25  C   UNL     1      -0.133  -1.344   0.121  1.00  0.00     0.046 A 
ATOM     26  O   UNL     1      -0.013   0.884  -0.075  1.00  0.00    -0.459 OA
ATOM     27  C   UNL     1      -1.451  -0.819   0.120  1.00  0.00     0.054 A 
ENDBRANCH  17  22
ENDBRANCH   9  16
ENDBRANCH   6   8
ENDBRANCH   5   6
ENDBRANCH   4   5
ENDBRANCH   3   4
ENDBRANCH   2   3
ENDBRANCH   1   2
BRANCH   1  28
ATOM     28  C   UNL     1     -10.712   8.909   0.873  1.00  0.00     0.188 C 
BRANCH  28  29
ATOM     29  O   UNL     1     -11.102   7.942   1.830  1.00  0.00    -0.376 OA
BRANCH  29  30
ATOM     30  C   UNL     1     -11.076   8.330   3.205  1.00  0.00     0.202 C 
BRANCH  30  31
ATOM     31  C   UNL     1     -11.569   9.737   3.624  1.00  0.00     0.261 C 
BRANCH  31  32
ATOM     32  O   UNL     1     -11.039  10.883   2.920  1.00  0.00    -0.460 OA
BRANCH  32  33
ATOM     33  C   UNL     1      -9.700  11.009   2.782  1.00  0.00     0.338 C 
ATOM     34  O   UNL     1      -8.848  10.372   3.382  1.00  0.00    -0.246 OA
BRANCH  33  35
ATOM     35  C   UNL     1      -9.429  11.836   1.565  1.00  0.00     0.060 A 
ATOM     36  C   UNL     1      -8.391  11.439   0.704  1.00  0.00     0.016 A 
ATOM     37  C   UNL     1     -10.230  12.926   1.213  1.00  0.00     0.016 A 
ATOM     38  C   UNL     1      -8.133  12.139  -0.483  1.00  0.00     0.010 A 
ATOM     39  C   UNL     1      -9.956  13.643   0.040  1.00  0.00     0.010 A 
ATOM     40  C   UNL     1      -8.887  13.274  -0.800  1.00  0.00    -0.014 A 
BRANCH  40  41
ATOM     41  C   UNL     1      -8.434  14.228  -1.849  1.00  0.00     0.031 A 
ATOM     42  C   UNL     1      -7.668  15.442  -1.399  1.00  0.00     0.074 A 
ATOM     43  C   UNL     1      -8.722  14.073  -3.153  1.00  0.00     0.049 A 
ATOM     44  N   UNL     1      -7.341  16.522  -2.060  1.00  0.00    -0.248 NA
ATOM     45  C   UNL     1      -7.228  15.436   0.005  1.00  0.00     0.031 C 
ATOM     46  C   UNL     1      -9.395  12.922  -3.744  1.00  0.00     0.029 A 
ATOM     47  N   UNL     1      -8.508  14.923  -4.215  1.00  0.00    -0.354 N 
ATOM     48  C   UNL     1      -6.691  17.339  -1.143  1.00  0.00     0.074 A 
ATOM     49  C   UNL     1      -6.683  16.635   0.121  1.00  0.00     0.031 C 
ATOM     50  C   UNL     1      -9.576  13.152  -5.057  1.00  0.00     0.029 A 
ATOM     51  C   UNL     1      -9.078  14.489  -5.387  1.00  0.00     0.049 A 
ATOM     52  H   UNL     1      -7.995  15.760  -4.142  1.00  0.00     0.167 HD
ATOM     53  C   UNL     1      -6.158  18.569  -1.334  1.00  0.00     0.037 A 
ATOM     54  C   UNL     1      -9.227  15.117  -6.573  1.00  0.00     0.037 A 
ATOM     55  C   UNL     1      -6.169  19.267  -2.592  1.00  0.00     0.049 A 
ATOM     56  C   UNL     1      -8.696  16.520  -6.752  1.00  0.00     0.074 A 
ATOM     57  C   UNL     1      -5.630  20.505  -2.894  1.00  0.00     0.029 A 
ATOM     58  N   UNL     1      -6.763  18.794  -3.753  1.00  0.00    -0.354 N 
ATOM     59  N   UNL     1      -8.078  17.289  -5.888  1.00  0.00    -0.248 NA
ATOM     60  C   UNL     1      -8.888  17.145  -8.071  1.00  0.00     0.031 C 
ATOM     61  C   UNL     1      -5.962  20.813  -4.217  1.00  0.00     0.029 A 
ATOM     62  C   UNL     1      -6.635  19.732  -4.764  1.00  0.00     0.049 A 
ATOM     63  H   UNL     1      -7.210  17.921  -3.844  1.00  0.00     0.167 HD
ATOM     64  C   UNL     1      -7.775  18.466  -6.565  1.00  0.00     0.074 A 
ATOM     65  C   UNL     1      -8.282  18.314  -7.912  1.00  0.00     0.031 C 
ATOM     66  C   UNL     1      -7.125  19.567  -6.110  1.00  0.00     0.037 A 
BRANCH  53  67
ATOM     67  C   UNL     1      -5.578  19.261  -0.134  1.00  0.00     0.064 A 
ATOM     68  C   UNL     1      -4.416  18.802   0.506  1.00  0.00     0.173 A 
ATOM     69  C   UNL     1      -6.203  20.405   0.388  1.00  0.00     0.173 A 
ATOM     70  F   UNL     1      -3.787  17.705   0.058  1.00  0.00    -0.203 F 
ATOM     71  C   UNL     1      -3.932  19.433   1.650  1.00  0.00     0.198 A 
ATOM     72  C   UNL     1      -5.693  21.056   1.507  1.00  0.00     0.198 A 
ATOM     73  F   UNL     1      -7.314  20.891  -0.187  1.00  0.00    -0.203 F 
ATOM     74  F   UNL     1      -2.865  18.931   2.287  1.00  0.00    -0.200 F 
ATOM     75  C   UNL     1      -4.567  20.561   2.146  1.00  0.00     0.200 A 
ATOM     76  F   UNL     1      -6.300  22.155   1.974  1.00  0.00    -0.200 F 
ATOM     77  F   UNL     1      -4.101  21.165   3.247  1.00  0.00    -0.200 F 
ENDBRANCH  53  67
BRANCH  54  78
ATOM     78  C   UNL     1      -9.945  14.432  -7.681  1.00  0.00     0.064 A 
ATOM     79  C   UNL     1      -9.268  14.008  -8.833  1.00  0.00     0.173 A 
ATOM     80  C   UNL     1     -11.324  14.180  -7.607  1.00  0.00     0.173 A 
ATOM     81  F   UNL     1      -7.957  14.255  -8.968  1.00  0.00    -0.203 F 
ATOM     82  C   UNL     1      -9.942  13.360  -9.867  1.00  0.00     0.198 A 
ATOM     83  C   UNL     1     -11.991  13.506  -8.629  1.00  0.00     0.198 A 
ATOM     84  F   UNL     1     -12.022  14.575  -6.532  1.00  0.00    -0.203 F 
ATOM     85  F   UNL     1      -9.277  12.997 -10.973  1.00  0.00    -0.200 F 
ATOM     86  C   UNL     1     -11.300  13.100  -9.760  1.00  0.00     0.200 A 
ATOM     87  F   UNL     1     -13.301  13.249  -8.516  1.00  0.00    -0.200 F 
ATOM     88  F   UNL     1     -11.943  12.464 -10.748  1.00  0.00    -0.200 F 
ENDBRANCH  54  78
BRANCH  66  89
ATOM     89  C   UNL     1      -6.853  20.683  -7.081  1.00  0.00     0.064 A 
ATOM     90  C   UNL     1      -7.865  21.534  -7.544  1.00  0.00     0.173 A 
ATOM     91  C   UNL     1      -5.533  20.960  -7.476  1.00  0.00     0.173 A 
ATOM     92  F   UNL     1      -9.144  21.309  -7.207  1.00  0.00    -0.203 F 
ATOM     93  C   UNL     1      -7.569  22.615  -8.373  1.00  0.00     0.198 A 
ATOM     94  C   UNL     1      -5.237  22.059  -8.277  1.00  0.00     0.198 A 
ATOM     95  F   UNL     1      -4.524  20.182  -7.054  1.00  0.00    -0.203 F 
ATOM     96  F   UNL     1      -8.556  23.399  -8.828  1.00  0.00    -0.200 F 
ATOM     97  C   UNL     1      -6.255  22.884  -8.728  1.00  0.00     0.200 A 
ATOM     98  F   UNL     1      -3.964  22.326  -8.601  1.00  0.00    -0.200 F 
ATOM     99  F   UNL     1      -5.970  23.938  -9.505  1.00  0.00    -0.200 F 
ENDBRANCH  66  89
ENDBRANCH  40  41
ENDBRANCH  33  35
ENDBRANCH  32  33
ENDBRANCH  31  32
ENDBRANCH  30  31
ENDBRANCH  29  30
ENDBRANCH  28  29
ENDBRANCH   1  28
TORSDOF 19
