REMARK SMILES C[C@@H](Sc1nncn1C)[C@@H](C)C(=O)OCCOCCOCCOC(=O)c1ccc(-c2c3nc(c(-c4c(F)c(F)c(F)c(F)c4F)c4ccc([nH]4)c(-c4c(F)c(F)c(F)c(F)c4F)c4nc(c(-c5c(F)c(F)c(F)c(F)c5F)c5ccc2[nH]5)C=C4)C=C3)cc1
REMARK SMILES IDX 18 1 17 2 16 3 15 4 14 5 12 6 13 7 10 8 11 9 2 10 1 11 3 12
REMARK SMILES IDX 4 13 5 14 8 15 6 16 7 17 9 18 19 19 20 20 21 21 22 22 23 23
REMARK SMILES IDX 24 24 25 25 26 26 27 27 88 28 28 29 87 30 29 31 30 32 31 33
REMARK SMILES IDX 81 34 32 35 86 36 80 37 82 38 33 39 85 40 79 41 78 42 34 44
REMARK SMILES IDX 66 45 46 46 65 47 47 48 50 49 64 50 83 51 48 52 49 53 63 55
REMARK SMILES IDX 84 56 51 57 35 58 36 59 44 60 37 61 38 62 42 63 45 64 39 65
REMARK SMILES IDX 40 66 43 67 41 68 67 69 68 70 76 71 69 72 70 73 74 74 77 75
REMARK SMILES IDX 71 76 72 77 75 78 73 79 52 80 53 81 61 82 54 83 55 84 59 85
REMARK SMILES IDX 62 86 56 87 57 88 60 89 58 90
REMARK H PARENT 82 43 50 54
REMARK Flexibility Score: inf
ROOT
ATOM      1  C   UNL     1      -1.277  -4.565  -1.689  1.00  0.00     0.188 C 
ENDROOT
BRANCH   1   2
ATOM      2  O   UNL     1      -2.386  -4.479  -2.580  1.00  0.00    -0.376 OA
BRANCH   2   3
ATOM      3  C   UNL     1      -2.208  -3.894  -3.855  1.00  0.00     0.202 C 
BRANCH   3   4
ATOM      4  C   UNL     1      -2.324  -2.366  -3.892  1.00  0.00     0.261 C 
BRANCH   4   5
ATOM      5  O   UNL     1      -1.459  -1.623  -3.002  1.00  0.00    -0.463 OA
BRANCH   5   6
ATOM      6  C   UNL     1      -1.972  -1.392  -1.763  1.00  0.00     0.309 C 
ATOM      7  O   UNL     1      -3.015  -1.881  -1.340  1.00  0.00    -0.252 OA
BRANCH   6   8
ATOM      8  C   UNL     1      -1.280  -0.265  -1.013  1.00  0.00     0.109 C 
ATOM      9  C   UNL     1      -1.919   1.011  -1.591  1.00  0.00     0.021 C 
BRANCH   8  10
ATOM     10  C   UNL     1       0.279  -0.191  -0.955  1.00  0.00     0.065 C 
ATOM     11  C   UNL     1       0.673   1.204  -0.437  1.00  0.00     0.021 C 
BRANCH  10  12
ATOM     12  S   UNL     1       0.992  -1.348   0.283  1.00  0.00    -0.082 SA
BRANCH  12  13
ATOM     13  C   UNL     1       2.524  -1.887  -0.341  1.00  0.00     0.191 A 
ATOM     14  N   UNL     1       2.790  -3.163  -0.526  1.00  0.00    -0.124 NA
ATOM     15  N   UNL     1       3.690  -1.182  -0.483  1.00  0.00    -0.312 N 
ATOM     16  N   UNL     1       4.125  -3.302  -0.805  1.00  0.00    -0.138 NA
ATOM     17  C   UNL     1       4.659  -2.108  -0.755  1.00  0.00     0.226 A 
ATOM     18  C   UNL     1       3.959   0.222  -0.377  1.00  0.00     0.153 C 
ENDBRANCH  12  13
ENDBRANCH  10  12
ENDBRANCH   8  10
ENDBRANCH   6   8
ENDBRANCH   5   6
ENDBRANCH   4   5
ENDBRANCH   3   4
ENDBRANCH   2   3
ENDBRANCH   1   2
BRANCH   1  19
ATOM     19  C   UNL     1       0.124  -4.109  -2.119  1.00  0.00     0.188 C 
BRANCH  19  20
ATOM     20  O   UNL     1       0.564  -4.699  -3.339  1.00  0.00    -0.376 OA
BRANCH  20  21
ATOM     21  C   UNL     1       1.778  -5.436  -3.219  1.00  0.00     0.202 C 
BRANCH  21  22
ATOM     22  C   UNL     1       1.503  -6.849  -2.704  1.00  0.00     0.261 C 
BRANCH  22  23
ATOM     23  O   UNL     1       0.903  -6.846  -1.396  1.00  0.00    -0.460 OA
BRANCH  23  24
ATOM     24  C   UNL     1       1.741  -6.737  -0.348  1.00  0.00     0.338 C 
ATOM     25  O   UNL     1       2.966  -6.757  -0.367  1.00  0.00    -0.246 OA
BRANCH  24  26
ATOM     26  C   UNL     1       0.928  -6.577   0.869  1.00  0.00     0.060 A 
ATOM     27  C   UNL     1       0.798  -5.320   1.470  1.00  0.00     0.016 A 
ATOM     28  C   UNL     1       0.338  -7.700   1.450  1.00  0.00     0.016 A 
ATOM     29  C   UNL     1       0.108  -5.186   2.679  1.00  0.00     0.010 A 
ATOM     30  C   UNL     1      -0.343  -7.568   2.663  1.00  0.00     0.010 A 
ATOM     31  C   UNL     1      -0.430  -6.318   3.304  1.00  0.00    -0.014 A 
BRANCH  31  32
ATOM     32  C   UNL     1      -0.907  -6.255   4.710  1.00  0.00     0.031 A 
ATOM     33  C   UNL     1       0.008  -6.754   5.796  1.00  0.00     0.074 A 
ATOM     34  C   UNL     1      -2.125  -5.785   5.028  1.00  0.00     0.049 A 
ATOM     35  N   UNL     1      -0.231  -6.943   7.070  1.00  0.00    -0.248 NA
ATOM     36  C   UNL     1       1.379  -7.093   5.384  1.00  0.00     0.031 C 
ATOM     37  C   UNL     1      -3.087  -5.219   4.087  1.00  0.00     0.029 A 
ATOM     38  N   UNL     1      -2.766  -5.729   6.243  1.00  0.00    -0.354 N 
ATOM     39  C   UNL     1       0.950  -7.444   7.603  1.00  0.00     0.074 A 
ATOM     40  C   UNL     1       1.898  -7.546   6.515  1.00  0.00     0.031 C 
ATOM     41  C   UNL     1      -4.207  -4.889   4.756  1.00  0.00     0.029 A 
ATOM     42  C   UNL     1      -4.054  -5.260   6.163  1.00  0.00     0.049 A 
ATOM     43  H   UNL     1      -2.343  -6.000   7.089  1.00  0.00     0.167 HD
ATOM     44  C   UNL     1       1.221  -7.786   8.885  1.00  0.00     0.037 A 
ATOM     45  C   UNL     1      -5.009  -5.174   7.111  1.00  0.00     0.037 A 
ATOM     46  C   UNL     1       0.284  -7.676   9.972  1.00  0.00     0.049 A 
ATOM     47  C   UNL     1      -4.708  -5.629   8.517  1.00  0.00     0.074 A 
ATOM     48  C   UNL     1       0.469  -7.990  11.307  1.00  0.00     0.029 A 
ATOM     49  N   UNL     1      -1.018  -7.216   9.845  1.00  0.00    -0.354 N 
ATOM     50  N   UNL     1      -3.594  -6.107   9.016  1.00  0.00    -0.248 NA
ATOM     51  C   UNL     1      -5.805  -5.536   9.494  1.00  0.00     0.031 C 
ATOM     52  C   UNL     1      -0.735  -7.761  11.981  1.00  0.00     0.029 A 
ATOM     53  C   UNL     1      -1.654  -7.256  11.076  1.00  0.00     0.049 A 
ATOM     54  H   UNL     1      -1.429  -6.907   9.006  1.00  0.00     0.167 HD
ATOM     55  C   UNL     1      -3.845  -6.343  10.362  1.00  0.00     0.074 A 
ATOM     56  C   UNL     1      -5.214  -5.945  10.608  1.00  0.00     0.031 C 
ATOM     57  C   UNL     1      -3.014  -6.843  11.310  1.00  0.00     0.037 A 
BRANCH  44  58
ATOM     58  C   UNL     1       2.583  -8.345   9.175  1.00  0.00     0.064 A 
ATOM     59  C   UNL     1       3.731  -7.539   9.161  1.00  0.00     0.173 A 
ATOM     60  C   UNL     1       2.737  -9.703   9.495  1.00  0.00     0.173 A 
ATOM     61  F   UNL     1       3.638  -6.237   8.848  1.00  0.00    -0.203 F 
ATOM     62  C   UNL     1       4.987  -8.077   9.430  1.00  0.00     0.198 A 
ATOM     63  C   UNL     1       3.990 -10.231   9.791  1.00  0.00     0.198 A 
ATOM     64  F   UNL     1       1.671 -10.516   9.527  1.00  0.00    -0.203 F 
ATOM     65  F   UNL     1       6.075  -7.298   9.365  1.00  0.00    -0.200 F 
ATOM     66  C   UNL     1       5.114  -9.420   9.751  1.00  0.00     0.200 A 
ATOM     67  F   UNL     1       4.111 -11.526  10.114  1.00  0.00    -0.200 F 
ATOM     68  F   UNL     1       6.323  -9.935  10.016  1.00  0.00    -0.200 F 
ENDBRANCH  44  58
BRANCH  45  69
ATOM     69  C   UNL     1      -6.358  -4.654   6.763  1.00  0.00     0.064 A 
ATOM     70  C   UNL     1      -6.811  -3.428   7.270  1.00  0.00     0.173 A 
ATOM     71  C   UNL     1      -7.233  -5.385   5.946  1.00  0.00     0.173 A 
ATOM     72  F   UNL     1      -6.025  -2.708   8.084  1.00  0.00    -0.203 F 
ATOM     73  C   UNL     1      -8.093  -2.960   6.985  1.00  0.00     0.198 A 
ATOM     74  C   UNL     1      -8.504  -4.904   5.639  1.00  0.00     0.198 A 
ATOM     75  F   UNL     1      -6.853  -6.570   5.447  1.00  0.00    -0.203 F 
ATOM     76  F   UNL     1      -8.519  -1.810   7.524  1.00  0.00    -0.200 F 
ATOM     77  C   UNL     1      -8.935  -3.695   6.165  1.00  0.00     0.200 A 
ATOM     78  F   UNL     1      -9.314  -5.615   4.843  1.00  0.00    -0.200 F 
ATOM     79  F   UNL     1     -10.168  -3.246   5.893  1.00  0.00    -0.200 F 
ENDBRANCH  45  69
BRANCH  57  80
ATOM     80  C   UNL     1      -3.544  -6.947  12.712  1.00  0.00     0.064 A 
ATOM     81  C   UNL     1      -4.494  -7.912  13.074  1.00  0.00     0.173 A 
ATOM     82  C   UNL     1      -3.060  -6.094  13.717  1.00  0.00     0.173 A 
ATOM     83  F   UNL     1      -4.998  -8.743  12.149  1.00  0.00    -0.203 F 
ATOM     84  C   UNL     1      -4.959  -8.004  14.384  1.00  0.00     0.198 A 
ATOM     85  C   UNL     1      -3.505  -6.207  15.031  1.00  0.00     0.198 A 
ATOM     86  F   UNL     1      -2.143  -5.158  13.426  1.00  0.00    -0.203 F 
ATOM     87  F   UNL     1      -5.901  -8.904  14.698  1.00  0.00    -0.200 F 
ATOM     88  C   UNL     1      -4.459  -7.156  15.362  1.00  0.00     0.200 A 
ATOM     89  F   UNL     1      -3.011  -5.396  15.977  1.00  0.00    -0.200 F 
ATOM     90  F   UNL     1      -4.903  -7.250  16.623  1.00  0.00    -0.200 F 
ENDBRANCH  57  80
ENDBRANCH  31  32
ENDBRANCH  24  26
ENDBRANCH  23  24
ENDBRANCH  22  23
ENDBRANCH  21  22
ENDBRANCH  20  21
ENDBRANCH  19  20
ENDBRANCH   1  19
TORSDOF 20
