REMARK SMILES O=C(OCCOCCOCCOC(=O)c1nn(Cc2ccc(F)cc2)c2c1CN(C(=O)[C@H]1CC1(F)F)CC2)c1ccc(-c2c3nc(c(-c4c(F)c(F)c(F)c(F)c4F)c4ccc([nH]4)c(-c4c(F)c(F)c(F)c(F)c4F)c4nc(c(-c5c(F)c(F)c(F)c(F)c5F)c5ccc2[nH]5)C=C4)C=C3)cc1
REMARK SMILES IDX 7 1 6 2 5 3 4 4 3 5 2 6 1 7 39 8 40 9 101 10 41 11 100 12
REMARK SMILES IDX 42 13 43 14 44 15 94 16 45 17 99 18 93 19 95 20 46 21 98 22
REMARK SMILES IDX 92 23 91 24 47 26 79 27 59 28 78 29 60 30 63 31 77 32 96 33
REMARK SMILES IDX 61 34 62 35 76 37 97 38 64 39 48 40 49 41 57 42 50 43 51 44
REMARK SMILES IDX 55 45 58 46 52 47 53 48 56 49 54 50 80 51 81 52 89 53 82 54
REMARK SMILES IDX 83 55 87 56 90 57 84 58 85 59 88 60 86 61 65 62 66 63 74 64
REMARK SMILES IDX 67 65 68 66 72 67 75 68 69 69 70 70 73 71 71 72 8 73 9 74
REMARK SMILES IDX 10 75 11 76 12 77 13 78 14 79 15 80 16 81 27 82 17 83 26 84
REMARK SMILES IDX 28 85 38 86 29 87 37 88 18 89 19 90 20 91 25 92 21 93 24 94
REMARK SMILES IDX 22 95 23 96 30 97 31 98 32 99 33 100 34 101 35 102 36 103
REMARK H PARENT 95 25 63 36
REMARK Flexibility Score: inf
ROOT
ATOM      1  C   UNL     1      -6.391  -2.209   0.607  1.00  0.00     0.188 C 
ENDROOT
BRANCH   1   2
ATOM      2  O   UNL     1      -6.537  -3.592   0.359  1.00  0.00    -0.376 OA
BRANCH   2   3
ATOM      3  C   UNL     1      -6.329  -4.614   1.311  1.00  0.00     0.202 C 
BRANCH   3   4
ATOM      4  C   UNL     1      -5.186  -4.601   2.324  1.00  0.00     0.261 C 
BRANCH   4   5
ATOM      5  O   UNL     1      -4.903  -3.326   2.889  1.00  0.00    -0.460 OA
BRANCH   5   6
ATOM      6  C   UNL     1      -3.863  -2.495   2.684  1.00  0.00     0.338 C 
ATOM      7  O   UNL     1      -3.683  -1.585   3.493  1.00  0.00    -0.246 OA
BRANCH   6   8
ATOM      8  C   UNL     1      -2.972  -2.528   1.486  1.00  0.00     0.060 A 
ATOM      9  C   UNL     1      -2.853  -3.565   0.558  1.00  0.00     0.016 A 
ATOM     10  C   UNL     1      -2.161  -1.387   1.317  1.00  0.00     0.016 A 
ATOM     11  C   UNL     1      -1.821  -3.561  -0.369  1.00  0.00     0.010 A 
ATOM     12  C   UNL     1      -1.161  -1.354   0.358  1.00  0.00     0.010 A 
ATOM     13  C   UNL     1      -0.942  -2.484  -0.420  1.00  0.00    -0.014 A 
BRANCH  13  14
ATOM     14  C   UNL     1       0.202  -2.592  -1.313  1.00  0.00     0.031 A 
ATOM     15  C   UNL     1      -0.102  -2.643  -2.766  1.00  0.00     0.074 A 
ATOM     16  C   UNL     1       1.464  -2.564  -0.841  1.00  0.00     0.049 A 
ATOM     17  N   UNL     1       0.275  -3.524  -3.635  1.00  0.00    -0.248 NA
ATOM     18  C   UNL     1      -0.993  -1.605  -3.309  1.00  0.00     0.031 C 
ATOM     19  C   UNL     1       1.890  -2.262   0.529  1.00  0.00     0.029 A 
ATOM     20  N   UNL     1       2.642  -2.682  -1.516  1.00  0.00    -0.354 N 
ATOM     21  C   UNL     1      -0.180  -3.062  -4.867  1.00  0.00     0.074 A 
ATOM     22  C   UNL     1      -1.051  -1.948  -4.596  1.00  0.00     0.031 C 
ATOM     23  C   UNL     1       3.211  -1.990   0.530  1.00  0.00     0.029 A 
ATOM     24  C   UNL     1       3.738  -2.216  -0.805  1.00  0.00     0.049 A 
ATOM     25  H   UNL     1       2.709  -3.061  -2.422  1.00  0.00     0.167 HD
ATOM     26  C   UNL     1       0.382  -3.481  -6.032  1.00  0.00     0.037 A 
ATOM     27  C   UNL     1       4.968  -1.945  -1.301  1.00  0.00     0.037 A 
ATOM     28  C   UNL     1       1.029  -4.757  -5.885  1.00  0.00     0.049 A 
ATOM     29  C   UNL     1       5.112  -2.677  -2.581  1.00  0.00     0.074 A 
ATOM     30  C   UNL     1       0.617  -6.023  -5.515  1.00  0.00     0.029 A 
ATOM     31  N   UNL     1       2.399  -4.795  -5.860  1.00  0.00    -0.354 N 
ATOM     32  N   UNL     1       5.213  -3.972  -2.686  1.00  0.00    -0.248 NA
ATOM     33  C   UNL     1       4.793  -1.976  -3.816  1.00  0.00     0.031 C 
ATOM     34  C   UNL     1       1.735  -6.604  -4.849  1.00  0.00     0.029 A 
ATOM     35  C   UNL     1       2.770  -5.669  -4.874  1.00  0.00     0.049 A 
ATOM     36  H   UNL     1       3.006  -4.285  -6.444  1.00  0.00     0.167 HD
ATOM     37  C   UNL     1       4.562  -4.279  -3.870  1.00  0.00     0.074 A 
ATOM     38  C   UNL     1       4.455  -3.014  -4.584  1.00  0.00     0.031 C 
ATOM     39  C   UNL     1       3.920  -5.473  -4.025  1.00  0.00     0.037 A 
BRANCH  26  40
ATOM     40  C   UNL     1       0.678  -2.554  -7.189  1.00  0.00     0.064 A 
ATOM     41  C   UNL     1       0.816  -1.155  -7.048  1.00  0.00     0.173 A 
ATOM     42  C   UNL     1       1.158  -3.091  -8.400  1.00  0.00     0.173 A 
ATOM     43  F   UNL     1       0.482  -0.513  -5.922  1.00  0.00    -0.203 F 
ATOM     44  C   UNL     1       1.414  -0.362  -8.026  1.00  0.00     0.198 A 
ATOM     45  C   UNL     1       1.806  -2.301  -9.353  1.00  0.00     0.198 A 
ATOM     46  F   UNL     1       1.097  -4.411  -8.633  1.00  0.00    -0.203 F 
ATOM     47  F   UNL     1       1.548   0.955  -7.812  1.00  0.00    -0.200 F 
ATOM     48  C   UNL     1       1.941  -0.938  -9.161  1.00  0.00     0.200 A 
ATOM     49  F   UNL     1       2.366  -2.877 -10.425  1.00  0.00    -0.200 F 
ATOM     50  F   UNL     1       2.619  -0.189 -10.040  1.00  0.00    -0.200 F 
ENDBRANCH  26  40
BRANCH  27  51
ATOM     51  C   UNL     1       5.908  -0.875  -0.884  1.00  0.00     0.064 A 
ATOM     52  C   UNL     1       5.461   0.310  -0.266  1.00  0.00     0.173 A 
ATOM     53  C   UNL     1       7.240  -0.878  -1.329  1.00  0.00     0.173 A 
ATOM     54  F   UNL     1       4.184   0.456   0.116  1.00  0.00    -0.203 F 
ATOM     55  C   UNL     1       6.288   1.423  -0.114  1.00  0.00     0.198 A 
ATOM     56  C   UNL     1       8.062   0.245  -1.194  1.00  0.00     0.198 A 
ATOM     57  F   UNL     1       7.735  -1.947  -1.969  1.00  0.00    -0.203 F 
ATOM     58  F   UNL     1       5.799   2.542   0.440  1.00  0.00    -0.200 F 
ATOM     59  C   UNL     1       7.583   1.397  -0.594  1.00  0.00     0.200 A 
ATOM     60  F   UNL     1       9.302   0.229  -1.702  1.00  0.00    -0.200 F 
ATOM     61  F   UNL     1       8.349   2.493  -0.519  1.00  0.00    -0.200 F 
ENDBRANCH  27  51
BRANCH  39  62
ATOM     62  C   UNL     1       4.247  -6.574  -3.059  1.00  0.00     0.064 A 
ATOM     63  C   UNL     1       4.710  -7.792  -3.576  1.00  0.00     0.173 A 
ATOM     64  C   UNL     1       4.000  -6.508  -1.677  1.00  0.00     0.173 A 
ATOM     65  F   UNL     1       4.906  -7.930  -4.898  1.00  0.00    -0.203 F 
ATOM     66  C   UNL     1       4.929  -8.890  -2.751  1.00  0.00     0.198 A 
ATOM     67  C   UNL     1       4.259  -7.597  -0.847  1.00  0.00     0.198 A 
ATOM     68  F   UNL     1       3.456  -5.416  -1.124  1.00  0.00    -0.203 F 
ATOM     69  F   UNL     1       5.321 -10.056  -3.283  1.00  0.00    -0.200 F 
ATOM     70  C   UNL     1       4.717  -8.788  -1.386  1.00  0.00     0.200 A 
ATOM     71  F   UNL     1       4.034  -7.505   0.472  1.00  0.00    -0.200 F 
ATOM     72  F   UNL     1       4.926  -9.849  -0.593  1.00  0.00    -0.200 F 
ENDBRANCH  39  62
ENDBRANCH  13  14
ENDBRANCH   6   8
ENDBRANCH   5   6
ENDBRANCH   4   5
ENDBRANCH   3   4
ENDBRANCH   2   3
ENDBRANCH   1   2
BRANCH   1  73
ATOM     73  C   UNL     1      -6.955  -1.457   1.833  1.00  0.00     0.188 C 
BRANCH  73  74
ATOM     74  O   UNL     1      -8.105  -1.885   2.531  1.00  0.00    -0.376 OA
BRANCH  74  75
ATOM     75  C   UNL     1      -9.149  -2.549   1.855  1.00  0.00     0.202 C 
BRANCH  75  76
ATOM     76  C   UNL     1      -9.997  -1.750   0.868  1.00  0.00     0.261 C 
BRANCH  76  77
ATOM     77  O   UNL     1      -9.269  -1.222  -0.246  1.00  0.00    -0.458 OA
BRANCH  77  78
ATOM     78  C   UNL     1      -8.968   0.112  -0.192  1.00  0.00     0.359 C 
ATOM     79  O   UNL     1      -9.163   0.837   0.772  1.00  0.00    -0.244 OA
BRANCH  78  80
ATOM     80  C   UNL     1      -8.303   0.575  -1.414  1.00  0.00     0.175 A 
ATOM     81  N   UNL     1      -8.909   0.476  -2.613  1.00  0.00    -0.165 NA
ATOM     82  C   UNL     1      -7.026   1.191  -1.543  1.00  0.00     0.028 A 
ATOM     83  N   UNL     1      -8.061   1.063  -3.484  1.00  0.00    -0.264 N 
ATOM     84  C   UNL     1      -6.899   1.455  -2.893  1.00  0.00     0.046 A 
ATOM     85  C   UNL     1      -5.972   1.508  -0.532  1.00  0.00     0.159 C 
ATOM     86  C   UNL     1      -5.723   2.110  -3.518  1.00  0.00     0.078 C 
ATOM     87  N   UNL     1      -4.908   2.319  -1.165  1.00  0.00    -0.337 N 
ATOM     88  C   UNL     1      -4.529   1.972  -2.550  1.00  0.00     0.126 C 
BRANCH  83  89
ATOM     89  C   UNL     1      -8.516   1.347  -4.840  1.00  0.00     0.180 C 
BRANCH  89  90
ATOM     90  C   UNL     1      -8.497   0.128  -5.728  1.00  0.00    -0.026 A 
ATOM     91  C   UNL     1      -9.440  -0.900  -5.541  1.00  0.00     0.008 A 
ATOM     92  C   UNL     1      -7.568   0.016  -6.774  1.00  0.00     0.008 A 
ATOM     93  C   UNL     1      -9.457  -2.010  -6.384  1.00  0.00     0.039 A 
ATOM     94  C   UNL     1      -7.590  -1.095  -7.618  1.00  0.00     0.039 A 
ATOM     95  C   UNL     1      -8.534  -2.095  -7.418  1.00  0.00     0.123 A 
ATOM     96  F   UNL     1      -8.556  -3.155  -8.236  1.00  0.00    -0.207 F 
ENDBRANCH  89  90
ENDBRANCH  83  89
BRANCH  87  97
ATOM     97  C   UNL     1      -4.262   3.265  -0.380  1.00  0.00     0.232 C 
ATOM     98  O   UNL     1      -4.481   3.404   0.816  1.00  0.00    -0.274 OA
BRANCH  97  99
ATOM     99  C   UNL     1      -3.214   4.091  -1.015  1.00  0.00     0.154 C 
ATOM    100  C   UNL     1      -3.541   5.102  -2.102  1.00  0.00     0.097 C 
ATOM    101  C   UNL     1      -3.179   5.548  -0.737  1.00  0.00     0.260 C 
ATOM    102  F   UNL     1      -4.127   6.204   0.010  1.00  0.00    -0.206 F 
ATOM    103  F   UNL     1      -1.982   6.203  -0.550  1.00  0.00    -0.206 F 
ENDBRANCH  97  99
ENDBRANCH  87  97
ENDBRANCH  78  80
ENDBRANCH  77  78
ENDBRANCH  76  77
ENDBRANCH  75  76
ENDBRANCH  74  75
ENDBRANCH  73  74
ENDBRANCH   1  73
TORSDOF 21
