REMARK SMILES COc1ccc([C@H]2CC(c3ccc(S(C)(=O)=O)cc3)=NN2c2ccc(C(=O)OCCOCCOCCOC(=O)c3ccc(-c4c5nc(c(-c6c(F)c(F)c(F)c(F)c6F)c6ccc([nH]6)c(-c6c(F)c(F)c(F)c(F)c6F)c6nc(c(-c7c(F)c(F)c(F)c(F)c7F)c7ccc4[nH]7)C=C6)C=C5)cc3)cc2)cc1
REMARK SMILES IDX 32 1 31 2 30 3 29 4 28 5 26 6 27 7 25 8 22 9 23 10 104 11
REMARK SMILES IDX 24 12 103 13 21 14 7 15 8 16 9 17 20 18 6 19 3 20 4 21
REMARK SMILES IDX 106 22 5 23 105 24 2 25 1 26 10 27 11 28 19 29 12 30 18 31
REMARK SMILES IDX 13 32 14 33 15 34 16 35 17 36 33 37 34 38 35 39 36 40 37 41
REMARK SMILES IDX 38 42 39 43 40 44 41 45 102 46 42 47 101 48 43 49 44 50
REMARK SMILES IDX 45 51 95 52 46 53 100 54 94 55 96 56 47 57 99 58 93 59 92 60
REMARK SMILES IDX 48 62 80 63 60 64 79 65 61 66 64 67 78 68 97 69 62 70 63 71
REMARK SMILES IDX 77 73 98 74 65 75 49 76 50 77 58 78 51 79 52 80 56 81 59 82
REMARK SMILES IDX 53 83 54 84 57 85 55 86 81 87 82 88 90 89 83 90 84 91 88 92
REMARK SMILES IDX 91 93 85 94 86 95 89 96 87 97 66 98 67 99 75 100 68 101
REMARK SMILES IDX 69 102 73 103 76 104 70 105 71 106 74 107 72 108
REMARK H PARENT 96 61 64 72
REMARK Flexibility Score: inf
ROOT
ATOM      1  C   UNL     1       5.813   8.513  -7.163  1.00  0.00     0.188 C 
ENDROOT
BRANCH   1   2
ATOM      2  O   UNL     1       5.974   8.171  -8.523  1.00  0.00    -0.376 OA
BRANCH   2   3
ATOM      3  C   UNL     1       4.962   7.468  -9.221  1.00  0.00     0.202 C 
BRANCH   3   4
ATOM      4  C   UNL     1       3.974   6.481  -8.571  1.00  0.00     0.261 C 
BRANCH   4   5
ATOM      5  O   UNL     1       3.561   6.755  -7.228  1.00  0.00    -0.460 OA
BRANCH   5   6
ATOM      6  C   UNL     1       4.070   5.914  -6.294  1.00  0.00     0.338 C 
ATOM      7  O   UNL     1       4.824   4.975  -6.492  1.00  0.00    -0.246 OA
BRANCH   6   8
ATOM      8  C   UNL     1       3.743   6.392  -4.933  1.00  0.00     0.060 A 
ATOM      9  C   UNL     1       3.193   7.047  -2.249  1.00  0.00     0.060 A 
ATOM     10  C   UNL     1       4.505   6.792  -2.671  1.00  0.00     0.029 A 
ATOM     11  C   UNL     1       2.182   7.069  -3.224  1.00  0.00     0.029 A 
ATOM     12  C   UNL     1       4.777   6.434  -3.992  1.00  0.00     0.018 A 
ATOM     13  C   UNL     1       2.451   6.764  -4.565  1.00  0.00     0.018 A 
BRANCH   9  14
ATOM     14  N   UNL     1       2.923   7.196  -0.894  1.00  0.00    -0.257 N 
ATOM     15  C   UNL     1       1.728   6.691  -0.215  1.00  0.00     0.144 C 
ATOM     16  C   UNL     1       2.035   6.996   1.254  1.00  0.00     0.091 C 
ATOM     17  C   UNL     1       3.156   7.978   1.071  1.00  0.00     0.071 C 
ATOM     18  N   UNL     1       3.670   8.039  -0.119  1.00  0.00    -0.176 NA
BRANCH  15  19
ATOM     19  C   UNL     1       1.450   5.213  -0.434  1.00  0.00    -0.023 A 
ATOM     20  C   UNL     1       0.839   2.473  -0.733  1.00  0.00     0.118 A 
ATOM     21  C   UNL     1      -0.137   3.443  -0.957  1.00  0.00     0.047 A 
ATOM     22  C   UNL     1       2.133   2.867  -0.399  1.00  0.00     0.047 A 
ATOM     23  C   UNL     1       0.160   4.799  -0.798  1.00  0.00     0.010 A 
ATOM     24  C   UNL     1       2.436   4.228  -0.253  1.00  0.00     0.010 A 
BRANCH  20  25
ATOM     25  O   UNL     1       0.439   1.179  -0.925  1.00  0.00    -0.497 OA
ATOM     26  C   UNL     1       1.011   0.232  -0.029  1.00  0.00     0.278 C 
ENDBRANCH  20  25
ENDBRANCH  15  19
BRANCH  17  27
ATOM     27  C   UNL     1       3.613   8.791   2.204  1.00  0.00    -0.002 A 
ATOM     28  C   UNL     1       3.537  10.185   2.117  1.00  0.00     0.011 A 
ATOM     29  C   UNL     1       4.084   8.171   3.365  1.00  0.00     0.011 A 
ATOM     30  C   UNL     1       3.934  10.968   3.204  1.00  0.00     0.021 A 
ATOM     31  C   UNL     1       4.506   8.952   4.442  1.00  0.00     0.021 A 
ATOM     32  C   UNL     1       4.434  10.347   4.354  1.00  0.00     0.067 A 
BRANCH  32  33
ATOM     33  S   UNL     1       4.957  11.349   5.729  1.00  0.00     0.175 S 
ATOM     34  C   UNL     1       6.302  12.310   5.083  1.00  0.00     0.163 C 
ATOM     35  O   UNL     1       3.858  12.242   6.036  1.00  0.00    -0.224 OA
ATOM     36  O   UNL     1       5.501  10.459   6.737  1.00  0.00    -0.224 OA
ENDBRANCH  32  33
ENDBRANCH  17  27
ENDBRANCH   9  14
ENDBRANCH   6   8
ENDBRANCH   5   6
ENDBRANCH   4   5
ENDBRANCH   3   4
ENDBRANCH   2   3
ENDBRANCH   1   2
BRANCH   1  37
ATOM     37  C   UNL     1       4.663   9.444  -6.732  1.00  0.00     0.188 C 
BRANCH  37  38
ATOM     38  O   UNL     1       3.687   9.806  -7.680  1.00  0.00    -0.376 OA
BRANCH  38  39
ATOM     39  C   UNL     1       3.993  10.703  -8.733  1.00  0.00     0.202 C 
BRANCH  39  40
ATOM     40  C   UNL     1       5.216  11.639  -8.797  1.00  0.00     0.261 C 
BRANCH  40  41
ATOM     41  O   UNL     1       6.363  11.303  -8.013  1.00  0.00    -0.460 OA
BRANCH  41  42
ATOM     42  C   UNL     1       6.580  12.095  -6.934  1.00  0.00     0.338 C 
ATOM     43  O   UNL     1       5.905  13.032  -6.550  1.00  0.00    -0.246 OA
BRANCH  42  44
ATOM     44  C   UNL     1       7.712  11.549  -6.165  1.00  0.00     0.060 A 
ATOM     45  C   UNL     1       7.462  10.984  -4.907  1.00  0.00     0.016 A 
ATOM     46  C   UNL     1       9.013  11.641  -6.659  1.00  0.00     0.016 A 
ATOM     47  C   UNL     1       8.521  10.521  -4.128  1.00  0.00     0.010 A 
ATOM     48  C   UNL     1      10.075  11.197  -5.867  1.00  0.00     0.010 A 
ATOM     49  C   UNL     1       9.837  10.660  -4.588  1.00  0.00    -0.014 A 
BRANCH  49  50
ATOM     50  C   UNL     1      10.971  10.402  -3.669  1.00  0.00     0.031 A 
ATOM     51  C   UNL     1      11.633  11.572  -2.995  1.00  0.00     0.074 A 
ATOM     52  C   UNL     1      11.402   9.152  -3.428  1.00  0.00     0.049 A 
ATOM     53  N   UNL     1      12.679  11.599  -2.209  1.00  0.00    -0.248 NA
ATOM     54  C   UNL     1      11.034  12.892  -3.246  1.00  0.00     0.031 C 
ATOM     55  C   UNL     1      10.817   7.936  -3.986  1.00  0.00     0.029 A 
ATOM     56  N   UNL     1      12.446   8.704  -2.658  1.00  0.00    -0.354 N 
ATOM     57  C   UNL     1      12.868  12.935  -1.881  1.00  0.00     0.074 A 
ATOM     58  C   UNL     1      11.850  13.691  -2.576  1.00  0.00     0.031 C 
ATOM     59  C   UNL     1      11.524   6.877  -3.554  1.00  0.00     0.029 A 
ATOM     60  C   UNL     1      12.630   7.345  -2.720  1.00  0.00     0.049 A 
ATOM     61  H   UNL     1      13.009   9.300  -2.113  1.00  0.00     0.167 HD
ATOM     62  C   UNL     1      13.802  13.480  -1.065  1.00  0.00     0.037 A 
ATOM     63  C   UNL     1      13.600   6.575  -2.188  1.00  0.00     0.037 A 
ATOM     64  C   UNL     1      14.819  12.725  -0.381  1.00  0.00     0.049 A 
ATOM     65  C   UNL     1      14.679   7.215  -1.350  1.00  0.00     0.074 A 
ATOM     66  C   UNL     1      15.802  13.182   0.479  1.00  0.00     0.029 A 
ATOM     67  N   UNL     1      14.992  11.352  -0.491  1.00  0.00    -0.354 N 
ATOM     68  N   UNL     1      14.836   8.474  -1.019  1.00  0.00    -0.248 NA
ATOM     69  C   UNL     1      15.714   6.323  -0.809  1.00  0.00     0.031 C 
ATOM     70  C   UNL     1      16.607  12.098   0.840  1.00  0.00     0.029 A 
ATOM     71  C   UNL     1      16.084  10.951   0.263  1.00  0.00     0.049 A 
ATOM     72  H   UNL     1      14.423  10.752  -1.025  1.00  0.00     0.167 HD
ATOM     73  C   UNL     1      15.963   8.520  -0.206  1.00  0.00     0.074 A 
ATOM     74  C   UNL     1      16.443   7.160  -0.084  1.00  0.00     0.031 C 
ATOM     75  C   UNL     1      16.547   9.592   0.386  1.00  0.00     0.037 A 
BRANCH  62  76
ATOM     76  C   UNL     1      13.786  14.972  -0.893  1.00  0.00     0.064 A 
ATOM     77  C   UNL     1      12.758  15.625  -0.196  1.00  0.00     0.173 A 
ATOM     78  C   UNL     1      14.829  15.756  -1.408  1.00  0.00     0.173 A 
ATOM     79  F   UNL     1      11.730  14.924   0.306  1.00  0.00    -0.203 F 
ATOM     80  C   UNL     1      12.760  17.010  -0.048  1.00  0.00     0.198 A 
ATOM     81  C   UNL     1      14.845  17.137  -1.229  1.00  0.00     0.198 A 
ATOM     82  F   UNL     1      15.840  15.183  -2.079  1.00  0.00    -0.203 F 
ATOM     83  F   UNL     1      11.741  17.616   0.576  1.00  0.00    -0.200 F 
ATOM     84  C   UNL     1      13.807  17.763  -0.557  1.00  0.00     0.200 A 
ATOM     85  F   UNL     1      15.866  17.861  -1.708  1.00  0.00    -0.200 F 
ATOM     86  F   UNL     1      13.812  19.095  -0.406  1.00  0.00    -0.200 F 
ENDBRANCH  62  76
BRANCH  63  87
ATOM     87  C   UNL     1      13.610   5.109  -2.444  1.00  0.00     0.064 A 
ATOM     88  C   UNL     1      13.396   4.191  -1.407  1.00  0.00     0.173 A 
ATOM     89  C   UNL     1      13.863   4.597  -3.725  1.00  0.00     0.173 A 
ATOM     90  F   UNL     1      13.179   4.630  -0.158  1.00  0.00    -0.203 F 
ATOM     91  C   UNL     1      13.456   2.818  -1.636  1.00  0.00     0.198 A 
ATOM     92  C   UNL     1      13.890   3.224  -3.960  1.00  0.00     0.198 A 
ATOM     93  F   UNL     1      14.080   5.431  -4.752  1.00  0.00    -0.203 F 
ATOM     94  F   UNL     1      13.303   1.963  -0.615  1.00  0.00    -0.200 F 
ATOM     95  C   UNL     1      13.696   2.335  -2.914  1.00  0.00     0.200 A 
ATOM     96  F   UNL     1      14.113   2.762  -5.198  1.00  0.00    -0.200 F 
ATOM     97  F   UNL     1      13.754   1.015  -3.134  1.00  0.00    -0.200 F 
ENDBRANCH  63  87
BRANCH  75  98
ATOM     98  C   UNL     1      17.742   9.337   1.262  1.00  0.00     0.064 A 
ATOM     99  C   UNL     1      18.980   8.941   0.734  1.00  0.00     0.173 A 
ATOM    100  C   UNL     1      17.657   9.535   2.650  1.00  0.00     0.173 A 
ATOM    101  F   UNL     1      19.114   8.726  -0.583  1.00  0.00    -0.203 F 
ATOM    102  C   UNL     1      20.077   8.723   1.565  1.00  0.00     0.198 A 
ATOM    103  C   UNL     1      18.765   9.352   3.473  1.00  0.00     0.198 A 
ATOM    104  F   UNL     1      16.500   9.923   3.208  1.00  0.00    -0.203 F 
ATOM    105  F   UNL     1      21.235   8.293   1.044  1.00  0.00    -0.200 F 
ATOM    106  C   UNL     1      19.971   8.937   2.931  1.00  0.00     0.200 A 
ATOM    107  F   UNL     1      18.664   9.577   4.790  1.00  0.00    -0.200 F 
ATOM    108  F   UNL     1      21.031   8.737   3.727  1.00  0.00    -0.200 F 
ENDBRANCH  75  98
ENDBRANCH  49  50
ENDBRANCH  42  44
ENDBRANCH  41  42
ENDBRANCH  40  41
ENDBRANCH  39  40
ENDBRANCH  38  39
ENDBRANCH  37  38
ENDBRANCH   1  37
TORSDOF 22
