REMARK SMILES Cc1sc(NC(=O)C[C@@H]2CCCCO2)c(C(=O)OCCOCCOCCOC(=O)c2ccc(-c3c4nc(c(-c5c(F)c(F)c(F)c(F)c5F)c5ccc([nH]5)c(-c5c(F)c(F)c(F)c(F)c5F)c5nc(c(-c6c(F)c(F)c(F)c(F)c6F)c6ccc3[nH]6)C=C5)C=C4)cc2)c1C
REMARK SMILES IDX 22 1 21 2 20 3 19 4 18 5 16 6 17 7 15 8 1 9 2 10 3 11 93 12
REMARK SMILES IDX 4 13 94 14 5 15 6 16 7 18 8 19 9 20 10 21 14 22 11 23 13 24
REMARK SMILES IDX 12 25 23 26 24 27 25 28 26 29 27 30 28 31 29 32 30 33 31 34
REMARK SMILES IDX 92 35 32 36 91 37 33 38 34 39 35 40 85 41 36 42 90 43 84 44
REMARK SMILES IDX 86 45 37 46 89 47 83 48 82 49 38 51 70 52 50 53 69 54 51 55
REMARK SMILES IDX 54 56 68 57 87 58 52 59 53 60 67 62 88 63 55 64 39 65 40 66
REMARK SMILES IDX 48 67 41 68 42 69 46 70 49 71 43 72 44 73 47 74 45 75 71 76
REMARK SMILES IDX 72 77 80 78 73 79 74 80 78 81 81 82 75 83 76 84 79 85 77 86
REMARK SMILES IDX 56 87 57 88 65 89 58 90 59 91 63 92 66 93 60 94 61 95 64 96
REMARK SMILES IDX 62 97
REMARK H PARENT 5 17 86 50 54 61
REMARK Flexibility Score: inf
ROOT
ATOM      1  C   UNL     1      -3.033  -3.850   1.073  1.00  0.00     0.188 C 
ENDROOT
BRANCH   1   2
ATOM      2  O   UNL     1      -3.330  -4.917   0.173  1.00  0.00    -0.376 OA
BRANCH   2   3
ATOM      3  C   UNL     1      -2.198  -5.703  -0.196  1.00  0.00     0.202 C 
BRANCH   3   4
ATOM      4  C   UNL     1      -1.590  -5.199  -1.505  1.00  0.00     0.261 C 
BRANCH   4   5
ATOM      5  O   UNL     1      -0.868  -3.971  -1.282  1.00  0.00    -0.460 OA
BRANCH   5   6
ATOM      6  C   UNL     1      -1.303  -2.862  -1.929  1.00  0.00     0.341 C 
ATOM      7  O   UNL     1      -2.265  -2.839  -2.680  1.00  0.00    -0.246 OA
BRANCH   6   8
ATOM      8  C   UNL     1      -0.579  -1.644  -1.554  1.00  0.00     0.098 A 
ATOM      9  C   UNL     1      -0.726   2.045  -0.540  1.00  0.00     0.057 C 
ATOM     10  C   UNL     1      -0.430   0.655  -1.003  1.00  0.00     0.007 A 
ATOM     11  S   UNL     1       1.143   0.261  -1.500  1.00  0.00    -0.122 S 
ATOM     12  C   UNL     1      -1.288  -0.424  -1.135  1.00  0.00    -0.021 A 
ATOM     13  C   UNL     1       0.787  -1.415  -1.567  1.00  0.00     0.110 A 
ATOM     14  C   UNL     1      -2.757  -0.365  -0.837  1.00  0.00     0.046 C 
BRANCH  13  15
ATOM     15  N   UNL     1       1.980  -2.084  -1.714  1.00  0.00    -0.317 N 
ATOM     16  C   UNL     1       2.571  -3.017  -0.917  1.00  0.00     0.227 C 
ATOM     17  H   UNL     1       2.487  -1.852  -2.525  1.00  0.00     0.170 HD
ATOM     18  O   UNL     1       3.812  -3.021  -0.931  1.00  0.00    -0.275 OA
BRANCH  16  19
ATOM     19  C   UNL     1       1.860  -4.069  -0.113  1.00  0.00     0.132 C 
BRANCH  19  20
ATOM     20  C   UNL     1       1.257  -3.772   1.265  1.00  0.00     0.127 C 
ATOM     21  C   UNL     1       0.752  -2.379   1.632  1.00  0.00     0.033 C 
ATOM     22  O   UNL     1       2.101  -4.276   2.319  1.00  0.00    -0.378 OA
ATOM     23  C   UNL     1       1.868  -1.417   2.004  1.00  0.00     0.005 C 
ATOM     24  C   UNL     1       3.198  -3.427   2.653  1.00  0.00     0.160 C 
ATOM     25  C   UNL     1       2.725  -2.048   3.090  1.00  0.00     0.029 C 
ENDBRANCH  19  20
ENDBRANCH  16  19
ENDBRANCH  13  15
ENDBRANCH   6   8
ENDBRANCH   5   6
ENDBRANCH   4   5
ENDBRANCH   3   4
ENDBRANCH   2   3
ENDBRANCH   1   2
BRANCH   1  26
ATOM     26  C   UNL     1      -2.914  -4.350   2.510  1.00  0.00     0.188 C 
BRANCH  26  27
ATOM     27  O   UNL     1      -1.543  -4.424   2.898  1.00  0.00    -0.376 OA
BRANCH  27  28
ATOM     28  C   UNL     1      -1.220  -5.454   3.833  1.00  0.00     0.202 C 
BRANCH  28  29
ATOM     29  C   UNL     1      -1.802  -5.334   5.254  1.00  0.00     0.261 C 
BRANCH  29  30
ATOM     30  O   UNL     1      -2.785  -4.307   5.389  1.00  0.00    -0.460 OA
BRANCH  30  31
ATOM     31  C   UNL     1      -2.293  -3.053   5.549  1.00  0.00     0.338 C 
ATOM     32  O   UNL     1      -1.145  -2.739   5.807  1.00  0.00    -0.246 OA
BRANCH  31  33
ATOM     33  C   UNL     1      -3.361  -2.095   5.167  1.00  0.00     0.060 A 
ATOM     34  C   UNL     1      -2.987  -0.899   4.540  1.00  0.00     0.016 A 
ATOM     35  C   UNL     1      -4.718  -2.415   5.315  1.00  0.00     0.016 A 
ATOM     36  C   UNL     1      -3.966  -0.009   4.092  1.00  0.00     0.010 A 
ATOM     37  C   UNL     1      -5.695  -1.533   4.857  1.00  0.00     0.010 A 
ATOM     38  C   UNL     1      -5.323  -0.310   4.277  1.00  0.00    -0.014 A 
BRANCH  38  39
ATOM     39  C   UNL     1      -6.353   0.739   4.104  1.00  0.00     0.031 A 
ATOM     40  C   UNL     1      -6.760   1.516   5.324  1.00  0.00     0.074 A 
ATOM     41  C   UNL     1      -6.937   0.979   2.918  1.00  0.00     0.049 A 
ATOM     42  N   UNL     1      -7.680   2.434   5.462  1.00  0.00    -0.248 NA
ATOM     43  C   UNL     1      -6.031   1.200   6.565  1.00  0.00     0.031 C 
ATOM     44  C   UNL     1      -6.623   0.303   1.662  1.00  0.00     0.029 A 
ATOM     45  N   UNL     1      -7.939   1.858   2.589  1.00  0.00    -0.354 N 
ATOM     46  C   UNL     1      -7.639   2.803   6.799  1.00  0.00     0.074 A 
ATOM     47  C   UNL     1      -6.634   1.986   7.441  1.00  0.00     0.031 C 
ATOM     48  C   UNL     1      -7.430   0.783   0.698  1.00  0.00     0.029 A 
ATOM     49  C   UNL     1      -8.331   1.780   1.276  1.00  0.00     0.049 A 
ATOM     50  H   UNL     1      -8.339   2.486   3.234  1.00  0.00     0.167 HD
ATOM     51  C   UNL     1      -8.367   3.748   7.438  1.00  0.00     0.037 A 
ATOM     52  C   UNL     1      -9.319   2.429   0.628  1.00  0.00     0.037 A 
ATOM     53  C   UNL     1      -9.379   4.549   6.808  1.00  0.00     0.049 A 
ATOM     54  C   UNL     1     -10.166   3.430   1.376  1.00  0.00     0.074 A 
ATOM     55  C   UNL     1     -10.163   5.543   7.363  1.00  0.00     0.029 A 
ATOM     56  N   UNL     1      -9.756   4.432   5.479  1.00  0.00    -0.354 N 
ATOM     57  N   UNL     1     -10.092   3.809   2.629  1.00  0.00    -0.248 NA
ATOM     58  C   UNL     1     -11.236   4.094   0.615  1.00  0.00     0.031 C 
ATOM     59  C   UNL     1     -11.048   5.998   6.380  1.00  0.00     0.029 A 
ATOM     60  C   UNL     1     -10.780   5.321   5.200  1.00  0.00     0.049 A 
ATOM     61  H   UNL     1      -9.354   3.810   4.829  1.00  0.00     0.167 HD
ATOM     62  C   UNL     1     -11.081   4.771   2.799  1.00  0.00     0.074 A 
ATOM     63  C   UNL     1     -11.738   4.925   1.518  1.00  0.00     0.031 C 
ATOM     64  C   UNL     1     -11.414   5.466   3.915  1.00  0.00     0.037 A 
BRANCH  51  65
ATOM     65  C   UNL     1      -8.101   3.936   8.900  1.00  0.00     0.064 A 
ATOM     66  C   UNL     1      -6.913   4.526   9.360  1.00  0.00     0.173 A 
ATOM     67  C   UNL     1      -9.035   3.506   9.853  1.00  0.00     0.173 A 
ATOM     68  F   UNL     1      -5.978   4.930   8.486  1.00  0.00    -0.203 F 
ATOM     69  C   UNL     1      -6.658   4.651  10.722  1.00  0.00     0.198 A 
ATOM     70  C   UNL     1      -8.788   3.658  11.214  1.00  0.00     0.198 A 
ATOM     71  F   UNL     1     -10.182   2.931   9.463  1.00  0.00    -0.203 F 
ATOM     72  F   UNL     1      -5.492   5.164  11.139  1.00  0.00    -0.200 F 
ATOM     73  C   UNL     1      -7.597   4.221  11.648  1.00  0.00     0.200 A 
ATOM     74  F   UNL     1      -9.698   3.246  12.107  1.00  0.00    -0.200 F 
ATOM     75  F   UNL     1      -7.349   4.337  12.959  1.00  0.00    -0.200 F 
ENDBRANCH  51  65
BRANCH  52  76
ATOM     76  C   UNL     1      -9.573   2.154  -0.810  1.00  0.00     0.064 A 
ATOM     77  C   UNL     1      -9.289   3.116  -1.790  1.00  0.00     0.173 A 
ATOM     78  C   UNL     1     -10.129   0.938  -1.232  1.00  0.00     0.173 A 
ATOM     79  F   UNL     1      -8.784   4.306  -1.431  1.00  0.00    -0.203 F 
ATOM     80  C   UNL     1      -9.565   2.878  -3.135  1.00  0.00     0.198 A 
ATOM     81  C   UNL     1     -10.382   0.691  -2.580  1.00  0.00     0.198 A 
ATOM     82  F   UNL     1     -10.425  -0.012  -0.334  1.00  0.00    -0.203 F 
ATOM     83  F   UNL     1      -9.326   3.832  -4.045  1.00  0.00    -0.200 F 
ATOM     84  C   UNL     1     -10.107   1.664  -3.530  1.00  0.00     0.200 A 
ATOM     85  F   UNL     1     -10.901  -0.485  -2.958  1.00  0.00    -0.200 F 
ATOM     86  F   UNL     1     -10.374   1.436  -4.823  1.00  0.00    -0.200 F 
ENDBRANCH  52  76
BRANCH  64  87
ATOM     87  C   UNL     1     -12.511   6.484   3.798  1.00  0.00     0.064 A 
ATOM     88  C   UNL     1     -13.857   6.107   3.689  1.00  0.00     0.173 A 
ATOM     89  C   UNL     1     -12.214   7.855   3.863  1.00  0.00     0.173 A 
ATOM     90  F   UNL     1     -14.190   4.810   3.611  1.00  0.00    -0.203 F 
ATOM     91  C   UNL     1     -14.865   7.066   3.630  1.00  0.00     0.198 A 
ATOM     92  C   UNL     1     -13.226   8.809   3.832  1.00  0.00     0.198 A 
ATOM     93  F   UNL     1     -10.943   8.266   3.977  1.00  0.00    -0.203 F 
ATOM     94  F   UNL     1     -16.142   6.685   3.489  1.00  0.00    -0.200 F 
ATOM     95  C   UNL     1     -14.550   8.415   3.711  1.00  0.00     0.200 A 
ATOM     96  F   UNL     1     -12.921  10.111   3.924  1.00  0.00    -0.200 F 
ATOM     97  F   UNL     1     -15.523   9.335   3.667  1.00  0.00    -0.200 F 
ENDBRANCH  64  87
ENDBRANCH  38  39
ENDBRANCH  31  33
ENDBRANCH  30  31
ENDBRANCH  29  30
ENDBRANCH  28  29
ENDBRANCH  27  28
ENDBRANCH  26  27
ENDBRANCH   1  26
TORSDOF 20
