REMARK SMILES O=C(Cc1cccc(-c2ccn(C(F)F)c(=O)c2)c1)OCCOCCOCCOC(=O)c1ccc(-c2c3nc(c(-c4c(F)c(F)c(F)c(F)c4F)c4ccc([nH]4)c(-c4c(F)c(F)c(F)c(F)c4F)c4nc(c(-c5c(F)c(F)c(F)c(F)c5F)c5ccc2[nH]5)C=C4)C=C3)cc1
REMARK SMILES IDX 24 1 23 2 22 3 21 4 20 5 2 6 1 7 3 8 4 9 5 10 19 11 6 12
REMARK SMILES IDX 8 13 7 14 9 15 10 16 18 17 11 18 16 19 12 20 17 21 13 22
REMARK SMILES IDX 14 23 15 24 25 25 26 26 27 27 28 28 29 29 30 30 31 31 32 32
REMARK SMILES IDX 33 33 94 34 34 35 93 36 35 37 36 38 37 39 87 40 38 41 92 42
REMARK SMILES IDX 86 43 88 44 39 45 91 46 85 47 84 48 40 50 72 51 52 52 71 53
REMARK SMILES IDX 53 54 56 55 70 56 89 57 54 58 55 59 69 61 90 62 57 63 41 64
REMARK SMILES IDX 42 65 50 66 43 67 44 68 48 69 51 70 45 71 46 72 49 73 47 74
REMARK SMILES IDX 73 75 74 76 82 77 75 78 76 79 80 80 83 81 77 82 78 83 81 84
REMARK SMILES IDX 79 85 58 86 59 87 67 88 60 89 61 90 65 91 68 92 62 93 63 94
REMARK SMILES IDX 66 95 64 96
REMARK H PARENT 88 49 56 60
REMARK Flexibility Score: inf
ROOT
ATOM      1  C   UNL     1       3.170   1.959  -0.734  1.00  0.00     0.188 C 
ENDROOT
BRANCH   1   2
ATOM      2  O   UNL     1       4.454   1.387  -0.909  1.00  0.00    -0.376 OA
BRANCH   2   3
ATOM      3  C   UNL     1       4.809   0.351  -0.016  1.00  0.00     0.202 C 
BRANCH   3   4
ATOM      4  C   UNL     1       4.207  -0.981  -0.449  1.00  0.00     0.261 C 
BRANCH   4   5
ATOM      5  O   UNL     1       2.761  -1.044  -0.438  1.00  0.00    -0.463 OA
BRANCH   5   6
ATOM      6  C   UNL     1       1.933  -1.077   0.626  1.00  0.00     0.310 C 
ATOM      7  O   UNL     1       0.743  -1.339   0.456  1.00  0.00    -0.252 OA
BRANCH   6   8
ATOM      8  C   UNL     1       2.422  -0.651   1.988  1.00  0.00     0.158 C 
BRANCH   8   9
ATOM      9  C   UNL     1       3.544  -1.435   2.612  1.00  0.00    -0.036 A 
ATOM     10  C   UNL     1       3.616  -2.827   2.495  1.00  0.00     0.004 A 
ATOM     11  C   UNL     1       4.497  -0.766   3.402  1.00  0.00     0.013 A 
ATOM     12  C   UNL     1       4.645  -3.530   3.116  1.00  0.00     0.001 A 
ATOM     13  C   UNL     1       5.528  -1.464   4.045  1.00  0.00    -0.018 A 
ATOM     14  C   UNL     1       5.593  -2.854   3.888  1.00  0.00     0.009 A 
BRANCH  13  15
ATOM     15  C   UNL     1       6.482  -0.743   4.918  1.00  0.00    -0.011 A 
ATOM     16  C   UNL     1       6.045   0.160   5.970  1.00  0.00     0.027 A 
ATOM     17  C   UNL     1       7.802  -0.940   4.750  1.00  0.00     0.080 A 
ATOM     18  C   UNL     1       6.931   0.750   6.781  1.00  0.00     0.095 A 
ATOM     19  C   UNL     1       8.803  -0.289   5.643  1.00  0.00     0.255 A 
ATOM     20  N   UNL     1       8.286   0.525   6.637  1.00  0.00    -0.258 N 
ATOM     21  O   UNL     1       9.992  -0.520   5.453  1.00  0.00    -0.269 OA
BRANCH  20  22
ATOM     22  C   UNL     1       9.228   1.125   7.547  1.00  0.00     0.451 C 
ATOM     23  F   UNL     1       9.932   0.176   8.211  1.00  0.00    -0.185 F 
ATOM     24  F   UNL     1      10.106   1.920   6.890  1.00  0.00    -0.185 F 
ENDBRANCH  20  22
ENDBRANCH  13  15
ENDBRANCH   8   9
ENDBRANCH   6   8
ENDBRANCH   5   6
ENDBRANCH   4   5
ENDBRANCH   3   4
ENDBRANCH   2   3
ENDBRANCH   1   2
BRANCH   1  25
ATOM     25  C   UNL     1       2.398   2.094  -2.055  1.00  0.00     0.188 C 
BRANCH  25  26
ATOM     26  O   UNL     1       3.096   2.158  -3.293  1.00  0.00    -0.376 OA
BRANCH  26  27
ATOM     27  C   UNL     1       4.374   2.773  -3.367  1.00  0.00     0.202 C 
BRANCH  27  28
ATOM     28  C   UNL     1       4.443   4.277  -3.094  1.00  0.00     0.261 C 
BRANCH  28  29
ATOM     29  O   UNL     1       4.034   4.652  -1.764  1.00  0.00    -0.460 OA
BRANCH  29  30
ATOM     30  C   UNL     1       2.918   5.417  -1.701  1.00  0.00     0.338 C 
ATOM     31  O   UNL     1       2.252   5.834  -2.632  1.00  0.00    -0.246 OA
BRANCH  30  32
ATOM     32  C   UNL     1       2.489   5.609  -0.299  1.00  0.00     0.060 A 
ATOM     33  C   UNL     1       1.183   5.228   0.034  1.00  0.00     0.016 A 
ATOM     34  C   UNL     1       3.288   6.273   0.634  1.00  0.00     0.016 A 
ATOM     35  C   UNL     1       0.649   5.568   1.278  1.00  0.00     0.010 A 
ATOM     36  C   UNL     1       2.746   6.625   1.880  1.00  0.00     0.010 A 
ATOM     37  C   UNL     1       1.408   6.315   2.189  1.00  0.00    -0.014 A 
BRANCH  37  38
ATOM     38  C   UNL     1       0.725   6.920   3.364  1.00  0.00     0.031 A 
ATOM     39  C   UNL     1       0.230   8.340   3.269  1.00  0.00     0.074 A 
ATOM     40  C   UNL     1       0.476   6.204   4.475  1.00  0.00     0.049 A 
ATOM     41  N   UNL     1      -0.443   9.049   4.142  1.00  0.00    -0.248 NA
ATOM     42  C   UNL     1       0.529   9.056   2.018  1.00  0.00     0.031 C 
ATOM     43  C   UNL     1       0.870   4.815   4.691  1.00  0.00     0.029 A 
ATOM     44  N   UNL     1      -0.178   6.554   5.632  1.00  0.00    -0.354 N 
ATOM     45  C   UNL     1      -0.662  10.282   3.541  1.00  0.00     0.074 A 
ATOM     46  C   UNL     1      -0.011  10.243   2.249  1.00  0.00     0.031 C 
ATOM     47  C   UNL     1       0.458   4.431   5.912  1.00  0.00     0.029 A 
ATOM     48  C   UNL     1      -0.217   5.551   6.568  1.00  0.00     0.049 A 
ATOM     49  H   UNL     1      -0.581   7.441   5.776  1.00  0.00     0.167 HD
ATOM     50  C   UNL     1      -1.358  11.345   4.010  1.00  0.00     0.037 A 
ATOM     51  C   UNL     1      -0.733   5.540   7.813  1.00  0.00     0.037 A 
ATOM     52  C   UNL     1      -1.998  11.402   5.298  1.00  0.00     0.049 A 
ATOM     53  C   UNL     1      -1.450   6.758   8.338  1.00  0.00     0.074 A 
ATOM     54  C   UNL     1      -2.717  12.443   5.861  1.00  0.00     0.029 A 
ATOM     55  N   UNL     1      -1.990  10.374   6.228  1.00  0.00    -0.354 N 
ATOM     56  N   UNL     1      -1.675   7.907   7.749  1.00  0.00    -0.248 NA
ATOM     57  C   UNL     1      -2.000   6.669   9.700  1.00  0.00     0.031 C 
ATOM     58  C   UNL     1      -3.111  12.060   7.148  1.00  0.00     0.029 A 
ATOM     59  C   UNL     1      -2.678  10.762   7.368  1.00  0.00     0.049 A 
ATOM     60  H   UNL     1      -1.560   9.498   6.099  1.00  0.00     0.167 HD
ATOM     61  C   UNL     1      -2.410   8.665   8.654  1.00  0.00     0.074 A 
ATOM     62  C   UNL     1      -2.611   7.838   9.825  1.00  0.00     0.031 C 
ATOM     63  C   UNL     1      -2.875   9.932   8.528  1.00  0.00     0.037 A 
BRANCH  50  64
ATOM     64  C   UNL     1      -1.460  12.548   3.119  1.00  0.00     0.064 A 
ATOM     65  C   UNL     1      -2.274  12.542   1.976  1.00  0.00     0.173 A 
ATOM     66  C   UNL     1      -0.770  13.729   3.429  1.00  0.00     0.173 A 
ATOM     67  F   UNL     1      -2.943  11.432   1.629  1.00  0.00    -0.203 F 
ATOM     68  C   UNL     1      -2.376  13.669   1.164  1.00  0.00     0.198 A 
ATOM     69  C   UNL     1      -0.895  14.862   2.630  1.00  0.00     0.198 A 
ATOM     70  F   UNL     1       0.017  13.786   4.514  1.00  0.00    -0.203 F 
ATOM     71  F   UNL     1      -3.128  13.629   0.056  1.00  0.00    -0.200 F 
ATOM     72  C   UNL     1      -1.693  14.830   1.496  1.00  0.00     0.200 A 
ATOM     73  F   UNL     1      -0.243  15.986   2.958  1.00  0.00    -0.200 F 
ATOM     74  F   UNL     1      -1.798  15.916   0.719  1.00  0.00    -0.200 F 
ENDBRANCH  50  64
BRANCH  51  75
ATOM     75  C   UNL     1      -0.585   4.332   8.668  1.00  0.00     0.064 A 
ATOM     76  C   UNL     1      -1.693   3.551   9.025  1.00  0.00     0.173 A 
ATOM     77  C   UNL     1       0.667   3.959   9.177  1.00  0.00     0.173 A 
ATOM     78  F   UNL     1      -2.916   3.884   8.585  1.00  0.00    -0.203 F 
ATOM     79  C   UNL     1      -1.558   2.458   9.879  1.00  0.00     0.198 A 
ATOM     80  C   UNL     1       0.806   2.849  10.006  1.00  0.00     0.198 A 
ATOM     81  F   UNL     1       1.760   4.671   8.865  1.00  0.00    -0.203 F 
ATOM     82  F   UNL     1      -2.641   1.761  10.248  1.00  0.00    -0.200 F 
ATOM     83  C   UNL     1      -0.308   2.106  10.365  1.00  0.00     0.200 A 
ATOM     84  F   UNL     1       2.018   2.503  10.461  1.00  0.00    -0.200 F 
ATOM     85  F   UNL     1      -0.178   1.055  11.187  1.00  0.00    -0.200 F 
ENDBRANCH  51  75
BRANCH  63  86
ATOM     86  C   UNL     1      -3.669  10.494   9.673  1.00  0.00     0.064 A 
ATOM     87  C   UNL     1      -3.063  10.838  10.891  1.00  0.00     0.173 A 
ATOM     88  C   UNL     1      -5.049  10.713   9.543  1.00  0.00     0.173 A 
ATOM     89  F   UNL     1      -1.748  10.636  11.071  1.00  0.00    -0.203 F 
ATOM     90  C   UNL     1      -3.814  11.347  11.947  1.00  0.00     0.198 A 
ATOM     91  C   UNL     1      -5.792  11.249  10.591  1.00  0.00     0.198 A 
ATOM     92  F   UNL     1      -5.677  10.410   8.397  1.00  0.00    -0.203 F 
ATOM     93  F   UNL     1      -3.223  11.616  13.119  1.00  0.00    -0.200 F 
ATOM     94  C   UNL     1      -5.177  11.556  11.795  1.00  0.00     0.200 A 
ATOM     95  F   UNL     1      -7.107  11.463  10.439  1.00  0.00    -0.200 F 
ATOM     96  F   UNL     1      -5.898  12.046  12.813  1.00  0.00    -0.200 F 
ENDBRANCH  63  86
ENDBRANCH  37  38
ENDBRANCH  30  32
ENDBRANCH  29  30
ENDBRANCH  28  29
ENDBRANCH  27  28
ENDBRANCH  26  27
ENDBRANCH  25  26
ENDBRANCH   1  25
TORSDOF 20
