REMARK SMILES Cc1ccc(Cn2c(C)c(C[NH2+]Cc3ccco3)c(C(=O)OCCOCCOCCOC(=O)c3ccc(-c4c5nc(c(-c6c(F)c(F)c(F)c(F)c6F)c6ccc([nH]6)c(-c6c(F)c(F)c(F)c(F)c6F)c6nc(c(-c7c(F)c(F)c(F)c(F)c7F)c7ccc4[nH]7)C=C6)C=C5)cc3)c2C)cc1
REMARK SMILES IDX 26 1 25 2 24 3 23 4 22 5 20 6 21 7 19 8 7 9 8 10 97 11 9 12
REMARK SMILES IDX 10 13 98 14 6 15 5 16 1 17 2 18 3 19 100 20 4 21 99 22 11 23
REMARK SMILES IDX 12 24 13 27 14 28 15 29 18 30 16 31 17 32 27 33 28 34 29 35
REMARK SMILES IDX 30 36 31 37 32 38 33 39 34 40 35 41 96 42 36 43 95 44 37 45
REMARK SMILES IDX 38 46 39 47 89 48 40 49 94 50 88 51 90 52 41 53 93 54 87 55
REMARK SMILES IDX 86 56 42 58 74 59 54 60 73 61 55 62 58 63 72 64 91 65 56 66
REMARK SMILES IDX 57 67 71 69 92 70 59 71 43 72 44 73 52 74 45 75 46 76 50 77
REMARK SMILES IDX 53 78 47 79 48 80 51 81 49 82 75 83 76 84 84 85 77 86 78 87
REMARK SMILES IDX 82 88 85 89 79 90 80 91 83 92 81 93 60 94 61 95 69 96 62 97
REMARK SMILES IDX 63 98 67 99 70 100 64 101 65 102 68 103 66 104
REMARK H PARENT 12 25 12 26 90 57 58 68
REMARK Flexibility Score: inf
ROOT
ATOM      1  C   UNL     1      -5.277  -7.977  -3.392  1.00  0.00     0.188 C 
ENDROOT
BRANCH   1   2
ATOM      2  O   UNL     1      -3.885  -7.674  -3.190  1.00  0.00    -0.376 OA
BRANCH   2   3
ATOM      3  C   UNL     1      -3.148  -7.427  -1.981  1.00  0.00     0.202 C 
BRANCH   3   4
ATOM      4  C   UNL     1      -2.694  -5.943  -1.152  1.00  0.00     0.261 C 
BRANCH   4   5
ATOM      5  O   UNL     1      -3.308  -4.332  -1.128  1.00  0.00    -0.460 OA
BRANCH   5   6
ATOM      6  C   UNL     1      -3.497  -3.137  -1.971  1.00  0.00     0.340 C 
ATOM      7  O   UNL     1      -2.991  -2.907  -3.061  1.00  0.00    -0.246 OA
BRANCH   6   8
ATOM      8  C   UNL     1      -4.289  -2.005  -1.504  1.00  0.00     0.089 A 
ATOM      9  N   UNL     1      -4.128  -0.134  -0.394  1.00  0.00    -0.343 N 
ATOM     10  C   UNL     1      -4.917   0.172  -1.497  1.00  0.00     0.025 A 
ATOM     11  C   UNL     1      -4.121  -1.509  -0.232  1.00  0.00     0.030 A 
ATOM     12  C   UNL     1      -5.448   1.526  -1.836  1.00  0.00     0.065 C 
ATOM     13  C   UNL     1      -4.997  -0.978  -2.292  1.00  0.00     0.042 A 
ATOM     14  C   UNL     1      -3.657  -2.275   0.947  1.00  0.00     0.065 C 
BRANCH   9  15
ATOM     15  C   UNL     1      -3.365   0.812   0.434  1.00  0.00     0.157 C 
BRANCH  15  16
ATOM     16  C   UNL     1      -1.850   0.751   0.248  1.00  0.00    -0.028 A 
ATOM     17  C   UNL     1       2.486   0.635  -0.111  1.00  0.00     0.044 C 
ATOM     18  C   UNL     1       0.992   0.692   0.019  1.00  0.00    -0.051 A 
ATOM     19  C   UNL     1       0.314  -0.309   0.709  1.00  0.00     0.004 A 
ATOM     20  C   UNL     1       0.244   1.718  -0.570  1.00  0.00     0.004 A 
ATOM     21  C   UNL     1      -1.077  -0.254   0.850  1.00  0.00     0.006 A 
ATOM     22  C   UNL     1      -1.159   1.740  -0.468  1.00  0.00     0.006 A 
ENDBRANCH  15  16
ENDBRANCH   9  15
BRANCH  13  23
ATOM     23  C   UNL     1      -5.517  -0.967  -3.752  1.00  0.00     0.300 C 
BRANCH  23  24
ATOM     24  N   UNL     1      -6.998  -0.983  -3.803  1.00  0.00    -0.336 N 
ATOM     25  H   UNL     1      -7.345  -0.509  -2.969  1.00  0.00     0.346 HD
ATOM     26  H   UNL     1      -7.264  -1.966  -3.861  1.00  0.00     0.346 HD
BRANCH  24  27
ATOM     27  C   UNL     1      -7.608  -0.330  -4.984  1.00  0.00     0.337 C 
BRANCH  27  28
ATOM     28  C   UNL     1      -8.614  -1.143  -5.769  1.00  0.00     0.157 A 
ATOM     29  C   UNL     1      -8.795  -1.369  -7.128  1.00  0.00     0.052 A 
ATOM     30  O   UNL     1      -9.571  -1.839  -5.075  1.00  0.00    -0.463 OA
ATOM     31  C   UNL     1      -9.869  -2.290  -7.261  1.00  0.00     0.042 A 
ATOM     32  C   UNL     1     -10.309  -2.542  -5.982  1.00  0.00     0.195 A 
ENDBRANCH  27  28
ENDBRANCH  24  27
ENDBRANCH  23  24
ENDBRANCH  13  23
ENDBRANCH   6   8
ENDBRANCH   5   6
ENDBRANCH   4   5
ENDBRANCH   3   4
ENDBRANCH   2   3
ENDBRANCH   1   2
BRANCH   1  33
ATOM     33  C   UNL     1      -6.288  -8.429  -2.323  1.00  0.00     0.188 C 
BRANCH  33  34
ATOM     34  O   UNL     1      -5.983  -7.963  -1.023  1.00  0.00    -0.376 OA
BRANCH  34  35
ATOM     35  C   UNL     1      -6.959  -8.268  -0.026  1.00  0.00     0.202 C 
BRANCH  35  36
ATOM     36  C   UNL     1      -8.338  -7.568  -0.167  1.00  0.00     0.261 C 
BRANCH  36  37
ATOM     37  O   UNL     1      -8.223  -6.125  -0.164  1.00  0.00    -0.460 OA
BRANCH  37  38
ATOM     38  C   UNL     1      -8.582  -5.458  -1.312  1.00  0.00     0.338 C 
ATOM     39  O   UNL     1      -9.674  -5.548  -1.851  1.00  0.00    -0.246 OA
BRANCH  38  40
ATOM     40  C   UNL     1      -7.366  -4.834  -1.928  1.00  0.00     0.060 A 
ATOM     41  C   UNL     1      -7.193  -4.418  -3.252  1.00  0.00     0.016 A 
ATOM     42  C   UNL     1      -6.224  -5.039  -1.256  1.00  0.00     0.016 A 
ATOM     43  C   UNL     1      -5.867  -4.377  -3.901  1.00  0.00     0.010 A 
ATOM     44  C   UNL     1      -5.138  -5.372  -2.057  1.00  0.00     0.010 A 
ATOM     45  C   UNL     1      -4.735  -4.957  -3.347  1.00  0.00    -0.014 A 
BRANCH  45  46
ATOM     46  C   UNL     1      -3.224  -5.194  -4.065  1.00  0.00     0.031 A 
ATOM     47  C   UNL     1      -1.608  -4.711  -3.667  1.00  0.00     0.074 A 
ATOM     48  C   UNL     1      -3.212  -5.842  -5.256  1.00  0.00     0.049 A 
ATOM     49  N   UNL     1      -0.637  -4.571  -4.559  1.00  0.00    -0.248 NA
ATOM     50  C   UNL     1      -0.987  -4.298  -2.364  1.00  0.00     0.031 C 
ATOM     51  C   UNL     1      -2.043  -6.356  -5.972  1.00  0.00     0.029 A 
ATOM     52  N   UNL     1      -4.269  -6.097  -6.141  1.00  0.00    -0.354 N 
ATOM     53  C   UNL     1       0.577  -4.279  -3.931  1.00  0.00     0.074 A 
ATOM     54  C   UNL     1       0.308  -4.141  -2.556  1.00  0.00     0.031 C 
ATOM     55  C   UNL     1      -2.345  -6.489  -7.267  1.00  0.00     0.029 A 
ATOM     56  C   UNL     1      -3.711  -6.062  -7.444  1.00  0.00     0.049 A 
ATOM     57  H   UNL     1      -5.210  -6.267  -5.905  1.00  0.00     0.167 HD
ATOM     58  C   UNL     1       1.788  -4.174  -4.539  1.00  0.00     0.037 A 
ATOM     59  C   UNL     1      -4.182  -5.230  -8.413  1.00  0.00     0.037 A 
ATOM     60  C   UNL     1       1.680  -4.306  -5.957  1.00  0.00     0.049 A 
ATOM     61  C   UNL     1      -3.185  -4.188  -8.864  1.00  0.00     0.074 A 
ATOM     62  C   UNL     1       1.754  -5.367  -6.836  1.00  0.00     0.029 A 
ATOM     63  N   UNL     1       1.077  -3.269  -6.628  1.00  0.00    -0.354 N 
ATOM     64  N   UNL     1      -1.909  -4.227  -8.601  1.00  0.00    -0.248 NA
ATOM     65  C   UNL     1      -3.566  -2.960  -9.572  1.00  0.00     0.031 C 
ATOM     66  C   UNL     1       1.120  -4.963  -8.043  1.00  0.00     0.029 A 
ATOM     67  C   UNL     1       0.705  -3.652  -7.896  1.00  0.00     0.049 A 
ATOM     68  H   UNL     1       0.930  -2.372  -6.251  1.00  0.00     0.167 HD
ATOM     69  C   UNL     1      -1.341  -3.039  -8.977  1.00  0.00     0.074 A 
ATOM     70  C   UNL     1      -2.400  -2.293  -9.621  1.00  0.00     0.031 C 
ATOM     71  C   UNL     1      -0.054  -2.711  -8.689  1.00  0.00     0.037 A 
BRANCH  58  72
ATOM     72  C   UNL     1       3.069  -4.161  -3.739  1.00  0.00     0.064 A 
ATOM     73  C   UNL     1       4.069  -5.109  -4.011  1.00  0.00     0.173 A 
ATOM     74  C   UNL     1       3.289  -3.350  -2.605  1.00  0.00     0.173 A 
ATOM     75  F   UNL     1       4.005  -5.880  -5.105  1.00  0.00    -0.203 F 
ATOM     76  C   UNL     1       5.136  -5.331  -3.135  1.00  0.00     0.198 A 
ATOM     77  C   UNL     1       4.321  -3.614  -1.696  1.00  0.00     0.198 A 
ATOM     78  F   UNL     1       2.472  -2.322  -2.326  1.00  0.00    -0.203 F 
ATOM     79  F   UNL     1       6.044  -6.274  -3.420  1.00  0.00    -0.200 F 
ATOM     80  C   UNL     1       5.233  -4.620  -1.954  1.00  0.00     0.200 A 
ATOM     81  F   UNL     1       4.397  -2.924  -0.548  1.00  0.00    -0.200 F 
ATOM     82  F   UNL     1       6.196  -4.907  -1.066  1.00  0.00    -0.200 F 
ENDBRANCH  58  72
BRANCH  59  83
ATOM     83  C   UNL     1      -5.652  -5.082  -8.310  1.00  0.00     0.064 A 
ATOM     84  C   UNL     1      -6.432  -6.239  -8.538  1.00  0.00     0.173 A 
ATOM     85  C   UNL     1      -6.184  -4.096  -7.495  1.00  0.00     0.173 A 
ATOM     86  F   UNL     1      -5.957  -7.214  -9.328  1.00  0.00    -0.203 F 
ATOM     87  C   UNL     1      -7.604  -6.481  -7.824  1.00  0.00     0.198 A 
ATOM     88  C   UNL     1      -7.341  -4.369  -6.779  1.00  0.00     0.198 A 
ATOM     89  F   UNL     1      -5.492  -2.983  -7.206  1.00  0.00    -0.203 F 
ATOM     90  F   UNL     1      -8.241  -7.654  -7.940  1.00  0.00    -0.200 F 
ATOM     91  C   UNL     1      -8.033  -5.559  -6.899  1.00  0.00     0.200 A 
ATOM     92  F   UNL     1      -7.688  -3.528  -5.813  1.00  0.00    -0.200 F 
ATOM     93  F   UNL     1      -9.056  -5.832  -6.077  1.00  0.00    -0.200 F 
ENDBRANCH  59  83
BRANCH  71  94
ATOM     94  C   UNL     1       0.621  -1.470  -9.173  1.00  0.00     0.064 A 
ATOM     95  C   UNL     1       0.718  -1.212 -10.546  1.00  0.00     0.173 A 
ATOM     96  C   UNL     1       1.387  -0.656  -8.315  1.00  0.00     0.173 A 
ATOM     97  F   UNL     1       0.019  -1.945 -11.426  1.00  0.00    -0.203 F 
ATOM     98  C   UNL     1       1.572  -0.225 -11.037  1.00  0.00     0.198 A 
ATOM     99  C   UNL     1       2.272   0.298  -8.810  1.00  0.00     0.198 A 
ATOM    100  F   UNL     1       1.301  -0.783  -6.981  1.00  0.00    -0.203 F 
ATOM    101  F   UNL     1       1.645  -0.007 -12.357  1.00  0.00    -0.200 F 
ATOM    102  C   UNL     1       2.369   0.507 -10.172  1.00  0.00     0.200 A 
ATOM    103  F   UNL     1       3.047   0.992  -7.964  1.00  0.00    -0.200 F 
ATOM    104  F   UNL     1       3.233   1.412 -10.652  1.00  0.00    -0.200 F 
ENDBRANCH  71  94
ENDBRANCH  45  46
ENDBRANCH  38  40
ENDBRANCH  37  38
ENDBRANCH  36  37
ENDBRANCH  35  36
ENDBRANCH  34  35
ENDBRANCH  33  34
ENDBRANCH   1  33
TORSDOF 23
