REMARK SMILES C[C@@](NC(=O)CCOC1CC[NH2+]CC1)(C(=O)OCCOCCOCCOC(=O)c1ccc(-c2c3nc(c(-c4c(F)c(F)c(F)c(F)c4F)c4ccc([nH]4)c(-c4c(F)c(F)c(F)c(F)c4F)c4nc(c(-c5c(F)c(F)c(F)c(F)c5F)c5ccc2[nH]5)C=C4)C=C3)cc1)C(F)(F)F
REMARK SMILES IDX 20 1 19 2 18 3 17 4 15 5 16 6 2 7 1 8 3 9 4 10 5 12 6 13
REMARK SMILES IDX 7 14 8 15 9 16 10 17 14 18 11 19 13 20 12 21 92 24 93 25
REMARK SMILES IDX 94 26 95 27 21 28 22 29 23 30 24 31 25 32 26 33 27 34 28 35
REMARK SMILES IDX 29 36 30 37 91 38 31 39 90 40 32 41 33 42 34 43 84 44 35 45
REMARK SMILES IDX 89 46 83 47 85 48 36 49 88 50 82 51 81 52 37 54 69 55 49 56
REMARK SMILES IDX 68 57 50 58 53 59 67 60 86 61 51 62 52 63 66 65 87 66 54 67
REMARK SMILES IDX 38 68 39 69 47 70 40 71 41 72 45 73 48 74 42 75 43 76 46 77
REMARK SMILES IDX 44 78 70 79 71 80 79 81 72 82 73 83 77 84 80 85 74 86 75 87
REMARK SMILES IDX 78 88 76 89 55 90 56 91 64 92 57 93 58 94 62 95 65 96 59 97
REMARK SMILES IDX 60 98 63 99 61 100
REMARK H PARENT 3 11 12 22 12 23 85 53 53 64
REMARK Flexibility Score: inf
ROOT
ATOM      1  O   UNL     1      -3.905  -0.050   2.186  1.00  0.00    -0.376 OA
ENDROOT
BRANCH   1   2
ATOM      2  C   UNL     1      -4.068   0.897   1.139  1.00  0.00     0.202 C 
BRANCH   2   3
ATOM      3  C   UNL     1      -3.059   2.055   1.081  1.00  0.00     0.261 C 
BRANCH   3   4
ATOM      4  O   UNL     1      -1.731   1.612   0.701  1.00  0.00    -0.461 OA
BRANCH   4   5
ATOM      5  C   UNL     1      -0.545   1.910   1.306  1.00  0.00     0.341 C 
ATOM      6  O   UNL     1      -0.494   2.252   2.480  1.00  0.00    -0.249 OA
BRANCH   5   7
ATOM      7  C   UNL     1       0.746   1.793   0.266  1.00  0.00     0.231 C 
ATOM      8  C   UNL     1       1.289   0.335   0.171  1.00  0.00     0.058 C 
BRANCH   7   9
ATOM      9  N   UNL     1       0.809   2.490  -1.405  1.00  0.00    -0.333 N 
ATOM     10  C   UNL     1      -0.083   3.247  -2.861  1.00  0.00     0.223 C 
ATOM     11  H   UNL     1       1.757   2.452  -1.669  1.00  0.00     0.164 HD
ATOM     12  O   UNL     1       0.463   3.848  -3.832  1.00  0.00    -0.275 OA
BRANCH  10  13
ATOM     13  C   UNL     1      -1.740   3.389  -3.147  1.00  0.00     0.128 C 
BRANCH  13  14
ATOM     14  C   UNL     1      -2.474   2.106  -3.327  1.00  0.00     0.170 C 
BRANCH  14  15
ATOM     15  O   UNL     1      -2.327   1.460  -2.099  1.00  0.00    -0.377 OA
BRANCH  15  16
ATOM     16  C   UNL     1      -1.006   1.732  -1.640  1.00  0.00     0.129 C 
ATOM     17  C   UNL     1      -0.744   3.587  -0.865  1.00  0.00     0.093 C 
ATOM     18  C   UNL     1       0.340   1.080  -2.881  1.00  0.00     0.093 C 
ATOM     19  C   UNL     1       0.881   4.545  -1.388  1.00  0.00     0.263 C 
ATOM     20  C   UNL     1       1.896   2.112  -3.207  1.00  0.00     0.263 C 
ATOM     21  N   UNL     1       2.235   3.719  -2.355  1.00  0.00    -0.346 N 
ATOM     22  H   UNL     1       3.005   3.555  -1.706  1.00  0.00     0.346 HD
ATOM     23  H   UNL     1       2.409   4.367  -3.124  1.00  0.00     0.346 HD
ENDBRANCH  15  16
ENDBRANCH  14  15
ENDBRANCH  13  14
ENDBRANCH  10  13
ENDBRANCH   7   9
BRANCH   7  24
ATOM     24  C   UNL     1       1.842   2.490   1.153  1.00  0.00     0.422 C 
ATOM     25  F   UNL     1       2.035   1.838   2.329  1.00  0.00    -0.168 F 
ATOM     26  F   UNL     1       3.043   2.481   0.525  1.00  0.00    -0.168 F 
ATOM     27  F   UNL     1       1.549   3.774   1.442  1.00  0.00    -0.168 F 
ENDBRANCH   7  24
ENDBRANCH   5   7
ENDBRANCH   4   5
ENDBRANCH   3   4
ENDBRANCH   2   3
ENDBRANCH   1   2
BRANCH   1  28
ATOM     28  C   UNL     1      -2.572  -0.371   2.534  1.00  0.00     0.188 C 
BRANCH  28  29
ATOM     29  C   UNL     1      -1.696  -1.074   1.476  1.00  0.00     0.188 C 
BRANCH  29  30
ATOM     30  O   UNL     1      -2.240  -1.373   0.219  1.00  0.00    -0.376 OA
BRANCH  30  31
ATOM     31  C   UNL     1      -3.202  -2.411   0.132  1.00  0.00     0.202 C 
BRANCH  31  32
ATOM     32  C   UNL     1      -3.450  -3.476   1.234  1.00  0.00     0.261 C 
BRANCH  32  33
ATOM     33  O   UNL     1      -3.041  -3.185   2.585  1.00  0.00    -0.460 OA
BRANCH  33  34
ATOM     34  C   UNL     1      -1.885  -3.749   3.027  1.00  0.00     0.338 C 
ATOM     35  O   UNL     1      -1.190  -4.557   2.418  1.00  0.00    -0.246 OA
BRANCH  34  36
ATOM     36  C   UNL     1      -1.399  -3.002   4.224  1.00  0.00     0.060 A 
ATOM     37  C   UNL     1      -0.145  -2.361   4.161  1.00  0.00     0.016 A 
ATOM     38  C   UNL     1      -2.204  -2.825   5.351  1.00  0.00     0.016 A 
ATOM     39  C   UNL     1       0.314  -1.575   5.224  1.00  0.00     0.010 A 
ATOM     40  C   UNL     1      -1.726  -2.070   6.433  1.00  0.00     0.010 A 
ATOM     41  C   UNL     1      -0.448  -1.474   6.394  1.00  0.00    -0.014 A 
BRANCH  41  42
ATOM     42  C   UNL     1       0.202  -1.034   7.660  1.00  0.00     0.031 A 
ATOM     43  C   UNL     1       0.744  -2.114   8.564  1.00  0.00     0.074 A 
ATOM     44  C   UNL     1       0.347   0.257   8.013  1.00  0.00     0.049 A 
ATOM     45  N   UNL     1       1.289  -2.026   9.750  1.00  0.00    -0.248 NA
ATOM     46  C   UNL     1       0.648  -3.491   8.049  1.00  0.00     0.031 C 
ATOM     47  C   UNL     1      -0.060   1.410   7.218  1.00  0.00     0.029 A 
ATOM     48  N   UNL     1       0.879   0.808   9.158  1.00  0.00    -0.354 N 
ATOM     49  C   UNL     1       1.586  -3.331  10.125  1.00  0.00     0.074 A 
ATOM     50  C   UNL     1       1.128  -4.195   9.060  1.00  0.00     0.031 C 
ATOM     51  C   UNL     1       0.220   2.534   7.905  1.00  0.00     0.029 A 
ATOM     52  C   UNL     1       0.796   2.179   9.204  1.00  0.00     0.049 A 
ATOM     53  H   UNL     1       1.281   0.270   9.877  1.00  0.00     0.167 HD
ATOM     54  C   UNL     1       2.193  -3.776  11.250  1.00  0.00     0.037 A 
ATOM     55  C   UNL     1       1.125   3.041  10.189  1.00  0.00     0.037 A 
ATOM     56  C   UNL     1       2.644  -2.924  12.317  1.00  0.00     0.049 A 
ATOM     57  C   UNL     1       1.709   2.515  11.481  1.00  0.00     0.074 A 
ATOM     58  C   UNL     1       3.277  -3.281  13.495  1.00  0.00     0.029 A 
ATOM     59  N   UNL     1       2.499  -1.546  12.343  1.00  0.00    -0.354 N 
ATOM     60  N   UNL     1       2.003   1.283  11.823  1.00  0.00    -0.248 NA
ATOM     61  C   UNL     1       2.011   3.506  12.527  1.00  0.00     0.031 C 
ATOM     62  C   UNL     1       3.450  -2.127  14.265  1.00  0.00     0.029 A 
ATOM     63  C   UNL     1       3.000  -1.040  13.532  1.00  0.00     0.049 A 
ATOM     64  H   UNL     1       2.099  -1.006  11.623  1.00  0.00     0.167 HD
ATOM     65  C   UNL     1       2.561   1.357  13.095  1.00  0.00     0.074 A 
ATOM     66  C   UNL     1       2.574   2.756  13.463  1.00  0.00     0.031 C 
ATOM     67  C   UNL     1       3.024   0.356  13.887  1.00  0.00     0.037 A 
BRANCH  54  68
ATOM     68  C   UNL     1       2.365  -5.261  11.399  1.00  0.00     0.064 A 
ATOM     69  C   UNL     1       3.240  -5.994  10.583  1.00  0.00     0.173 A 
ATOM     70  C   UNL     1       1.649  -5.959  12.384  1.00  0.00     0.173 A 
ATOM     71  F   UNL     1       3.935  -5.379   9.614  1.00  0.00    -0.203 F 
ATOM     72  C   UNL     1       3.364  -7.374  10.723  1.00  0.00     0.198 A 
ATOM     73  C   UNL     1       1.805  -7.332  12.547  1.00  0.00     0.198 A 
ATOM     74  F   UNL     1       0.799  -5.308  13.193  1.00  0.00    -0.203 F 
ATOM     75  F   UNL     1       4.158  -8.062   9.890  1.00  0.00    -0.200 F 
ATOM     76  C   UNL     1       2.654  -8.040  11.710  1.00  0.00     0.200 A 
ATOM     77  F   UNL     1       1.129  -7.972  13.511  1.00  0.00    -0.200 F 
ATOM     78  F   UNL     1       2.779  -9.367  11.848  1.00  0.00    -0.200 F 
ENDBRANCH  54  68
BRANCH  55  79
ATOM     79  C   UNL     1       0.900   4.505  10.016  1.00  0.00     0.064 A 
ATOM     80  C   UNL     1       1.976   5.406   9.983  1.00  0.00     0.173 A 
ATOM     81  C   UNL     1      -0.394   5.040   9.938  1.00  0.00     0.173 A 
ATOM     82  F   UNL     1       3.233   4.952  10.094  1.00  0.00    -0.203 F 
ATOM     83  C   UNL     1       1.764   6.782   9.902  1.00  0.00     0.198 A 
ATOM     84  C   UNL     1      -0.603   6.414   9.821  1.00  0.00     0.198 A 
ATOM     85  F   UNL     1      -1.461   4.229   9.981  1.00  0.00    -0.203 F 
ATOM     86  F   UNL     1       2.808   7.622   9.939  1.00  0.00    -0.200 F 
ATOM     87  C   UNL     1       0.475   7.285   9.814  1.00  0.00     0.200 A 
ATOM     88  F   UNL     1      -1.851   6.894   9.730  1.00  0.00    -0.200 F 
ATOM     89  F   UNL     1       0.272   8.607   9.739  1.00  0.00    -0.200 F 
ENDBRANCH  55  79
BRANCH  67  90
ATOM     90  C   UNL     1       3.643   0.733  15.206  1.00  0.00     0.064 A 
ATOM     91  C   UNL     1       2.885   1.256  16.265  1.00  0.00     0.173 A 
ATOM     92  C   UNL     1       5.015   0.528  15.427  1.00  0.00     0.173 A 
ATOM     93  F   UNL     1       1.571   1.480  16.109  1.00  0.00    -0.203 F 
ATOM     94  C   UNL     1       3.482   1.593  17.478  1.00  0.00     0.198 A 
ATOM     95  C   UNL     1       5.601   0.829  16.654  1.00  0.00     0.198 A 
ATOM     96  F   UNL     1       5.788   0.019  14.456  1.00  0.00    -0.203 F 
ATOM     97  F   UNL     1       2.748   2.146  18.453  1.00  0.00    -0.200 F 
ATOM     98  C   UNL     1       4.837   1.372  17.674  1.00  0.00     0.200 A 
ATOM     99  F   UNL     1       6.906   0.593  16.847  1.00  0.00    -0.200 F 
ATOM    100  F   UNL     1       5.407   1.689  18.845  1.00  0.00    -0.200 F 
ENDBRANCH  67  90
ENDBRANCH  41  42
ENDBRANCH  34  36
ENDBRANCH  33  34
ENDBRANCH  32  33
ENDBRANCH  31  32
ENDBRANCH  30  31
ENDBRANCH  29  30
ENDBRANCH  28  29
ENDBRANCH   1  28
TORSDOF 23
