REMARK SMILES Cc1ccc(C(=O)OCCOCCOCCOC(=O)c2ccc(-c3c4nc(c(-c5c(F)c(F)c(F)c(F)c5F)c5ccc([nH]5)c(-c5c(F)c(F)c(F)c(F)c5F)c5nc(c(-c6c(F)c(F)c(F)c(F)c6F)c6ccc3[nH]6)C=C5)C=C4)cc2)c2c1N[C@H](c1ccccc1F)[C@H]1CC=C[C@@H]21
REMARK SMILES IDX 13 1 12 2 11 3 10 4 9 5 8 6 6 7 7 8 5 9 1 10 2 11 3 12 84 13
REMARK SMILES IDX 4 14 83 15 85 16 98 17 86 18 94 20 97 21 95 22 96 23 87 24
REMARK SMILES IDX 88 25 92 26 89 27 91 28 93 29 90 30 14 31 15 32 16 33 17 34
REMARK SMILES IDX 18 35 19 36 20 37 21 38 82 39 22 40 81 41 23 42 24 43 25 44
REMARK SMILES IDX 75 45 26 46 80 47 74 48 76 49 27 50 79 51 73 52 72 53 28 55
REMARK SMILES IDX 60 56 40 57 59 58 41 59 44 60 58 61 77 62 42 63 43 64 57 66
REMARK SMILES IDX 78 67 45 68 29 69 30 70 38 71 31 72 32 73 36 74 39 75 33 76
REMARK SMILES IDX 34 77 37 78 35 79 61 80 62 81 70 82 63 83 64 84 68 85 71 86
REMARK SMILES IDX 65 87 66 88 69 89 67 90 46 91 47 92 55 93 48 94 49 95 53 96
REMARK SMILES IDX 56 97 50 98 51 99 54 100 52 101
REMARK H PARENT 85 19 76 54 44 65
REMARK Flexibility Score: inf
ROOT
ATOM      1  C   UNL     1      -2.760   3.231  -4.285  1.00  0.00     0.188 C 
ENDROOT
BRANCH   1   2
ATOM      2  C   UNL     1      -2.352   4.709  -4.470  1.00  0.00     0.188 C 
BRANCH   2   3
ATOM      3  O   UNL     1      -2.353   5.142  -5.818  1.00  0.00    -0.376 OA
BRANCH   3   4
ATOM      4  C   UNL     1      -1.075   5.364  -6.398  1.00  0.00     0.202 C 
BRANCH   4   5
ATOM      5  C   UNL     1      -0.131   4.156  -6.500  1.00  0.00     0.261 C 
BRANCH   5   6
ATOM      6  O   UNL     1      -0.015   3.358  -5.307  1.00  0.00    -0.460 OA
BRANCH   6   7
ATOM      7  C   UNL     1       0.898   3.718  -4.378  1.00  0.00     0.338 C 
ATOM      8  O   UNL     1       1.651   4.681  -4.463  1.00  0.00    -0.246 OA
BRANCH   7   9
ATOM      9  C   UNL     1       0.810   2.778  -3.220  1.00  0.00     0.065 A 
ATOM     10  C   UNL     1       0.761  -0.218  -0.107  1.00  0.00     0.046 C 
ATOM     11  C   UNL     1       0.681   0.864  -1.156  1.00  0.00    -0.028 A 
ATOM     12  C   UNL     1       0.792   0.467  -2.498  1.00  0.00     0.006 A 
ATOM     13  C   UNL     1       0.592   2.239  -0.831  1.00  0.00     0.042 A 
ATOM     14  C   UNL     1       0.851   1.410  -3.518  1.00  0.00     0.016 A 
ATOM     15  C   UNL     1       0.653   3.205  -1.873  1.00  0.00    -0.003 A 
ATOM     16  N   UNL     1       0.401   2.634   0.490  1.00  0.00    -0.377 N 
ATOM     17  C   UNL     1       0.403   4.659  -1.540  1.00  0.00     0.050 C 
ATOM     18  C   UNL     1       0.625   4.015   0.894  1.00  0.00     0.117 C 
ATOM     19  H   UNL     1       0.111   1.972   1.159  1.00  0.00     0.161 HD
ATOM     20  C   UNL     1      -0.100   4.932  -0.106  1.00  0.00     0.031 C 
ATOM     21  C   UNL     1       1.561   5.610  -1.631  1.00  0.00    -0.023 C 
ATOM     22  C   UNL     1       0.230   6.418   0.109  1.00  0.00     0.034 C 
ATOM     23  C   UNL     1       1.438   6.607  -0.747  1.00  0.00    -0.030 C 
BRANCH  18  24
ATOM     24  C   UNL     1       0.279   4.182   2.371  1.00  0.00     0.010 A 
ATOM     25  C   UNL     1       1.184   3.694   3.335  1.00  0.00     0.009 A 
ATOM     26  C   UNL     1      -0.862   4.842   2.846  1.00  0.00     0.128 A 
ATOM     27  C   UNL     1       0.970   3.902   4.703  1.00  0.00     0.001 A 
ATOM     28  C   UNL     1      -1.078   5.060   4.207  1.00  0.00     0.039 A 
ATOM     29  F   UNL     1      -1.778   5.329   2.002  1.00  0.00    -0.207 F 
ATOM     30  C   UNL     1      -0.156   4.596   5.139  1.00  0.00     0.003 A 
ENDBRANCH  18  24
ENDBRANCH   7   9
ENDBRANCH   6   7
ENDBRANCH   5   6
ENDBRANCH   4   5
ENDBRANCH   3   4
ENDBRANCH   2   3
ENDBRANCH   1   2
BRANCH   1  31
ATOM     31  O   UNL     1      -3.242   2.487  -5.396  1.00  0.00    -0.376 OA
BRANCH  31  32
ATOM     32  C   UNL     1      -4.186   3.098  -6.265  1.00  0.00     0.202 C 
BRANCH  32  33
ATOM     33  C   UNL     1      -5.476   3.692  -5.675  1.00  0.00     0.261 C 
BRANCH  33  34
ATOM     34  O   UNL     1      -5.301   4.567  -4.545  1.00  0.00    -0.460 OA
BRANCH  34  35
ATOM     35  C   UNL     1      -5.830   4.137  -3.374  1.00  0.00     0.338 C 
ATOM     36  O   UNL     1      -6.457   3.107  -3.172  1.00  0.00    -0.246 OA
BRANCH  35  37
ATOM     37  C   UNL     1      -5.432   5.043  -2.281  1.00  0.00     0.060 A 
ATOM     38  C   UNL     1      -4.443   4.625  -1.384  1.00  0.00     0.016 A 
ATOM     39  C   UNL     1      -6.109   6.246  -2.069  1.00  0.00     0.016 A 
ATOM     40  C   UNL     1      -4.122   5.412  -0.281  1.00  0.00     0.010 A 
ATOM     41  C   UNL     1      -5.805   7.021  -0.940  1.00  0.00     0.010 A 
ATOM     42  C   UNL     1      -4.820   6.599  -0.032  1.00  0.00    -0.014 A 
BRANCH  42  43
ATOM     43  C   UNL     1      -4.646   7.261   1.285  1.00  0.00     0.031 A 
ATOM     44  C   UNL     1      -5.487   6.788   2.437  1.00  0.00     0.074 A 
ATOM     45  C   UNL     1      -3.703   8.198   1.487  1.00  0.00     0.049 A 
ATOM     46  N   UNL     1      -5.528   7.221   3.671  1.00  0.00    -0.248 NA
ATOM     47  C   UNL     1      -6.400   5.667   2.160  1.00  0.00     0.031 C 
ATOM     48  C   UNL     1      -2.758   8.670   0.480  1.00  0.00     0.029 A 
ATOM     49  N   UNL     1      -3.369   8.903   2.619  1.00  0.00    -0.354 N 
ATOM     50  C   UNL     1      -6.470   6.430   4.314  1.00  0.00     0.074 A 
ATOM     51  C   UNL     1      -6.984   5.496   3.336  1.00  0.00     0.031 C 
ATOM     52  C   UNL     1      -1.930   9.566   1.046  1.00  0.00     0.029 A 
ATOM     53  C   UNL     1      -2.324   9.776   2.438  1.00  0.00     0.049 A 
ATOM     54  H   UNL     1      -3.836   8.793   3.478  1.00  0.00     0.167 HD
ATOM     55  C   UNL     1      -6.874   6.481   5.604  1.00  0.00     0.037 A 
ATOM     56  C   UNL     1      -1.768  10.657   3.295  1.00  0.00     0.037 A 
ATOM     57  C   UNL     1      -6.381   7.424   6.571  1.00  0.00     0.049 A 
ATOM     58  C   UNL     1      -2.327  10.780   4.693  1.00  0.00     0.074 A 
ATOM     59  C   UNL     1      -6.769   7.587   7.889  1.00  0.00     0.029 A 
ATOM     60  N   UNL     1      -5.397   8.368   6.322  1.00  0.00    -0.354 N 
ATOM     61  N   UNL     1      -3.245  10.058   5.287  1.00  0.00    -0.248 NA
ATOM     62  C   UNL     1      -1.786  11.862   5.532  1.00  0.00     0.031 C 
ATOM     63  C   UNL     1      -6.053   8.660   8.425  1.00  0.00     0.029 A 
ATOM     64  C   UNL     1      -5.178   9.129   7.458  1.00  0.00     0.049 A 
ATOM     65  H   UNL     1      -4.925   8.481   5.465  1.00  0.00     0.167 HD
ATOM     66  C   UNL     1      -3.379  10.582   6.566  1.00  0.00     0.074 A 
ATOM     67  C   UNL     1      -2.432  11.671   6.674  1.00  0.00     0.031 C 
ATOM     68  C   UNL     1      -4.220  10.201   7.559  1.00  0.00     0.037 A 
BRANCH  55  69
ATOM     69  C   UNL     1      -7.930   5.511   6.037  1.00  0.00     0.064 A 
ATOM     70  C   UNL     1      -7.645   4.151   6.223  1.00  0.00     0.173 A 
ATOM     71  C   UNL     1      -9.231   5.957   6.317  1.00  0.00     0.173 A 
ATOM     72  F   UNL     1      -6.421   3.675   5.952  1.00  0.00    -0.203 F 
ATOM     73  C   UNL     1      -8.628   3.270   6.665  1.00  0.00     0.198 A 
ATOM     74  C   UNL     1     -10.203   5.079   6.784  1.00  0.00     0.198 A 
ATOM     75  F   UNL     1      -9.552   7.250   6.154  1.00  0.00    -0.203 F 
ATOM     76  F   UNL     1      -8.344   1.968   6.806  1.00  0.00    -0.200 F 
ATOM     77  C   UNL     1      -9.902   3.736   6.954  1.00  0.00     0.200 A 
ATOM     78  F   UNL     1     -11.430   5.533   7.076  1.00  0.00    -0.200 F 
ATOM     79  F   UNL     1     -10.842   2.889   7.396  1.00  0.00    -0.200 F 
ENDBRANCH  55  69
BRANCH  56  80
ATOM     80  C   UNL     1      -0.635  11.520   2.861  1.00  0.00     0.064 A 
ATOM     81  C   UNL     1       0.631  11.402   3.454  1.00  0.00     0.173 A 
ATOM     82  C   UNL     1      -0.798  12.502   1.873  1.00  0.00     0.173 A 
ATOM     83  F   UNL     1       0.831  10.503   4.430  1.00  0.00    -0.203 F 
ATOM     84  C   UNL     1       1.683  12.239   3.084  1.00  0.00     0.198 A 
ATOM     85  C   UNL     1       0.263  13.317   1.481  1.00  0.00     0.198 A 
ATOM     86  F   UNL     1      -1.991  12.672   1.284  1.00  0.00    -0.203 F 
ATOM     87  F   UNL     1       2.866  12.137   3.704  1.00  0.00    -0.200 F 
ATOM     88  C   UNL     1       1.500  13.190   2.092  1.00  0.00     0.200 A 
ATOM     89  F   UNL     1       0.083  14.230   0.517  1.00  0.00    -0.200 F 
ATOM     90  F   UNL     1       2.512  13.992   1.735  1.00  0.00    -0.200 F 
ENDBRANCH  56  80
BRANCH  68  91
ATOM     91  C   UNL     1      -4.148  10.938   8.866  1.00  0.00     0.064 A 
ATOM     92  C   UNL     1      -4.637  12.245   9.000  1.00  0.00     0.173 A 
ATOM     93  C   UNL     1      -3.673  10.294  10.020  1.00  0.00     0.173 A 
ATOM     94  F   UNL     1      -5.093  12.909   7.927  1.00  0.00    -0.203 F 
ATOM     95  C   UNL     1      -4.643  12.884  10.238  1.00  0.00     0.198 A 
ATOM     96  C   UNL     1      -3.709  10.924  11.260  1.00  0.00     0.198 A 
ATOM     97  F   UNL     1      -3.203   9.039   9.948  1.00  0.00    -0.203 F 
ATOM     98  F   UNL     1      -5.088  14.145  10.337  1.00  0.00    -0.200 F 
ATOM     99  C   UNL     1      -4.191  12.220  11.368  1.00  0.00     0.200 A 
ATOM    100  F   UNL     1      -3.289  10.273  12.354  1.00  0.00    -0.200 F 
ATOM    101  F   UNL     1      -4.219  12.828  12.562  1.00  0.00    -0.200 F 
ENDBRANCH  68  91
ENDBRANCH  42  43
ENDBRANCH  35  37
ENDBRANCH  34  35
ENDBRANCH  33  34
ENDBRANCH  32  33
ENDBRANCH  31  32
ENDBRANCH   1  31
TORSDOF 18
