REMARK SMILES C#CCNC(=O)[C@H](C)S(=O)(=O)c1ccc(C(=O)OCCOCCOCCOC(=O)c2ccc(-c3c4nc(c(-c5c(F)c(F)c(F)c(F)c5F)c5ccc([nH]5)c(-c5c(F)c(F)c(F)c(F)c5F)c5nc(c(-c6c(F)c(F)c(F)c(F)c6F)c6ccc3[nH]6)C=C5)C=C4)cc2)cc1F
REMARK SMILES IDX 21 1 20 2 19 3 18 4 16 5 17 6 15 7 12 8 13 9 94 10 14 11
REMARK SMILES IDX 93 12 95 13 9 14 10 15 11 16 7 17 8 18 5 19 4 20 6 22 3 23
REMARK SMILES IDX 2 24 1 25 22 26 23 27 24 28 25 29 26 30 27 31 28 32 29 33
REMARK SMILES IDX 30 34 31 35 92 36 32 37 91 38 33 39 34 40 35 41 85 42 36 43
REMARK SMILES IDX 90 44 84 45 86 46 37 47 89 48 83 49 82 50 38 52 70 53 50 54
REMARK SMILES IDX 69 55 51 56 54 57 68 58 87 59 52 60 53 61 67 63 88 64 55 65
REMARK SMILES IDX 39 66 40 67 48 68 41 69 42 70 46 71 49 72 43 73 44 74 47 75
REMARK SMILES IDX 45 76 71 77 72 78 80 79 73 80 74 81 78 82 81 83 75 84 76 85
REMARK SMILES IDX 79 86 77 87 56 88 57 89 65 90 58 91 59 92 63 93 66 94 60 95
REMARK SMILES IDX 61 96 64 97 62 98
REMARK H PARENT 4 21 86 51 54 62
REMARK Flexibility Score: inf
ROOT
ATOM      1  O   UNL     1       0.182   6.024   1.607  1.00  0.00    -0.376 OA
ENDROOT
BRANCH   1   2
ATOM      2  C   UNL     1       0.934   5.768   2.782  1.00  0.00     0.202 C 
BRANCH   2   3
ATOM      3  C   UNL     1       0.599   4.686   3.830  1.00  0.00     0.261 C 
BRANCH   3   4
ATOM      4  O   UNL     1      -0.051   3.497   3.370  1.00  0.00    -0.460 OA
BRANCH   4   5
ATOM      5  C   UNL     1      -1.367   3.396   3.679  1.00  0.00     0.338 C 
ATOM      6  O   UNL     1      -2.037   4.191   4.315  1.00  0.00    -0.246 OA
BRANCH   5   7
ATOM      7  C   UNL     1      -1.964   2.272   2.927  1.00  0.00     0.063 A 
ATOM      8  C   UNL     1      -3.241   0.178   1.589  1.00  0.00     0.103 A 
ATOM      9  C   UNL     1      -3.760   1.477   1.504  1.00  0.00     0.024 A 
ATOM     10  C   UNL     1      -2.073  -0.049   2.312  1.00  0.00     0.142 A 
ATOM     11  C   UNL     1      -3.135   2.516   2.195  1.00  0.00     0.017 A 
ATOM     12  C   UNL     1      -1.401   0.997   2.944  1.00  0.00     0.056 A 
ATOM     13  F   UNL     1      -1.602  -1.284   2.503  1.00  0.00    -0.206 F 
BRANCH   8  14
ATOM     14  S   UNL     1      -4.272  -1.170   1.083  1.00  0.00     0.192 S 
ATOM     15  O   UNL     1      -5.360  -0.569   0.322  1.00  0.00    -0.223 OA
ATOM     16  O   UNL     1      -4.611  -1.870   2.308  1.00  0.00    -0.223 OA
BRANCH  14  17
ATOM     17  C   UNL     1      -3.462  -2.278  -0.035  1.00  0.00     0.199 C 
ATOM     18  C   UNL     1      -3.132  -1.604  -1.368  1.00  0.00     0.036 C 
BRANCH  17  19
ATOM     19  C   UNL     1      -2.239  -2.921   0.560  1.00  0.00     0.239 C 
ATOM     20  N   UNL     1      -2.337  -3.943   1.454  1.00  0.00    -0.344 N 
ATOM     21  H   UNL     1      -1.478  -4.344   1.720  1.00  0.00     0.164 HD
ATOM     22  O   UNL     1      -1.107  -2.576   0.208  1.00  0.00    -0.274 OA
BRANCH  20  23
ATOM     23  C   UNL     1      -3.505  -4.534   2.077  1.00  0.00     0.206 C 
BRANCH  23  24
ATOM     24  C   UNL     1      -3.417  -5.992   2.002  1.00  0.00    -0.085 C 
ATOM     25  C   UNL     1      -3.370  -7.192   1.932  1.00  0.00     0.006 C 
ENDBRANCH  23  24
ENDBRANCH  20  23
ENDBRANCH  17  19
ENDBRANCH  14  17
ENDBRANCH   8  14
ENDBRANCH   5   7
ENDBRANCH   4   5
ENDBRANCH   3   4
ENDBRANCH   2   3
ENDBRANCH   1   2
BRANCH   1  26
ATOM     26  C   UNL     1      -0.617   5.018   1.025  1.00  0.00     0.188 C 
BRANCH  26  27
ATOM     27  C   UNL     1       0.055   3.748   0.465  1.00  0.00     0.188 C 
BRANCH  27  28
ATOM     28  O   UNL     1       1.395   3.524   0.824  1.00  0.00    -0.376 OA
BRANCH  28  29
ATOM     29  C   UNL     1       2.431   4.219   0.151  1.00  0.00     0.202 C 
BRANCH  29  30
ATOM     30  C   UNL     1       2.255   5.210  -1.024  1.00  0.00     0.261 C 
BRANCH  30  31
ATOM     31  O   UNL     1       0.940   5.668  -1.361  1.00  0.00    -0.460 OA
BRANCH  31  32
ATOM     32  C   UNL     1       0.367   5.091  -2.447  1.00  0.00     0.338 C 
ATOM     33  O   UNL     1       0.830   4.208  -3.146  1.00  0.00    -0.246 OA
BRANCH  32  34
ATOM     34  C   UNL     1      -1.026   5.567  -2.566  1.00  0.00     0.060 A 
ATOM     35  C   UNL     1      -2.078   4.686  -2.272  1.00  0.00     0.016 A 
ATOM     36  C   UNL     1      -1.294   6.862  -3.006  1.00  0.00     0.016 A 
ATOM     37  C   UNL     1      -3.402   5.096  -2.426  1.00  0.00     0.010 A 
ATOM     38  C   UNL     1      -2.622   7.263  -3.187  1.00  0.00     0.010 A 
ATOM     39  C   UNL     1      -3.683   6.376  -2.921  1.00  0.00    -0.014 A 
BRANCH  39  40
ATOM     40  C   UNL     1      -5.070   6.745  -3.299  1.00  0.00     0.031 A 
ATOM     41  C   UNL     1      -5.452   6.734  -4.754  1.00  0.00     0.074 A 
ATOM     42  C   UNL     1      -5.981   7.079  -2.367  1.00  0.00     0.049 A 
ATOM     43  N   UNL     1      -6.569   7.109  -5.323  1.00  0.00    -0.248 NA
ATOM     44  C   UNL     1      -4.436   6.235  -5.696  1.00  0.00     0.031 C 
ATOM     45  C   UNL     1      -5.751   7.077  -0.925  1.00  0.00     0.029 A 
ATOM     46  N   UNL     1      -7.283   7.499  -2.501  1.00  0.00    -0.354 N 
ATOM     47  C   UNL     1      -6.387   6.901  -6.684  1.00  0.00     0.074 A 
ATOM     48  C   UNL     1      -5.043   6.396  -6.862  1.00  0.00     0.031 C 
ATOM     49  C   UNL     1      -6.871   7.487  -0.305  1.00  0.00     0.029 A 
ATOM     50  C   UNL     1      -7.881   7.824  -1.307  1.00  0.00     0.049 A 
ATOM     51  H   UNL     1      -7.743   7.561  -3.369  1.00  0.00     0.167 HD
ATOM     52  C   UNL     1      -7.268   7.104  -7.691  1.00  0.00     0.037 A 
ATOM     53  C   UNL     1      -9.093   8.361  -1.056  1.00  0.00     0.037 A 
ATOM     54  C   UNL     1      -8.607   7.600  -7.507  1.00  0.00     0.049 A 
ATOM     55  C   UNL     1     -10.023   8.664  -2.205  1.00  0.00     0.074 A 
ATOM     56  C   UNL     1      -9.578   7.823  -8.468  1.00  0.00     0.029 A 
ATOM     57  N   UNL     1      -9.162   7.954  -6.287  1.00  0.00    -0.354 N 
ATOM     58  N   UNL     1      -9.850   8.453  -3.487  1.00  0.00    -0.248 NA
ATOM     59  C   UNL     1     -11.316   9.282  -1.873  1.00  0.00     0.031 C 
ATOM     60  C   UNL     1     -10.694   8.378  -7.840  1.00  0.00     0.029 A 
ATOM     61  C   UNL     1     -10.451   8.426  -6.477  1.00  0.00     0.049 A 
ATOM     62  H   UNL     1      -8.709   7.882  -5.416  1.00  0.00     0.167 HD
ATOM     63  C   UNL     1     -11.019   8.878  -4.108  1.00  0.00     0.074 A 
ATOM     64  C   UNL     1     -11.900   9.348  -3.062  1.00  0.00     0.031 C 
ATOM     65  C   UNL     1     -11.331   8.877  -5.427  1.00  0.00     0.037 A 
BRANCH  52  66
ATOM     66  C   UNL     1      -6.827   6.803  -9.094  1.00  0.00     0.064 A 
ATOM     67  C   UNL     1      -6.690   7.840 -10.030  1.00  0.00     0.173 A 
ATOM     68  C   UNL     1      -6.649   5.487  -9.542  1.00  0.00     0.173 A 
ATOM     69  F   UNL     1      -6.856   9.117  -9.655  1.00  0.00    -0.203 F 
ATOM     70  C   UNL     1      -6.423   7.567 -11.369  1.00  0.00     0.198 A 
ATOM     71  C   UNL     1      -6.349   5.219 -10.875  1.00  0.00     0.198 A 
ATOM     72  F   UNL     1      -6.756   4.460  -8.684  1.00  0.00    -0.203 F 
ATOM     73  F   UNL     1      -6.350   8.570 -12.254  1.00  0.00    -0.200 F 
ATOM     74  C   UNL     1      -6.252   6.257 -11.790  1.00  0.00     0.200 A 
ATOM     75  F   UNL     1      -6.161   3.954 -11.277  1.00  0.00    -0.200 F 
ATOM     76  F   UNL     1      -5.997   5.995 -13.079  1.00  0.00    -0.200 F 
ENDBRANCH  52  66
BRANCH  53  77
ATOM     77  C   UNL     1      -9.498   8.652   0.347  1.00  0.00     0.064 A 
ATOM     78  C   UNL     1      -8.843   9.632   1.109  1.00  0.00     0.173 A 
ATOM     79  C   UNL     1     -10.552   7.955   0.955  1.00  0.00     0.173 A 
ATOM     80  F   UNL     1      -7.832  10.334   0.576  1.00  0.00    -0.203 F 
ATOM     81  C   UNL     1      -9.210   9.885   2.430  1.00  0.00     0.198 A 
ATOM     82  C   UNL     1     -10.942   8.234   2.264  1.00  0.00     0.198 A 
ATOM     83  F   UNL     1     -11.231   7.030   0.260  1.00  0.00    -0.203 F 
ATOM     84  F   UNL     1      -8.543  10.801   3.145  1.00  0.00    -0.200 F 
ATOM     85  C   UNL     1     -10.264   9.191   3.004  1.00  0.00     0.200 A 
ATOM     86  F   UNL     1     -11.983   7.585   2.802  1.00  0.00    -0.200 F 
ATOM     87  F   UNL     1     -10.631   9.449   4.266  1.00  0.00    -0.200 F 
ENDBRANCH  53  77
BRANCH  65  88
ATOM     88  C   UNL     1     -12.694   9.363  -5.836  1.00  0.00     0.064 A 
ATOM     89  C   UNL     1     -13.621   8.473  -6.403  1.00  0.00     0.173 A 
ATOM     90  C   UNL     1     -13.046  10.718  -5.767  1.00  0.00     0.173 A 
ATOM     91  F   UNL     1     -13.331   7.167  -6.506  1.00  0.00    -0.203 F 
ATOM     92  C   UNL     1     -14.837   8.926  -6.907  1.00  0.00     0.198 A 
ATOM     93  C   UNL     1     -14.279  11.162  -6.239  1.00  0.00     0.198 A 
ATOM     94  F   UNL     1     -12.202  11.609  -5.226  1.00  0.00    -0.203 F 
ATOM     95  F   UNL     1     -15.682   8.065  -7.492  1.00  0.00    -0.200 F 
ATOM     96  C   UNL     1     -15.167  10.270  -6.821  1.00  0.00     0.200 A 
ATOM     97  F   UNL     1     -14.608  12.457  -6.132  1.00  0.00    -0.200 F 
ATOM     98  F   UNL     1     -16.340  10.705  -7.301  1.00  0.00    -0.200 F 
ENDBRANCH  65  88
ENDBRANCH  39  40
ENDBRANCH  32  34
ENDBRANCH  31  32
ENDBRANCH  30  31
ENDBRANCH  29  30
ENDBRANCH  28  29
ENDBRANCH  27  28
ENDBRANCH  26  27
ENDBRANCH   1  26
TORSDOF 22
