REMARK SMILES CC(=O)N[C@@H](Cc1c(OCC(C)C)ccc2ccccc12)C(=O)OCCOCCOCCOC(=O)c1ccc(-c2c3nc(c(-c4c(F)c(F)c(F)c(F)c4F)c4ccc([nH]4)c(-c4c(F)c(F)c(F)c(F)c4F)c4nc(c(-c5c(F)c(F)c(F)c(F)c5F)c5ccc2[nH]5)C=C4)C=C3)cc1
REMARK SMILES IDX 27 1 26 2 25 3 24 4 22 5 23 6 5 7 4 8 1 9 2 10 3 11 6 13
REMARK SMILES IDX 7 14 8 15 21 16 14 17 16 18 20 19 15 20 17 21 19 22 18 23
REMARK SMILES IDX 9 24 10 25 11 26 12 27 13 28 28 29 29 30 30 31 31 32 32 33
REMARK SMILES IDX 33 34 34 35 35 36 36 37 37 38 98 39 38 40 97 41 39 42 40 43
REMARK SMILES IDX 41 44 91 45 42 46 96 47 90 48 92 49 43 50 95 51 89 52 88 53
REMARK SMILES IDX 44 55 76 56 56 57 75 58 57 59 60 60 74 61 93 62 58 63 59 64
REMARK SMILES IDX 73 66 94 67 61 68 45 69 46 70 54 71 47 72 48 73 52 74 55 75
REMARK SMILES IDX 49 76 50 77 53 78 51 79 77 80 78 81 86 82 79 83 80 84 84 85
REMARK SMILES IDX 87 86 81 87 82 88 85 89 83 90 62 91 63 92 71 93 64 94 65 95
REMARK SMILES IDX 69 96 72 97 66 98 67 99 70 100 68 101
REMARK H PARENT 4 12 92 54 60 65
REMARK Flexibility Score: inf
ROOT
ATOM      1  O   UNL     1      -1.670   1.261  -4.812  1.00  0.00    -0.376 OA
ENDROOT
BRANCH   1   2
ATOM      2  C   UNL     1      -1.451   0.342  -5.867  1.00  0.00     0.202 C 
BRANCH   2   3
ATOM      3  C   UNL     1      -0.065  -0.307  -5.982  1.00  0.00     0.261 C 
BRANCH   3   4
ATOM      4  O   UNL     1       0.495  -0.932  -4.795  1.00  0.00    -0.462 OA
BRANCH   4   5
ATOM      5  C   UNL     1       1.738  -0.524  -4.405  1.00  0.00     0.329 C 
ATOM      6  O   UNL     1       2.397   0.321  -5.007  1.00  0.00    -0.250 OA
BRANCH   5   7
ATOM      7  C   UNL     1       2.299  -1.223  -3.133  1.00  0.00     0.196 C 
BRANCH   7   8
ATOM      8  N   UNL     1       1.392  -1.957  -2.232  1.00  0.00    -0.343 N 
ATOM      9  C   UNL     1       1.538  -0.439  -0.279  1.00  0.00     0.114 C 
ATOM     10  C   UNL     1       1.032  -1.690  -0.942  1.00  0.00     0.217 C 
ATOM     11  O   UNL     1       0.267  -2.452  -0.352  1.00  0.00    -0.275 OA
ATOM     12  H   UNL     1       0.982  -2.764  -2.621  1.00  0.00     0.164 HD
ENDBRANCH   7   8
BRANCH   7  13
ATOM     13  C   UNL     1       3.517  -2.104  -3.514  1.00  0.00     0.077 C 
BRANCH  13  14
ATOM     14  C   UNL     1       3.151  -3.523  -3.954  1.00  0.00     0.005 A 
ATOM     15  C   UNL     1       2.509  -3.698  -5.200  1.00  0.00     0.123 A 
ATOM     16  C   UNL     1       3.408  -4.669  -3.134  1.00  0.00    -0.011 A 
ATOM     17  C   UNL     1       1.898  -4.908  -5.502  1.00  0.00     0.047 A 
ATOM     18  C   UNL     1       2.938  -5.932  -3.576  1.00  0.00    -0.018 A 
ATOM     19  C   UNL     1       4.142  -4.660  -1.921  1.00  0.00     0.009 A 
ATOM     20  C   UNL     1       2.125  -6.021  -4.705  1.00  0.00     0.012 A 
ATOM     21  C   UNL     1       3.290  -7.110  -2.901  1.00  0.00     0.009 A 
ATOM     22  C   UNL     1       4.487  -5.842  -1.256  1.00  0.00     0.001 A 
ATOM     23  C   UNL     1       4.085  -7.069  -1.762  1.00  0.00     0.001 A 
BRANCH  15  24
ATOM     24  O   UNL     1       2.646  -2.675  -6.100  1.00  0.00    -0.493 OA
BRANCH  24  25
ATOM     25  C   UNL     1       1.798  -2.619  -7.241  1.00  0.00     0.232 C 
BRANCH  25  26
ATOM     26  C   UNL     1       2.403  -3.086  -8.569  1.00  0.00     0.020 C 
ATOM     27  C   UNL     1       2.836  -4.545  -8.587  1.00  0.00     0.011 C 
ATOM     28  C   UNL     1       1.371  -2.834  -9.675  1.00  0.00     0.011 C 
ENDBRANCH  25  26
ENDBRANCH  24  25
ENDBRANCH  15  24
ENDBRANCH  13  14
ENDBRANCH   7  13
ENDBRANCH   5   7
ENDBRANCH   4   5
ENDBRANCH   3   4
ENDBRANCH   2   3
ENDBRANCH   1   2
BRANCH   1  29
ATOM     29  C   UNL     1      -1.209   0.869  -3.528  1.00  0.00     0.188 C 
BRANCH  29  30
ATOM     30  C   UNL     1      -1.599  -0.528  -2.995  1.00  0.00     0.188 C 
BRANCH  30  31
ATOM     31  O   UNL     1      -2.175  -1.401  -3.950  1.00  0.00    -0.376 OA
BRANCH  31  32
ATOM     32  C   UNL     1      -3.500  -1.825  -3.664  1.00  0.00     0.202 C 
BRANCH  32  33
ATOM     33  C   UNL     1      -4.582  -0.729  -3.656  1.00  0.00     0.261 C 
BRANCH  33  34
ATOM     34  O   UNL     1      -4.229   0.498  -2.988  1.00  0.00    -0.460 OA
BRANCH  34  35
ATOM     35  C   UNL     1      -4.291   0.512  -1.637  1.00  0.00     0.338 C 
ATOM     36  O   UNL     1      -4.689  -0.388  -0.916  1.00  0.00    -0.246 OA
BRANCH  35  37
ATOM     37  C   UNL     1      -3.550   1.703  -1.149  1.00  0.00     0.060 A 
ATOM     38  C   UNL     1      -2.462   1.506  -0.282  1.00  0.00     0.016 A 
ATOM     39  C   UNL     1      -3.872   2.993  -1.582  1.00  0.00     0.016 A 
ATOM     40  C   UNL     1      -1.722   2.595   0.183  1.00  0.00     0.010 A 
ATOM     41  C   UNL     1      -3.157   4.090  -1.081  1.00  0.00     0.010 A 
ATOM     42  C   UNL     1      -2.108   3.897  -0.161  1.00  0.00    -0.014 A 
BRANCH  42  43
ATOM     43  C   UNL     1      -1.639   5.021   0.691  1.00  0.00     0.031 A 
ATOM     44  C   UNL     1      -2.502   5.392   1.870  1.00  0.00     0.074 A 
ATOM     45  C   UNL     1      -0.471   5.656   0.488  1.00  0.00     0.049 A 
ATOM     46  N   UNL     1      -2.330   6.316   2.780  1.00  0.00    -0.248 NA
ATOM     47  C   UNL     1      -3.732   4.601   2.044  1.00  0.00     0.031 C 
ATOM     48  C   UNL     1       0.481   5.367  -0.580  1.00  0.00     0.029 A 
ATOM     49  N   UNL     1       0.111   6.684   1.190  1.00  0.00    -0.354 N 
ATOM     50  C   UNL     1      -3.427   6.216   3.627  1.00  0.00     0.074 A 
ATOM     51  C   UNL     1      -4.277   5.171   3.105  1.00  0.00     0.031 C 
ATOM     52  C   UNL     1       1.528   6.205  -0.468  1.00  0.00     0.029 A 
ATOM     53  C   UNL     1       1.308   7.106   0.665  1.00  0.00     0.049 A 
ATOM     54  H   UNL     1      -0.292   7.082   1.996  1.00  0.00     0.167 HD
ATOM     55  C   UNL     1      -3.701   6.923   4.748  1.00  0.00     0.037 A 
ATOM     56  C   UNL     1       2.120   8.112   1.050  1.00  0.00     0.037 A 
ATOM     57  C   UNL     1      -2.864   7.971   5.267  1.00  0.00     0.049 A 
ATOM     58  C   UNL     1       1.755   8.938   2.262  1.00  0.00     0.074 A 
ATOM     59  C   UNL     1      -3.055   8.749   6.394  1.00  0.00     0.029 A 
ATOM     60  N   UNL     1      -1.680   8.394   4.682  1.00  0.00    -0.354 N 
ATOM     61  N   UNL     1       0.727   8.827   3.068  1.00  0.00    -0.248 NA
ATOM     62  C   UNL     1       2.677  10.026   2.621  1.00  0.00     0.031 C 
ATOM     63  C   UNL     1      -2.015   9.683   6.460  1.00  0.00     0.029 A 
ATOM     64  C   UNL     1      -1.139   9.439   5.414  1.00  0.00     0.049 A 
ATOM     65  H   UNL     1      -1.282   8.009   3.868  1.00  0.00     0.167 HD
ATOM     66  C   UNL     1       0.897   9.800   4.047  1.00  0.00     0.074 A 
ATOM     67  C   UNL     1       2.137  10.482   3.742  1.00  0.00     0.031 C 
ATOM     68  C   UNL     1       0.101  10.103   5.104  1.00  0.00     0.037 A 
BRANCH  55  69
ATOM     69  C   UNL     1      -4.982   6.604   5.463  1.00  0.00     0.064 A 
ATOM     70  C   UNL     1      -5.170   5.389   6.142  1.00  0.00     0.173 A 
ATOM     71  C   UNL     1      -6.037   7.528   5.469  1.00  0.00     0.173 A 
ATOM     72  F   UNL     1      -4.201   4.461   6.148  1.00  0.00    -0.203 F 
ATOM     73  C   UNL     1      -6.378   5.100   6.772  1.00  0.00     0.198 A 
ATOM     74  C   UNL     1      -7.231   7.250   6.130  1.00  0.00     0.198 A 
ATOM     75  F   UNL     1      -5.912   8.702   4.834  1.00  0.00    -0.203 F 
ATOM     76  F   UNL     1      -6.557   3.910   7.362  1.00  0.00    -0.200 F 
ATOM     77  C   UNL     1      -7.404   6.034   6.772  1.00  0.00     0.200 A 
ATOM     78  F   UNL     1      -8.216   8.158   6.138  1.00  0.00    -0.200 F 
ATOM     79  F   UNL     1      -8.564   5.756   7.383  1.00  0.00    -0.200 F 
ENDBRANCH  55  69
BRANCH  56  80
ATOM     80  C   UNL     1       3.361   8.412   0.283  1.00  0.00     0.064 A 
ATOM     81  C   UNL     1       4.630   8.236   0.854  1.00  0.00     0.173 A 
ATOM     82  C   UNL     1       3.302   8.930  -1.019  1.00  0.00     0.173 A 
ATOM     83  F   UNL     1       4.742   7.775   2.108  1.00  0.00    -0.203 F 
ATOM     84  C   UNL     1       5.788   8.588   0.162  1.00  0.00     0.198 A 
ATOM     85  C   UNL     1       4.462   9.252  -1.722  1.00  0.00     0.198 A 
ATOM     86  F   UNL     1       2.114   9.129  -1.610  1.00  0.00    -0.203 F 
ATOM     87  F   UNL     1       6.984   8.466   0.755  1.00  0.00    -0.200 F 
ATOM     88  C   UNL     1       5.703   9.090  -1.127  1.00  0.00     0.200 A 
ATOM     89  F   UNL     1       4.375   9.729  -2.971  1.00  0.00    -0.200 F 
ATOM     90  F   UNL     1       6.816   9.430  -1.791  1.00  0.00    -0.200 F 
ENDBRANCH  56  80
BRANCH  68  91
ATOM     91  C   UNL     1       0.575  11.181   6.041  1.00  0.00     0.064 A 
ATOM     92  C   UNL     1       0.643  12.528   5.654  1.00  0.00     0.173 A 
ATOM     93  C   UNL     1       0.952  10.860   7.355  1.00  0.00     0.173 A 
ATOM     94  F   UNL     1       0.301  12.892   4.409  1.00  0.00    -0.203 F 
ATOM     95  C   UNL     1       1.117  13.503   6.530  1.00  0.00     0.198 A 
ATOM     96  C   UNL     1       1.387  11.843   8.240  1.00  0.00     0.198 A 
ATOM     97  F   UNL     1       0.893   9.591   7.785  1.00  0.00    -0.203 F 
ATOM     98  F   UNL     1       1.240  14.771   6.113  1.00  0.00    -0.200 F 
ATOM     99  C   UNL     1       1.484  13.161   7.822  1.00  0.00     0.200 A 
ATOM    100  F   UNL     1       1.722  11.512   9.495  1.00  0.00    -0.200 F 
ATOM    101  F   UNL     1       1.940  14.100   8.662  1.00  0.00    -0.200 F 
ENDBRANCH  68  91
ENDBRANCH  42  43
ENDBRANCH  35  37
ENDBRANCH  34  35
ENDBRANCH  33  34
ENDBRANCH  32  33
ENDBRANCH  31  32
ENDBRANCH  30  31
ENDBRANCH  29  30
ENDBRANCH   1  29
TORSDOF 23
