REMARK SMILES CC[C@@](O)(C(=O)OCCOCCOCCOC(=O)c1ccc(-c2c3nc(c(-c4c(F)c(F)c(F)c(F)c4F)c4ccc([nH]4)c(-c4c(F)c(F)c(F)c(F)c4F)c4nc(c(-c5c(F)c(F)c(F)c(F)c5F)c5ccc2[nH]5)C=C4)C=C3)cc1)[C@H](C)c1cc(F)c(C)cc1F
REMARK SMILES IDX 11 1 10 2 9 3 8 4 7 5 5 6 6 7 3 8 2 9 1 10 4 11 82 13 83 14
REMARK SMILES IDX 84 15 85 16 91 17 86 18 90 19 92 20 87 21 88 22 89 23 12 24
REMARK SMILES IDX 13 25 14 26 15 27 16 28 17 29 18 30 19 31 20 32 81 33 21 34
REMARK SMILES IDX 80 35 22 36 23 37 24 38 74 39 25 40 79 41 73 42 75 43 26 44
REMARK SMILES IDX 78 45 72 46 71 47 27 49 59 50 39 51 58 52 40 53 43 54 57 55
REMARK SMILES IDX 76 56 41 57 42 58 56 60 77 61 44 62 28 63 29 64 37 65 30 66
REMARK SMILES IDX 31 67 35 68 38 69 32 70 33 71 36 72 34 73 60 74 61 75 69 76
REMARK SMILES IDX 62 77 63 78 67 79 70 80 64 81 65 82 68 83 66 84 45 85 46 86
REMARK SMILES IDX 54 87 47 88 48 89 52 90 55 91 49 92 50 93 53 94 51 95
REMARK H PARENT 4 12 75 48 43 59
REMARK Flexibility Score: inf
ROOT
ATOM      1  C   UNL     1      -0.106   0.581   2.511  1.00  0.00     0.188 C 
ENDROOT
BRANCH   1   2
ATOM      2  O   UNL     1      -0.007  -0.554   3.353  1.00  0.00    -0.376 OA
BRANCH   2   3
ATOM      3  C   UNL     1       1.130  -0.656   4.207  1.00  0.00     0.202 C 
BRANCH   3   4
ATOM      4  C   UNL     1       2.535  -0.372   3.635  1.00  0.00     0.261 C 
BRANCH   4   5
ATOM      5  O   UNL     1       2.693   0.926   3.012  1.00  0.00    -0.461 OA
BRANCH   5   6
ATOM      6  C   UNL     1       3.676   1.031   2.074  1.00  0.00     0.338 C 
ATOM      7  O   UNL     1       4.410   0.093   1.770  1.00  0.00    -0.249 OA
BRANCH   6   8
ATOM      8  C   UNL     1       3.772   2.433   1.376  1.00  0.00     0.168 C 
BRANCH   8   9
ATOM      9  C   UNL     1       3.401   3.624   2.296  1.00  0.00     0.044 C 
ATOM     10  C   UNL     1       3.853   4.990   1.774  1.00  0.00     0.007 C 
ENDBRANCH   8   9
BRANCH   8  11
ATOM     11  O   UNL     1       5.199   2.630   1.147  1.00  0.00    -0.378 OA
ATOM     12  H   UNL     1       5.668   2.611   1.996  1.00  0.00     0.212 HD
ENDBRANCH   8  11
BRANCH   8  13
ATOM     13  C   UNL     1       3.079   2.476  -0.045  1.00  0.00     0.062 C 
ATOM     14  C   UNL     1       1.598   2.877  -0.095  1.00  0.00     0.016 C 
BRANCH  13  15
ATOM     15  C   UNL     1       3.318   1.225  -0.895  1.00  0.00    -0.003 A 
ATOM     16  C   UNL     1       2.506   0.083  -0.819  1.00  0.00     0.046 A 
ATOM     17  C   UNL     1       4.413   1.180  -1.767  1.00  0.00     0.127 A 
ATOM     18  C   UNL     1       2.811  -1.056  -1.566  1.00  0.00     0.126 A 
ATOM     19  C   UNL     1       4.713   0.047  -2.522  1.00  0.00     0.046 A 
ATOM     20  F   UNL     1       5.228   2.240  -1.861  1.00  0.00    -0.207 F 
ATOM     21  F   UNL     1       2.026  -2.135  -1.442  1.00  0.00    -0.207 F 
ATOM     22  C   UNL     1       3.912  -1.093  -2.421  1.00  0.00    -0.012 A 
ATOM     23  C   UNL     1       4.252  -2.352  -3.157  1.00  0.00     0.047 C 
ENDBRANCH  13  15
ENDBRANCH   8  13
ENDBRANCH   6   8
ENDBRANCH   5   6
ENDBRANCH   4   5
ENDBRANCH   3   4
ENDBRANCH   2   3
ENDBRANCH   1   2
BRANCH   1  24
ATOM     24  C   UNL     1       0.110   1.971   3.119  1.00  0.00     0.188 C 
BRANCH  24  25
ATOM     25  O   UNL     1       0.340   2.044   4.498  1.00  0.00    -0.376 OA
BRANCH  25  26
ATOM     26  C   UNL     1      -0.733   2.209   5.405  1.00  0.00     0.202 C 
BRANCH  26  27
ATOM     27  C   UNL     1      -2.227   2.068   5.050  1.00  0.00     0.261 C 
BRANCH  27  28
ATOM     28  O   UNL     1      -2.615   2.139   3.674  1.00  0.00    -0.460 OA
BRANCH  28  29
ATOM     29  C   UNL     1      -2.801   3.374   3.151  1.00  0.00     0.338 C 
ATOM     30  O   UNL     1      -2.675   4.444   3.723  1.00  0.00    -0.246 OA
BRANCH  29  31
ATOM     31  C   UNL     1      -2.948   3.220   1.684  1.00  0.00     0.060 A 
ATOM     32  C   UNL     1      -2.021   3.854   0.844  1.00  0.00     0.016 A 
ATOM     33  C   UNL     1      -3.969   2.437   1.141  1.00  0.00     0.016 A 
ATOM     34  C   UNL     1      -2.122   3.722  -0.543  1.00  0.00     0.010 A 
ATOM     35  C   UNL     1      -4.088   2.332  -0.250  1.00  0.00     0.010 A 
ATOM     36  C   UNL     1      -3.181   2.993  -1.099  1.00  0.00    -0.014 A 
BRANCH  36  37
ATOM     37  C   UNL     1      -3.467   3.092  -2.553  1.00  0.00     0.031 A 
ATOM     38  C   UNL     1      -4.467   4.118  -3.010  1.00  0.00     0.074 A 
ATOM     39  C   UNL     1      -2.857   2.304  -3.455  1.00  0.00     0.049 A 
ATOM     40  N   UNL     1      -4.948   4.341  -4.206  1.00  0.00    -0.248 NA
ATOM     41  C   UNL     1      -4.994   5.017  -1.971  1.00  0.00     0.031 C 
ATOM     42  C   UNL     1      -1.824   1.315  -3.160  1.00  0.00     0.029 A 
ATOM     43  N   UNL     1      -3.037   2.209  -4.815  1.00  0.00    -0.354 N 
ATOM     44  C   UNL     1      -5.840   5.395  -4.062  1.00  0.00     0.074 A 
ATOM     45  C   UNL     1      -5.850   5.755  -2.660  1.00  0.00     0.031 C 
ATOM     46  C   UNL     1      -1.473   0.699  -4.303  1.00  0.00     0.029 A 
ATOM     47  C   UNL     1      -2.285   1.222  -5.403  1.00  0.00     0.049 A 
ATOM     48  H   UNL     1      -3.647   2.794  -5.319  1.00  0.00     0.167 HD
ATOM     49  C   UNL     1      -6.585   6.010  -5.011  1.00  0.00     0.037 A 
ATOM     50  C   UNL     1      -2.281   0.773  -6.675  1.00  0.00     0.037 A 
ATOM     51  C   UNL     1      -6.585   5.650  -6.404  1.00  0.00     0.049 A 
ATOM     52  C   UNL     1      -3.199   1.406  -7.694  1.00  0.00     0.074 A 
ATOM     53  C   UNL     1      -7.299   6.224  -7.442  1.00  0.00     0.029 A 
ATOM     54  N   UNL     1      -5.846   4.613  -6.952  1.00  0.00    -0.354 N 
ATOM     55  N   UNL     1      -4.027   2.413  -7.558  1.00  0.00    -0.248 NA
ATOM     56  C   UNL     1      -3.181   0.832  -9.050  1.00  0.00     0.031 C 
ATOM     57  C   UNL     1      -7.041   5.493  -8.606  1.00  0.00     0.029 A 
ATOM     58  C   UNL     1      -6.113   4.508  -8.308  1.00  0.00     0.049 A 
ATOM     59  H   UNL     1      -5.224   4.037  -6.452  1.00  0.00     0.167 HD
ATOM     60  C   UNL     1      -4.596   2.617  -8.810  1.00  0.00     0.074 A 
ATOM     61  C   UNL     1      -4.013   1.635  -9.698  1.00  0.00     0.031 C 
ATOM     62  C   UNL     1      -5.516   3.538  -9.191  1.00  0.00     0.037 A 
BRANCH  49  63
ATOM     63  C   UNL     1      -7.500   7.112  -4.563  1.00  0.00     0.064 A 
ATOM     64  C   UNL     1      -7.011   8.354  -4.134  1.00  0.00     0.173 A 
ATOM     65  C   UNL     1      -8.891   6.926  -4.588  1.00  0.00     0.173 A 
ATOM     66  F   UNL     1      -5.689   8.576  -4.075  1.00  0.00    -0.203 F 
ATOM     67  C   UNL     1      -7.880   9.361  -3.721  1.00  0.00     0.198 A 
ATOM     68  C   UNL     1      -9.757   7.946  -4.206  1.00  0.00     0.198 A 
ATOM     69  F   UNL     1      -9.411   5.757  -4.992  1.00  0.00    -0.203 F 
ATOM     70  F   UNL     1      -7.389  10.522  -3.265  1.00  0.00    -0.200 F 
ATOM     71  C   UNL     1      -9.252   9.159  -3.765  1.00  0.00     0.200 A 
ATOM     72  F   UNL     1     -11.082   7.753  -4.261  1.00  0.00    -0.200 F 
ATOM     73  F   UNL     1     -10.086  10.131  -3.373  1.00  0.00    -0.200 F 
ENDBRANCH  49  63
BRANCH  50  74
ATOM     74  C   UNL     1      -1.395  -0.356  -7.068  1.00  0.00     0.064 A 
ATOM     75  C   UNL     1      -0.343  -0.168  -7.976  1.00  0.00     0.173 A 
ATOM     76  C   UNL     1      -1.614  -1.656  -6.587  1.00  0.00     0.173 A 
ATOM     77  F   UNL     1      -0.114   1.049  -8.492  1.00  0.00    -0.203 F 
ATOM     78  C   UNL     1       0.440  -1.238  -8.405  1.00  0.00     0.198 A 
ATOM     79  C   UNL     1      -0.810  -2.720  -6.992  1.00  0.00     0.198 A 
ATOM     80  F   UNL     1      -2.614  -1.894  -5.726  1.00  0.00    -0.203 F 
ATOM     81  F   UNL     1       1.400  -1.040  -9.318  1.00  0.00    -0.200 F 
ATOM     82  C   UNL     1       0.210  -2.512  -7.908  1.00  0.00     0.200 A 
ATOM     83  F   UNL     1      -1.032  -3.948  -6.504  1.00  0.00    -0.200 F 
ATOM     84  F   UNL     1       0.961  -3.541  -8.322  1.00  0.00    -0.200 F 
ENDBRANCH  50  74
BRANCH  62  85
ATOM     85  C   UNL     1      -5.917   3.572 -10.640  1.00  0.00     0.064 A 
ATOM     86  C   UNL     1      -6.692   2.558 -11.222  1.00  0.00     0.173 A 
ATOM     87  C   UNL     1      -5.561   4.666 -11.446  1.00  0.00     0.173 A 
ATOM     88  F   UNL     1      -7.051   1.485 -10.501  1.00  0.00    -0.203 F 
ATOM     89  C   UNL     1      -7.074   2.625 -12.560  1.00  0.00     0.198 A 
ATOM     90  C   UNL     1      -5.973   4.746 -12.774  1.00  0.00     0.198 A 
ATOM     91  F   UNL     1      -4.829   5.670 -10.940  1.00  0.00    -0.203 F 
ATOM     92  F   UNL     1      -7.773   1.621 -13.106  1.00  0.00    -0.200 F 
ATOM     93  C   UNL     1      -6.722   3.722 -13.332  1.00  0.00     0.200 A 
ATOM     94  F   UNL     1      -5.647   5.817 -13.512  1.00  0.00    -0.200 F 
ATOM     95  F   UNL     1      -7.099   3.790 -14.616  1.00  0.00    -0.200 F 
ENDBRANCH  62  85
ENDBRANCH  36  37
ENDBRANCH  29  31
ENDBRANCH  28  29
ENDBRANCH  27  28
ENDBRANCH  26  27
ENDBRANCH  25  26
ENDBRANCH  24  25
ENDBRANCH   1  24
TORSDOF 21
