REMARK SMILES COc1cc(/C=C/C(=O)OCCOCCOCCOC(=O)c2ccc(-c3c4nc(c(-c5c(F)c(F)c(F)c(F)c5F)c5ccc([nH]5)c(-c5c(F)c(F)c(F)c(F)c5F)c5nc(c(-c6c(F)c(F)c(F)c(F)c6F)c6ccc3[nH]6)C=C5)C=C4)cc2)cc(OC)c1O
REMARK SMILES IDX 14 1 13 2 12 3 11 4 10 5 8 6 9 7 7 8 6 9 5 10 3 11 4 12
REMARK SMILES IDX 89 13 86 14 85 15 2 16 1 17 90 18 87 20 88 21 15 22 16 23
REMARK SMILES IDX 17 24 18 25 19 26 20 27 21 28 22 29 23 30 84 31 24 32 83 33
REMARK SMILES IDX 25 34 26 35 27 36 77 37 28 38 82 39 76 40 78 41 29 42 81 43
REMARK SMILES IDX 75 44 74 45 30 47 62 48 42 49 61 50 43 51 46 52 60 53 79 54
REMARK SMILES IDX 44 55 45 56 59 58 80 59 47 60 31 61 32 62 40 63 33 64 34 65
REMARK SMILES IDX 38 66 41 67 35 68 36 69 39 70 37 71 63 72 64 73 72 74 65 75
REMARK SMILES IDX 66 76 70 77 73 78 67 79 68 80 71 81 69 82 48 83 49 84 57 85
REMARK SMILES IDX 50 86 51 87 55 88 58 89 52 90 53 91 56 92 54 93
REMARK H PARENT 90 19 78 46 46 57
REMARK Flexibility Score: inf
ROOT
ATOM      1  C   UNL     1      -0.790  -8.074   3.214  1.00  0.00     0.188 C 
ENDROOT
BRANCH   1   2
ATOM      2  O   UNL     1      -1.486  -9.311   3.111  1.00  0.00    -0.376 OA
BRANCH   2   3
ATOM      3  C   UNL     1      -1.053 -10.289   2.175  1.00  0.00     0.202 C 
BRANCH   3   4
ATOM      4  C   UNL     1      -0.998  -9.912   0.689  1.00  0.00     0.261 C 
BRANCH   4   5
ATOM      5  O   UNL     1      -0.335  -8.667   0.405  1.00  0.00    -0.460 OA
BRANCH   5   6
ATOM      6  C   UNL     1      -1.124  -7.700  -0.122  1.00  0.00     0.330 C 
ATOM      7  O   UNL     1      -2.312  -7.801  -0.395  1.00  0.00    -0.247 OA
BRANCH   6   8
ATOM      8  C   UNL     1      -0.433  -6.400  -0.254  1.00  0.00     0.094 C 
ATOM      9  C   UNL     1       0.890  -6.172  -0.206  1.00  0.00     0.016 C 
BRANCH   9  10
ATOM     10  C   UNL     1       1.458  -4.820  -0.360  1.00  0.00    -0.018 A 
ATOM     11  C   UNL     1       1.318  -2.389  -0.091  1.00  0.00     0.165 A 
ATOM     12  C   UNL     1       0.815  -3.680   0.134  1.00  0.00     0.058 A 
ATOM     13  C   UNL     1       2.509  -2.240  -0.817  1.00  0.00     0.200 A 
ATOM     14  C   UNL     1       3.213  -3.373  -1.259  1.00  0.00     0.165 A 
ATOM     15  C   UNL     1       2.680  -4.651  -1.016  1.00  0.00     0.058 A 
BRANCH  11  16
ATOM     16  O   UNL     1       0.503  -1.419   0.428  1.00  0.00    -0.493 OA
ATOM     17  C   UNL     1       0.952  -0.073   0.477  1.00  0.00     0.278 C 
ENDBRANCH  11  16
BRANCH  13  18
ATOM     18  O   UNL     1       2.956  -0.993  -1.149  1.00  0.00    -0.502 OA
ATOM     19  H   UNL     1       2.490  -0.234  -0.857  1.00  0.00     0.293 HD
ENDBRANCH  13  18
BRANCH  14  20
ATOM     20  O   UNL     1       4.386  -3.424  -1.966  1.00  0.00    -0.493 OA
ATOM     21  C   UNL     1       5.015  -2.210  -2.348  1.00  0.00     0.278 C 
ENDBRANCH  14  20
ENDBRANCH   9  10
ENDBRANCH   6   8
ENDBRANCH   5   6
ENDBRANCH   4   5
ENDBRANCH   3   4
ENDBRANCH   2   3
ENDBRANCH   1   2
BRANCH   1  22
ATOM     22  C   UNL     1       0.750  -8.029   3.125  1.00  0.00     0.188 C 
BRANCH  22  23
ATOM     23  O   UNL     1       1.369  -9.300   3.068  1.00  0.00    -0.376 OA
BRANCH  23  24
ATOM     24  C   UNL     1       2.162  -9.670   4.186  1.00  0.00     0.202 C 
BRANCH  24  25
ATOM     25  C   UNL     1       1.418  -9.886   5.512  1.00  0.00     0.261 C 
BRANCH  25  26
ATOM     26  O   UNL     1       0.557  -8.813   5.929  1.00  0.00    -0.460 OA
BRANCH  26  27
ATOM     27  C   UNL     1       1.144  -7.714   6.444  1.00  0.00     0.338 C 
ATOM     28  O   UNL     1       2.343  -7.508   6.575  1.00  0.00    -0.246 OA
BRANCH  27  29
ATOM     29  C   UNL     1       0.091  -6.707   6.687  1.00  0.00     0.060 A 
ATOM     30  C   UNL     1       0.125  -5.502   5.975  1.00  0.00     0.016 A 
ATOM     31  C   UNL     1      -0.928  -6.952   7.612  1.00  0.00     0.016 A 
ATOM     32  C   UNL     1      -0.854  -4.531   6.201  1.00  0.00     0.010 A 
ATOM     33  C   UNL     1      -1.899  -5.971   7.848  1.00  0.00     0.010 A 
ATOM     34  C   UNL     1      -1.854  -4.746   7.160  1.00  0.00    -0.014 A 
BRANCH  34  35
ATOM     35  C   UNL     1      -2.773  -3.640   7.532  1.00  0.00     0.031 A 
ATOM     36  C   UNL     1      -2.466  -2.811   8.748  1.00  0.00     0.074 A 
ATOM     37  C   UNL     1      -3.859  -3.360   6.788  1.00  0.00     0.049 A 
ATOM     38  N   UNL     1      -3.121  -1.796   9.253  1.00  0.00    -0.248 NA
ATOM     39  C   UNL     1      -1.254  -3.177   9.496  1.00  0.00     0.031 C 
ATOM     40  C   UNL     1      -4.260  -4.074   5.579  1.00  0.00     0.029 A 
ATOM     41  N   UNL     1      -4.826  -2.397   6.950  1.00  0.00    -0.354 N 
ATOM     42  C   UNL     1      -2.401  -1.401  10.373  1.00  0.00     0.074 A 
ATOM     43  C   UNL     1      -1.278  -2.307  10.495  1.00  0.00     0.031 C 
ATOM     44  C   UNL     1      -5.396  -3.529   5.109  1.00  0.00     0.029 A 
ATOM     45  C   UNL     1      -5.814  -2.445   5.997  1.00  0.00     0.049 A 
ATOM     46  H   UNL     1      -4.812  -1.737   7.679  1.00  0.00     0.167 HD
ATOM     47  C   UNL     1      -2.646  -0.370  11.216  1.00  0.00     0.037 A 
ATOM     48  C   UNL     1      -6.934  -1.707   5.867  1.00  0.00     0.037 A 
ATOM     49  C   UNL     1      -3.767   0.527  11.103  1.00  0.00     0.049 A 
ATOM     50  C   UNL     1      -7.220  -0.607   6.858  1.00  0.00     0.074 A 
ATOM     51  C   UNL     1      -4.082   1.619  11.893  1.00  0.00     0.029 A 
ATOM     52  N   UNL     1      -4.765   0.425  10.146  1.00  0.00    -0.354 N 
ATOM     53  N   UNL     1      -6.508  -0.208   7.884  1.00  0.00    -0.248 NA
ATOM     54  C   UNL     1      -8.466   0.150   6.667  1.00  0.00     0.031 C 
ATOM     55  C   UNL     1      -5.299   2.146  11.447  1.00  0.00     0.029 A 
ATOM     56  C   UNL     1      -5.715   1.416  10.345  1.00  0.00     0.049 A 
ATOM     57  H   UNL     1      -4.796  -0.251   9.431  1.00  0.00     0.167 HD
ATOM     58  C   UNL     1      -7.204   0.856   8.444  1.00  0.00     0.074 A 
ATOM     59  C   UNL     1      -8.387   1.053   7.634  1.00  0.00     0.031 C 
ATOM     60  C   UNL     1      -6.891   1.602   9.533  1.00  0.00     0.037 A 
BRANCH  47  61
ATOM     61  C   UNL     1      -1.690  -0.170  12.357  1.00  0.00     0.064 A 
ATOM     62  C   UNL     1      -0.387   0.308  12.150  1.00  0.00     0.173 A 
ATOM     63  C   UNL     1      -2.092  -0.433  13.675  1.00  0.00     0.173 A 
ATOM     64  F   UNL     1       0.050   0.562  10.908  1.00  0.00    -0.203 F 
ATOM     65  C   UNL     1       0.487   0.489  13.219  1.00  0.00     0.198 A 
ATOM     66  C   UNL     1      -1.225  -0.224  14.744  1.00  0.00     0.198 A 
ATOM     67  F   UNL     1      -3.329  -0.887  13.927  1.00  0.00    -0.203 F 
ATOM     68  F   UNL     1       1.742   0.901  12.994  1.00  0.00    -0.200 F 
ATOM     69  C   UNL     1       0.065   0.229  14.515  1.00  0.00     0.200 A 
ATOM     70  F   UNL     1      -1.638  -0.463  15.996  1.00  0.00    -0.200 F 
ATOM     71  F   UNL     1       0.906   0.409  15.543  1.00  0.00    -0.200 F 
ENDBRANCH  47  61
BRANCH  48  72
ATOM     72  C   UNL     1      -7.879  -1.984   4.754  1.00  0.00     0.064 A 
ATOM     73  C   UNL     1      -8.049  -1.071   3.704  1.00  0.00     0.173 A 
ATOM     74  C   UNL     1      -8.646  -3.157   4.729  1.00  0.00     0.173 A 
ATOM     75  F   UNL     1      -7.361   0.081   3.700  1.00  0.00    -0.203 F 
ATOM     76  C   UNL     1      -8.962  -1.314   2.679  1.00  0.00     0.198 A 
ATOM     77  C   UNL     1      -9.539  -3.413   3.689  1.00  0.00     0.198 A 
ATOM     78  F   UNL     1      -8.527  -4.059   5.714  1.00  0.00    -0.203 F 
ATOM     79  F   UNL     1      -9.140  -0.403   1.713  1.00  0.00    -0.200 F 
ATOM     80  C   UNL     1      -9.701  -2.488   2.669  1.00  0.00     0.200 A 
ATOM     81  F   UNL     1     -10.246  -4.551   3.680  1.00  0.00    -0.200 F 
ATOM     82  F   UNL     1     -10.578  -2.721   1.683  1.00  0.00    -0.200 F 
ENDBRANCH  48  72
BRANCH  60  83
ATOM     83  C   UNL     1      -7.829   2.718   9.898  1.00  0.00     0.064 A 
ATOM     84  C   UNL     1      -9.099   2.466  10.437  1.00  0.00     0.173 A 
ATOM     85  C   UNL     1      -7.439   4.057   9.737  1.00  0.00     0.173 A 
ATOM     86  F   UNL     1      -9.526   1.204  10.599  1.00  0.00    -0.203 F 
ATOM     87  C   UNL     1      -9.956   3.512  10.773  1.00  0.00     0.198 A 
ATOM     88  C   UNL     1      -8.286   5.100  10.103  1.00  0.00     0.198 A 
ATOM     89  F   UNL     1      -6.232   4.354   9.233  1.00  0.00    -0.203 F 
ATOM     90  F   UNL     1     -11.184   3.246  11.238  1.00  0.00    -0.200 F 
ATOM     91  C   UNL     1      -9.546   4.827  10.612  1.00  0.00     0.200 A 
ATOM     92  F   UNL     1      -7.883   6.370   9.959  1.00  0.00    -0.200 F 
ATOM     93  F   UNL     1     -10.370   5.832  10.940  1.00  0.00    -0.200 F 
ENDBRANCH  60  83
ENDBRANCH  34  35
ENDBRANCH  27  29
ENDBRANCH  26  27
ENDBRANCH  25  26
ENDBRANCH  24  25
ENDBRANCH  23  24
ENDBRANCH  22  23
ENDBRANCH   1  22
TORSDOF 21
