REMARK SMILES O=C(OCCOCCOCCOC(=O)c1ccc(S(=O)(=O)NCc2ccn[nH]2)c(F)c1)c1ccc(-c2c3nc(c(-c4c(F)c(F)c(F)c(F)c4F)c4ccc([nH]4)c(-c4c(F)c(F)c(F)c(F)c4F)c4nc(c(-c5c(F)c(F)c(F)c(F)c5F)c5ccc2[nH]5)C=C4)C=C3)cc1
REMARK SMILES IDX 8 1 7 2 6 3 5 4 4 5 3 6 2 7 1 8 32 9 33 10 94 11 34 12 93 13
REMARK SMILES IDX 35 14 36 15 37 16 87 17 38 18 92 19 86 20 88 21 39 22 91 23
REMARK SMILES IDX 85 24 84 25 40 27 72 28 52 29 71 30 53 31 56 32 70 33 89 34
REMARK SMILES IDX 54 35 55 36 69 38 90 39 57 40 41 41 42 42 50 43 43 44 44 45
REMARK SMILES IDX 48 46 51 47 45 48 46 49 49 50 47 51 73 52 74 53 82 54 75 55
REMARK SMILES IDX 76 56 80 57 83 58 77 59 78 60 81 61 79 62 58 63 59 64 67 65
REMARK SMILES IDX 60 66 61 67 65 68 68 69 62 70 63 71 66 72 64 73 9 74 10 75
REMARK SMILES IDX 11 76 12 77 13 78 14 79 15 80 16 81 31 82 17 83 29 84 18 85
REMARK SMILES IDX 30 86 19 87 20 88 21 89 22 90 23 92 24 93 25 94 28 95 26 96
REMARK SMILES IDX 27 97
REMARK H PARENT 88 26 56 37 22 91 28 98
REMARK Flexibility Score: inf
ROOT
ATOM      1  C   UNL     1       1.941   3.157  -0.579  1.00  0.00     0.188 C 
ENDROOT
BRANCH   1   2
ATOM      2  C   UNL     1       2.527   1.757  -0.757  1.00  0.00     0.188 C 
BRANCH   2   3
ATOM      3  O   UNL     1       3.860   1.616  -0.260  1.00  0.00    -0.376 OA
BRANCH   3   4
ATOM      4  C   UNL     1       4.716   0.832  -1.102  1.00  0.00     0.202 C 
BRANCH   4   5
ATOM      5  C   UNL     1       4.384  -0.672  -1.203  1.00  0.00     0.261 C 
BRANCH   5   6
ATOM      6  O   UNL     1       3.002  -0.995  -0.958  1.00  0.00    -0.460 OA
BRANCH   6   7
ATOM      7  C   UNL     1       2.397  -1.347   0.204  1.00  0.00     0.338 C 
ATOM      8  O   UNL     1       1.215  -1.687   0.176  1.00  0.00    -0.246 OA
BRANCH   7   9
ATOM      9  C   UNL     1       3.073  -1.316   1.535  1.00  0.00     0.060 A 
ATOM     10  C   UNL     1       4.207  -0.563   1.824  1.00  0.00     0.016 A 
ATOM     11  C   UNL     1       2.488  -2.044   2.587  1.00  0.00     0.016 A 
ATOM     12  C   UNL     1       4.811  -0.599   3.066  1.00  0.00     0.010 A 
ATOM     13  C   UNL     1       3.060  -2.050   3.864  1.00  0.00     0.010 A 
ATOM     14  C   UNL     1       4.249  -1.349   4.091  1.00  0.00    -0.014 A 
BRANCH  14  15
ATOM     15  C   UNL     1       5.051  -1.499   5.315  1.00  0.00     0.031 A 
ATOM     16  C   UNL     1       5.783  -2.791   5.515  1.00  0.00     0.074 A 
ATOM     17  C   UNL     1       5.290  -0.423   6.087  1.00  0.00     0.049 A 
ATOM     18  N   UNL     1       6.559  -3.159   6.496  1.00  0.00    -0.248 NA
ATOM     19  C   UNL     1       5.654  -3.796   4.443  1.00  0.00     0.031 C 
ATOM     20  C   UNL     1       4.771   0.925   5.838  1.00  0.00     0.029 A 
ATOM     21  N   UNL     1       6.073  -0.274   7.198  1.00  0.00    -0.354 N 
ATOM     22  C   UNL     1       6.993  -4.435   6.170  1.00  0.00     0.074 A 
ATOM     23  C   UNL     1       6.390  -4.793   4.909  1.00  0.00     0.031 C 
ATOM     24  C   UNL     1       5.273   1.765   6.757  1.00  0.00     0.029 A 
ATOM     25  C   UNL     1       6.074   1.003   7.704  1.00  0.00     0.049 A 
ATOM     26  H   UNL     1       6.587  -1.012   7.598  1.00  0.00     0.167 HD
ATOM     27  C   UNL     1       7.831  -5.226   6.874  1.00  0.00     0.037 A 
ATOM     28  C   UNL     1       6.631   1.483   8.830  1.00  0.00     0.037 A 
ATOM     29  C   UNL     1       8.422  -4.827   8.121  1.00  0.00     0.049 A 
ATOM     30  C   UNL     1       7.411   0.524   9.682  1.00  0.00     0.074 A 
ATOM     31  C   UNL     1       9.221  -5.564   8.972  1.00  0.00     0.029 A 
ATOM     32  N   UNL     1       8.275  -3.567   8.688  1.00  0.00    -0.354 N 
ATOM     33  N   UNL     1       7.751  -0.717   9.424  1.00  0.00    -0.248 NA
ATOM     34  C   UNL     1       7.876   1.022  10.981  1.00  0.00     0.031 C 
ATOM     35  C   UNL     1       9.518  -4.766  10.079  1.00  0.00     0.029 A 
ATOM     36  C   UNL     1       8.959  -3.511   9.889  1.00  0.00     0.049 A 
ATOM     37  H   UNL     1       7.760  -2.825   8.295  1.00  0.00     0.167 HD
ATOM     38  C   UNL     1       8.484  -1.145  10.518  1.00  0.00     0.074 A 
ATOM     39  C   UNL     1       8.562  -0.020  11.430  1.00  0.00     0.031 C 
ATOM     40  C   UNL     1       9.039  -2.359  10.752  1.00  0.00     0.037 A 
BRANCH  27  41
ATOM     41  C   UNL     1       8.111  -6.598   6.343  1.00  0.00     0.064 A 
ATOM     42  C   UNL     1       7.574  -7.724   6.987  1.00  0.00     0.173 A 
ATOM     43  C   UNL     1       8.932  -6.810   5.227  1.00  0.00     0.173 A 
ATOM     44  F   UNL     1       6.770  -7.574   8.050  1.00  0.00    -0.203 F 
ATOM     45  C   UNL     1       7.870  -9.011   6.547  1.00  0.00     0.198 A 
ATOM     46  C   UNL     1       9.205  -8.098   4.773  1.00  0.00     0.198 A 
ATOM     47  F   UNL     1       9.441  -5.766   4.554  1.00  0.00    -0.203 F 
ATOM     48  F   UNL     1       7.366 -10.070   7.195  1.00  0.00    -0.200 F 
ATOM     49  C   UNL     1       8.683  -9.197   5.440  1.00  0.00     0.200 A 
ATOM     50  F   UNL     1       9.963  -8.277   3.683  1.00  0.00    -0.200 F 
ATOM     51  F   UNL     1       8.958 -10.437   5.011  1.00  0.00    -0.200 F 
ENDBRANCH  27  41
BRANCH  28  52
ATOM     52  C   UNL     1       6.421   2.897   9.242  1.00  0.00     0.064 A 
ATOM     53  C   UNL     1       5.139   3.363   9.573  1.00  0.00     0.173 A 
ATOM     54  C   UNL     1       7.480   3.807   9.333  1.00  0.00     0.173 A 
ATOM     55  F   UNL     1       4.100   2.521   9.537  1.00  0.00    -0.203 F 
ATOM     56  C   UNL     1       4.917   4.689   9.937  1.00  0.00     0.198 A 
ATOM     57  C   UNL     1       7.266   5.125   9.740  1.00  0.00     0.198 A 
ATOM     58  F   UNL     1       8.731   3.409   9.058  1.00  0.00    -0.203 F 
ATOM     59  F   UNL     1       3.673   5.114  10.194  1.00  0.00    -0.200 F 
ATOM     60  C   UNL     1       5.983   5.567  10.030  1.00  0.00     0.200 A 
ATOM     61  F   UNL     1       8.304   5.964   9.859  1.00  0.00    -0.200 F 
ATOM     62  F   UNL     1       5.777   6.838  10.403  1.00  0.00    -0.200 F 
ENDBRANCH  28  52
BRANCH  40  63
ATOM     63  C   UNL     1       9.830  -2.515  12.012  1.00  0.00     0.064 A 
ATOM     64  C   UNL     1      11.222  -2.681  11.947  1.00  0.00     0.173 A 
ATOM     65  C   UNL     1       9.210  -2.590  13.266  1.00  0.00     0.173 A 
ATOM     66  F   UNL     1      11.857  -2.626  10.766  1.00  0.00    -0.203 F 
ATOM     67  C   UNL     1      11.962  -2.941  13.094  1.00  0.00     0.198 A 
ATOM     68  C   UNL     1       9.959  -2.813  14.416  1.00  0.00     0.198 A 
ATOM     69  F   UNL     1       7.884  -2.422  13.376  1.00  0.00    -0.203 F 
ATOM     70  F   UNL     1      13.283  -3.147  13.003  1.00  0.00    -0.200 F 
ATOM     71  C   UNL     1      11.331  -3.003  14.327  1.00  0.00     0.200 A 
ATOM     72  F   UNL     1       9.354  -2.844  15.611  1.00  0.00    -0.200 F 
ATOM     73  F   UNL     1      12.047  -3.245  15.433  1.00  0.00    -0.200 F 
ENDBRANCH  40  63
ENDBRANCH  14  15
ENDBRANCH   7   9
ENDBRANCH   6   7
ENDBRANCH   5   6
ENDBRANCH   4   5
ENDBRANCH   3   4
ENDBRANCH   2   3
ENDBRANCH   1   2
BRANCH   1  74
ATOM     74  O   UNL     1       2.606   4.227  -1.237  1.00  0.00    -0.376 OA
BRANCH  74  75
ATOM     75  C   UNL     1       3.995   4.384  -0.980  1.00  0.00     0.202 C 
BRANCH  75  76
ATOM     76  C   UNL     1       4.440   4.763   0.443  1.00  0.00     0.261 C 
BRANCH  76  77
ATOM     77  O   UNL     1       3.861   4.006   1.526  1.00  0.00    -0.460 OA
BRANCH  77  78
ATOM     78  C   UNL     1       2.959   4.695   2.265  1.00  0.00     0.338 C 
ATOM     79  O   UNL     1       2.552   5.829   2.071  1.00  0.00    -0.246 OA
BRANCH  78  80
ATOM     80  C   UNL     1       2.530   3.941   3.456  1.00  0.00     0.063 A 
ATOM     81  C   UNL     1       3.075   4.328   4.682  1.00  0.00     0.017 A 
ATOM     82  C   UNL     1       1.434   3.070   3.413  1.00  0.00     0.056 A 
ATOM     83  C   UNL     1       2.497   3.869   5.866  1.00  0.00     0.026 A 
ATOM     84  C   UNL     1       0.858   2.620   4.607  1.00  0.00     0.144 A 
ATOM     85  C   UNL     1       1.373   3.027   5.827  1.00  0.00     0.118 A 
ATOM     86  F   UNL     1      -0.217   1.825   4.533  1.00  0.00    -0.205 F 
BRANCH  85  87
ATOM     87  S   UNL     1       0.672   2.569   7.376  1.00  0.00     0.243 S 
ATOM     88  O   UNL     1       1.785   2.344   8.264  1.00  0.00    -0.207 OA
ATOM     89  O   UNL     1      -0.337   3.563   7.686  1.00  0.00    -0.207 OA
BRANCH  87  90
ATOM     90  N   UNL     1      -0.122   1.124   7.248  1.00  0.00    -0.205 NA
ATOM     91  H   UNL     1      -0.926   1.308   6.648  1.00  0.00     0.141 HD
BRANCH  90  92
ATOM     92  C   UNL     1       0.459  -0.101   6.748  1.00  0.00     0.154 C 
BRANCH  92  93
ATOM     93  C   UNL     1       1.255  -0.848   7.747  1.00  0.00     0.050 A 
ATOM     94  C   UNL     1       1.300  -2.197   8.037  1.00  0.00     0.046 A 
ATOM     95  N   UNL     1       2.237  -0.283   8.522  1.00  0.00    -0.281 N 
ATOM     96  C   UNL     1       2.370  -2.344   8.938  1.00  0.00     0.135 A 
ATOM     97  N   UNL     1       2.934  -1.177   9.242  1.00  0.00    -0.184 NA
ATOM     98  H   UNL     1       2.414   0.685   8.548  1.00  0.00     0.190 HD
ENDBRANCH  92  93
ENDBRANCH  90  92
ENDBRANCH  87  90
ENDBRANCH  85  87
ENDBRANCH  78  80
ENDBRANCH  77  78
ENDBRANCH  76  77
ENDBRANCH  75  76
ENDBRANCH  74  75
ENDBRANCH   1  74
TORSDOF 21
