REMARK SMILES COc1ccc(F)cc1[C@H](C)NC(=O)[C@H]1CC=CC[C@@H]1C(=O)OCCOCCOCCOC(=O)c1ccc(-c2c3nc(c(-c4c(F)c(F)c(F)c(F)c4F)c4ccc([nH]4)c(-c4c(F)c(F)c(F)c(F)c4F)c4nc(c(-c5c(F)c(F)c(F)c(F)c5F)c5ccc2[nH]5)C=C4)C=C3)cc1
REMARK SMILES IDX 27 1 26 2 25 3 24 4 23 5 21 6 22 7 20 8 15 9 16 10 17 11
REMARK SMILES IDX 19 12 18 13 13 14 12 15 14 17 10 18 11 19 9 20 3 21 4 22
REMARK SMILES IDX 5 23 8 24 6 25 7 26 2 27 1 28 28 29 29 30 30 31 31 32 32 33
REMARK SMILES IDX 33 34 34 35 35 36 36 37 97 38 37 39 96 40 38 41 39 42 40 43
REMARK SMILES IDX 90 44 41 45 95 46 89 47 91 48 42 49 94 50 88 51 87 52 43 54
REMARK SMILES IDX 75 55 55 56 74 57 56 58 59 59 73 60 92 61 57 62 58 63 72 65
REMARK SMILES IDX 93 66 60 67 44 68 45 69 53 70 46 71 47 72 51 73 54 74 48 75
REMARK SMILES IDX 49 76 52 77 50 78 76 79 77 80 85 81 78 82 79 83 83 84 86 85
REMARK SMILES IDX 80 86 81 87 84 88 82 89 61 90 62 91 70 92 63 93 64 94 68 95
REMARK SMILES IDX 71 96 65 97 66 98 69 99 67 100
REMARK H PARENT 12 16 91 53 59 64
REMARK Flexibility Score: inf
ROOT
ATOM      1  C   UNL     1      -1.418   2.585   3.220  1.00  0.00     0.188 C 
ENDROOT
BRANCH   1   2
ATOM      2  O   UNL     1      -1.723   3.563   2.225  1.00  0.00    -0.376 OA
BRANCH   2   3
ATOM      3  C   UNL     1      -3.086   3.864   1.955  1.00  0.00     0.202 C 
BRANCH   3   4
ATOM      4  C   UNL     1      -3.906   2.739   1.321  1.00  0.00     0.261 C 
BRANCH   4   5
ATOM      5  O   UNL     1      -3.544   1.465   1.868  1.00  0.00    -0.463 OA
BRANCH   5   6
ATOM      6  C   UNL     1      -3.770   0.411   1.058  1.00  0.00     0.310 C 
ATOM      7  O   UNL     1      -4.534   0.424   0.100  1.00  0.00    -0.252 OA
BRANCH   6   8
ATOM      8  C   UNL     1      -2.776  -0.707   1.302  1.00  0.00     0.115 C 
ATOM      9  C   UNL     1      -2.658  -1.259   2.733  1.00  0.00     0.097 C 
ATOM     10  C   UNL     1      -1.292  -1.166   3.430  1.00  0.00     0.041 C 
ATOM     11  C   UNL     1      -0.108  -1.030   2.534  1.00  0.00    -0.030 C 
ATOM     12  C   UNL     1      -1.474  -0.286   0.584  1.00  0.00     0.043 C 
ATOM     13  C   UNL     1      -0.189  -0.635   1.262  1.00  0.00    -0.030 C 
BRANCH   9  14
ATOM     14  C   UNL     1      -3.126  -2.717   2.869  1.00  0.00     0.224 C 
ATOM     15  N   UNL     1      -2.631  -3.743   2.127  1.00  0.00    -0.349 N 
ATOM     16  H   UNL     1      -2.921  -4.629   2.442  1.00  0.00     0.164 HD
ATOM     17  O   UNL     1      -3.934  -3.006   3.759  1.00  0.00    -0.275 OA
BRANCH  15  18
ATOM     18  C   UNL     1      -1.756  -3.798   0.958  1.00  0.00     0.113 C 
ATOM     19  C   UNL     1      -0.403  -4.417   1.315  1.00  0.00     0.036 C 
BRANCH  18  20
ATOM     20  C   UNL     1      -2.521  -4.395  -0.216  1.00  0.00     0.019 A 
ATOM     21  C   UNL     1      -2.599  -5.765  -0.499  1.00  0.00     0.124 A 
ATOM     22  C   UNL     1      -3.447  -6.255  -1.505  1.00  0.00     0.050 A 
ATOM     23  C   UNL     1      -4.211  -5.381  -2.273  1.00  0.00     0.043 A 
ATOM     24  C   UNL     1      -3.274  -3.535  -1.043  1.00  0.00     0.049 A 
ATOM     25  C   UNL     1      -4.109  -4.023  -2.041  1.00  0.00     0.123 A 
ATOM     26  F   UNL     1      -4.830  -3.164  -2.772  1.00  0.00    -0.207 F 
BRANCH  21  27
ATOM     27  O   UNL     1      -1.881  -6.664   0.242  1.00  0.00    -0.496 OA
ATOM     28  C   UNL     1      -0.793  -7.179  -0.532  1.00  0.00     0.278 C 
ENDBRANCH  21  27
ENDBRANCH  18  20
ENDBRANCH  15  18
ENDBRANCH   9  14
ENDBRANCH   6   8
ENDBRANCH   5   6
ENDBRANCH   4   5
ENDBRANCH   3   4
ENDBRANCH   2   3
ENDBRANCH   1   2
BRANCH   1  29
ATOM     29  C   UNL     1      -2.397   2.301   4.376  1.00  0.00     0.188 C 
BRANCH  29  30
ATOM     30  O   UNL     1      -3.040   3.475   4.845  1.00  0.00    -0.376 OA
BRANCH  30  31
ATOM     31  C   UNL     1      -2.849   3.736   6.227  1.00  0.00     0.202 C 
BRANCH  31  32
ATOM     32  C   UNL     1      -1.551   4.511   6.468  1.00  0.00     0.261 C 
BRANCH  32  33
ATOM     33  O   UNL     1      -0.351   3.853   6.011  1.00  0.00    -0.460 OA
BRANCH  33  34
ATOM     34  C   UNL     1       0.039   2.755   6.687  1.00  0.00     0.338 C 
ATOM     35  O   UNL     1      -0.538   2.233   7.634  1.00  0.00    -0.246 OA
BRANCH  34  36
ATOM     36  C   UNL     1       1.221   2.165   6.022  1.00  0.00     0.060 A 
ATOM     37  C   UNL     1       1.187   0.813   5.663  1.00  0.00     0.016 A 
ATOM     38  C   UNL     1       2.378   2.917   5.798  1.00  0.00     0.016 A 
ATOM     39  C   UNL     1       2.311   0.208   5.093  1.00  0.00     0.010 A 
ATOM     40  C   UNL     1       3.510   2.304   5.243  1.00  0.00     0.010 A 
ATOM     41  C   UNL     1       3.490   0.941   4.899  1.00  0.00    -0.014 A 
BRANCH  41  42
ATOM     42  C   UNL     1       4.739   0.241   4.497  1.00  0.00     0.031 A 
ATOM     43  C   UNL     1       5.668  -0.254   5.570  1.00  0.00     0.074 A 
ATOM     44  C   UNL     1       5.029  -0.010   3.207  1.00  0.00     0.049 A 
ATOM     45  N   UNL     1       6.847  -0.812   5.460  1.00  0.00    -0.248 NA
ATOM     46  C   UNL     1       5.192  -0.116   6.955  1.00  0.00     0.031 C 
ATOM     47  C   UNL     1       4.171   0.308   2.070  1.00  0.00     0.029 A 
ATOM     48  N   UNL     1       6.135  -0.602   2.640  1.00  0.00    -0.354 N 
ATOM     49  C   UNL     1       7.255  -1.088   6.758  1.00  0.00     0.074 A 
ATOM     50  C   UNL     1       6.202  -0.630   7.640  1.00  0.00     0.031 C 
ATOM     51  C   UNL     1       4.783  -0.089   0.939  1.00  0.00     0.029 A 
ATOM     52  C   UNL     1       6.098  -0.642   1.268  1.00  0.00     0.049 A 
ATOM     53  H   UNL     1       6.882  -0.963   3.170  1.00  0.00     0.167 HD
ATOM     54  C   UNL     1       8.404  -1.666   7.179  1.00  0.00     0.037 A 
ATOM     55  C   UNL     1       7.031  -1.045   0.379  1.00  0.00     0.037 A 
ATOM     56  C   UNL     1       9.461  -2.111   6.310  1.00  0.00     0.049 A 
ATOM     57  C   UNL     1       8.363  -1.559   0.870  1.00  0.00     0.074 A 
ATOM     58  C   UNL     1      10.681  -2.666   6.653  1.00  0.00     0.029 A 
ATOM     59  N   UNL     1       9.424  -2.047   4.926  1.00  0.00    -0.354 N 
ATOM     60  N   UNL     1       8.768  -1.764   2.100  1.00  0.00    -0.248 NA
ATOM     61  C   UNL     1       9.374  -1.879  -0.150  1.00  0.00     0.031 C 
ATOM     62  C   UNL     1      11.404  -2.893   5.478  1.00  0.00     0.029 A 
ATOM     63  C   UNL     1      10.611  -2.530   4.401  1.00  0.00     0.049 A 
ATOM     64  H   UNL     1       8.667  -1.708   4.396  1.00  0.00     0.167 HD
ATOM     65  C   UNL     1      10.066  -2.253   2.001  1.00  0.00     0.074 A 
ATOM     66  C   UNL     1      10.381  -2.324   0.591  1.00  0.00     0.031 C 
ATOM     67  C   UNL     1      10.917  -2.608   2.995  1.00  0.00     0.037 A 
BRANCH  54  68
ATOM     68  C   UNL     1       8.602  -1.806   8.658  1.00  0.00     0.064 A 
ATOM     69  C   UNL     1       9.524  -0.987   9.327  1.00  0.00     0.173 A 
ATOM     70  C   UNL     1       7.907  -2.765   9.408  1.00  0.00     0.173 A 
ATOM     71  F   UNL     1      10.215  -0.056   8.652  1.00  0.00    -0.203 F 
ATOM     72  C   UNL     1       9.747  -1.128  10.693  1.00  0.00     0.198 A 
ATOM     73  C   UNL     1       8.114  -2.886  10.779  1.00  0.00     0.198 A 
ATOM     74  F   UNL     1       7.002  -3.559   8.815  1.00  0.00    -0.203 F 
ATOM     75  F   UNL     1      10.648  -0.349  11.307  1.00  0.00    -0.200 F 
ATOM     76  C   UNL     1       9.038  -2.073  11.419  1.00  0.00     0.200 A 
ATOM     77  F   UNL     1       7.409  -3.781  11.485  1.00  0.00    -0.200 F 
ATOM     78  F   UNL     1       9.240  -2.195  12.738  1.00  0.00    -0.200 F 
ENDBRANCH  54  68
BRANCH  55  79
ATOM     79  C   UNL     1       6.755  -0.946  -1.079  1.00  0.00     0.064 A 
ATOM     80  C   UNL     1       6.641   0.299  -1.715  1.00  0.00     0.173 A 
ATOM     81  C   UNL     1       6.609  -2.095  -1.869  1.00  0.00     0.173 A 
ATOM     82  F   UNL     1       6.788   1.429  -1.008  1.00  0.00    -0.203 F 
ATOM     83  C   UNL     1       6.364   0.392  -3.077  1.00  0.00     0.198 A 
ATOM     84  C   UNL     1       6.358  -2.001  -3.237  1.00  0.00     0.198 A 
ATOM     85  F   UNL     1       6.743  -3.309  -1.316  1.00  0.00    -0.203 F 
ATOM     86  F   UNL     1       6.230   1.595  -3.651  1.00  0.00    -0.200 F 
ATOM     87  C   UNL     1       6.226  -0.758  -3.838  1.00  0.00     0.200 A 
ATOM     88  F   UNL     1       6.254  -3.115  -3.975  1.00  0.00    -0.200 F 
ATOM     89  F   UNL     1       5.973  -0.669  -5.151  1.00  0.00    -0.200 F 
ENDBRANCH  55  79
BRANCH  67  90
ATOM     90  C   UNL     1      12.272  -3.134   2.615  1.00  0.00     0.064 A 
ATOM     91  C   UNL     1      12.591  -4.485   2.822  1.00  0.00     0.173 A 
ATOM     92  C   UNL     1      13.286  -2.283   2.153  1.00  0.00     0.173 A 
ATOM     93  F   UNL     1      11.659  -5.339   3.271  1.00  0.00    -0.203 F 
ATOM     94  C   UNL     1      13.882  -4.960   2.602  1.00  0.00     0.198 A 
ATOM     95  C   UNL     1      14.570  -2.767   1.910  1.00  0.00     0.198 A 
ATOM     96  F   UNL     1      13.029  -0.986   1.930  1.00  0.00    -0.203 F 
ATOM     97  F   UNL     1      14.173  -6.245   2.847  1.00  0.00    -0.200 F 
ATOM     98  C   UNL     1      14.870  -4.100   2.146  1.00  0.00     0.200 A 
ATOM     99  F   UNL     1      15.519  -1.940   1.451  1.00  0.00    -0.200 F 
ATOM    100  F   UNL     1      16.112  -4.557   1.936  1.00  0.00    -0.200 F 
ENDBRANCH  67  90
ENDBRANCH  41  42
ENDBRANCH  34  36
ENDBRANCH  33  34
ENDBRANCH  32  33
ENDBRANCH  31  32
ENDBRANCH  30  31
ENDBRANCH  29  30
ENDBRANCH   1  29
TORSDOF 21
