REMARK SMILES O=Cc1c(OCc2ccc(C(=O)OCCOCCOCCOC(=O)c3ccc(-c4c5nc(c(-c6c(F)c(F)c(F)c(F)c6F)c6ccc([nH]6)c(-c6c(F)c(F)c(F)c(F)c6F)c6nc(c(-c7c(F)c(F)c(F)c(F)c7F)c7ccc4[nH]7)C=C6)C=C5)cc3)cc2)ccc2ccccc12
REMARK SMILES IDX 17 1 16 2 15 3 14 4 13 5 11 6 12 7 10 8 7 9 8 10 89 11 9 12
REMARK SMILES IDX 88 13 6 14 5 15 4 16 3 17 97 18 90 19 92 20 96 21 91 22
REMARK SMILES IDX 93 23 95 24 94 25 2 26 1 27 18 28 19 29 20 30 21 31 22 32
REMARK SMILES IDX 23 33 24 34 25 35 26 36 87 37 27 38 86 39 28 40 29 41 30 42
REMARK SMILES IDX 80 43 31 44 85 45 79 46 81 47 32 48 84 49 78 50 77 51 33 53
REMARK SMILES IDX 65 54 45 55 64 56 46 57 49 58 63 59 82 60 47 61 48 62 62 64
REMARK SMILES IDX 83 65 50 66 34 67 35 68 43 69 36 70 37 71 41 72 44 73 38 74
REMARK SMILES IDX 39 75 42 76 40 77 66 78 67 79 75 80 68 81 69 82 73 83 76 84
REMARK SMILES IDX 70 85 71 86 74 87 72 88 51 89 52 90 60 91 53 92 54 93 58 94
REMARK SMILES IDX 61 95 55 96 56 97 59 98 57 99
REMARK H PARENT 81 52 49 63
REMARK Flexibility Score: inf
ROOT
ATOM      1  C   UNL     1       5.942  -9.094   1.717  1.00  0.00     0.188 C 
ENDROOT
BRANCH   1   2
ATOM      2  O   UNL     1       7.089  -9.834   1.366  1.00  0.00    -0.376 OA
BRANCH   2   3
ATOM      3  C   UNL     1       8.037  -9.329   0.443  1.00  0.00     0.202 C 
BRANCH   3   4
ATOM      4  C   UNL     1       7.750  -8.280  -0.647  1.00  0.00     0.261 C 
BRANCH   4   5
ATOM      5  O   UNL     1       6.700  -7.343  -0.405  1.00  0.00    -0.460 OA
BRANCH   5   6
ATOM      6  C   UNL     1       5.561  -7.554  -1.113  1.00  0.00     0.338 C 
ATOM      7  O   UNL     1       5.339  -8.465  -1.891  1.00  0.00    -0.246 OA
BRANCH   6   8
ATOM      8  C   UNL     1       4.519  -6.612  -0.652  1.00  0.00     0.060 A 
ATOM      9  C   UNL     1       2.485  -4.886   0.244  1.00  0.00    -0.011 A 
ATOM     10  C   UNL     1       2.248  -6.264   0.109  1.00  0.00     0.008 A 
ATOM     11  C   UNL     1       3.763  -4.396  -0.077  1.00  0.00     0.008 A 
ATOM     12  C   UNL     1       3.251  -7.119  -0.353  1.00  0.00     0.016 A 
ATOM     13  C   UNL     1       4.784  -5.253  -0.497  1.00  0.00     0.016 A 
BRANCH   9  14
ATOM     14  C   UNL     1       1.339  -4.005   0.727  1.00  0.00     0.265 C 
BRANCH  14  15
ATOM     15  O   UNL     1       1.568  -2.595   0.724  1.00  0.00    -0.488 OA
BRANCH  15  16
ATOM     16  C   UNL     1       2.424  -2.036   1.634  1.00  0.00     0.130 A 
ATOM     17  C   UNL     1       2.907  -0.746   1.340  1.00  0.00     0.064 A 
ATOM     18  C   UNL     1       3.989  -0.175   2.066  1.00  0.00    -0.004 A 
ATOM     19  C   UNL     1       2.932  -2.715   2.739  1.00  0.00     0.048 A 
ATOM     20  C   UNL     1       4.540  -0.929   3.130  1.00  0.00    -0.017 A 
ATOM     21  C   UNL     1       4.565   1.092   1.797  1.00  0.00     0.009 A 
ATOM     22  C   UNL     1       3.986  -2.170   3.471  1.00  0.00     0.012 A 
ATOM     23  C   UNL     1       5.646  -0.441   3.843  1.00  0.00     0.009 A 
ATOM     24  C   UNL     1       5.666   1.564   2.515  1.00  0.00     0.001 A 
ATOM     25  C   UNL     1       6.212   0.793   3.531  1.00  0.00     0.001 A 
BRANCH  17  26
ATOM     26  C   UNL     1       2.329  -0.008   0.191  1.00  0.00     0.264 C 
ATOM     27  O   UNL     1       1.125   0.064  -0.023  1.00  0.00    -0.298 OA
ENDBRANCH  17  26
ENDBRANCH  15  16
ENDBRANCH  14  15
ENDBRANCH   9  14
ENDBRANCH   6   8
ENDBRANCH   5   6
ENDBRANCH   4   5
ENDBRANCH   3   4
ENDBRANCH   2   3
ENDBRANCH   1   2
BRANCH   1  28
ATOM     28  C   UNL     1       6.092  -7.763   2.478  1.00  0.00     0.188 C 
BRANCH  28  29
ATOM     29  O   UNL     1       7.375  -7.214   2.668  1.00  0.00    -0.376 OA
BRANCH  29  30
ATOM     30  C   UNL     1       8.321  -7.847   3.512  1.00  0.00     0.202 C 
BRANCH  30  31
ATOM     31  C   UNL     1       7.996  -8.867   4.622  1.00  0.00     0.261 C 
BRANCH  31  32
ATOM     32  O   UNL     1       6.795  -9.632   4.500  1.00  0.00    -0.460 OA
BRANCH  32  33
ATOM     33  C   UNL     1       5.805  -9.300   5.364  1.00  0.00     0.338 C 
ATOM     34  O   UNL     1       5.811  -8.414   6.198  1.00  0.00    -0.246 OA
BRANCH  33  35
ATOM     35  C   UNL     1       4.600 -10.082   5.031  1.00  0.00     0.060 A 
ATOM     36  C   UNL     1       3.483  -9.405   4.524  1.00  0.00     0.016 A 
ATOM     37  C   UNL     1       4.557 -11.457   5.258  1.00  0.00     0.016 A 
ATOM     38  C   UNL     1       2.307 -10.104   4.256  1.00  0.00     0.010 A 
ATOM     39  C   UNL     1       3.370 -12.152   5.010  1.00  0.00     0.010 A 
ATOM     40  C   UNL     1       2.232 -11.475   4.534  1.00  0.00    -0.014 A 
BRANCH  40  41
ATOM     41  C   UNL     1       0.921 -12.167   4.484  1.00  0.00     0.031 A 
ATOM     42  C   UNL     1       0.175 -12.389   5.770  1.00  0.00     0.074 A 
ATOM     43  C   UNL     1       0.395 -12.581   3.319  1.00  0.00     0.049 A 
ATOM     44  N   UNL     1      -0.953 -13.019   5.981  1.00  0.00    -0.248 NA
ATOM     45  C   UNL     1       0.787 -11.826   6.983  1.00  0.00     0.031 C 
ATOM     46  C   UNL     1       0.999 -12.387   2.003  1.00  0.00     0.029 A 
ATOM     47  N   UNL     1      -0.767 -13.264   3.061  1.00  0.00    -0.354 N 
ATOM     48  C   UNL     1      -1.178 -12.938   7.349  1.00  0.00     0.074 A 
ATOM     49  C   UNL     1      -0.056 -12.225   7.922  1.00  0.00     0.031 C 
ATOM     50  C   UNL     1       0.208 -12.951   1.075  1.00  0.00     0.029 A 
ATOM     51  C   UNL     1      -0.937 -13.578   1.735  1.00  0.00     0.049 A 
ATOM     52  H   UNL     1      -1.417 -13.506   3.760  1.00  0.00     0.167 HD
ATOM     53  C   UNL     1      -2.228 -13.411   8.062  1.00  0.00     0.037 A 
ATOM     54  C   UNL     1      -1.893 -14.311   1.132  1.00  0.00     0.037 A 
ATOM     55  C   UNL     1      -3.338 -14.126   7.490  1.00  0.00     0.049 A 
ATOM     56  C   UNL     1      -3.009 -14.901   1.959  1.00  0.00     0.074 A 
ATOM     57  C   UNL     1      -4.462 -14.626   8.125  1.00  0.00     0.029 A 
ATOM     58  N   UNL     1      -3.458 -14.457   6.148  1.00  0.00    -0.354 N 
ATOM     59  N   UNL     1      -3.234 -14.795   3.247  1.00  0.00    -0.248 NA
ATOM     60  C   UNL     1      -4.006 -15.711   1.245  1.00  0.00     0.031 C 
ATOM     61  C   UNL     1      -5.228 -15.316   7.179  1.00  0.00     0.029 A 
ATOM     62  C   UNL     1      -4.620 -15.184   5.941  1.00  0.00     0.049 A 
ATOM     63  H   UNL     1      -2.813 -14.211   5.446  1.00  0.00     0.167 HD
ATOM     64  C   UNL     1      -4.410 -15.493   3.490  1.00  0.00     0.074 A 
ATOM     65  C   UNL     1      -4.859 -16.009   2.214  1.00  0.00     0.031 C 
ATOM     66  C   UNL     1      -5.062 -15.687   4.664  1.00  0.00     0.037 A 
BRANCH  53  67
ATOM     67  C   UNL     1      -2.203 -13.203   9.550  1.00  0.00     0.064 A 
ATOM     68  C   UNL     1      -2.346 -11.931  10.124  1.00  0.00     0.173 A 
ATOM     69  C   UNL     1      -2.055 -14.299  10.415  1.00  0.00     0.173 A 
ATOM     70  F   UNL     1      -2.477 -10.848   9.343  1.00  0.00    -0.203 F 
ATOM     71  C   UNL     1      -2.307 -11.759  11.506  1.00  0.00     0.198 A 
ATOM     72  C   UNL     1      -2.051 -14.128  11.796  1.00  0.00     0.198 A 
ATOM     73  F   UNL     1      -1.919 -15.538   9.920  1.00  0.00    -0.203 F 
ATOM     74  F   UNL     1      -2.386 -10.528  12.029  1.00  0.00    -0.200 F 
ATOM     75  C   UNL     1      -2.166 -12.858  12.341  1.00  0.00     0.200 A 
ATOM     76  F   UNL     1      -1.930 -15.192  12.601  1.00  0.00    -0.200 F 
ATOM     77  F   UNL     1      -2.133 -12.691  13.670  1.00  0.00    -0.200 F 
ENDBRANCH  53  67
BRANCH  54  78
ATOM     78  C   UNL     1      -1.837 -14.543  -0.336  1.00  0.00     0.064 A 
ATOM     79  C   UNL     1      -2.802 -13.995  -1.192  1.00  0.00     0.173 A 
ATOM     80  C   UNL     1      -0.831 -15.335  -0.911  1.00  0.00     0.173 A 
ATOM     81  F   UNL     1      -3.800 -13.255  -0.688  1.00  0.00    -0.203 F 
ATOM     82  C   UNL     1      -2.774 -14.243  -2.563  1.00  0.00     0.198 A 
ATOM     83  C   UNL     1      -0.785 -15.557  -2.286  1.00  0.00     0.198 A 
ATOM     84  F   UNL     1       0.114 -15.888  -0.136  1.00  0.00    -0.203 F 
ATOM     85  F   UNL     1      -3.738 -13.749  -3.351  1.00  0.00    -0.200 F 
ATOM     86  C   UNL     1      -1.762 -15.018  -3.110  1.00  0.00     0.200 A 
ATOM     87  F   UNL     1       0.200 -16.297  -2.811  1.00  0.00    -0.200 F 
ATOM     88  F   UNL     1      -1.734 -15.254  -4.428  1.00  0.00    -0.200 F 
ENDBRANCH  54  78
BRANCH  66  89
ATOM     89  C   UNL     1      -6.357 -16.451   4.624  1.00  0.00     0.064 A 
ATOM     90  C   UNL     1      -6.399 -17.829   4.362  1.00  0.00     0.173 A 
ATOM     91  C   UNL     1      -7.571 -15.800   4.896  1.00  0.00     0.173 A 
ATOM     92  F   UNL     1      -5.270 -18.498   4.084  1.00  0.00    -0.203 F 
ATOM     93  C   UNL     1      -7.609 -18.519   4.346  1.00  0.00     0.198 A 
ATOM     94  C   UNL     1      -8.774 -16.500   4.914  1.00  0.00     0.198 A 
ATOM     95  F   UNL     1      -7.590 -14.486   5.162  1.00  0.00    -0.203 F 
ATOM     96  F   UNL     1      -7.629 -19.824   4.041  1.00  0.00    -0.200 F 
ATOM     97  C   UNL     1      -8.794 -17.857   4.630  1.00  0.00     0.200 A 
ATOM     98  F   UNL     1      -9.915 -15.861   5.207  1.00  0.00    -0.200 F 
ATOM     99  F   UNL     1      -9.955 -18.525   4.623  1.00  0.00    -0.200 F 
ENDBRANCH  66  89
ENDBRANCH  40  41
ENDBRANCH  33  35
ENDBRANCH  32  33
ENDBRANCH  31  32
ENDBRANCH  30  31
ENDBRANCH  29  30
ENDBRANCH  28  29
ENDBRANCH   1  28
TORSDOF 21
