REMARK SMILES Cc1ccc(C(N)=O)c(NCc2ccc(C(=O)OCCOCCOCCOC(=O)c3ccc(-c4c5nc(c(-c6c(F)c(F)c(F)c(F)c6F)c6ccc([nH]6)c(-c6c(F)c(F)c(F)c(F)c6F)c6nc(c(-c7c(F)c(F)c(F)c(F)c7F)c7ccc4[nH]7)C=C6)C=C5)cc3)o2)n1
REMARK SMILES IDX 22 1 21 2 20 3 19 4 18 5 16 6 17 7 15 8 12 9 13 10 93 11
REMARK SMILES IDX 14 12 11 13 10 14 9 16 1 17 2 18 3 19 94 20 4 21 5 22 6 23
REMARK SMILES IDX 7 24 8 25 23 28 24 29 25 30 26 31 27 32 28 33 29 34 30 35
REMARK SMILES IDX 31 36 92 37 32 38 91 39 33 40 34 41 35 42 85 43 36 44 90 45
REMARK SMILES IDX 84 46 86 47 37 48 89 49 83 50 82 51 38 53 70 54 50 55 69 56
REMARK SMILES IDX 51 57 54 58 68 59 87 60 52 61 53 62 67 64 88 65 55 66 39 67
REMARK SMILES IDX 40 68 48 69 41 70 42 71 46 72 49 73 43 74 44 75 47 76 45 77
REMARK SMILES IDX 71 78 72 79 80 80 73 81 74 82 78 83 81 84 75 85 76 86 79 87
REMARK SMILES IDX 77 88 56 89 57 90 65 91 58 92 59 93 63 94 66 95 60 96 61 97
REMARK SMILES IDX 64 98 62 99
REMARK H PARENT 10 15 7 26 7 27 86 52 54 63
REMARK Flexibility Score: inf
ROOT
ATOM      1  C   UNL     1      -2.026   9.110  -2.361  1.00  0.00     0.188 C 
ENDROOT
BRANCH   1   2
ATOM      2  O   UNL     1      -1.371  10.215  -2.974  1.00  0.00    -0.376 OA
BRANCH   2   3
ATOM      3  C   UNL     1      -0.944  10.125  -4.327  1.00  0.00     0.202 C 
BRANCH   3   4
ATOM      4  C   UNL     1       0.177   9.130  -4.636  1.00  0.00     0.261 C 
BRANCH   4   5
ATOM      5  O   UNL     1      -0.193   7.771  -4.355  1.00  0.00    -0.457 OA
BRANCH   5   6
ATOM      6  C   UNL     1       0.533   7.151  -3.377  1.00  0.00     0.374 C 
ATOM      7  O   UNL     1       1.515   7.634  -2.826  1.00  0.00    -0.242 OA
BRANCH   6   8
ATOM      8  C   UNL     1      -0.103   5.909  -3.004  1.00  0.00     0.211 A 
ATOM      9  C   UNL     1      -0.666   4.350  -1.540  1.00  0.00     0.124 A 
ATOM     10  C   UNL     1      -1.296   4.020  -2.722  1.00  0.00     0.048 A 
ATOM     11  O   UNL     1       0.073   5.481  -1.716  1.00  0.00    -0.452 OA
ATOM     12  C   UNL     1      -0.949   5.030  -3.658  1.00  0.00     0.058 A 
BRANCH   9  13
ATOM     13  C   UNL     1      -0.649   3.783  -0.159  1.00  0.00     0.190 C 
BRANCH  13  14
ATOM     14  N   UNL     1      -1.531   2.645   0.064  1.00  0.00    -0.362 N 
ATOM     15  H   UNL     1      -2.483   2.787   0.270  1.00  0.00     0.162 HD
BRANCH  14  16
ATOM     16  C   UNL     1      -1.012   1.354  -0.015  1.00  0.00     0.139 A 
ATOM     17  C   UNL     1       2.391  -0.059  -0.125  1.00  0.00     0.067 C 
ATOM     18  C   UNL     1       0.893  -0.007  -0.100  1.00  0.00     0.040 A 
ATOM     19  C   UNL     1       0.137  -1.165  -0.040  1.00  0.00     0.024 A 
ATOM     20  N   UNL     1       0.333   1.227  -0.103  1.00  0.00    -0.236 NA
ATOM     21  C   UNL     1      -1.246  -1.046   0.014  1.00  0.00     0.019 A 
ATOM     22  C   UNL     1      -1.841   0.223   0.019  1.00  0.00     0.081 A 
BRANCH  22  23
ATOM     23  C   UNL     1      -3.327   0.268   0.068  1.00  0.00     0.252 C 
ATOM     24  N   UNL     1      -3.952   1.403  -0.365  1.00  0.00    -0.365 N 
ATOM     25  O   UNL     1      -3.986  -0.691   0.454  1.00  0.00    -0.269 OA
ATOM     26  H   UNL     1      -3.418   2.171  -0.674  1.00  0.00     0.159 HD
ATOM     27  H   UNL     1      -4.935   1.453  -0.368  1.00  0.00     0.159 HD
ENDBRANCH  22  23
ENDBRANCH  14  16
ENDBRANCH  13  14
ENDBRANCH   9  13
ENDBRANCH   6   8
ENDBRANCH   5   6
ENDBRANCH   4   5
ENDBRANCH   3   4
ENDBRANCH   2   3
ENDBRANCH   1   2
BRANCH   1  28
ATOM     28  C   UNL     1      -3.044   8.274  -3.161  1.00  0.00     0.188 C 
BRANCH  28  29
ATOM     29  O   UNL     1      -3.574   8.933  -4.301  1.00  0.00    -0.376 OA
BRANCH  29  30
ATOM     30  C   UNL     1      -4.968   9.207  -4.269  1.00  0.00     0.202 C 
BRANCH  30  31
ATOM     31  C   UNL     1      -5.305  10.464  -3.463  1.00  0.00     0.261 C 
BRANCH  31  32
ATOM     32  O   UNL     1      -4.968  10.385  -2.068  1.00  0.00    -0.460 OA
BRANCH  32  33
ATOM     33  C   UNL     1      -5.650   9.485  -1.329  1.00  0.00     0.338 C 
ATOM     34  O   UNL     1      -6.520   8.721  -1.706  1.00  0.00    -0.246 OA
BRANCH  33  35
ATOM     35  C   UNL     1      -5.053   9.462   0.020  1.00  0.00     0.060 A 
ATOM     36  C   UNL     1      -4.603   8.243   0.540  1.00  0.00     0.016 A 
ATOM     37  C   UNL     1      -4.946  10.637   0.768  1.00  0.00     0.016 A 
ATOM     38  C   UNL     1      -4.063   8.195   1.826  1.00  0.00     0.010 A 
ATOM     39  C   UNL     1      -4.420  10.585   2.060  1.00  0.00     0.010 A 
ATOM     40  C   UNL     1      -3.998   9.360   2.604  1.00  0.00    -0.014 A 
BRANCH  40  41
ATOM     41  C   UNL     1      -3.636   9.280   4.039  1.00  0.00     0.031 A 
ATOM     42  C   UNL     1      -4.737   9.167   5.056  1.00  0.00     0.074 A 
ATOM     43  C   UNL     1      -2.352   9.315   4.436  1.00  0.00     0.049 A 
ATOM     44  N   UNL     1      -4.663   9.120   6.362  1.00  0.00    -0.248 NA
ATOM     45  C   UNL     1      -6.108   9.098   4.527  1.00  0.00     0.031 C 
ATOM     46  C   UNL     1      -1.194   9.402   3.550  1.00  0.00     0.029 A 
ATOM     47  N   UNL     1      -1.812   9.293   5.699  1.00  0.00    -0.354 N 
ATOM     48  C   UNL     1      -5.972   9.013   6.809  1.00  0.00     0.074 A 
ATOM     49  C   UNL     1      -6.824   9.030   5.639  1.00  0.00     0.031 C 
ATOM     50  C   UNL     1      -0.077   9.442   4.298  1.00  0.00     0.029 A 
ATOM     51  C   UNL     1      -0.445   9.407   5.714  1.00  0.00     0.049 A 
ATOM     52  H   UNL     1      -2.355   9.204   6.516  1.00  0.00     0.167 HD
ATOM     53  C   UNL     1      -6.425   8.902   8.080  1.00  0.00     0.037 A 
ATOM     54  C   UNL     1       0.408   9.492   6.754  1.00  0.00     0.037 A 
ATOM     55  C   UNL     1      -5.584   8.899   9.246  1.00  0.00     0.049 A 
ATOM     56  C   UNL     1      -0.127   9.439   8.162  1.00  0.00     0.074 A 
ATOM     57  C   UNL     1      -5.950   8.774  10.575  1.00  0.00     0.029 A 
ATOM     58  N   UNL     1      -4.205   9.041   9.222  1.00  0.00    -0.354 N 
ATOM     59  N   UNL     1      -1.362   9.296   8.575  1.00  0.00    -0.248 NA
ATOM     60  C   UNL     1       0.856   9.557   9.250  1.00  0.00     0.031 C 
ATOM     61  C   UNL     1      -4.796   8.882  11.358  1.00  0.00     0.029 A 
ATOM     62  C   UNL     1      -3.707   9.030  10.515  1.00  0.00     0.049 A 
ATOM     63  H   UNL     1      -3.660   9.134   8.407  1.00  0.00     0.167 HD
ATOM     64  C   UNL     1      -1.303   9.281   9.963  1.00  0.00     0.074 A 
ATOM     65  C   UNL     1       0.092   9.420  10.324  1.00  0.00     0.031 C 
ATOM     66  C   UNL     1      -2.314   9.160  10.858  1.00  0.00     0.037 A 
BRANCH  53  67
ATOM     67  C   UNL     1      -7.907   8.794   8.273  1.00  0.00     0.064 A 
ATOM     68  C   UNL     1      -8.602   7.617   7.959  1.00  0.00     0.173 A 
ATOM     69  C   UNL     1      -8.635   9.870   8.801  1.00  0.00     0.173 A 
ATOM     70  F   UNL     1      -7.950   6.568   7.435  1.00  0.00    -0.203 F 
ATOM     71  C   UNL     1      -9.978   7.529   8.146  1.00  0.00     0.198 A 
ATOM     72  C   UNL     1     -10.008   9.770   9.009  1.00  0.00     0.198 A 
ATOM     73  F   UNL     1      -8.015  11.017   9.117  1.00  0.00    -0.203 F 
ATOM     74  F   UNL     1     -10.630   6.410   7.801  1.00  0.00    -0.200 F 
ATOM     75  C   UNL     1     -10.679   8.602   8.677  1.00  0.00     0.200 A 
ATOM     76  F   UNL     1     -10.683  10.805   9.527  1.00  0.00    -0.200 F 
ATOM     77  F   UNL     1     -12.004   8.515   8.859  1.00  0.00    -0.200 F 
ENDBRANCH  53  67
BRANCH  54  78
ATOM     78  C   UNL     1       1.865   9.648   6.509  1.00  0.00     0.064 A 
ATOM     79  C   UNL     1       2.761   8.610   6.798  1.00  0.00     0.173 A 
ATOM     80  C   UNL     1       2.393  10.847   6.009  1.00  0.00     0.173 A 
ATOM     81  F   UNL     1       2.305   7.456   7.309  1.00  0.00    -0.203 F 
ATOM     82  C   UNL     1       4.132   8.771   6.612  1.00  0.00     0.198 A 
ATOM     83  C   UNL     1       3.762  10.998   5.800  1.00  0.00     0.198 A 
ATOM     84  F   UNL     1       1.577  11.873   5.725  1.00  0.00    -0.203 F 
ATOM     85  F   UNL     1       4.972   7.780   6.942  1.00  0.00    -0.200 F 
ATOM     86  C   UNL     1       4.631   9.963   6.109  1.00  0.00     0.200 A 
ATOM     87  F   UNL     1       4.240  12.151   5.311  1.00  0.00    -0.200 F 
ATOM     88  F   UNL     1       5.951  10.118   5.934  1.00  0.00    -0.200 F 
ENDBRANCH  54  78
BRANCH  66  89
ATOM     89  C   UNL     1      -1.952   9.138  12.314  1.00  0.00     0.064 A 
ATOM     90  C   UNL     1      -1.560  10.301  12.992  1.00  0.00     0.173 A 
ATOM     91  C   UNL     1      -2.046   7.947  13.051  1.00  0.00     0.173 A 
ATOM     92  F   UNL     1      -1.442  11.461  12.329  1.00  0.00    -0.203 F 
ATOM     93  C   UNL     1      -1.259  10.269  14.351  1.00  0.00     0.198 A 
ATOM     94  C   UNL     1      -1.768   7.924  14.414  1.00  0.00     0.198 A 
ATOM     95  F   UNL     1      -2.423   6.808  12.449  1.00  0.00    -0.203 F 
ATOM     96  F   UNL     1      -0.851  11.385  14.972  1.00  0.00    -0.200 F 
ATOM     97  C   UNL     1      -1.369   9.083  15.062  1.00  0.00     0.200 A 
ATOM     98  F   UNL     1      -1.887   6.780  15.102  1.00  0.00    -0.200 F 
ATOM     99  F   UNL     1      -1.087   9.056  16.372  1.00  0.00    -0.200 F 
ENDBRANCH  66  89
ENDBRANCH  40  41
ENDBRANCH  33  35
ENDBRANCH  32  33
ENDBRANCH  31  32
ENDBRANCH  30  31
ENDBRANCH  29  30
ENDBRANCH  28  29
ENDBRANCH   1  28
TORSDOF 21
