REMARK SMILES CO[C@H]1C[C@H](C(=O)OCCOCCOCCOC(=O)c2ccc(-c3c4nc(c(-c5c(F)c(F)c(F)c(F)c5F)c5ccc([nH]5)c(-c5c(F)c(F)c(F)c(F)c5F)c5nc(c(-c6c(F)c(F)c(F)c(F)c6F)c6ccc3[nH]6)C=C5)C=C4)cc2)N(C(=O)[C@H]2C=C[C@@H]([NH3+])C2)C1
REMARK SMILES IDX 12 1 11 2 10 3 9 4 8 5 6 6 7 7 5 8 3 9 4 10 92 11 83 12 2 13
REMARK SMILES IDX 1 14 84 15 85 16 86 17 87 18 91 19 88 20 89 21 90 22 13 26
REMARK SMILES IDX 14 27 15 28 16 29 17 30 18 31 19 32 20 33 21 34 82 35 22 36
REMARK SMILES IDX 81 37 23 38 24 39 25 40 75 41 26 42 80 43 74 44 76 45 27 46
REMARK SMILES IDX 79 47 73 48 72 49 28 51 60 52 40 53 59 54 41 55 44 56 58 57
REMARK SMILES IDX 77 58 42 59 43 60 57 62 78 63 45 64 29 65 30 66 38 67 31 68
REMARK SMILES IDX 32 69 36 70 39 71 33 72 34 73 37 74 35 75 61 76 62 77 70 78
REMARK SMILES IDX 63 79 64 80 68 81 71 82 65 83 66 84 69 85 67 86 46 87 47 88
REMARK SMILES IDX 55 89 48 90 49 91 53 92 56 93 50 94 51 95 54 96 52 97
REMARK H PARENT 90 23 90 24 90 25 76 50 44 61
REMARK Flexibility Score: inf
ROOT
ATOM      1  C   UNL     1       1.463   5.499  -0.964  1.00  0.00     0.188 C 
ENDROOT
BRANCH   1   2
ATOM      2  O   UNL     1       1.540   5.339  -2.364  1.00  0.00    -0.376 OA
BRANCH   2   3
ATOM      3  C   UNL     1       1.603   4.016  -2.890  1.00  0.00     0.202 C 
BRANCH   3   4
ATOM      4  C   UNL     1       2.404   2.924  -2.156  1.00  0.00     0.261 C 
BRANCH   4   5
ATOM      5  O   UNL     1       2.075   2.806  -0.759  1.00  0.00    -0.462 OA
BRANCH   5   6
ATOM      6  C   UNL     1       3.126   2.644   0.083  1.00  0.00     0.329 C 
ATOM      7  O   UNL     1       4.264   2.405  -0.303  1.00  0.00    -0.250 OA
BRANCH   6   8
ATOM      8  C   UNL     1       2.763   2.947   1.559  1.00  0.00     0.197 C 
ATOM      9  C   UNL     1       1.478   1.016   2.213  1.00  0.00     0.140 C 
ATOM     10  C   UNL     1       1.382   2.531   2.050  1.00  0.00     0.071 C 
ATOM     11  C   UNL     1       2.963   0.799   2.558  1.00  0.00     0.152 C 
ATOM     12  N   UNL     1       3.604   2.108   2.402  1.00  0.00    -0.326 N 
BRANCH   9  13
ATOM     13  O   UNL     1       0.634   0.512   3.247  1.00  0.00    -0.380 OA
ATOM     14  C   UNL     1      -0.735   0.882   3.124  1.00  0.00     0.195 C 
ENDBRANCH   9  13
BRANCH  12  15
ATOM     15  C   UNL     1       4.857   2.351   2.904  1.00  0.00     0.230 C 
ATOM     16  O   UNL     1       5.480   1.435   3.456  1.00  0.00    -0.274 OA
BRANCH  15  17
ATOM     17  C   UNL     1       5.516   3.746   2.843  1.00  0.00     0.107 C 
ATOM     18  C   UNL     1       5.771   4.312   1.479  1.00  0.00    -0.012 C 
ATOM     19  C   UNL     1       4.777   4.891   3.551  1.00  0.00     0.087 C 
ATOM     20  C   UNL     1       5.583   5.637   1.448  1.00  0.00     0.033 C 
ATOM     21  C   UNL     1       5.194   6.163   2.789  1.00  0.00     0.205 C 
BRANCH  21  22
ATOM     22  N   UNL     1       4.129   7.143   2.697  1.00  0.00    -0.352 N 
ATOM     23  H   UNL     1       3.321   6.726   2.234  1.00  0.00     0.345 HD
ATOM     24  H   UNL     1       4.452   7.947   2.158  1.00  0.00     0.345 HD
ATOM     25  H   UNL     1       3.864   7.446   3.634  1.00  0.00     0.345 HD
ENDBRANCH  21  22
ENDBRANCH  15  17
ENDBRANCH  12  15
ENDBRANCH   6   8
ENDBRANCH   5   6
ENDBRANCH   4   5
ENDBRANCH   3   4
ENDBRANCH   2   3
ENDBRANCH   1   2
BRANCH   1  26
ATOM     26  C   UNL     1       0.244   4.939  -0.232  1.00  0.00     0.188 C 
BRANCH  26  27
ATOM     27  O   UNL     1      -0.356   3.754  -0.696  1.00  0.00    -0.376 OA
BRANCH  27  28
ATOM     28  C   UNL     1      -1.548   3.737  -1.470  1.00  0.00     0.202 C 
BRANCH  28  29
ATOM     29  C   UNL     1      -2.353   4.970  -1.943  1.00  0.00     0.261 C 
BRANCH  29  30
ATOM     30  O   UNL     1      -2.141   6.224  -1.288  1.00  0.00    -0.460 OA
BRANCH  30  31
ATOM     31  C   UNL     1      -2.671   6.349  -0.049  1.00  0.00     0.338 C 
ATOM     32  O   UNL     1      -3.410   5.555   0.514  1.00  0.00    -0.246 OA
BRANCH  31  33
ATOM     33  C   UNL     1      -1.965   7.463   0.639  1.00  0.00     0.060 A 
ATOM     34  C   UNL     1      -1.360   7.186   1.876  1.00  0.00     0.016 A 
ATOM     35  C   UNL     1      -1.822   8.725   0.057  1.00  0.00     0.016 A 
ATOM     36  C   UNL     1      -0.678   8.187   2.568  1.00  0.00     0.010 A 
ATOM     37  C   UNL     1      -1.162   9.738   0.765  1.00  0.00     0.010 A 
ATOM     38  C   UNL     1      -0.636   9.486   2.047  1.00  0.00    -0.014 A 
BRANCH  38  39
ATOM     39  C   UNL     1      -0.304  10.611   2.960  1.00  0.00     0.031 A 
ATOM     40  C   UNL     1      -1.449  11.353   3.599  1.00  0.00     0.074 A 
ATOM     41  C   UNL     1       0.962  10.934   3.277  1.00  0.00     0.049 A 
ATOM     42  N   UNL     1      -1.432  12.366   4.428  1.00  0.00    -0.248 NA
ATOM     43  C   UNL     1      -2.801  10.884   3.253  1.00  0.00     0.031 C 
ATOM     44  C   UNL     1       2.157  10.264   2.776  1.00  0.00     0.029 A 
ATOM     45  N   UNL     1       1.447  11.915   4.108  1.00  0.00    -0.354 N 
ATOM     46  C   UNL     1      -2.765  12.656   4.692  1.00  0.00     0.074 A 
ATOM     47  C   UNL     1      -3.564  11.743   3.907  1.00  0.00     0.031 C 
ATOM     48  C   UNL     1       3.242  10.853   3.310  1.00  0.00     0.029 A 
ATOM     49  C   UNL     1       2.818  11.962   4.164  1.00  0.00     0.049 A 
ATOM     50  H   UNL     1       0.866  12.526   4.617  1.00  0.00     0.167 HD
ATOM     51  C   UNL     1      -3.280  13.591   5.526  1.00  0.00     0.037 A 
ATOM     52  C   UNL     1       3.634  12.814   4.817  1.00  0.00     0.037 A 
ATOM     53  C   UNL     1      -2.487  14.501   6.309  1.00  0.00     0.049 A 
ATOM     54  C   UNL     1       3.035  13.900   5.678  1.00  0.00     0.074 A 
ATOM     55  C   UNL     1      -2.916  15.477   7.191  1.00  0.00     0.029 A 
ATOM     56  N   UNL     1      -1.101  14.551   6.299  1.00  0.00    -0.354 N 
ATOM     57  N   UNL     1       1.776  14.157   5.938  1.00  0.00    -0.248 NA
ATOM     58  C   UNL     1       3.978  14.811   6.344  1.00  0.00     0.031 C 
ATOM     59  C   UNL     1      -1.792  16.161   7.665  1.00  0.00     0.029 A 
ATOM     60  C   UNL     1      -0.659  15.564   7.135  1.00  0.00     0.049 A 
ATOM     61  H   UNL     1      -0.518  13.956   5.775  1.00  0.00     0.167 HD
ATOM     62  C   UNL     1       1.777  15.233   6.819  1.00  0.00     0.074 A 
ATOM     63  C   UNL     1       3.163  15.566   7.066  1.00  0.00     0.031 C 
ATOM     64  C   UNL     1       0.725  15.888   7.373  1.00  0.00     0.037 A 
BRANCH  51  65
ATOM     65  C   UNL     1      -4.776  13.697   5.602  1.00  0.00     0.064 A 
ATOM     66  C   UNL     1      -5.563  12.694   6.190  1.00  0.00     0.173 A 
ATOM     67  C   UNL     1      -5.430  14.829   5.092  1.00  0.00     0.173 A 
ATOM     68  F   UNL     1      -4.990  11.582   6.674  1.00  0.00    -0.203 F 
ATOM     69  C   UNL     1      -6.950  12.808   6.236  1.00  0.00     0.198 A 
ATOM     70  C   UNL     1      -6.814  14.955   5.173  1.00  0.00     0.198 A 
ATOM     71  F   UNL     1      -4.726  15.816   4.518  1.00  0.00    -0.203 F 
ATOM     72  F   UNL     1      -7.685  11.811   6.749  1.00  0.00    -0.200 F 
ATOM     73  C   UNL     1      -7.574  13.941   5.736  1.00  0.00     0.200 A 
ATOM     74  F   UNL     1      -7.413  16.056   4.700  1.00  0.00    -0.200 F 
ATOM     75  F   UNL     1      -8.908  14.052   5.788  1.00  0.00    -0.200 F 
ENDBRANCH  51  65
BRANCH  52  76
ATOM     76  C   UNL     1       5.112  12.694   4.676  1.00  0.00     0.064 A 
ATOM     77  C   UNL     1       5.923  12.357   5.770  1.00  0.00     0.173 A 
ATOM     78  C   UNL     1       5.748  12.960   3.454  1.00  0.00     0.173 A 
ATOM     79  F   UNL     1       5.368  12.125   6.969  1.00  0.00    -0.203 F 
ATOM     80  C   UNL     1       7.311  12.315   5.653  1.00  0.00     0.198 A 
ATOM     81  C   UNL     1       7.134  12.885   3.330  1.00  0.00     0.198 A 
ATOM     82  F   UNL     1       5.022  13.295   2.377  1.00  0.00    -0.203 F 
ATOM     83  F   UNL     1       8.065  12.051   6.729  1.00  0.00    -0.200 F 
ATOM     84  C   UNL     1       7.915  12.573   4.432  1.00  0.00     0.200 A 
ATOM     85  F   UNL     1       7.712  13.124   2.145  1.00  0.00    -0.200 F 
ATOM     86  F   UNL     1       9.250  12.534   4.320  1.00  0.00    -0.200 F 
ENDBRANCH  52  76
BRANCH  64  87
ATOM     87  C   UNL     1       1.034  17.005   8.333  1.00  0.00     0.064 A 
ATOM     88  C   UNL     1       1.622  18.207   7.909  1.00  0.00     0.173 A 
ATOM     89  C   UNL     1       0.725  16.877   9.697  1.00  0.00     0.173 A 
ATOM     90  F   UNL     1       1.947  18.381   6.618  1.00  0.00    -0.203 F 
ATOM     91  C   UNL     1       1.931  19.216   8.818  1.00  0.00     0.198 A 
ATOM     92  C   UNL     1       0.998  17.903  10.597  1.00  0.00     0.198 A 
ATOM     93  F   UNL     1       0.149  15.756  10.158  1.00  0.00    -0.203 F 
ATOM     94  F   UNL     1       2.557  20.324   8.399  1.00  0.00    -0.200 F 
ATOM     95  C   UNL     1       1.614  19.066  10.160  1.00  0.00     0.200 A 
ATOM     96  F   UNL     1       0.672  17.764  11.889  1.00  0.00    -0.200 F 
ATOM     97  F   UNL     1       1.912  20.037  11.033  1.00  0.00    -0.200 F 
ENDBRANCH  64  87
ENDBRANCH  38  39
ENDBRANCH  31  33
ENDBRANCH  30  31
ENDBRANCH  29  30
ENDBRANCH  28  29
ENDBRANCH  27  28
ENDBRANCH  26  27
ENDBRANCH   1  26
TORSDOF 21
