REMARK SMILES O=C(OCCOCCOCCOC(=O)c1ccc(N2C(=O)[C@@H]3CC=CC[C@H]3C2=O)cc1Cl)c1ccc(-c2c3nc(c(-c4c(F)c(F)c(F)c(F)c4F)c4ccc([nH]4)c(-c4c(F)c(F)c(F)c(F)c4F)c4nc(c(-c5c(F)c(F)c(F)c(F)c5F)c5ccc2[nH]5)C=C4)C=C3)cc1
REMARK SMILES IDX 7 1 6 2 5 3 4 4 3 5 2 6 1 7 33 8 34 9 95 10 35 11 94 12
REMARK SMILES IDX 36 13 37 14 38 15 88 16 39 17 93 18 87 19 89 20 40 21 92 22
REMARK SMILES IDX 86 23 85 24 41 26 73 27 53 28 72 29 54 30 57 31 71 32 90 33
REMARK SMILES IDX 55 34 56 35 70 37 91 38 58 39 42 40 43 41 51 42 44 43 45 44
REMARK SMILES IDX 49 45 52 46 46 47 47 48 50 49 48 50 74 51 75 52 83 53 76 54
REMARK SMILES IDX 77 55 81 56 84 57 78 58 79 59 82 60 80 61 59 62 60 63 68 64
REMARK SMILES IDX 61 65 62 66 66 67 69 68 63 69 64 70 67 71 65 72 8 73 9 74
REMARK SMILES IDX 10 75 11 76 12 77 13 78 14 79 15 80 16 81 31 82 17 83 30 84
REMARK SMILES IDX 32 85 18 86 19 87 20 88 28 89 21 90 22 91 27 92 29 93 23 94
REMARK SMILES IDX 26 95 24 96 25 97
REMARK H PARENT 89 25 57 36
REMARK Flexibility Score: inf
ROOT
ATOM      1  C   UNL     1       2.611   0.940  -1.610  1.00  0.00     0.188 C 
ENDROOT
BRANCH   1   2
ATOM      2  O   UNL     1       3.952   1.069  -1.129  1.00  0.00    -0.376 OA
BRANCH   2   3
ATOM      3  C   UNL     1       4.791  -0.052  -1.444  1.00  0.00     0.202 C 
BRANCH   3   4
ATOM      4  C   UNL     1       4.472  -1.367  -0.702  1.00  0.00     0.261 C 
BRANCH   4   5
ATOM      5  O   UNL     1       3.089  -1.512  -0.326  1.00  0.00    -0.460 OA
BRANCH   5   6
ATOM      6  C   UNL     1       2.477  -1.161   0.833  1.00  0.00     0.338 C 
ATOM      7  O   UNL     1       1.292  -1.455   0.986  1.00  0.00    -0.246 OA
BRANCH   6   8
ATOM      8  C   UNL     1       3.152  -0.412   1.936  1.00  0.00     0.060 A 
ATOM      9  C   UNL     1       4.313   0.341   1.785  1.00  0.00     0.016 A 
ATOM     10  C   UNL     1       2.544  -0.425   3.204  1.00  0.00     0.016 A 
ATOM     11  C   UNL     1       4.928   0.958   2.856  1.00  0.00     0.010 A 
ATOM     12  C   UNL     1       3.127   0.240   4.289  1.00  0.00     0.010 A 
ATOM     13  C   UNL     1       4.351   0.893   4.118  1.00  0.00    -0.014 A 
BRANCH  13  14
ATOM     14  C   UNL     1       5.177   1.362   5.241  1.00  0.00     0.031 A 
ATOM     15  C   UNL     1       5.863   0.327   6.079  1.00  0.00     0.074 A 
ATOM     16  C   UNL     1       5.467   2.670   5.347  1.00  0.00     0.049 A 
ATOM     17  N   UNL     1       6.677   0.480   7.087  1.00  0.00    -0.248 NA
ATOM     18  C   UNL     1       5.619  -1.079   5.711  1.00  0.00     0.031 C 
ATOM     19  C   UNL     1       4.974   3.714   4.446  1.00  0.00     0.029 A 
ATOM     20  N   UNL     1       6.288   3.337   6.213  1.00  0.00    -0.354 N 
ATOM     21  C   UNL     1       7.013  -0.805   7.492  1.00  0.00     0.074 A 
ATOM     22  C   UNL     1       6.314  -1.728   6.629  1.00  0.00     0.031 C 
ATOM     23  C   UNL     1       5.529   4.887   4.788  1.00  0.00     0.029 A 
ATOM     24  C   UNL     1       6.346   4.688   5.978  1.00  0.00     0.049 A 
ATOM     25  H   UNL     1       6.789   2.892   6.934  1.00  0.00     0.167 HD
ATOM     26  C   UNL     1       7.832  -1.169   8.505  1.00  0.00     0.037 A 
ATOM     27  C   UNL     1       6.968   5.652   6.679  1.00  0.00     0.037 A 
ATOM     28  C   UNL     1       8.510  -0.216   9.340  1.00  0.00     0.049 A 
ATOM     29  C   UNL     1       7.766   5.228   7.883  1.00  0.00     0.074 A 
ATOM     30  C   UNL     1       9.315  -0.441  10.439  1.00  0.00     0.029 A 
ATOM     31  N   UNL     1       8.449   1.162   9.158  1.00  0.00    -0.354 N 
ATOM     32  N   UNL     1       8.025   4.017   8.318  1.00  0.00    -0.248 NA
ATOM     33  C   UNL     1       8.349   6.298   8.698  1.00  0.00     0.031 C 
ATOM     34  C   UNL     1       9.688   0.802  10.961  1.00  0.00     0.029 A 
ATOM     35  C   UNL     1       9.178   1.803  10.144  1.00  0.00     0.049 A 
ATOM     36  H   UNL     1       7.960   1.615   8.434  1.00  0.00     0.167 HD
ATOM     37  C   UNL     1       8.824   4.174   9.440  1.00  0.00     0.074 A 
ATOM     38  C   UNL     1       9.020   5.602   9.605  1.00  0.00     0.031 C 
ATOM     39  C   UNL     1       9.351   3.231  10.262  1.00  0.00     0.037 A 
BRANCH  26  40
ATOM     40  C   UNL     1       7.936  -2.637   8.804  1.00  0.00     0.064 A 
ATOM     41  C   UNL     1       8.566  -3.541   7.934  1.00  0.00     0.173 A 
ATOM     42  C   UNL     1       7.334  -3.157   9.960  1.00  0.00     0.173 A 
ATOM     43  F   UNL     1       9.129  -3.103   6.797  1.00  0.00    -0.203 F 
ATOM     44  C   UNL     1       8.551  -4.911   8.189  1.00  0.00     0.198 A 
ATOM     45  C   UNL     1       7.350  -4.523  10.229  1.00  0.00     0.198 A 
ATOM     46  F   UNL     1       6.709  -2.341  10.822  1.00  0.00    -0.203 F 
ATOM     47  F   UNL     1       9.089  -5.762   7.304  1.00  0.00    -0.200 F 
ATOM     48  C   UNL     1       7.946  -5.400   9.337  1.00  0.00     0.200 A 
ATOM     49  F   UNL     1       6.768  -4.991  11.341  1.00  0.00    -0.200 F 
ATOM     50  F   UNL     1       7.920  -6.719   9.574  1.00  0.00    -0.200 F 
ENDBRANCH  26  40
BRANCH  27  51
ATOM     51  C   UNL     1       6.820   7.082   6.293  1.00  0.00     0.064 A 
ATOM     52  C   UNL     1       7.926   7.853   5.910  1.00  0.00     0.173 A 
ATOM     53  C   UNL     1       5.567   7.718   6.318  1.00  0.00     0.173 A 
ATOM     54  F   UNL     1       9.149   7.301   5.880  1.00  0.00    -0.203 F 
ATOM     55  C   UNL     1       7.791   9.205   5.596  1.00  0.00     0.198 A 
ATOM     56  C   UNL     1       5.428   9.060   5.973  1.00  0.00     0.198 A 
ATOM     57  F   UNL     1       4.466   7.032   6.666  1.00  0.00    -0.203 F 
ATOM     58  F   UNL     1       8.876   9.929   5.286  1.00  0.00    -0.200 F 
ATOM     59  C   UNL     1       6.542   9.807   5.624  1.00  0.00     0.200 A 
ATOM     60  F   UNL     1       4.215   9.628   5.990  1.00  0.00    -0.200 F 
ATOM     61  F   UNL     1       6.415  11.108   5.329  1.00  0.00    -0.200 F 
ENDBRANCH  27  51
BRANCH  39  62
ATOM     62  C   UNL     1      10.226   3.721  11.377  1.00  0.00     0.064 A 
ATOM     63  C   UNL     1       9.703   4.413  12.479  1.00  0.00     0.173 A 
ATOM     64  C   UNL     1      11.604   3.457  11.355  1.00  0.00     0.173 A 
ATOM     65  F   UNL     1       8.394   4.702  12.536  1.00  0.00    -0.203 F 
ATOM     66  C   UNL     1      10.535   4.852  13.504  1.00  0.00     0.198 A 
ATOM     67  C   UNL     1      12.425   3.862  12.401  1.00  0.00     0.198 A 
ATOM     68  F   UNL     1      12.150   2.791  10.327  1.00  0.00    -0.203 F 
ATOM     69  F   UNL     1      10.024   5.564  14.518  1.00  0.00    -0.200 F 
ATOM     70  C   UNL     1      11.892   4.568  13.469  1.00  0.00     0.200 A 
ATOM     71  F   UNL     1      13.733   3.570  12.375  1.00  0.00    -0.200 F 
ATOM     72  F   UNL     1      12.690   4.983  14.462  1.00  0.00    -0.200 F 
ENDBRANCH  39  62
ENDBRANCH  13  14
ENDBRANCH   6   8
ENDBRANCH   5   6
ENDBRANCH   4   5
ENDBRANCH   3   4
ENDBRANCH   2   3
ENDBRANCH   1   2
BRANCH   1  73
ATOM     73  C   UNL     1       2.043   2.214  -2.231  1.00  0.00     0.188 C 
BRANCH  73  74
ATOM     74  O   UNL     1       2.713   2.729  -3.373  1.00  0.00    -0.376 OA
BRANCH  74  75
ATOM     75  C   UNL     1       4.099   3.015  -3.243  1.00  0.00     0.202 C 
BRANCH  75  76
ATOM     76  C   UNL     1       4.532   4.136  -2.285  1.00  0.00     0.261 C 
BRANCH  76  77
ATOM     77  O   UNL     1       4.041   4.056  -0.933  1.00  0.00    -0.460 OA
BRANCH  77  78
ATOM     78  C   UNL     1       3.081   4.968  -0.643  1.00  0.00     0.339 C 
ATOM     79  O   UNL     1       2.507   5.711  -1.421  1.00  0.00    -0.246 OA
BRANCH  78  80
ATOM     80  C   UNL     1       2.796   5.022   0.798  1.00  0.00     0.078 A 
ATOM     81  C   UNL     1       1.833   4.175   1.369  1.00  0.00     0.019 A 
ATOM     82  C   UNL     1       3.293   6.100   1.525  1.00  0.00     0.057 A 
ATOM     83  C   UNL     1       1.337   4.440   2.658  1.00  0.00     0.028 A 
ATOM     84  C   UNL     1       2.748   6.396   2.772  1.00  0.00     0.048 A 
ATOM     85  Cl  UNL     1       4.573   7.104   0.945  1.00  0.00    -0.083 Cl
ATOM     86  C   UNL     1       1.744   5.595   3.336  1.00  0.00     0.053 A 
BRANCH  86  87
ATOM     87  N   UNL     1       1.138   6.017   4.539  1.00  0.00    -0.250 N 
ATOM     88  C   UNL     1       0.822   5.214   5.623  1.00  0.00     0.238 C 
ATOM     89  C   UNL     1       0.777   7.340   4.766  1.00  0.00     0.238 C 
ATOM     90  O   UNL     1       0.821   3.994   5.709  1.00  0.00    -0.274 OA
ATOM     91  C   UNL     1       0.620   6.180   6.765  1.00  0.00     0.096 C 
ATOM     92  C   UNL     1      -0.028   7.339   6.029  1.00  0.00     0.096 C 
ATOM     93  O   UNL     1       0.944   8.316   4.053  1.00  0.00    -0.274 OA
ATOM     94  C   UNL     1      -0.197   5.800   7.983  1.00  0.00     0.041 C 
ATOM     95  C   UNL     1      -0.013   8.605   6.860  1.00  0.00     0.041 C 
ATOM     96  C   UNL     1      -0.565   7.048   8.761  1.00  0.00    -0.030 C 
ATOM     97  C   UNL     1      -0.457   8.298   8.269  1.00  0.00    -0.030 C 
ENDBRANCH  86  87
ENDBRANCH  78  80
ENDBRANCH  77  78
ENDBRANCH  76  77
ENDBRANCH  75  76
ENDBRANCH  74  75
ENDBRANCH  73  74
ENDBRANCH   1  73
TORSDOF 18
