REMARK SMILES CN(C(=O)[C@H]1CCCC[C@H]1C(=O)OCCOCCOCCOC(=O)c1ccc(-c2c3nc(c(-c4c(F)c(F)c(F)c(F)c4F)c4ccc([nH]4)c(-c4c(F)c(F)c(F)c(F)c4F)c4nc(c(-c5c(F)c(F)c(F)c(F)c5F)c5ccc2[nH]5)C=C4)C=C3)cc1)C1CC1
REMARK SMILES IDX 17 1 16 2 15 3 14 4 13 5 11 6 12 7 10 8 5 9 6 10 7 11 9 12
REMARK SMILES IDX 8 13 3 14 4 15 2 16 1 17 88 18 89 19 90 20 18 21 19 22 20 23
REMARK SMILES IDX 21 24 22 25 23 26 24 27 25 28 26 29 87 30 27 31 86 32 28 33
REMARK SMILES IDX 29 34 30 35 80 36 31 37 85 38 79 39 81 40 32 41 84 42 78 43
REMARK SMILES IDX 77 44 33 46 65 47 45 48 64 49 46 50 49 51 63 52 82 53 47 54
REMARK SMILES IDX 48 55 62 57 83 58 50 59 34 60 35 61 43 62 36 63 37 64 41 65
REMARK SMILES IDX 44 66 38 67 39 68 42 69 40 70 66 71 67 72 75 73 68 74 69 75
REMARK SMILES IDX 73 76 76 77 70 78 71 79 74 80 72 81 51 82 52 83 60 84 53 85
REMARK SMILES IDX 54 86 58 87 61 88 55 89 56 90 59 91 57 92
REMARK H PARENT 81 45 49 56
REMARK Flexibility Score: inf
ROOT
ATOM      1  C   UNL     1       2.406   0.051   0.142  1.00  0.00     0.188 C 
ENDROOT
BRANCH   1   2
ATOM      2  O   UNL     1       3.703  -0.448  -0.154  1.00  0.00    -0.376 OA
BRANCH   2   3
ATOM      3  C   UNL     1       4.221  -0.164  -1.453  1.00  0.00     0.202 C 
BRANCH   3   4
ATOM      4  C   UNL     1       3.397  -0.648  -2.657  1.00  0.00     0.261 C 
BRANCH   4   5
ATOM      5  O   UNL     1       2.009  -0.253  -2.624  1.00  0.00    -0.463 OA
BRANCH   5   6
ATOM      6  C   UNL     1       1.104  -1.262  -2.690  1.00  0.00     0.309 C 
ATOM      7  O   UNL     1       1.404  -2.443  -2.837  1.00  0.00    -0.252 OA
BRANCH   6   8
ATOM      8  C   UNL     1      -0.342  -0.817  -2.443  1.00  0.00     0.111 C 
ATOM      9  C   UNL     1      -0.714   0.645  -2.761  1.00  0.00     0.093 C 
ATOM     10  C   UNL     1      -2.222   0.889  -2.939  1.00  0.00     0.014 C 
ATOM     11  C   UNL     1      -2.890  -0.117  -3.854  1.00  0.00     0.001 C 
ATOM     12  C   UNL     1      -1.284  -1.909  -3.009  1.00  0.00     0.016 C 
ATOM     13  C   UNL     1      -2.727  -1.521  -3.301  1.00  0.00     0.001 C 
BRANCH   9  14
ATOM     14  C   UNL     1       0.095   1.547  -3.715  1.00  0.00     0.226 C 
ATOM     15  O   UNL     1       0.362   2.685  -3.299  1.00  0.00    -0.275 OA
BRANCH  14  16
ATOM     16  N   UNL     1       0.413   1.177  -5.011  1.00  0.00    -0.343 N 
ATOM     17  C   UNL     1       0.311  -0.159  -5.575  1.00  0.00     0.147 C 
BRANCH  16  18
ATOM     18  C   UNL     1       1.112   2.111  -5.876  1.00  0.00     0.084 C 
ATOM     19  C   UNL     1       0.413   2.607  -7.122  1.00  0.00     0.027 C 
ATOM     20  C   UNL     1       0.776   3.569  -6.038  1.00  0.00     0.027 C 
ENDBRANCH  16  18
ENDBRANCH  14  16
ENDBRANCH   9  14
ENDBRANCH   6   8
ENDBRANCH   5   6
ENDBRANCH   4   5
ENDBRANCH   3   4
ENDBRANCH   2   3
ENDBRANCH   1   2
BRANCH   1  21
ATOM     21  C   UNL     1       2.180   1.560   0.016  1.00  0.00     0.188 C 
BRANCH  21  22
ATOM     22  O   UNL     1       2.868   2.221  -1.035  1.00  0.00    -0.376 OA
BRANCH  22  23
ATOM     23  C   UNL     1       2.699   3.645  -1.068  1.00  0.00     0.202 C 
BRANCH  23  24
ATOM     24  C   UNL     1       3.340   4.388   0.125  1.00  0.00     0.261 C 
BRANCH  24  25
ATOM     25  O   UNL     1       2.760   4.076   1.411  1.00  0.00    -0.460 OA
BRANCH  25  26
ATOM     26  C   UNL     1       1.427   4.272   1.540  1.00  0.00     0.338 C 
ATOM     27  O   UNL     1       0.719   4.947   0.812  1.00  0.00    -0.246 OA
BRANCH  26  28
ATOM     28  C   UNL     1       0.895   3.335   2.566  1.00  0.00     0.060 A 
ATOM     29  C   UNL     1      -0.329   2.701   2.305  1.00  0.00     0.016 A 
ATOM     30  C   UNL     1       1.591   3.038   3.742  1.00  0.00     0.016 A 
ATOM     31  C   UNL     1      -0.897   1.840   3.248  1.00  0.00     0.010 A 
ATOM     32  C   UNL     1       1.018   2.180   4.692  1.00  0.00     0.010 A 
ATOM     33  C   UNL     1      -0.255   1.620   4.474  1.00  0.00    -0.014 A 
BRANCH  33  34
ATOM     34  C   UNL     1      -1.022   1.040   5.610  1.00  0.00     0.031 A 
ATOM     35  C   UNL     1      -1.645   1.996   6.597  1.00  0.00     0.074 A 
ATOM     36  C   UNL     1      -1.213  -0.283   5.761  1.00  0.00     0.049 A 
ATOM     37  N   UNL     1      -2.356   1.750   7.669  1.00  0.00    -0.248 NA
ATOM     38  C   UNL     1      -1.431   3.428   6.335  1.00  0.00     0.031 C 
ATOM     39  C   UNL     1      -0.713  -1.322   4.866  1.00  0.00     0.029 A 
ATOM     40  N   UNL     1      -1.889  -0.976   6.738  1.00  0.00    -0.354 N 
ATOM     41  C   UNL     1      -2.665   2.992   8.209  1.00  0.00     0.074 A 
ATOM     42  C   UNL     1      -2.034   3.988   7.371  1.00  0.00     0.031 C 
ATOM     43  C   UNL     1      -1.100  -2.523   5.335  1.00  0.00     0.029 A 
ATOM     44  C   UNL     1      -1.852  -2.339   6.577  1.00  0.00     0.049 A 
ATOM     45  H   UNL     1      -2.357  -0.535   7.484  1.00  0.00     0.167 HD
ATOM     46  C   UNL     1      -3.419   3.286   9.295  1.00  0.00     0.037 A 
ATOM     47  C   UNL     1      -2.358  -3.322   7.350  1.00  0.00     0.037 A 
ATOM     48  C   UNL     1      -4.052   2.306  10.136  1.00  0.00     0.049 A 
ATOM     49  C   UNL     1      -3.122  -2.974   8.605  1.00  0.00     0.074 A 
ATOM     50  C   UNL     1      -4.851   2.510  11.248  1.00  0.00     0.029 A 
ATOM     51  N   UNL     1      -3.949   0.934   9.965  1.00  0.00    -0.354 N 
ATOM     52  N   UNL     1      -3.441  -1.797   9.087  1.00  0.00    -0.248 NA
ATOM     53  C   UNL     1      -3.602  -4.100   9.423  1.00  0.00     0.031 C 
ATOM     54  C   UNL     1      -5.184   1.262  11.783  1.00  0.00     0.029 A 
ATOM     55  C   UNL     1      -4.645   0.279  10.968  1.00  0.00     0.049 A 
ATOM     56  H   UNL     1      -3.454   0.491   9.238  1.00  0.00     0.167 HD
ATOM     57  C   UNL     1      -4.189  -2.041  10.235  1.00  0.00     0.074 A 
ATOM     58  C   UNL     1      -4.284  -3.478  10.374  1.00  0.00     0.031 C 
ATOM     59  C   UNL     1      -4.751  -1.152  11.092  1.00  0.00     0.037 A 
BRANCH  46  60
ATOM     60  C   UNL     1      -3.568   4.737   9.653  1.00  0.00     0.064 A 
ATOM     61  C   UNL     1      -4.318   5.621   8.861  1.00  0.00     0.173 A 
ATOM     62  C   UNL     1      -2.954   5.248  10.806  1.00  0.00     0.173 A 
ATOM     63  F   UNL     1      -4.910   5.186   7.739  1.00  0.00    -0.203 F 
ATOM     64  C   UNL     1      -4.417   6.970   9.192  1.00  0.00     0.198 A 
ATOM     65  C   UNL     1      -3.083   6.590  11.152  1.00  0.00     0.198 A 
ATOM     66  F   UNL     1      -2.229   4.445  11.599  1.00  0.00    -0.203 F 
ATOM     67  F   UNL     1      -5.086   7.808   8.389  1.00  0.00    -0.200 F 
ATOM     68  C   UNL     1      -3.805   7.452  10.339  1.00  0.00     0.200 A 
ATOM     69  F   UNL     1      -2.502   7.051  12.268  1.00  0.00    -0.200 F 
ATOM     70  F   UNL     1      -3.901   8.750  10.657  1.00  0.00    -0.200 F 
ENDBRANCH  46  60
BRANCH  47  71
ATOM     71  C   UNL     1      -2.172  -4.748   6.966  1.00  0.00     0.064 A 
ATOM     72  C   UNL     1      -3.265  -5.540   6.583  1.00  0.00     0.173 A 
ATOM     73  C   UNL     1      -0.912  -5.361   7.020  1.00  0.00     0.173 A 
ATOM     74  F   UNL     1      -4.497  -5.011   6.549  1.00  0.00    -0.203 F 
ATOM     75  C   UNL     1      -3.107  -6.893   6.287  1.00  0.00     0.198 A 
ATOM     76  C   UNL     1      -0.750  -6.707   6.696  1.00  0.00     0.198 A 
ATOM     77  F   UNL     1       0.164  -4.652   7.392  1.00  0.00    -0.203 F 
ATOM     78  F   UNL     1      -4.176  -7.639   5.977  1.00  0.00    -0.200 F 
ATOM     79  C   UNL     1      -1.849  -7.474   6.338  1.00  0.00     0.200 A 
ATOM     80  F   UNL     1       0.468  -7.263   6.743  1.00  0.00    -0.200 F 
ATOM     81  F   UNL     1      -1.697  -8.775   6.057  1.00  0.00    -0.200 F 
ENDBRANCH  47  71
BRANCH  59  82
ATOM     82  C   UNL     1      -5.570  -1.700  12.228  1.00  0.00     0.064 A 
ATOM     83  C   UNL     1      -4.986  -2.376  13.309  1.00  0.00     0.173 A 
ATOM     84  C   UNL     1      -6.962  -1.510  12.252  1.00  0.00     0.173 A 
ATOM     85  F   UNL     1      -3.662  -2.595  13.333  1.00  0.00    -0.203 F 
ATOM     86  C   UNL     1      -5.765  -2.868  14.354  1.00  0.00     0.198 A 
ATOM     87  C   UNL     1      -7.734  -1.974  13.314  1.00  0.00     0.198 A 
ATOM     88  F   UNL     1      -7.573  -0.861  11.250  1.00  0.00    -0.203 F 
ATOM     89  F   UNL     1      -5.190  -3.557  15.350  1.00  0.00    -0.200 F 
ATOM     90  C   UNL     1      -7.136  -2.661  14.359  1.00  0.00     0.200 A 
ATOM     91  F   UNL     1      -9.056  -1.757  13.325  1.00  0.00    -0.200 F 
ATOM     92  F   UNL     1      -7.883  -3.130  15.368  1.00  0.00    -0.200 F 
ENDBRANCH  59  82
ENDBRANCH  33  34
ENDBRANCH  26  28
ENDBRANCH  25  26
ENDBRANCH  24  25
ENDBRANCH  23  24
ENDBRANCH  22  23
ENDBRANCH  21  22
ENDBRANCH   1  21
TORSDOF 20
