REMARK SMILES Cc1ccc2c(c1)c(-c1ccnc3c(C)cccc13)c(C)n2CC(=O)OCCOCCOCCOC(=O)c1ccc(-c2c3nc(c(-c4c(F)c(F)c(F)c(F)c4F)c4ccc([nH]4)c(-c4c(F)c(F)c(F)c(F)c4F)c4nc(c(-c5c(F)c(F)c(F)c(F)c5F)c5ccc2[nH]5)C=C4)C=C3)cc1
REMARK SMILES IDX 30 1 29 2 28 3 27 4 26 5 24 6 25 7 23 8 22 9 1 10 2 11 3 12
REMARK SMILES IDX 7 13 4 14 6 15 5 16 8 17 20 18 21 19 9 20 10 21 19 22 11 23
REMARK SMILES IDX 13 24 18 25 12 26 14 27 17 28 15 29 16 30 31 31 32 32 33 33
REMARK SMILES IDX 34 34 35 35 36 36 37 37 38 38 39 39 100 40 40 41 99 42 41 43
REMARK SMILES IDX 42 44 43 45 93 46 44 47 98 48 92 49 94 50 45 51 97 52 91 53
REMARK SMILES IDX 90 54 46 56 78 57 58 58 77 59 59 60 62 61 76 62 95 63 60 64
REMARK SMILES IDX 61 65 75 67 96 68 63 69 47 70 48 71 56 72 49 73 50 74 54 75
REMARK SMILES IDX 57 76 51 77 52 78 55 79 53 80 79 81 80 82 88 83 81 84 82 85
REMARK SMILES IDX 86 86 89 87 83 88 84 89 87 90 85 91 64 92 65 93 73 94 66 95
REMARK SMILES IDX 67 96 71 97 74 98 68 99 69 100 72 101 70 102
REMARK H PARENT 94 55 62 66
REMARK Flexibility Score: inf
ROOT
ATOM      1  C   UNL     1      -4.186   1.686  -7.118  1.00  0.00     0.188 C 
ENDROOT
BRANCH   1   2
ATOM      2  O   UNL     1      -5.471   1.087  -7.167  1.00  0.00    -0.376 OA
BRANCH   2   3
ATOM      3  C   UNL     1      -5.995   0.537  -5.969  1.00  0.00     0.202 C 
BRANCH   3   4
ATOM      4  C   UNL     1      -5.202  -0.648  -5.414  1.00  0.00     0.261 C 
BRANCH   4   5
ATOM      5  O   UNL     1      -3.935  -0.207  -4.879  1.00  0.00    -0.462 OA
BRANCH   5   6
ATOM      6  C   UNL     1      -2.924  -1.110  -4.939  1.00  0.00     0.326 C 
ATOM      7  O   UNL     1      -3.084  -2.293  -5.229  1.00  0.00    -0.250 OA
BRANCH   6   8
ATOM      8  C   UNL     1      -1.558  -0.485  -4.912  1.00  0.00     0.244 C 
BRANCH   8   9
ATOM      9  N   UNL     1      -1.175   0.470  -3.884  1.00  0.00    -0.333 N 
ATOM     10  C   UNL     1       1.261  -0.288   1.124  1.00  0.00     0.044 C 
ATOM     11  C   UNL     1       0.507  -0.144  -0.163  1.00  0.00    -0.050 A 
ATOM     12  C   UNL     1       0.069  -1.282  -0.846  1.00  0.00     0.005 A 
ATOM     13  C   UNL     1       0.327   1.132  -0.726  1.00  0.00     0.014 A 
ATOM     14  C   UNL     1      -0.573  -1.184  -2.078  1.00  0.00     0.027 A 
ATOM     15  C   UNL     1      -0.256   1.253  -2.000  1.00  0.00     0.008 A 
ATOM     16  C   UNL     1      -0.704   0.091  -2.642  1.00  0.00     0.049 A 
ATOM     17  C   UNL     1      -0.454   2.335  -2.900  1.00  0.00     0.011 A 
ATOM     18  C   UNL     1      -0.733   1.757  -4.124  1.00  0.00     0.024 A 
ATOM     19  C   UNL     1      -0.488   2.348  -5.457  1.00  0.00     0.065 C 
BRANCH  17  20
ATOM     20  C   UNL     1      -0.157   3.763  -2.828  1.00  0.00    -0.005 A 
ATOM     21  C   UNL     1       1.156   4.194  -3.006  1.00  0.00     0.029 A 
ATOM     22  C   UNL     1      -1.218   4.708  -2.800  1.00  0.00     0.008 A 
ATOM     23  C   UNL     1       1.369   5.547  -3.153  1.00  0.00     0.112 A 
ATOM     24  C   UNL     1      -0.892   6.075  -2.956  1.00  0.00     0.074 A 
ATOM     25  C   UNL     1      -2.577   4.333  -2.663  1.00  0.00     0.011 A 
ATOM     26  N   UNL     1       0.387   6.473  -3.126  1.00  0.00    -0.256 NA
ATOM     27  C   UNL     1      -1.935   7.016  -2.958  1.00  0.00    -0.025 A 
ATOM     28  C   UNL     1      -3.596   5.276  -2.671  1.00  0.00     0.001 A 
ATOM     29  C   UNL     1      -1.672   8.491  -3.125  1.00  0.00     0.047 C 
ATOM     30  C   UNL     1      -3.276   6.615  -2.814  1.00  0.00     0.005 A 
ENDBRANCH  17  20
ENDBRANCH   8   9
ENDBRANCH   6   8
ENDBRANCH   5   6
ENDBRANCH   4   5
ENDBRANCH   3   4
ENDBRANCH   2   3
ENDBRANCH   1   2
BRANCH   1  31
ATOM     31  C   UNL     1      -3.801   2.582  -5.928  1.00  0.00     0.188 C 
BRANCH  31  32
ATOM     32  O   UNL     1      -4.812   3.393  -5.356  1.00  0.00    -0.376 OA
BRANCH  32  33
ATOM     33  C   UNL     1      -5.444   4.329  -6.225  1.00  0.00     0.202 C 
BRANCH  33  34
ATOM     34  C   UNL     1      -4.492   5.317  -6.912  1.00  0.00     0.261 C 
BRANCH  34  35
ATOM     35  O   UNL     1      -3.852   4.655  -8.023  1.00  0.00    -0.460 OA
BRANCH  35  36
ATOM     36  C   UNL     1      -2.630   5.128  -8.367  1.00  0.00     0.338 C 
ATOM     37  O   UNL     1      -2.174   6.225  -8.090  1.00  0.00    -0.246 OA
BRANCH  36  38
ATOM     38  C   UNL     1      -1.816   3.971  -8.828  1.00  0.00     0.060 A 
ATOM     39  C   UNL     1      -2.340   2.915  -9.585  1.00  0.00     0.016 A 
ATOM     40  C   UNL     1      -0.530   3.860  -8.304  1.00  0.00     0.016 A 
ATOM     41  C   UNL     1      -1.647   1.694  -9.675  1.00  0.00     0.010 A 
ATOM     42  C   UNL     1       0.164   2.652  -8.415  1.00  0.00     0.010 A 
ATOM     43  C   UNL     1      -0.413   1.531  -9.034  1.00  0.00    -0.014 A 
BRANCH  43  44
ATOM     44  C   UNL     1       0.437   0.351  -9.286  1.00  0.00     0.031 A 
ATOM     45  C   UNL     1       1.312   0.578 -10.437  1.00  0.00     0.074 A 
ATOM     46  C   UNL     1       0.558  -0.867  -8.707  1.00  0.00     0.049 A 
ATOM     47  N   UNL     1       1.025   0.164 -11.623  1.00  0.00    -0.248 NA
ATOM     48  C   UNL     1       2.513   1.406 -10.333  1.00  0.00     0.031 C 
ATOM     49  C   UNL     1      -0.181  -1.395  -7.581  1.00  0.00     0.029 A 
ATOM     50  N   UNL     1       1.418  -1.911  -8.990  1.00  0.00    -0.354 N 
ATOM     51  C   UNL     1       2.132   0.467 -12.376  1.00  0.00     0.074 A 
ATOM     52  C   UNL     1       2.914   1.406 -11.607  1.00  0.00     0.031 C 
ATOM     53  C   UNL     1       0.419  -2.501  -7.077  1.00  0.00     0.029 A 
ATOM     54  C   UNL     1       1.456  -2.904  -8.014  1.00  0.00     0.049 A 
ATOM     55  H   UNL     1       1.959  -1.949  -9.812  1.00  0.00     0.167 HD
ATOM     56  C   UNL     1       2.466  -0.336 -13.415  1.00  0.00     0.037 A 
ATOM     57  C   UNL     1       2.057  -4.120  -8.044  1.00  0.00     0.037 A 
ATOM     58  C   UNL     1       1.433  -1.292 -13.732  1.00  0.00     0.049 A 
ATOM     59  C   UNL     1       1.937  -4.623  -9.427  1.00  0.00     0.074 A 
ATOM     60  C   UNL     1       0.223  -1.285 -14.391  1.00  0.00     0.029 A 
ATOM     61  N   UNL     1       1.473  -2.440 -12.989  1.00  0.00    -0.354 N 
ATOM     62  N   UNL     1       0.804  -4.965  -9.975  1.00  0.00    -0.248 NA
ATOM     63  C   UNL     1       3.082  -4.563 -10.328  1.00  0.00     0.031 C 
ATOM     64  C   UNL     1      -0.494  -2.445 -13.963  1.00  0.00     0.029 A 
ATOM     65  C   UNL     1       0.289  -3.134 -13.046  1.00  0.00     0.049 A 
ATOM     66  H   UNL     1       2.258  -2.735 -12.474  1.00  0.00     0.167 HD
ATOM     67  C   UNL     1       1.003  -4.713 -11.312  1.00  0.00     0.074 A 
ATOM     68  C   UNL     1       2.445  -4.670 -11.496  1.00  0.00     0.031 C 
ATOM     69  C   UNL     1       0.014  -4.161 -12.066  1.00  0.00     0.037 A 
BRANCH  56  70
ATOM     70  C   UNL     1       3.881  -0.550 -13.843  1.00  0.00     0.064 A 
ATOM     71  C   UNL     1       4.143  -1.022 -15.136  1.00  0.00     0.173 A 
ATOM     72  C   UNL     1       4.969  -0.543 -12.944  1.00  0.00     0.173 A 
ATOM     73  F   UNL     1       3.151  -1.130 -16.033  1.00  0.00    -0.203 F 
ATOM     74  C   UNL     1       5.416  -1.453 -15.508  1.00  0.00     0.198 A 
ATOM     75  C   UNL     1       6.251  -0.911 -13.335  1.00  0.00     0.198 A 
ATOM     76  F   UNL     1       4.802  -0.287 -11.639  1.00  0.00    -0.203 F 
ATOM     77  F   UNL     1       5.610  -1.982 -16.723  1.00  0.00    -0.200 F 
ATOM     78  C   UNL     1       6.471  -1.383 -14.613  1.00  0.00     0.200 A 
ATOM     79  F   UNL     1       7.251  -0.869 -12.444  1.00  0.00    -0.200 F 
ATOM     80  F   UNL     1       7.689  -1.817 -14.963  1.00  0.00    -0.200 F 
ENDBRANCH  56  70
BRANCH  57  81
ATOM     81  C   UNL     1       2.647  -4.953  -6.966  1.00  0.00     0.064 A 
ATOM     82  C   UNL     1       2.897  -6.327  -7.149  1.00  0.00     0.173 A 
ATOM     83  C   UNL     1       3.269  -4.348  -5.859  1.00  0.00     0.173 A 
ATOM     84  F   UNL     1       2.365  -6.983  -8.190  1.00  0.00    -0.203 F 
ATOM     85  C   UNL     1       3.765  -7.037  -6.314  1.00  0.00     0.198 A 
ATOM     86  C   UNL     1       4.135  -5.061  -5.023  1.00  0.00     0.198 A 
ATOM     87  F   UNL     1       3.122  -3.035  -5.633  1.00  0.00    -0.203 F 
ATOM     88  F   UNL     1       4.038  -8.323  -6.574  1.00  0.00    -0.200 F 
ATOM     89  C   UNL     1       4.399  -6.399  -5.263  1.00  0.00     0.200 A 
ATOM     90  F   UNL     1       4.770  -4.428  -4.026  1.00  0.00    -0.200 F 
ATOM     91  F   UNL     1       5.293  -7.058  -4.513  1.00  0.00    -0.200 F 
ENDBRANCH  57  81
BRANCH  69  92
ATOM     92  C   UNL     1      -1.401  -4.509 -11.724  1.00  0.00     0.064 A 
ATOM     93  C   UNL     1      -2.057  -4.137 -10.540  1.00  0.00     0.173 A 
ATOM     94  C   UNL     1      -2.139  -5.236 -12.669  1.00  0.00     0.173 A 
ATOM     95  F   UNL     1      -1.442  -3.388  -9.615  1.00  0.00    -0.203 F 
ATOM     96  C   UNL     1      -3.383  -4.508 -10.305  1.00  0.00     0.198 A 
ATOM     97  C   UNL     1      -3.470  -5.576 -12.447  1.00  0.00     0.198 A 
ATOM     98  F   UNL     1      -1.569  -5.601 -13.829  1.00  0.00    -0.203 F 
ATOM     99  F   UNL     1      -3.986  -4.157  -9.160  1.00  0.00    -0.200 F 
ATOM    100  C   UNL     1      -4.089  -5.221 -11.261  1.00  0.00     0.200 A 
ATOM    101  F   UNL     1      -4.155  -6.238 -13.390  1.00  0.00    -0.200 F 
ATOM    102  F   UNL     1      -5.371  -5.550 -11.048  1.00  0.00    -0.200 F 
ENDBRANCH  69  92
ENDBRANCH  43  44
ENDBRANCH  36  38
ENDBRANCH  35  36
ENDBRANCH  34  35
ENDBRANCH  33  34
ENDBRANCH  32  33
ENDBRANCH  31  32
ENDBRANCH   1  31
TORSDOF 19
