REMARK SMILES O=C(C[N@@H+](CC(F)(F)F)[C@H]1CCCC[C@H]1O)OCCOCCOCCOC(=O)c1ccc(-c2c3nc(c(-c4c(F)c(F)c(F)c(F)c4F)c4ccc([nH]4)c(-c4c(F)c(F)c(F)c(F)c4F)c4nc(c(-c5c(F)c(F)c(F)c(F)c5F)c5ccc2[nH]5)C=C4)C=C3)cc1
REMARK SMILES IDX 21 1 20 2 19 3 18 4 17 5 2 6 1 7 3 8 4 9 5 11 6 12 7 13 8 14
REMARK SMILES IDX 9 15 10 16 11 17 15 18 12 19 14 20 13 21 16 22 22 24 23 25
REMARK SMILES IDX 24 26 25 27 26 28 27 29 28 30 29 31 30 32 91 33 31 34 90 35
REMARK SMILES IDX 32 36 33 37 34 38 84 39 35 40 89 41 83 42 85 43 36 44 88 45
REMARK SMILES IDX 82 46 81 47 37 49 69 50 49 51 68 52 50 53 53 54 67 55 86 56
REMARK SMILES IDX 51 57 52 58 66 60 87 61 54 62 38 63 39 64 47 65 40 66 41 67
REMARK SMILES IDX 45 68 48 69 42 70 43 71 46 72 44 73 70 74 71 75 79 76 72 77
REMARK SMILES IDX 73 78 77 79 80 80 74 81 75 82 78 83 76 84 55 85 56 86 64 87
REMARK SMILES IDX 57 88 58 89 62 90 65 91 59 92 60 93 63 94 61 95
REMARK H PARENT 4 10 16 23 85 48 53 59
REMARK Flexibility Score: inf
ROOT
ATOM      1  C   UNL     1       3.474   2.233   0.817  1.00  0.00     0.188 C 
ENDROOT
BRANCH   1   2
ATOM      2  O   UNL     1       4.633   1.907   0.066  1.00  0.00    -0.376 OA
BRANCH   2   3
ATOM      3  C   UNL     1       5.011   0.545   0.079  1.00  0.00     0.202 C 
BRANCH   3   4
ATOM      4  C   UNL     1       4.276  -0.207  -1.022  1.00  0.00     0.261 C 
BRANCH   4   5
ATOM      5  O   UNL     1       2.834  -0.136  -0.952  1.00  0.00    -0.459 OA
BRANCH   5   6
ATOM      6  C   UNL     1       2.023  -0.661  -0.012  1.00  0.00     0.361 C 
ATOM      7  O   UNL     1       0.803  -0.534  -0.125  1.00  0.00    -0.245 OA
BRANCH   6   8
ATOM      8  C   UNL     1       2.601  -1.296   1.242  1.00  0.00     0.387 C 
BRANCH   8   9
ATOM      9  N   UNL     1       3.659  -2.338   1.053  1.00  0.00    -0.314 N 
ATOM     10  H   UNL     1       4.348  -2.088   0.343  1.00  0.00     0.349 HD
BRANCH   9  11
ATOM     11  C   UNL     1       4.389  -2.472   2.364  1.00  0.00     0.380 C 
BRANCH  11  12
ATOM     12  C   UNL     1       3.630  -2.663   3.698  1.00  0.00     0.438 C 
ATOM     13  F   UNL     1       2.767  -3.697   3.638  1.00  0.00    -0.165 F 
ATOM     14  F   UNL     1       4.496  -2.901   4.707  1.00  0.00    -0.165 F 
ATOM     15  F   UNL     1       2.927  -1.554   4.025  1.00  0.00    -0.165 F 
ENDBRANCH  11  12
ENDBRANCH   9  11
BRANCH   9  16
ATOM     16  C   UNL     1       3.020  -3.603   0.558  1.00  0.00     0.213 C 
ATOM     17  C   UNL     1       2.774  -3.511  -0.971  1.00  0.00     0.068 C 
ATOM     18  C   UNL     1       3.799  -4.928   0.826  1.00  0.00     0.172 C 
ATOM     19  C   UNL     1       1.962  -4.694  -1.481  1.00  0.00     0.006 C 
ATOM     20  C   UNL     1       2.995  -6.129   0.319  1.00  0.00     0.038 C 
ATOM     21  C   UNL     1       2.640  -6.016  -1.162  1.00  0.00     0.003 C 
BRANCH  18  22
ATOM     22  O   UNL     1       5.077  -4.933   0.189  1.00  0.00    -0.387 OA
ATOM     23  H   UNL     1       4.960  -4.870  -0.772  1.00  0.00     0.211 HD
ENDBRANCH  18  22
ENDBRANCH   9  16
ENDBRANCH   8   9
ENDBRANCH   6   8
ENDBRANCH   5   6
ENDBRANCH   4   5
ENDBRANCH   3   4
ENDBRANCH   2   3
ENDBRANCH   1   2
BRANCH   1  24
ATOM     24  C   UNL     1       2.568   3.211   0.063  1.00  0.00     0.188 C 
BRANCH  24  25
ATOM     25  O   UNL     1       3.134   4.320  -0.624  1.00  0.00    -0.376 OA
BRANCH  25  26
ATOM     26  C   UNL     1       4.444   4.755  -0.298  1.00  0.00     0.202 C 
BRANCH  26  27
ATOM     27  C   UNL     1       4.591   5.520   1.023  1.00  0.00     0.261 C 
BRANCH  27  28
ATOM     28  O   UNL     1       4.227   4.774   2.203  1.00  0.00    -0.460 OA
BRANCH  28  29
ATOM     29  C   UNL     1       3.018   5.078   2.739  1.00  0.00     0.338 C 
ATOM     30  O   UNL     1       2.236   5.926   2.348  1.00  0.00    -0.246 OA
BRANCH  29  31
ATOM     31  C   UNL     1       2.669   4.148   3.842  1.00  0.00     0.060 A 
ATOM     32  C   UNL     1       1.410   3.531   3.810  1.00  0.00     0.016 A 
ATOM     33  C   UNL     1       3.492   3.988   4.960  1.00  0.00     0.016 A 
ATOM     34  C   UNL     1       0.938   2.822   4.919  1.00  0.00     0.010 A 
ATOM     35  C   UNL     1       3.011   3.288   6.079  1.00  0.00     0.010 A 
ATOM     36  C   UNL     1       1.710   2.747   6.086  1.00  0.00    -0.014 A 
BRANCH  36  37
ATOM     37  C   UNL     1       1.074   2.325   7.366  1.00  0.00     0.031 A 
ATOM     38  C   UNL     1       0.555   3.393   8.298  1.00  0.00     0.074 A 
ATOM     39  C   UNL     1       0.915   1.031   7.699  1.00  0.00     0.049 A 
ATOM     40  N   UNL     1      -0.006   3.277   9.477  1.00  0.00    -0.248 NA
ATOM     41  C   UNL     1       0.689   4.782   7.832  1.00  0.00     0.031 C 
ATOM     42  C   UNL     1       1.313  -0.111   6.882  1.00  0.00     0.029 A 
ATOM     43  N   UNL     1       0.374   0.464   8.830  1.00  0.00    -0.354 N 
ATOM     44  C   UNL     1      -0.284   4.573   9.893  1.00  0.00     0.074 A 
ATOM     45  C   UNL     1       0.198   5.461   8.857  1.00  0.00     0.031 C 
ATOM     46  C   UNL     1       1.013  -1.244   7.542  1.00  0.00     0.029 A 
ATOM     47  C   UNL     1       0.426  -0.909   8.840  1.00  0.00     0.049 A 
ATOM     48  H   UNL     1      -0.015   0.992   9.564  1.00  0.00     0.167 HD
ATOM     49  C   UNL     1      -0.893   4.992  11.029  1.00  0.00     0.037 A 
ATOM     50  C   UNL     1       0.059  -1.790   9.793  1.00  0.00     0.037 A 
ATOM     51  C   UNL     1      -1.379   4.122  12.067  1.00  0.00     0.049 A 
ATOM     52  C   UNL     1      -0.540  -1.296  11.088  1.00  0.00     0.074 A 
ATOM     53  C   UNL     1      -2.024   4.459  13.245  1.00  0.00     0.029 A 
ATOM     54  N   UNL     1      -1.268   2.740  12.056  1.00  0.00    -0.354 N 
ATOM     55  N   UNL     1      -0.820  -0.072  11.462  1.00  0.00    -0.248 NA
ATOM     56  C   UNL     1      -0.877  -2.316  12.095  1.00  0.00     0.031 C 
ATOM     57  C   UNL     1      -2.255   3.285  13.971  1.00  0.00     0.029 A 
ATOM     58  C   UNL     1      -1.806   2.212  13.219  1.00  0.00     0.049 A 
ATOM     59  H   UNL     1      -0.866   2.212  11.329  1.00  0.00     0.167 HD
ATOM     60  C   UNL     1      -1.397  -0.177  12.723  1.00  0.00     0.074 A 
ATOM     61  C   UNL     1      -1.435  -1.585  13.049  1.00  0.00     0.031 C 
ATOM     62  C   UNL     1      -1.857   0.808  13.534  1.00  0.00     0.037 A 
BRANCH  49  63
ATOM     63  C   UNL     1      -1.043   6.473  11.223  1.00  0.00     0.064 A 
ATOM     64  C   UNL     1      -1.947   7.230  10.462  1.00  0.00     0.173 A 
ATOM     65  C   UNL     1      -0.289   7.140  12.201  1.00  0.00     0.173 A 
ATOM     66  F   UNL     1      -2.682   6.642   9.506  1.00  0.00    -0.203 F 
ATOM     67  C   UNL     1      -2.067   8.604  10.652  1.00  0.00     0.198 A 
ATOM     68  C   UNL     1      -0.434   8.508  12.408  1.00  0.00     0.198 A 
ATOM     69  F   UNL     1       0.585   6.462  12.960  1.00  0.00    -0.203 F 
ATOM     70  F   UNL     1      -2.899   9.315   9.879  1.00  0.00    -0.200 F 
ATOM     71  C   UNL     1      -1.316   9.241  11.628  1.00  0.00     0.200 A 
ATOM     72  F   UNL     1       0.284   9.120  13.361  1.00  0.00    -0.200 F 
ATOM     73  F   UNL     1      -1.435  10.563  11.812  1.00  0.00    -0.200 F 
ENDBRANCH  49  63
BRANCH  50  74
ATOM     74  C   UNL     1       0.251  -3.250   9.573  1.00  0.00     0.064 A 
ATOM     75  C   UNL     1      -0.847  -4.111   9.438  1.00  0.00     0.173 A 
ATOM     76  C   UNL     1       1.533  -3.818   9.542  1.00  0.00     0.173 A 
ATOM     77  F   UNL     1      -2.094  -3.620   9.497  1.00  0.00    -0.203 F 
ATOM     78  C   UNL     1      -0.671  -5.486   9.298  1.00  0.00     0.198 A 
ATOM     79  C   UNL     1       1.708  -5.190   9.373  1.00  0.00     0.198 A 
ATOM     80  F   UNL     1       2.617  -3.040   9.678  1.00  0.00    -0.203 F 
ATOM     81  F   UNL     1      -1.740  -6.292   9.225  1.00  0.00    -0.200 F 
ATOM     82  C   UNL     1       0.606  -6.024   9.260  1.00  0.00     0.200 A 
ATOM     83  F   UNL     1       2.945  -5.705   9.331  1.00  0.00    -0.200 F 
ATOM     84  F   UNL     1       0.775  -7.347   9.127  1.00  0.00    -0.200 F 
ENDBRANCH  50  74
BRANCH  62  85
ATOM     85  C   UNL     1      -2.490   0.402  14.836  1.00  0.00     0.064 A 
ATOM     86  C   UNL     1      -1.733  -0.107  15.902  1.00  0.00     0.173 A 
ATOM     87  C   UNL     1      -3.871   0.562  15.033  1.00  0.00     0.173 A 
ATOM     88  F   UNL     1      -0.412  -0.293  15.763  1.00  0.00    -0.203 F 
ATOM     89  C   UNL     1      -2.338  -0.466  17.104  1.00  0.00     0.198 A 
ATOM     90  C   UNL     1      -4.468   0.232  16.247  1.00  0.00     0.198 A 
ATOM     91  F   UNL     1      -4.642   1.053  14.051  1.00  0.00    -0.203 F 
ATOM     92  F   UNL     1      -1.602  -0.996  18.091  1.00  0.00    -0.200 F 
ATOM     93  C   UNL     1      -3.703  -0.290  17.279  1.00  0.00     0.200 A 
ATOM     94  F   UNL     1      -5.785   0.417  16.418  1.00  0.00    -0.200 F 
ATOM     95  F   UNL     1      -4.282  -0.630  18.438  1.00  0.00    -0.200 F 
ENDBRANCH  62  85
ENDBRANCH  36  37
ENDBRANCH  29  31
ENDBRANCH  28  29
ENDBRANCH  27  28
ENDBRANCH  26  27
ENDBRANCH  25  26
ENDBRANCH  24  25
ENDBRANCH   1  24
TORSDOF 22
