REMARK SMILES CCCn1cc(S(=O)(=O)N[C@H]2C=C[C@@H](C(=O)OCCOCCOCCOC(=O)c3ccc(-c4c5nc(c(-c6c(F)c(F)c(F)c(F)c6F)c6ccc([nH]6)c(-c6c(F)c(F)c(F)c(F)c6F)c6nc(c(-c7c(F)c(F)c(F)c(F)c7F)c7ccc4[nH]7)C=C6)C=C5)cc3)C2)nc1C
REMARK SMILES IDX 20 1 19 2 18 3 17 4 15 5 16 6 14 7 11 8 12 9 92 10 13 11
REMARK SMILES IDX 10 12 7 14 8 15 9 16 6 17 4 18 5 19 94 20 93 21 95 22 3 23
REMARK SMILES IDX 2 24 1 25 21 26 22 27 23 28 24 29 25 30 26 31 27 32 28 33
REMARK SMILES IDX 29 34 30 35 91 36 31 37 90 38 32 39 33 40 34 41 84 42 35 43
REMARK SMILES IDX 89 44 83 45 85 46 36 47 88 48 82 49 81 50 37 52 69 53 49 54
REMARK SMILES IDX 68 55 50 56 53 57 67 58 86 59 51 60 52 61 66 63 87 64 54 65
REMARK SMILES IDX 38 66 39 67 47 68 40 69 41 70 45 71 48 72 42 73 43 74 46 75
REMARK SMILES IDX 44 76 70 77 71 78 79 79 72 80 73 81 77 82 80 83 74 84 75 85
REMARK SMILES IDX 78 86 76 87 55 88 56 89 64 90 57 91 58 92 62 93 65 94 59 95
REMARK SMILES IDX 60 96 63 97 61 98
REMARK H PARENT 10 13 85 51 53 62
REMARK Flexibility Score: inf
ROOT
ATOM      1  O   UNL     1       1.084  -9.706   9.622  1.00  0.00    -0.376 OA
ENDROOT
BRANCH   1   2
ATOM      2  C   UNL     1       0.757  -8.743  10.613  1.00  0.00     0.202 C 
BRANCH   2   3
ATOM      3  C   UNL     1       1.096  -7.241  10.484  1.00  0.00     0.261 C 
BRANCH   3   4
ATOM      4  O   UNL     1       0.971  -6.676   9.166  1.00  0.00    -0.463 OA
BRANCH   4   5
ATOM      5  C   UNL     1       2.053  -6.007   8.687  1.00  0.00     0.312 C 
ATOM      6  O   UNL     1       3.072  -5.805   9.341  1.00  0.00    -0.252 OA
BRANCH   5   7
ATOM      7  C   UNL     1       1.963  -5.661   7.193  1.00  0.00     0.123 C 
ATOM      8  C   UNL     1       0.489  -4.304   5.725  1.00  0.00     0.093 C 
ATOM      9  C   UNL     1       1.631  -3.520   6.255  1.00  0.00    -0.011 C 
ATOM     10  C   UNL     1       0.595  -5.626   6.499  1.00  0.00     0.043 C 
ATOM     11  C   UNL     1       2.454  -4.260   7.003  1.00  0.00    -0.015 C 
BRANCH   8  12
ATOM     12  N   UNL     1      -0.839  -3.736   5.940  1.00  0.00    -0.203 NA
ATOM     13  H   UNL     1      -1.483  -4.287   5.373  1.00  0.00     0.142 HD
BRANCH  12  14
ATOM     14  S   UNL     1      -1.168  -2.120   5.599  1.00  0.00     0.260 S 
ATOM     15  O   UNL     1      -0.523  -1.346   6.651  1.00  0.00    -0.205 OA
ATOM     16  O   UNL     1      -2.581  -2.026   5.358  1.00  0.00    -0.205 OA
BRANCH  14  17
ATOM     17  C   UNL     1      -0.406  -1.628   4.111  1.00  0.00     0.188 A 
ATOM     18  N   UNL     1       0.476  -1.611   2.104  1.00  0.00    -0.334 N 
ATOM     19  C   UNL     1      -0.292  -2.374   2.954  1.00  0.00     0.129 A 
ATOM     20  C   UNL     1       0.773  -0.434   2.757  1.00  0.00     0.107 A 
ATOM     21  N   UNL     1       0.247  -0.425   3.963  1.00  0.00    -0.221 NA
ATOM     22  C   UNL     1       1.584   0.683   2.214  1.00  0.00     0.088 C 
BRANCH  18  23
ATOM     23  C   UNL     1       1.022  -2.092   0.847  1.00  0.00     0.123 C 
BRANCH  23  24
ATOM     24  C   UNL     1       0.302  -1.627  -0.420  1.00  0.00     0.018 C 
ATOM     25  C   UNL     1       0.625  -0.200  -0.832  1.00  0.00     0.006 C 
ENDBRANCH  23  24
ENDBRANCH  18  23
ENDBRANCH  14  17
ENDBRANCH  12  14
ENDBRANCH   8  12
ENDBRANCH   5   7
ENDBRANCH   4   5
ENDBRANCH   3   4
ENDBRANCH   2   3
ENDBRANCH   1   2
BRANCH   1  26
ATOM     26  C   UNL     1       1.276  -9.286   8.294  1.00  0.00     0.188 C 
BRANCH  26  27
ATOM     27  C   UNL     1       0.073  -8.823   7.461  1.00  0.00     0.188 C 
BRANCH  27  28
ATOM     28  O   UNL     1      -1.008  -8.073   7.976  1.00  0.00    -0.376 OA
BRANCH  28  29
ATOM     29  C   UNL     1      -2.030  -8.563   8.831  1.00  0.00     0.202 C 
BRANCH  29  30
ATOM     30  C   UNL     1      -2.508 -10.011   8.879  1.00  0.00     0.261 C 
BRANCH  30  31
ATOM     31  O   UNL     1      -1.657 -10.927   8.240  1.00  0.00    -0.460 OA
BRANCH  31  32
ATOM     32  C   UNL     1      -1.892 -11.033   6.920  1.00  0.00     0.338 C 
ATOM     33  O   UNL     1      -2.663 -10.371   6.235  1.00  0.00    -0.246 OA
BRANCH  32  34
ATOM     34  C   UNL     1      -1.044 -12.101   6.404  1.00  0.00     0.060 A 
ATOM     35  C   UNL     1      -0.959 -12.221   5.017  1.00  0.00     0.016 A 
ATOM     36  C   UNL     1      -0.648 -13.116   7.285  1.00  0.00     0.016 A 
ATOM     37  C   UNL     1      -0.782 -13.480   4.506  1.00  0.00     0.010 A 
ATOM     38  C   UNL     1      -0.504 -14.374   6.777  1.00  0.00     0.010 A 
ATOM     39  C   UNL     1      -0.694 -14.543   5.410  1.00  0.00    -0.014 A 
BRANCH  39  40
ATOM     40  C   UNL     1      -0.757 -15.884   4.890  1.00  0.00     0.031 A 
ATOM     41  C   UNL     1       0.534 -16.295   4.326  1.00  0.00     0.074 A 
ATOM     42  C   UNL     1      -1.867 -16.635   5.019  1.00  0.00     0.049 A 
ATOM     43  N   UNL     1       0.831 -16.407   3.076  1.00  0.00    -0.248 NA
ATOM     44  C   UNL     1       1.695 -16.363   5.230  1.00  0.00     0.031 C 
ATOM     45  C   UNL     1      -3.066 -16.330   5.809  1.00  0.00     0.029 A 
ATOM     46  N   UNL     1      -2.125 -17.884   4.540  1.00  0.00    -0.354 N 
ATOM     47  C   UNL     1       2.151 -16.835   3.064  1.00  0.00     0.074 A 
ATOM     48  C   UNL     1       2.691 -16.530   4.359  1.00  0.00     0.031 C 
ATOM     49  C   UNL     1      -3.816 -17.449   5.938  1.00  0.00     0.029 A 
ATOM     50  C   UNL     1      -3.228 -18.498   5.123  1.00  0.00     0.049 A 
ATOM     51  H   UNL     1      -1.579 -18.314   3.842  1.00  0.00     0.167 HD
ATOM     52  C   UNL     1       2.540 -17.754   2.142  1.00  0.00     0.037 A 
ATOM     53  C   UNL     1      -3.590 -19.795   4.968  1.00  0.00     0.037 A 
ATOM     54  C   UNL     1       1.573 -17.839   1.075  1.00  0.00     0.049 A 
ATOM     55  C   UNL     1      -2.953 -20.286   3.725  1.00  0.00     0.074 A 
ATOM     56  C   UNL     1       1.235 -17.088  -0.029  1.00  0.00     0.029 A 
ATOM     57  N   UNL     1       0.509 -18.655   1.357  1.00  0.00    -0.354 N 
ATOM     58  N   UNL     1      -3.295 -19.867   2.538  1.00  0.00    -0.248 NA
ATOM     59  C   UNL     1      -1.665 -20.971   3.799  1.00  0.00     0.031 C 
ATOM     60  C   UNL     1      -0.121 -17.410  -0.335  1.00  0.00     0.029 A 
ATOM     61  C   UNL     1      -0.569 -18.375   0.562  1.00  0.00     0.049 A 
ATOM     62  H   UNL     1       0.518 -19.356   2.048  1.00  0.00     0.167 HD
ATOM     63  C   UNL     1      -2.109 -19.847   1.831  1.00  0.00     0.074 A 
ATOM     64  C   UNL     1      -1.191 -20.693   2.581  1.00  0.00     0.031 C 
ATOM     65  C   UNL     1      -1.879 -18.877   0.902  1.00  0.00     0.037 A 
BRANCH  52  66
ATOM     66  C   UNL     1       3.458 -18.919   2.445  1.00  0.00     0.064 A 
ATOM     67  C   UNL     1       3.857 -19.750   1.379  1.00  0.00     0.173 A 
ATOM     68  C   UNL     1       3.703 -19.436   3.737  1.00  0.00     0.173 A 
ATOM     69  F   UNL     1       3.656 -19.372   0.108  1.00  0.00    -0.203 F 
ATOM     70  C   UNL     1       4.392 -21.023   1.595  1.00  0.00     0.198 A 
ATOM     71  C   UNL     1       4.285 -20.684   3.948  1.00  0.00     0.198 A 
ATOM     72  F   UNL     1       3.294 -18.823   4.852  1.00  0.00    -0.203 F 
ATOM     73  F   UNL     1       4.646 -21.823   0.551  1.00  0.00    -0.200 F 
ATOM     74  C   UNL     1       4.601 -21.491   2.879  1.00  0.00     0.200 A 
ATOM     75  F   UNL     1       4.456 -21.125   5.203  1.00  0.00    -0.200 F 
ATOM     76  F   UNL     1       5.060 -22.730   3.089  1.00  0.00    -0.200 F 
ENDBRANCH  52  66
BRANCH  53  77
ATOM     77  C   UNL     1      -4.246 -20.712   5.925  1.00  0.00     0.064 A 
ATOM     78  C   UNL     1      -4.894 -21.879   5.488  1.00  0.00     0.173 A 
ATOM     79  C   UNL     1      -3.988 -20.614   7.305  1.00  0.00     0.173 A 
ATOM     80  F   UNL     1      -5.141 -22.064   4.183  1.00  0.00    -0.203 F 
ATOM     81  C   UNL     1      -5.228 -22.907   6.375  1.00  0.00     0.198 A 
ATOM     82  C   UNL     1      -4.323 -21.641   8.190  1.00  0.00     0.198 A 
ATOM     83  F   UNL     1      -3.314 -19.567   7.802  1.00  0.00    -0.203 F 
ATOM     84  F   UNL     1      -5.784 -24.036   5.912  1.00  0.00    -0.200 F 
ATOM     85  C   UNL     1      -4.929 -22.794   7.723  1.00  0.00     0.200 A 
ATOM     86  F   UNL     1      -3.993 -21.537   9.485  1.00  0.00    -0.200 F 
ATOM     87  F   UNL     1      -5.182 -23.808   8.561  1.00  0.00    -0.200 F 
ENDBRANCH  53  77
BRANCH  65  88
ATOM     88  C   UNL     1      -3.077 -18.200   0.318  1.00  0.00     0.064 A 
ATOM     89  C   UNL     1      -3.920 -17.328   1.026  1.00  0.00     0.173 A 
ATOM     90  C   UNL     1      -3.342 -18.403  -1.041  1.00  0.00     0.173 A 
ATOM     91  F   UNL     1      -3.683 -17.033   2.311  1.00  0.00    -0.203 F 
ATOM     92  C   UNL     1      -5.006 -16.718   0.401  1.00  0.00     0.198 A 
ATOM     93  C   UNL     1      -4.405 -17.766  -1.671  1.00  0.00     0.198 A 
ATOM     94  F   UNL     1      -2.542 -19.198  -1.769  1.00  0.00    -0.203 F 
ATOM     95  F   UNL     1      -5.813 -15.902   1.097  1.00  0.00    -0.200 F 
ATOM     96  C   UNL     1      -5.243 -16.933  -0.948  1.00  0.00     0.200 A 
ATOM     97  F   UNL     1      -4.604 -17.947  -2.983  1.00  0.00    -0.200 F 
ATOM     98  F   UNL     1      -6.268 -16.321  -1.558  1.00  0.00    -0.200 F 
ENDBRANCH  65  88
ENDBRANCH  39  40
ENDBRANCH  32  34
ENDBRANCH  31  32
ENDBRANCH  30  31
ENDBRANCH  29  30
ENDBRANCH  28  29
ENDBRANCH  27  28
ENDBRANCH  26  27
ENDBRANCH   1  26
TORSDOF 22
