REMARK SMILES O=C(OCCOCCOCCOC(=O)c1cccn(Cc2ccc3c(c2)OC(F)(F)O3)c1=O)c1ccc(-c2c3nc(c(-c4c(F)c(F)c(F)c(F)c4F)c4ccc([nH]4)c(-c4c(F)c(F)c(F)c(F)c4F)c4nc(c(-c5c(F)c(F)c(F)c(F)c5F)c5ccc2[nH]5)C=C4)C=C3)cc1
REMARK SMILES IDX 7 1 6 2 5 3 4 4 3 5 2 6 1 7 34 8 35 9 96 10 36 11 95 12
REMARK SMILES IDX 37 13 38 14 39 15 89 16 40 17 94 18 88 19 90 20 41 21 93 22
REMARK SMILES IDX 87 23 86 24 42 26 74 27 54 28 73 29 55 30 58 31 72 32 91 33
REMARK SMILES IDX 56 34 57 35 71 37 92 38 59 39 43 40 44 41 52 42 45 43 46 44
REMARK SMILES IDX 50 45 53 46 47 47 48 48 51 49 49 50 75 51 76 52 84 53 77 54
REMARK SMILES IDX 78 55 82 56 85 57 79 58 80 59 83 60 81 61 60 62 61 63 69 64
REMARK SMILES IDX 62 65 63 66 67 67 70 68 64 69 65 70 68 71 66 72 8 73 9 74
REMARK SMILES IDX 10 75 11 76 12 77 13 78 14 79 15 80 16 81 32 82 17 83 19 84
REMARK SMILES IDX 33 85 18 86 20 87 21 88 22 89 26 90 23 91 25 92 24 93 27 94
REMARK SMILES IDX 31 95 28 96 29 97 30 98
REMARK H PARENT 90 25 58 36
REMARK Flexibility Score: inf
ROOT
ATOM      1  C   UNL     1       2.529  -1.905   0.599  1.00  0.00     0.188 C 
ENDROOT
BRANCH   1   2
ATOM      2  O   UNL     1       3.743  -1.505  -0.053  1.00  0.00    -0.376 OA
BRANCH   2   3
ATOM      3  C   UNL     1       4.754  -1.090   0.872  1.00  0.00     0.202 C 
BRANCH   3   4
ATOM      4  C   UNL     1       4.605   0.345   1.393  1.00  0.00     0.261 C 
BRANCH   4   5
ATOM      5  O   UNL     1       3.264   0.850   1.331  1.00  0.00    -0.460 OA
BRANCH   5   6
ATOM      6  C   UNL     1       2.604   1.442   0.307  1.00  0.00     0.338 C 
ATOM      7  O   UNL     1       1.464   1.850   0.531  1.00  0.00    -0.246 OA
BRANCH   6   8
ATOM      8  C   UNL     1       3.134   1.621  -1.090  1.00  0.00     0.060 A 
ATOM      9  C   UNL     1       2.295   2.304  -1.995  1.00  0.00     0.016 A 
ATOM     10  C   UNL     1       4.362   1.175  -1.581  1.00  0.00     0.016 A 
ATOM     11  C   UNL     1       2.677   2.539  -3.324  1.00  0.00     0.010 A 
ATOM     12  C   UNL     1       4.761   1.426  -2.897  1.00  0.00     0.010 A 
ATOM     13  C   UNL     1       3.926   2.108  -3.781  1.00  0.00    -0.014 A 
BRANCH  13  14
ATOM     14  C   UNL     1       4.457   2.516  -5.099  1.00  0.00     0.031 A 
ATOM     15  C   UNL     1       4.621   1.559  -6.238  1.00  0.00     0.074 A 
ATOM     16  C   UNL     1       4.958   3.758  -5.216  1.00  0.00     0.049 A 
ATOM     17  N   UNL     1       4.858   1.822  -7.500  1.00  0.00    -0.248 NA
ATOM     18  C   UNL     1       4.537   0.127  -5.933  1.00  0.00     0.031 C 
ATOM     19  C   UNL     1       5.014   4.750  -4.142  1.00  0.00     0.029 A 
ATOM     20  N   UNL     1       5.569   4.370  -6.277  1.00  0.00    -0.354 N 
ATOM     21  C   UNL     1       4.818   0.599  -8.154  1.00  0.00     0.074 A 
ATOM     22  C   UNL     1       4.702  -0.413  -7.136  1.00  0.00     0.031 C 
ATOM     23  C   UNL     1       5.660   5.837  -4.590  1.00  0.00     0.029 A 
ATOM     24  C   UNL     1       6.043   5.621  -5.983  1.00  0.00     0.049 A 
ATOM     25  H   UNL     1       5.658   3.953  -7.164  1.00  0.00     0.167 HD
ATOM     26  C   UNL     1       4.825   0.376  -9.488  1.00  0.00     0.037 A 
ATOM     27  C   UNL     1       6.708   6.496  -6.758  1.00  0.00     0.037 A 
ATOM     28  C   UNL     1       5.203   1.369 -10.454  1.00  0.00     0.049 A 
ATOM     29  C   UNL     1       6.944   6.167  -8.203  1.00  0.00     0.074 A 
ATOM     30  C   UNL     1       5.270   1.252 -11.830  1.00  0.00     0.029 A 
ATOM     31  N   UNL     1       5.689   2.622 -10.127  1.00  0.00    -0.354 N 
ATOM     32  N   UNL     1       6.564   5.111  -8.880  1.00  0.00    -0.248 NA
ATOM     33  C   UNL     1       7.676   7.161  -8.997  1.00  0.00     0.031 C 
ATOM     34  C   UNL     1       5.883   2.405 -12.327  1.00  0.00     0.029 A 
ATOM     35  C   UNL     1       6.151   3.254 -11.265  1.00  0.00     0.049 A 
ATOM     36  H   UNL     1       5.703   3.005  -9.220  1.00  0.00     0.167 HD
ATOM     37  C   UNL     1       6.977   5.328 -10.188  1.00  0.00     0.074 A 
ATOM     38  C   UNL     1       7.639   6.616 -10.207  1.00  0.00     0.031 C 
ATOM     39  C   UNL     1       6.810   4.533 -11.273  1.00  0.00     0.037 A 
BRANCH  26  40
ATOM     40  C   UNL     1       4.372  -0.947 -10.025  1.00  0.00     0.064 A 
ATOM     41  C   UNL     1       3.080  -1.046 -10.575  1.00  0.00     0.173 A 
ATOM     42  C   UNL     1       5.220  -2.050 -10.150  1.00  0.00     0.173 A 
ATOM     43  F   UNL     1       2.221  -0.020 -10.466  1.00  0.00    -0.203 F 
ATOM     44  C   UNL     1       2.656  -2.201 -11.225  1.00  0.00     0.198 A 
ATOM     45  C   UNL     1       4.787  -3.213 -10.791  1.00  0.00     0.198 A 
ATOM     46  F   UNL     1       6.469  -1.996  -9.667  1.00  0.00    -0.203 F 
ATOM     47  F   UNL     1       1.421  -2.260 -11.744  1.00  0.00    -0.200 F 
ATOM     48  C   UNL     1       3.508  -3.286 -11.329  1.00  0.00     0.200 A 
ATOM     49  F   UNL     1       5.617  -4.258 -10.907  1.00  0.00    -0.200 F 
ATOM     50  F   UNL     1       3.099  -4.401 -11.950  1.00  0.00    -0.200 F 
ENDBRANCH  26  40
BRANCH  27  51
ATOM     51  C   UNL     1       7.110   7.795  -6.173  1.00  0.00     0.064 A 
ATOM     52  C   UNL     1       6.397   8.959  -6.481  1.00  0.00     0.173 A 
ATOM     53  C   UNL     1       8.141   7.883  -5.226  1.00  0.00     0.173 A 
ATOM     54  F   UNL     1       5.408   8.917  -7.385  1.00  0.00    -0.203 F 
ATOM     55  C   UNL     1       6.694  10.167  -5.856  1.00  0.00     0.198 A 
ATOM     56  C   UNL     1       8.426   9.088  -4.589  1.00  0.00     0.198 A 
ATOM     57  F   UNL     1       8.840   6.789  -4.890  1.00  0.00    -0.203 F 
ATOM     58  F   UNL     1       5.998  11.268  -6.169  1.00  0.00    -0.200 F 
ATOM     59  C   UNL     1       7.701  10.228  -4.904  1.00  0.00     0.200 A 
ATOM     60  F   UNL     1       9.385   9.140  -3.655  1.00  0.00    -0.200 F 
ATOM     61  F   UNL     1       7.968  11.385  -4.283  1.00  0.00    -0.200 F 
ENDBRANCH  27  51
BRANCH  39  62
ATOM     62  C   UNL     1       7.351   5.011 -12.585  1.00  0.00     0.064 A 
ATOM     63  C   UNL     1       8.729   5.022 -12.841  1.00  0.00     0.173 A 
ATOM     64  C   UNL     1       6.481   5.354 -13.631  1.00  0.00     0.173 A 
ATOM     65  F   UNL     1       9.599   4.705 -11.870  1.00  0.00    -0.203 F 
ATOM     66  C   UNL     1       9.217   5.372 -14.096  1.00  0.00     0.198 A 
ATOM     67  C   UNL     1       6.971   5.671 -14.893  1.00  0.00     0.198 A 
ATOM     68  F   UNL     1       5.153   5.339 -13.438  1.00  0.00    -0.203 F 
ATOM     69  F   UNL     1      10.539   5.404 -14.312  1.00  0.00    -0.200 F 
ATOM     70  C   UNL     1       8.339   5.685 -15.123  1.00  0.00     0.200 A 
ATOM     71  F   UNL     1       6.120   5.948 -15.890  1.00  0.00    -0.200 F 
ATOM     72  F   UNL     1       8.811   5.997 -16.337  1.00  0.00    -0.200 F 
ENDBRANCH  39  62
ENDBRANCH  13  14
ENDBRANCH   6   8
ENDBRANCH   5   6
ENDBRANCH   4   5
ENDBRANCH   3   4
ENDBRANCH   2   3
ENDBRANCH   1   2
BRANCH   1  73
ATOM     73  C   UNL     1       2.014  -3.266   0.121  1.00  0.00     0.188 C 
BRANCH  73  74
ATOM     74  O   UNL     1       2.797  -4.406   0.461  1.00  0.00    -0.376 OA
BRANCH  74  75
ATOM     75  C   UNL     1       4.136  -4.471  -0.019  1.00  0.00     0.202 C 
BRANCH  75  76
ATOM     76  C   UNL     1       4.353  -4.641  -1.526  1.00  0.00     0.261 C 
BRANCH  76  77
ATOM     77  O   UNL     1       3.835  -3.557  -2.313  1.00  0.00    -0.459 OA
BRANCH  77  78
ATOM     78  C   UNL     1       2.770  -3.881  -3.081  1.00  0.00     0.343 C 
ATOM     79  O   UNL     1       2.172  -4.957  -3.091  1.00  0.00    -0.246 OA
BRANCH  78  80
ATOM     80  C   UNL     1       2.360  -2.761  -3.925  1.00  0.00     0.125 A 
ATOM     81  C   UNL     1       1.581  -1.771  -3.453  1.00  0.00     0.023 A 
ATOM     82  C   UNL     1       2.644  -2.845  -5.374  1.00  0.00     0.265 A 
ATOM     83  C   UNL     1       0.974  -0.821  -4.354  1.00  0.00     0.019 A 
ATOM     84  N   UNL     1       1.879  -2.011  -6.187  1.00  0.00    -0.310 N 
ATOM     85  O   UNL     1       3.518  -3.599  -5.796  1.00  0.00    -0.268 OA
ATOM     86  C   UNL     1       1.088  -0.998  -5.675  1.00  0.00     0.089 A 
BRANCH  84  87
ATOM     87  C   UNL     1       1.982  -2.183  -7.618  1.00  0.00     0.161 C 
BRANCH  87  88
ATOM     88  C   UNL     1       1.036  -3.212  -8.180  1.00  0.00    -0.024 A 
ATOM     89  C   UNL     1      -0.070  -2.803  -8.955  1.00  0.00     0.010 A 
ATOM     90  C   UNL     1       1.312  -4.580  -8.019  1.00  0.00     0.056 A 
ATOM     91  C   UNL     1      -0.865  -3.741  -9.616  1.00  0.00     0.051 A 
ATOM     92  C   UNL     1       0.526  -5.479  -8.699  1.00  0.00     0.173 A 
ATOM     93  C   UNL     1      -0.525  -5.070  -9.488  1.00  0.00     0.172 A 
ATOM     94  O   UNL     1       0.709  -6.826  -8.730  1.00  0.00    -0.395 OA
ATOM     95  O   UNL     1      -1.126  -6.112 -10.124  1.00  0.00    -0.395 OA
ATOM     96  C   UNL     1      -0.206  -7.159  -9.780  1.00  0.00     0.586 C 
ATOM     97  F   UNL     1       0.514  -7.476 -10.886  1.00  0.00    -0.125 F 
ATOM     98  F   UNL     1      -0.909  -8.259  -9.420  1.00  0.00    -0.125 F 
ENDBRANCH  87  88
ENDBRANCH  84  87
ENDBRANCH  78  80
ENDBRANCH  77  78
ENDBRANCH  76  77
ENDBRANCH  75  76
ENDBRANCH  74  75
ENDBRANCH  73  74
ENDBRANCH   1  73
TORSDOF 19
