REMARK SMILES CCCCCCNC(=O)Oc1cccc(-c2ccc([C@H](C)C(=O)OCCOCCOCCOC(=O)c3ccc(-c4c5nc(c(-c6c(F)c(F)c(F)c(F)c6F)c6ccc([nH]6)c(-c6c(F)c(F)c(F)c(F)c6F)c6nc(c(-c7c(F)c(F)c(F)c(F)c7F)c7ccc4[nH]7)C=C6)C=C5)cc3)cc2F)c1
REMARK SMILES IDX 25 1 24 2 22 3 23 4 20 5 21 6 19 7 16 8 17 9 100 10 18 11
REMARK SMILES IDX 99 12 101 13 15 14 11 15 12 16 102 17 13 18 14 19 10 20 8 21
REMARK SMILES IDX 7 22 9 24 6 25 5 26 4 27 3 28 2 29 1 30 26 31 27 32 28 33
REMARK SMILES IDX 29 34 30 35 31 36 32 37 33 38 34 39 35 40 36 41 37 42 98 43
REMARK SMILES IDX 38 44 97 45 39 46 40 47 41 48 91 49 42 50 96 51 90 52 92 53
REMARK SMILES IDX 43 54 95 55 89 56 88 57 44 59 76 60 56 61 75 62 57 63 60 64
REMARK SMILES IDX 74 65 93 66 58 67 59 68 73 70 94 71 61 72 45 73 46 74 54 75
REMARK SMILES IDX 47 76 48 77 52 78 55 79 49 80 50 81 53 82 51 83 77 84 78 85
REMARK SMILES IDX 86 86 79 87 80 88 84 89 87 90 81 91 82 92 85 93 83 94 62 95
REMARK SMILES IDX 63 96 71 97 64 98 65 99 69 100 72 101 66 102 67 103 70 104
REMARK SMILES IDX 68 105
REMARK H PARENT 7 23 92 58 60 69
REMARK Flexibility Score: inf
ROOT
ATOM      1  C   UNL     1      -1.774   5.467 -14.773  1.00  0.00     0.261 C 
ENDROOT
BRANCH   1   2
ATOM      2  O   UNL     1      -2.887   4.994 -13.986  1.00  0.00    -0.463 OA
BRANCH   2   3
ATOM      3  C   UNL     1      -3.489   3.853 -14.416  1.00  0.00     0.313 C 
ATOM      4  O   UNL     1      -3.138   3.224 -15.410  1.00  0.00    -0.252 OA
BRANCH   3   5
ATOM      5  C   UNL     1      -4.710   3.428 -13.578  1.00  0.00     0.126 C 
ATOM      6  C   UNL     1      -4.883   3.888 -12.124  1.00  0.00     0.025 C 
BRANCH   5   7
ATOM      7  C   UNL     1      -5.947   3.842 -14.326  1.00  0.00    -0.031 A 
ATOM      8  C   UNL     1      -8.233   4.640 -15.691  1.00  0.00     0.018 A 
ATOM      9  C   UNL     1      -7.294   5.595 -15.280  1.00  0.00     0.012 A 
ATOM     10  C   UNL     1      -8.018   3.289 -15.392  1.00  0.00     0.131 A 
ATOM     11  C   UNL     1      -6.161   5.201 -14.595  1.00  0.00     0.005 A 
ATOM     12  C   UNL     1      -6.881   2.882 -14.719  1.00  0.00     0.044 A 
ATOM     13  F   UNL     1      -8.920   2.359 -15.740  1.00  0.00    -0.206 F 
BRANCH   8  14
ATOM     14  C   UNL     1      -9.442   5.091 -16.353  1.00  0.00    -0.012 A 
ATOM     15  C   UNL     1     -11.804   5.527 -16.262  1.00  0.00     0.133 A 
ATOM     16  C   UNL     1     -11.763   6.121 -17.520  1.00  0.00     0.047 A 
ATOM     17  C   UNL     1     -10.663   4.982 -15.689  1.00  0.00     0.056 A 
ATOM     18  C   UNL     1     -10.549   6.212 -18.198  1.00  0.00     0.004 A 
ATOM     19  C   UNL     1      -9.390   5.706 -17.613  1.00  0.00     0.009 A 
BRANCH  15  20
ATOM     20  O   UNL     1     -13.047   5.408 -15.635  1.00  0.00    -0.410 OA
BRANCH  20  21
ATOM     21  C   UNL     1     -13.126   5.717 -14.288  1.00  0.00     0.412 C 
ATOM     22  N   UNL     1     -14.297   5.314 -13.722  1.00  0.00    -0.321 N 
ATOM     23  H   UNL     1     -14.439   5.540 -12.774  1.00  0.00     0.167 HD
ATOM     24  O   UNL     1     -12.267   6.292 -13.616  1.00  0.00    -0.224 OA
BRANCH  22  25
ATOM     25  C   UNL     1     -15.351   4.583 -14.393  1.00  0.00     0.119 C 
BRANCH  25  26
ATOM     26  C   UNL     1     -15.715   3.305 -13.644  1.00  0.00     0.021 C 
BRANCH  26  27
ATOM     27  C   UNL     1     -16.301   3.534 -12.246  1.00  0.00     0.002 C 
BRANCH  27  28
ATOM     28  C   UNL     1     -17.547   4.424 -12.202  1.00  0.00    -0.000 C 
BRANCH  28  29
ATOM     29  C   UNL     1     -18.721   3.942 -13.057  1.00  0.00    -0.003 C 
ATOM     30  C   UNL     1     -19.260   2.589 -12.621  1.00  0.00     0.004 C 
ENDBRANCH  28  29
ENDBRANCH  27  28
ENDBRANCH  26  27
ENDBRANCH  25  26
ENDBRANCH  22  25
ENDBRANCH  20  21
ENDBRANCH  15  20
ENDBRANCH   8  14
ENDBRANCH   5   7
ENDBRANCH   3   5
ENDBRANCH   2   3
ENDBRANCH   1   2
BRANCH   1  31
ATOM     31  C   UNL     1      -0.379   5.291 -14.147  1.00  0.00     0.202 C 
BRANCH  31  32
ATOM     32  O   UNL     1       0.087   3.985 -13.827  1.00  0.00    -0.376 OA
BRANCH  32  33
ATOM     33  C   UNL     1      -0.689   3.132 -12.998  1.00  0.00     0.188 C 
BRANCH  33  34
ATOM     34  C   UNL     1      -1.503   3.732 -11.846  1.00  0.00     0.188 C 
BRANCH  34  35
ATOM     35  O   UNL     1      -1.313   5.106 -11.621  1.00  0.00    -0.376 OA
BRANCH  35  36
ATOM     36  C   UNL     1      -0.693   5.507 -10.415  1.00  0.00     0.202 C 
BRANCH  36  37
ATOM     37  C   UNL     1       0.618   4.825  -9.985  1.00  0.00     0.261 C 
BRANCH  37  38
ATOM     38  O   UNL     1       0.689   3.394 -10.123  1.00  0.00    -0.460 OA
BRANCH  38  39
ATOM     39  C   UNL     1      -0.010   2.639  -9.241  1.00  0.00     0.338 C 
ATOM     40  O   UNL     1      -0.680   3.038  -8.306  1.00  0.00    -0.246 OA
BRANCH  39  41
ATOM     41  C   UNL     1      -0.038   1.249  -9.768  1.00  0.00     0.060 A 
ATOM     42  C   UNL     1      -1.275   0.649 -10.054  1.00  0.00     0.016 A 
ATOM     43  C   UNL     1       1.147   0.557 -10.020  1.00  0.00     0.016 A 
ATOM     44  C   UNL     1      -1.330  -0.649 -10.571  1.00  0.00     0.010 A 
ATOM     45  C   UNL     1       1.091  -0.752 -10.511  1.00  0.00     0.010 A 
ATOM     46  C   UNL     1      -0.147  -1.373 -10.764  1.00  0.00    -0.014 A 
BRANCH  46  47
ATOM     47  C   UNL     1      -0.193  -2.832 -11.040  1.00  0.00     0.031 A 
ATOM     48  C   UNL     1       0.008  -3.781  -9.890  1.00  0.00     0.074 A 
ATOM     49  C   UNL     1      -0.394  -3.317 -12.278  1.00  0.00     0.049 A 
ATOM     50  N   UNL     1       0.122  -5.085  -9.890  1.00  0.00    -0.248 NA
ATOM     51  C   UNL     1       0.101  -3.167  -8.556  1.00  0.00     0.031 C 
ATOM     52  C   UNL     1      -0.653  -2.515 -13.470  1.00  0.00     0.029 A 
ATOM     53  N   UNL     1      -0.393  -4.613 -12.736  1.00  0.00    -0.354 N 
ATOM     54  C   UNL     1       0.315  -5.445  -8.562  1.00  0.00     0.074 A 
ATOM     55  C   UNL     1       0.331  -4.222  -7.789  1.00  0.00     0.031 C 
ATOM     56  C   UNL     1      -0.767  -3.335 -14.529  1.00  0.00     0.029 A 
ATOM     57  C   UNL     1      -0.547  -4.716 -14.096  1.00  0.00     0.049 A 
ATOM     58  H   UNL     1      -0.291  -5.393 -12.144  1.00  0.00     0.167 HD
ATOM     59  C   UNL     1       0.461  -6.684  -8.034  1.00  0.00     0.037 A 
ATOM     60  C   UNL     1      -0.485  -5.796 -14.901  1.00  0.00     0.037 A 
ATOM     61  C   UNL     1       0.451  -7.899  -8.805  1.00  0.00     0.049 A 
ATOM     62  C   UNL     1      -0.230  -7.158 -14.302  1.00  0.00     0.074 A 
ATOM     63  C   UNL     1       0.572  -9.204  -8.359  1.00  0.00     0.029 A 
ATOM     64  N   UNL     1       0.327  -7.960 -10.185  1.00  0.00    -0.354 N 
ATOM     65  N   UNL     1      -0.069  -7.497 -13.046  1.00  0.00    -0.248 NA
ATOM     66  C   UNL     1      -0.147  -8.289 -15.238  1.00  0.00     0.031 C 
ATOM     67  C   UNL     1       0.589 -10.048  -9.474  1.00  0.00     0.029 A 
ATOM     68  C   UNL     1       0.403  -9.277 -10.610  1.00  0.00     0.049 A 
ATOM     69  H   UNL     1       0.202  -7.182 -10.775  1.00  0.00     0.167 HD
ATOM     70  C   UNL     1       0.099  -8.877 -13.037  1.00  0.00     0.074 A 
ATOM     71  C   UNL     1       0.009  -9.316 -14.414  1.00  0.00     0.031 C 
ATOM     72  C   UNL     1       0.306  -9.706 -11.983  1.00  0.00     0.037 A 
BRANCH  59  73
ATOM     73  C   UNL     1       0.688  -6.780  -6.552  1.00  0.00     0.064 A 
ATOM     74  C   UNL     1      -0.316  -6.462  -5.624  1.00  0.00     0.173 A 
ATOM     75  C   UNL     1       1.926  -7.215  -6.053  1.00  0.00     0.173 A 
ATOM     76  F   UNL     1      -1.513  -6.028  -6.046  1.00  0.00    -0.203 F 
ATOM     77  C   UNL     1      -0.076  -6.541  -4.254  1.00  0.00     0.198 A 
ATOM     78  C   UNL     1       2.150  -7.327  -4.684  1.00  0.00     0.198 A 
ATOM     79  F   UNL     1       2.920  -7.535  -6.895  1.00  0.00    -0.203 F 
ATOM     80  F   UNL     1      -1.030  -6.174  -3.387  1.00  0.00    -0.200 F 
ATOM     81  C   UNL     1       1.153  -6.980  -3.786  1.00  0.00     0.200 A 
ATOM     82  F   UNL     1       3.333  -7.767  -4.234  1.00  0.00    -0.200 F 
ATOM     83  F   UNL     1       1.380  -7.060  -2.467  1.00  0.00    -0.200 F 
ENDBRANCH  59  73
BRANCH  60  84
ATOM     84  C   UNL     1      -0.652  -5.639 -16.371  1.00  0.00     0.064 A 
ATOM     85  C   UNL     1      -1.765  -6.174 -17.035  1.00  0.00     0.173 A 
ATOM     86  C   UNL     1       0.308  -4.971 -17.147  1.00  0.00     0.173 A 
ATOM     87  F   UNL     1      -2.694  -6.851 -16.343  1.00  0.00    -0.203 F 
ATOM     88  C   UNL     1      -1.903  -6.062 -18.417  1.00  0.00     0.198 A 
ATOM     89  C   UNL     1       0.153  -4.832 -18.525  1.00  0.00     0.198 A 
ATOM     90  F   UNL     1       1.398  -4.449 -16.565  1.00  0.00    -0.203 F 
ATOM     91  F   UNL     1      -2.951  -6.630 -19.031  1.00  0.00    -0.200 F 
ATOM     92  C   UNL     1      -0.949  -5.384 -19.160  1.00  0.00     0.200 A 
ATOM     93  F   UNL     1       1.074  -4.169 -19.237  1.00  0.00    -0.200 F 
ATOM     94  F   UNL     1      -1.085  -5.274 -20.488  1.00  0.00    -0.200 F 
ENDBRANCH  60  84
BRANCH  72  95
ATOM     95  C   UNL     1       0.403 -11.181 -12.264  1.00  0.00     0.064 A 
ATOM     96  C   UNL     1       1.501 -11.740 -12.935  1.00  0.00     0.173 A 
ATOM     97  C   UNL     1      -0.600 -12.055 -11.814  1.00  0.00     0.173 A 
ATOM     98  F   UNL     1       2.483 -10.951 -13.397  1.00  0.00    -0.203 F 
ATOM     99  C   UNL     1       1.576 -13.111 -13.171  1.00  0.00     0.198 A 
ATOM    100  C   UNL     1      -0.505 -13.429 -12.019  1.00  0.00     0.198 A 
ATOM    101  F   UNL     1      -1.669 -11.578 -11.158  1.00  0.00    -0.203 F 
ATOM    102  F   UNL     1       2.609 -13.615 -13.861  1.00  0.00    -0.200 F 
ATOM    103  C   UNL     1       0.578 -13.955 -12.706  1.00  0.00     0.200 A 
ATOM    104  F   UNL     1      -1.461 -14.243 -11.552  1.00  0.00    -0.200 F 
ATOM    105  F   UNL     1       0.657 -15.275 -12.925  1.00  0.00    -0.200 F 
ENDBRANCH  72  95
ENDBRANCH  46  47
ENDBRANCH  39  41
ENDBRANCH  38  39
ENDBRANCH  37  38
ENDBRANCH  36  37
ENDBRANCH  35  36
ENDBRANCH  34  35
ENDBRANCH  33  34
ENDBRANCH  32  33
ENDBRANCH  31  32
ENDBRANCH   1  31
TORSDOF 26
