REMARK SMILES CC(C)(Cn1ccnc1C(N)=S)C(=O)OCCOCCOCCOC(=O)c1ccc(-c2c3nc(c(-c4c(F)c(F)c(F)c(F)c4F)c4ccc([nH]4)c(-c4c(F)c(F)c(F)c(F)c4F)c4nc(c(-c5c(F)c(F)c(F)c(F)c5F)c5ccc2[nH]5)C=C4)C=C3)cc1
REMARK SMILES IDX 19 1 18 2 17 3 16 4 15 5 13 6 14 7 2 8 1 9 3 10 4 11 5 12
REMARK SMILES IDX 6 13 9 14 7 15 8 16 10 17 12 18 11 19 20 22 21 23 22 24
REMARK SMILES IDX 23 25 24 26 25 27 26 28 27 29 28 30 89 31 29 32 88 33 30 34
REMARK SMILES IDX 31 35 32 36 82 37 33 38 87 39 81 40 83 41 34 42 86 43 80 44
REMARK SMILES IDX 79 45 35 47 67 48 47 49 66 50 48 51 51 52 65 53 84 54 49 55
REMARK SMILES IDX 50 56 64 58 85 59 52 60 36 61 37 62 45 63 38 64 39 65 43 66
REMARK SMILES IDX 46 67 40 68 41 69 44 70 42 71 68 72 69 73 77 74 70 75 71 76
REMARK SMILES IDX 75 77 78 78 72 79 73 80 76 81 74 82 53 83 54 84 62 85 55 86
REMARK SMILES IDX 56 87 60 88 63 89 57 90 58 91 61 92 59 93
REMARK H PARENT 11 20 11 21 83 46 51 57
REMARK Flexibility Score: inf
ROOT
ATOM      1  C   UNL     1       1.187  -3.724  -1.212  1.00  0.00     0.188 C 
ENDROOT
BRANCH   1   2
ATOM      2  O   UNL     1       2.002  -4.749  -0.670  1.00  0.00    -0.376 OA
BRANCH   2   3
ATOM      3  C   UNL     1       1.858  -5.107   0.698  1.00  0.00     0.202 C 
BRANCH   3   4
ATOM      4  C   UNL     1       1.939  -4.022   1.793  1.00  0.00     0.261 C 
BRANCH   4   5
ATOM      5  O   UNL     1       0.992  -2.920   1.727  1.00  0.00    -0.463 OA
BRANCH   5   6
ATOM      6  C   UNL     1       1.523  -1.716   1.412  1.00  0.00     0.313 C 
ATOM      7  O   UNL     1       2.717  -1.570   1.157  1.00  0.00    -0.252 OA
BRANCH   6   8
ATOM      8  C   UNL     1       0.562  -0.501   1.444  1.00  0.00     0.080 C 
ATOM      9  C   UNL     1       0.939   0.334   0.208  1.00  0.00     0.025 C 
ATOM     10  C   UNL     1       1.006   0.251   2.725  1.00  0.00     0.025 C 
BRANCH   8  11
ATOM     11  C   UNL     1      -0.982  -0.721   1.611  1.00  0.00     0.142 C 
BRANCH  11  12
ATOM     12  N   UNL     1      -1.910  -0.727   0.482  1.00  0.00    -0.328 N 
ATOM     13  C   UNL     1      -2.791  -1.769   0.275  1.00  0.00     0.108 A 
ATOM     14  C   UNL     1      -2.291   0.259  -0.418  1.00  0.00     0.167 A 
ATOM     15  C   UNL     1      -3.411  -1.510  -0.916  1.00  0.00     0.131 A 
ATOM     16  N   UNL     1      -3.021  -0.294  -1.387  1.00  0.00    -0.235 NA
BRANCH  14  17
ATOM     17  C   UNL     1      -2.092   1.695  -0.457  1.00  0.00     0.140 C 
ATOM     18  S   UNL     1      -1.937   2.654   0.892  1.00  0.00    -0.057 S 
BRANCH  17  19
ATOM     19  N   UNL     1      -2.183   2.261  -1.701  1.00  0.00    -0.387 N 
ATOM     20  H   UNL     1      -2.276   1.689  -2.497  1.00  0.00     0.157 HD
ATOM     21  H   UNL     1      -2.157   3.240  -1.800  1.00  0.00     0.157 HD
ENDBRANCH  17  19
ENDBRANCH  14  17
ENDBRANCH  11  12
ENDBRANCH   8  11
ENDBRANCH   6   8
ENDBRANCH   5   6
ENDBRANCH   4   5
ENDBRANCH   3   4
ENDBRANCH   2   3
ENDBRANCH   1   2
BRANCH   1  22
ATOM     22  C   UNL     1      -0.283  -3.598  -0.783  1.00  0.00     0.188 C 
BRANCH  22  23
ATOM     23  O   UNL     1      -0.670  -4.417   0.308  1.00  0.00    -0.376 OA
BRANCH  23  24
ATOM     24  C   UNL     1      -1.836  -5.220   0.198  1.00  0.00     0.202 C 
BRANCH  24  25
ATOM     25  C   UNL     1      -1.721  -6.351  -0.821  1.00  0.00     0.261 C 
BRANCH  25  26
ATOM     26  O   UNL     1      -1.584  -5.865  -2.154  1.00  0.00    -0.460 OA
BRANCH  26  27
ATOM     27  C   UNL     1      -2.605  -5.096  -2.590  1.00  0.00     0.338 C 
ATOM     28  O   UNL     1      -3.654  -4.848  -2.024  1.00  0.00    -0.246 OA
BRANCH  27  29
ATOM     29  C   UNL     1      -2.225  -4.530  -3.883  1.00  0.00     0.060 A 
ATOM     30  C   UNL     1      -2.827  -3.329  -4.276  1.00  0.00     0.016 A 
ATOM     31  C   UNL     1      -1.457  -5.304  -4.757  1.00  0.00     0.016 A 
ATOM     32  C   UNL     1      -2.856  -3.016  -5.615  1.00  0.00     0.010 A 
ATOM     33  C   UNL     1      -1.501  -5.004  -6.095  1.00  0.00     0.010 A 
ATOM     34  C   UNL     1      -2.295  -3.928  -6.507  1.00  0.00    -0.014 A 
BRANCH  34  35
ATOM     35  C   UNL     1      -2.791  -3.922  -7.868  1.00  0.00     0.031 A 
ATOM     36  C   UNL     1      -2.027  -3.165  -8.877  1.00  0.00     0.074 A 
ATOM     37  C   UNL     1      -3.799  -4.763  -8.181  1.00  0.00     0.049 A 
ATOM     38  N   UNL     1      -2.478  -2.317  -9.744  1.00  0.00    -0.248 NA
ATOM     39  C   UNL     1      -0.569  -3.354  -8.914  1.00  0.00     0.031 C 
ATOM     40  C   UNL     1      -4.400  -5.791  -7.319  1.00  0.00     0.029 A 
ATOM     41  N   UNL     1      -4.392  -4.983  -9.384  1.00  0.00    -0.354 N 
ATOM     42  C   UNL     1      -1.389  -1.978 -10.536  1.00  0.00     0.074 A 
ATOM     43  C   UNL     1      -0.222  -2.558  -9.923  1.00  0.00     0.031 C 
ATOM     44  C   UNL     1      -5.086  -6.663  -8.087  1.00  0.00     0.029 A 
ATOM     45  C   UNL     1      -5.053  -6.199  -9.463  1.00  0.00     0.049 A 
ATOM     46  H   UNL     1      -4.356  -4.340 -10.129  1.00  0.00     0.167 HD
ATOM     47  C   UNL     1      -1.533  -1.411 -11.762  1.00  0.00     0.037 A 
ATOM     48  C   UNL     1      -5.444  -6.830 -10.596  1.00  0.00     0.037 A 
ATOM     49  C   UNL     1      -2.821  -0.809 -11.950  1.00  0.00     0.049 A 
ATOM     50  C   UNL     1      -5.441  -5.831 -11.695  1.00  0.00     0.074 A 
ATOM     51  C   UNL     1      -3.521   0.185 -11.292  1.00  0.00     0.029 A 
ATOM     52  N   UNL     1      -3.743  -1.443 -12.745  1.00  0.00    -0.354 N 
ATOM     53  N   UNL     1      -6.294  -4.851 -11.809  1.00  0.00    -0.248 NA
ATOM     54  C   UNL     1      -4.216  -5.683 -12.469  1.00  0.00     0.031 C 
ATOM     55  C   UNL     1      -4.887  -0.213 -11.356  1.00  0.00     0.029 A 
ATOM     56  C   UNL     1      -4.934  -1.414 -12.063  1.00  0.00     0.049 A 
ATOM     57  H   UNL     1      -3.582  -1.840 -13.631  1.00  0.00     0.167 HD
ATOM     58  C   UNL     1      -5.554  -3.797 -12.326  1.00  0.00     0.074 A 
ATOM     59  C   UNL     1      -4.319  -4.398 -12.814  1.00  0.00     0.031 C 
ATOM     60  C   UNL     1      -5.882  -2.501 -12.054  1.00  0.00     0.037 A 
BRANCH  47  61
ATOM     61  C   UNL     1      -0.573  -1.670 -12.881  1.00  0.00     0.064 A 
ATOM     62  C   UNL     1      -0.490  -0.784 -13.966  1.00  0.00     0.173 A 
ATOM     63  C   UNL     1       0.100  -2.902 -13.028  1.00  0.00     0.173 A 
ATOM     64  F   UNL     1      -1.148   0.384 -13.942  1.00  0.00    -0.203 F 
ATOM     65  C   UNL     1       0.217  -1.116 -15.124  1.00  0.00     0.198 A 
ATOM     66  C   UNL     1       0.851  -3.206 -14.159  1.00  0.00     0.198 A 
ATOM     67  F   UNL     1      -0.029  -3.884 -12.123  1.00  0.00    -0.203 F 
ATOM     68  F   UNL     1       0.199  -0.284 -16.174  1.00  0.00    -0.200 F 
ATOM     69  C   UNL     1       0.893  -2.321 -15.216  1.00  0.00     0.200 A 
ATOM     70  F   UNL     1       1.477  -4.389 -14.239  1.00  0.00    -0.200 F 
ATOM     71  F   UNL     1       1.544  -2.652 -16.339  1.00  0.00    -0.200 F 
ENDBRANCH  47  61
BRANCH  48  72
ATOM     72  C   UNL     1      -5.552  -8.288 -10.834  1.00  0.00     0.064 A 
ATOM     73  C   UNL     1      -6.286  -8.788 -11.920  1.00  0.00     0.173 A 
ATOM     74  C   UNL     1      -4.753  -9.219 -10.139  1.00  0.00     0.173 A 
ATOM     75  F   UNL     1      -7.028  -7.961 -12.671  1.00  0.00    -0.203 F 
ATOM     76  C   UNL     1      -6.221 -10.135 -12.290  1.00  0.00     0.198 A 
ATOM     77  C   UNL     1      -4.706 -10.566 -10.496  1.00  0.00     0.198 A 
ATOM     78  F   UNL     1      -3.930  -8.828  -9.155  1.00  0.00    -0.203 F 
ATOM     79  F   UNL     1      -6.891 -10.563 -13.369  1.00  0.00    -0.200 F 
ATOM     80  C   UNL     1      -5.431 -11.023 -11.579  1.00  0.00     0.200 A 
ATOM     81  F   UNL     1      -3.910 -11.405  -9.818  1.00  0.00    -0.200 F 
ATOM     82  F   UNL     1      -5.336 -12.304 -11.959  1.00  0.00    -0.200 F 
ENDBRANCH  48  72
BRANCH  60  83
ATOM     83  C   UNL     1      -7.217  -2.232 -11.421  1.00  0.00     0.064 A 
ATOM     84  C   UNL     1      -7.580  -2.702 -10.148  1.00  0.00     0.173 A 
ATOM     85  C   UNL     1      -8.097  -1.347 -12.058  1.00  0.00     0.173 A 
ATOM     86  F   UNL     1      -6.742  -3.459  -9.428  1.00  0.00    -0.203 F 
ATOM     87  C   UNL     1      -8.795  -2.346  -9.565  1.00  0.00     0.198 A 
ATOM     88  C   UNL     1      -9.293  -0.962 -11.457  1.00  0.00     0.198 A 
ATOM     89  F   UNL     1      -7.773  -0.813 -13.247  1.00  0.00    -0.203 F 
ATOM     90  F   UNL     1      -9.124  -2.821  -8.355  1.00  0.00    -0.200 F 
ATOM     91  C   UNL     1      -9.647  -1.472 -10.218  1.00  0.00     0.200 A 
ATOM     92  F   UNL     1     -10.091  -0.075 -12.067  1.00  0.00    -0.200 F 
ATOM     93  F   UNL     1     -10.797  -1.096  -9.639  1.00  0.00    -0.200 F 
ENDBRANCH  60  83
ENDBRANCH  34  35
ENDBRANCH  27  29
ENDBRANCH  26  27
ENDBRANCH  25  26
ENDBRANCH  24  25
ENDBRANCH  23  24
ENDBRANCH  22  23
ENDBRANCH   1  22
TORSDOF 21
