REMARK SMILES C[C@@H]1CN(C(=O)C[N@H+]2CCO[C@H](CC(=O)OCCOCCOCCOC(=O)c3ccc(-c4c5nc(c(-c6c(F)c(F)c(F)c(F)c6F)c6ccc([nH]6)c(-c6c(F)c(F)c(F)c(F)c6F)c6nc(c(-c7c(F)c(F)c(F)c(F)c7F)c7ccc4[nH]7)C=C6)C=C5)cc3)C2)C[C@H](C)O1
REMARK SMILES IDX 20 1 19 2 18 3 17 4 16 5 14 6 15 7 13 8 12 9 8 10 9 11 91 12
REMARK SMILES IDX 10 14 11 15 7 16 5 17 6 18 4 19 1 20 2 21 3 22 95 23 93 24
REMARK SMILES IDX 92 25 94 26 21 27 22 28 23 29 24 30 25 31 26 32 27 33 28 34
REMARK SMILES IDX 29 35 90 36 30 37 89 38 31 39 32 40 33 41 83 42 34 43 88 44
REMARK SMILES IDX 82 45 84 46 35 47 87 48 81 49 80 50 36 52 68 53 48 54 67 55
REMARK SMILES IDX 49 56 52 57 66 58 85 59 50 60 51 61 65 63 86 64 53 65 37 66
REMARK SMILES IDX 38 67 46 68 39 69 40 70 44 71 47 72 41 73 42 74 45 75 43 76
REMARK SMILES IDX 69 77 70 78 78 79 71 80 72 81 76 82 79 83 73 84 74 85 77 86
REMARK SMILES IDX 75 87 54 88 55 89 63 90 56 91 57 92 61 93 64 94 58 95 59 96
REMARK SMILES IDX 62 97 60 98
REMARK H PARENT 8 13 84 51 52 62
REMARK Flexibility Score: inf
ROOT
ATOM      1  C   UNL     1       0.127   3.424   8.205  1.00  0.00     0.188 C 
ENDROOT
BRANCH   1   2
ATOM      2  O   UNL     1      -0.419   4.572   8.844  1.00  0.00    -0.376 OA
BRANCH   2   3
ATOM      3  C   UNL     1      -1.467   5.253   8.150  1.00  0.00     0.202 C 
BRANCH   3   4
ATOM      4  C   UNL     1      -1.095   5.884   6.798  1.00  0.00     0.261 C 
BRANCH   4   5
ATOM      5  O   UNL     1      -0.495   4.956   5.871  1.00  0.00    -0.463 OA
BRANCH   5   6
ATOM      6  C   UNL     1       0.746   5.276   5.417  1.00  0.00     0.308 C 
ATOM      7  O   UNL     1       1.335   6.320   5.681  1.00  0.00    -0.252 OA
BRANCH   6   8
ATOM      8  C   UNL     1       1.440   4.159   4.662  1.00  0.00     0.160 C 
BRANCH   8   9
ATOM      9  C   UNL     1       0.566   3.025   4.131  1.00  0.00     0.184 C 
ATOM     10  N   UNL     1       0.756   0.955   2.586  1.00  0.00    -0.323 N 
ATOM     11  C   UNL     1      -0.213   1.689   1.754  1.00  0.00     0.291 C 
ATOM     12  C   UNL     1       1.463   1.937   3.445  1.00  0.00     0.295 C 
ATOM     13  H   UNL     1       1.435   0.491   1.983  1.00  0.00     0.348 HD
ATOM     14  C   UNL     1      -1.133   2.607   2.555  1.00  0.00     0.222 C 
ATOM     15  O   UNL     1      -0.350   3.612   3.192  1.00  0.00    -0.366 OA
BRANCH  10  16
ATOM     16  C   UNL     1       0.153  -0.165   3.339  1.00  0.00     0.363 C 
BRANCH  16  17
ATOM     17  C   UNL     1       0.884  -1.493   3.021  1.00  0.00     0.277 C 
ATOM     18  O   UNL     1       1.797  -1.873   3.764  1.00  0.00    -0.268 OA
BRANCH  17  19
ATOM     19  N   UNL     1       0.481  -2.249   1.926  1.00  0.00    -0.333 N 
ATOM     20  C   UNL     1       1.173  -0.462  -0.606  1.00  0.00     0.040 C 
ATOM     21  C   UNL     1       0.309  -1.712  -0.477  1.00  0.00     0.135 C 
ATOM     22  C   UNL     1      -0.435  -1.840   0.868  1.00  0.00     0.151 C 
ATOM     23  O   UNL     1       1.056  -2.902  -0.790  1.00  0.00    -0.372 OA
ATOM     24  C   UNL     1       1.874  -3.443   0.267  1.00  0.00     0.135 C 
ATOM     25  C   UNL     1       1.135  -3.520   1.616  1.00  0.00     0.151 C 
ATOM     26  C   UNL     1       3.220  -2.735   0.378  1.00  0.00     0.040 C 
ENDBRANCH  17  19
ENDBRANCH  16  17
ENDBRANCH  10  16
ENDBRANCH   8   9
ENDBRANCH   6   8
ENDBRANCH   5   6
ENDBRANCH   4   5
ENDBRANCH   3   4
ENDBRANCH   2   3
ENDBRANCH   1   2
BRANCH   1  27
ATOM     27  C   UNL     1      -0.862   2.308   7.863  1.00  0.00     0.188 C 
BRANCH  27  28
ATOM     28  O   UNL     1      -2.009   2.714   7.131  1.00  0.00    -0.376 OA
BRANCH  28  29
ATOM     29  C   UNL     1      -2.993   1.715   6.855  1.00  0.00     0.202 C 
BRANCH  29  30
ATOM     30  C   UNL     1      -3.402   0.773   8.008  1.00  0.00     0.261 C 
BRANCH  30  31
ATOM     31  O   UNL     1      -2.338  -0.018   8.585  1.00  0.00    -0.460 OA
BRANCH  31  32
ATOM     32  C   UNL     1      -1.543  -0.723   7.748  1.00  0.00     0.338 C 
ATOM     33  O   UNL     1      -1.762  -0.958   6.571  1.00  0.00    -0.246 OA
BRANCH  32  34
ATOM     34  C   UNL     1      -0.218  -0.924   8.404  1.00  0.00     0.060 A 
ATOM     35  C   UNL     1       0.925  -0.855   7.596  1.00  0.00     0.016 A 
ATOM     36  C   UNL     1      -0.072  -1.089   9.787  1.00  0.00     0.016 A 
ATOM     37  C   UNL     1       2.200  -0.989   8.150  1.00  0.00     0.010 A 
ATOM     38  C   UNL     1       1.208  -1.239  10.342  1.00  0.00     0.010 A 
ATOM     39  C   UNL     1       2.351  -1.222   9.522  1.00  0.00    -0.014 A 
BRANCH  39  40
ATOM     40  C   UNL     1       3.680  -1.643  10.041  1.00  0.00     0.031 A 
ATOM     41  C   UNL     1       3.943  -3.114  10.225  1.00  0.00     0.074 A 
ATOM     42  C   UNL     1       4.665  -0.758  10.284  1.00  0.00     0.049 A 
ATOM     43  N   UNL     1       5.023  -3.725  10.643  1.00  0.00    -0.248 NA
ATOM     44  C   UNL     1       2.833  -4.020   9.889  1.00  0.00     0.031 C 
ATOM     45  C   UNL     1       4.567   0.688  10.108  1.00  0.00     0.029 A 
ATOM     46  N   UNL     1       5.950  -0.957  10.731  1.00  0.00    -0.354 N 
ATOM     47  C   UNL     1       4.723  -5.080  10.622  1.00  0.00     0.074 A 
ATOM     48  C   UNL     1       3.349  -5.203  10.184  1.00  0.00     0.031 C 
ATOM     49  C   UNL     1       5.742   1.248  10.450  1.00  0.00     0.029 A 
ATOM     50  C   UNL     1       6.666   0.204  10.895  1.00  0.00     0.049 A 
ATOM     51  H   UNL     1       6.323  -1.849  10.916  1.00  0.00     0.167 HD
ATOM     52  C   UNL     1       5.520  -6.131  10.927  1.00  0.00     0.037 A 
ATOM     53  C   UNL     1       7.914   0.402  11.365  1.00  0.00     0.037 A 
ATOM     54  C   UNL     1       6.889  -6.020  11.356  1.00  0.00     0.049 A 
ATOM     55  C   UNL     1       8.759  -0.783  11.769  1.00  0.00     0.074 A 
ATOM     56  C   UNL     1       7.782  -7.033  11.660  1.00  0.00     0.029 A 
ATOM     57  N   UNL     1       7.562  -4.824  11.553  1.00  0.00    -0.354 N 
ATOM     58  N   UNL     1       8.479  -2.062  11.712  1.00  0.00    -0.248 NA
ATOM     59  C   UNL     1      10.101  -0.492  12.298  1.00  0.00     0.031 C 
ATOM     60  C   UNL     1       8.973  -6.450  12.102  1.00  0.00     0.029 A 
ATOM     61  C   UNL     1       8.847  -5.074  12.010  1.00  0.00     0.049 A 
ATOM     62  H   UNL     1       7.184  -3.929  11.392  1.00  0.00     0.167 HD
ATOM     63  C   UNL     1       9.612  -2.726  12.169  1.00  0.00     0.074 A 
ATOM     64  C   UNL     1      10.594  -1.709  12.480  1.00  0.00     0.031 C 
ATOM     65  C   UNL     1       9.821  -4.058  12.316  1.00  0.00     0.037 A 
BRANCH  52  66
ATOM     66  C   UNL     1       4.919  -7.504  10.841  1.00  0.00     0.064 A 
ATOM     67  C   UNL     1       4.605  -8.101   9.610  1.00  0.00     0.173 A 
ATOM     68  C   UNL     1       4.691  -8.248  12.008  1.00  0.00     0.173 A 
ATOM     69  F   UNL     1       4.789  -7.426   8.465  1.00  0.00    -0.203 F 
ATOM     70  C   UNL     1       4.061  -9.382   9.554  1.00  0.00     0.198 A 
ATOM     71  C   UNL     1       4.177  -9.540  11.947  1.00  0.00     0.198 A 
ATOM     72  F   UNL     1       4.977  -7.726  13.210  1.00  0.00    -0.203 F 
ATOM     73  F   UNL     1       3.723  -9.914   8.372  1.00  0.00    -0.200 F 
ATOM     74  C   UNL     1       3.856 -10.103  10.721  1.00  0.00     0.200 A 
ATOM     75  F   UNL     1       3.993 -10.241  13.074  1.00  0.00    -0.200 F 
ATOM     76  F   UNL     1       3.342 -11.339  10.665  1.00  0.00    -0.200 F 
ENDBRANCH  52  66
BRANCH  53  77
ATOM     77  C   UNL     1       8.449   1.785  11.509  1.00  0.00     0.064 A 
ATOM     78  C   UNL     1       9.531   2.233  10.739  1.00  0.00     0.173 A 
ATOM     79  C   UNL     1       7.916   2.670  12.459  1.00  0.00     0.173 A 
ATOM     80  F   UNL     1      10.100   1.414   9.842  1.00  0.00    -0.203 F 
ATOM     81  C   UNL     1      10.074   3.503  10.929  1.00  0.00     0.198 A 
ATOM     82  C   UNL     1       8.439   3.951  12.625  1.00  0.00     0.198 A 
ATOM     83  F   UNL     1       6.888   2.288  13.231  1.00  0.00    -0.203 F 
ATOM     84  F   UNL     1      11.148   3.883  10.222  1.00  0.00    -0.200 F 
ATOM     85  C   UNL     1       9.524   4.363  11.867  1.00  0.00     0.200 A 
ATOM     86  F   UNL     1       7.899   4.780  13.529  1.00  0.00    -0.200 F 
ATOM     87  F   UNL     1      10.048   5.582  12.052  1.00  0.00    -0.200 F 
ENDBRANCH  53  77
BRANCH  65  88
ATOM     88  C   UNL     1      11.172  -4.502  12.806  1.00  0.00     0.064 A 
ATOM     89  C   UNL     1      11.595  -4.270  14.124  1.00  0.00     0.173 A 
ATOM     90  C   UNL     1      12.043  -5.200  11.955  1.00  0.00     0.173 A 
ATOM     91  F   UNL     1      10.807  -3.599  14.978  1.00  0.00    -0.203 F 
ATOM     92  C   UNL     1      12.850  -4.690  14.560  1.00  0.00     0.198 A 
ATOM     93  C   UNL     1      13.283  -5.649  12.404  1.00  0.00     0.198 A 
ATOM     94  F   UNL     1      11.688  -5.460  10.688  1.00  0.00    -0.203 F 
ATOM     95  F   UNL     1      13.254  -4.407  15.806  1.00  0.00    -0.200 F 
ATOM     96  C   UNL     1      13.690  -5.385  13.702  1.00  0.00     0.200 A 
ATOM     97  F   UNL     1      14.085  -6.336  11.579  1.00  0.00    -0.200 F 
ATOM     98  F   UNL     1      14.894  -5.793  14.125  1.00  0.00    -0.200 F 
ENDBRANCH  65  88
ENDBRANCH  39  40
ENDBRANCH  32  34
ENDBRANCH  31  32
ENDBRANCH  30  31
ENDBRANCH  29  30
ENDBRANCH  28  29
ENDBRANCH  27  28
ENDBRANCH   1  27
TORSDOF 21
