REMARK SMILES C/C(=N/OCc1ccccc1Nc1c(Cl)cccc1Cl)C(=O)OCCOCCOCCOC(=O)c1ccc(-c2c3nc(c(-c4c(F)c(F)c(F)c(F)c4F)c4ccc([nH]4)c(-c4c(F)c(F)c(F)c(F)c4F)c4nc(c(-c5c(F)c(F)c(F)c(F)c5F)c5ccc2[nH]5)C=C4)C=C3)cc1
REMARK SMILES IDX 26 1 25 2 24 3 23 4 21 5 22 6 2 7 1 8 3 9 4 10 5 11 6 12
REMARK SMILES IDX 7 13 11 14 8 15 10 16 9 17 12 18 13 20 14 21 19 22 15 23
REMARK SMILES IDX 16 24 18 25 20 26 17 27 27 28 28 29 29 30 30 31 31 32 32 33
REMARK SMILES IDX 33 34 34 35 35 36 36 37 97 38 37 39 96 40 38 41 39 42 40 43
REMARK SMILES IDX 90 44 41 45 95 46 89 47 91 48 42 49 94 50 88 51 87 52 43 54
REMARK SMILES IDX 75 55 55 56 74 57 56 58 59 59 73 60 92 61 57 62 58 63 72 65
REMARK SMILES IDX 93 66 60 67 44 68 45 69 53 70 46 71 47 72 51 73 54 74 48 75
REMARK SMILES IDX 49 76 52 77 50 78 76 79 77 80 85 81 78 82 79 83 83 84 86 85
REMARK SMILES IDX 80 86 81 87 84 88 82 89 61 90 62 91 70 92 63 93 64 94 68 95
REMARK SMILES IDX 71 96 65 97 66 98 69 99 67 100
REMARK H PARENT 12 19 91 53 59 64
REMARK Flexibility Score: inf
ROOT
ATOM      1  O   UNL     1       1.197   4.843   0.458  1.00  0.00    -0.376 OA
ENDROOT
BRANCH   1   2
ATOM      2  C   UNL     1       1.302   5.337  -0.877  1.00  0.00     0.202 C 
BRANCH   2   3
ATOM      3  C   UNL     1       1.951   4.395  -1.894  1.00  0.00     0.261 C 
BRANCH   3   4
ATOM      4  O   UNL     1       1.162   3.208  -2.039  1.00  0.00    -0.459 OA
BRANCH   4   5
ATOM      5  C   UNL     1       1.831   2.064  -2.265  1.00  0.00     0.355 C 
ATOM      6  O   UNL     1       3.009   1.932  -2.548  1.00  0.00    -0.245 OA
BRANCH   5   7
ATOM      7  C   UNL     1       0.973   0.887  -1.830  1.00  0.00     0.161 C 
ATOM      8  C   UNL     1       1.525   0.058  -0.704  1.00  0.00     0.079 C 
ATOM      9  N   UNL     1      -0.206   0.594  -2.292  1.00  0.00    -0.084 NA
BRANCH   9  10
ATOM     10  O   UNL     1      -0.582   1.428  -3.359  1.00  0.00    -0.390 OA
BRANCH  10  11
ATOM     11  C   UNL     1      -1.514   0.718  -4.194  1.00  0.00     0.302 C 
BRANCH  11  12
ATOM     12  C   UNL     1      -0.740  -0.209  -5.102  1.00  0.00     0.016 A 
ATOM     13  C   UNL     1      -0.326  -1.450  -4.571  1.00  0.00     0.009 A 
ATOM     14  C   UNL     1      -0.347   0.151  -6.405  1.00  0.00     0.045 A 
ATOM     15  C   UNL     1       0.495  -2.308  -5.294  1.00  0.00     0.001 A 
ATOM     16  C   UNL     1       0.481  -0.734  -7.117  1.00  0.00     0.026 A 
ATOM     17  C   UNL     1       0.906  -1.945  -6.567  1.00  0.00     0.002 A 
BRANCH  14  18
ATOM     18  N   UNL     1      -0.803   1.351  -6.994  1.00  0.00    -0.353 N 
ATOM     19  H   UNL     1      -1.128   2.030  -6.360  1.00  0.00     0.167 HD
BRANCH  18  20
ATOM     20  C   UNL     1      -0.864   1.727  -8.360  1.00  0.00     0.076 A 
ATOM     21  C   UNL     1      -0.314   2.966  -8.753  1.00  0.00     0.066 A 
ATOM     22  C   UNL     1      -1.369   0.895  -9.382  1.00  0.00     0.066 A 
ATOM     23  Cl  UNL     1       0.287   4.081  -7.569  1.00  0.00    -0.082 Cl
ATOM     24  C   UNL     1      -0.225   3.337 -10.099  1.00  0.00     0.023 A 
ATOM     25  C   UNL     1      -1.272   1.265 -10.731  1.00  0.00     0.023 A 
ATOM     26  Cl  UNL     1      -2.233  -0.571  -9.050  1.00  0.00    -0.082 Cl
ATOM     27  C   UNL     1      -0.689   2.478 -11.090  1.00  0.00     0.003 A 
ENDBRANCH  18  20
ENDBRANCH  14  18
ENDBRANCH  11  12
ENDBRANCH  10  11
ENDBRANCH   9  10
ENDBRANCH   5   7
ENDBRANCH   4   5
ENDBRANCH   3   4
ENDBRANCH   2   3
ENDBRANCH   1   2
BRANCH   1  28
ATOM     28  C   UNL     1       0.477   3.634   0.691  1.00  0.00     0.188 C 
BRANCH  28  29
ATOM     29  C   UNL     1      -0.909   3.435   0.044  1.00  0.00     0.188 C 
BRANCH  29  30
ATOM     30  O   UNL     1      -1.483   4.625  -0.473  1.00  0.00    -0.376 OA
BRANCH  30  31
ATOM     31  C   UNL     1      -2.673   5.055   0.173  1.00  0.00     0.202 C 
BRANCH  31  32
ATOM     32  C   UNL     1      -2.396   5.758   1.505  1.00  0.00     0.261 C 
BRANCH  32  33
ATOM     33  O   UNL     1      -1.796   4.914   2.506  1.00  0.00    -0.460 OA
BRANCH  33  34
ATOM     34  C   UNL     1      -2.556   3.895   2.966  1.00  0.00     0.338 C 
ATOM     35  O   UNL     1      -3.702   3.631   2.652  1.00  0.00    -0.246 OA
BRANCH  34  36
ATOM     36  C   UNL     1      -1.706   3.022   3.802  1.00  0.00     0.060 A 
ATOM     37  C   UNL     1      -1.661   1.655   3.509  1.00  0.00     0.016 A 
ATOM     38  C   UNL     1      -0.977   3.541   4.876  1.00  0.00     0.016 A 
ATOM     39  C   UNL     1      -0.915   0.795   4.318  1.00  0.00     0.010 A 
ATOM     40  C   UNL     1      -0.240   2.677   5.692  1.00  0.00     0.010 A 
ATOM     41  C   UNL     1      -0.231   1.295   5.436  1.00  0.00    -0.014 A 
BRANCH  41  42
ATOM     42  C   UNL     1       0.357   0.346   6.414  1.00  0.00     0.031 A 
ATOM     43  C   UNL     1      -0.453  -0.056   7.616  1.00  0.00     0.074 A 
ATOM     44  C   UNL     1       1.576  -0.188   6.221  1.00  0.00     0.049 A 
ATOM     45  N   UNL     1      -0.175  -0.924   8.555  1.00  0.00    -0.248 NA
ATOM     46  C   UNL     1      -1.754   0.613   7.780  1.00  0.00     0.031 C 
ATOM     47  C   UNL     1       2.464   0.114   5.101  1.00  0.00     0.029 A 
ATOM     48  N   UNL     1       2.274  -1.103   6.970  1.00  0.00    -0.354 N 
ATOM     49  C   UNL     1      -1.269  -0.918   9.410  1.00  0.00     0.074 A 
ATOM     50  C   UNL     1      -2.197   0.071   8.904  1.00  0.00     0.031 C 
ATOM     51  C   UNL     1       3.592  -0.607   5.236  1.00  0.00     0.029 A 
ATOM     52  C   UNL     1       3.508  -1.411   6.454  1.00  0.00     0.049 A 
ATOM     53  H   UNL     1       1.922  -1.501   7.799  1.00  0.00     0.167 HD
ATOM     54  C   UNL     1      -1.491  -1.678  10.509  1.00  0.00     0.037 A 
ATOM     55  C   UNL     1       4.458  -2.250   6.913  1.00  0.00     0.037 A 
ATOM     56  C   UNL     1      -0.569  -2.653  11.028  1.00  0.00     0.049 A 
ATOM     57  C   UNL     1       4.205  -3.053   8.163  1.00  0.00     0.074 A 
ATOM     58  C   UNL     1      -0.714  -3.481  12.128  1.00  0.00     0.029 A 
ATOM     59  N   UNL     1       0.680  -2.922  10.489  1.00  0.00    -0.354 N 
ATOM     60  N   UNL     1       3.143  -3.084   8.931  1.00  0.00    -0.248 NA
ATOM     61  C   UNL     1       5.283  -3.953   8.600  1.00  0.00     0.031 C 
ATOM     62  C   UNL     1       0.464  -4.222  12.279  1.00  0.00     0.029 A 
ATOM     63  C   UNL     1       1.324  -3.889  11.245  1.00  0.00     0.049 A 
ATOM     64  H   UNL     1       1.054  -2.490   9.688  1.00  0.00     0.167 HD
ATOM     65  C   UNL     1       3.412  -4.022   9.920  1.00  0.00     0.074 A 
ATOM     66  C   UNL     1       4.732  -4.550   9.646  1.00  0.00     0.031 C 
ATOM     67  C   UNL     1       2.636  -4.411  10.962  1.00  0.00     0.037 A 
BRANCH  54  68
ATOM     68  C   UNL     1      -2.789  -1.475  11.232  1.00  0.00     0.064 A 
ATOM     69  C   UNL     1      -4.004  -1.925  10.694  1.00  0.00     0.173 A 
ATOM     70  C   UNL     1      -2.816  -0.849  12.486  1.00  0.00     0.173 A 
ATOM     71  F   UNL     1      -4.032  -2.516   9.490  1.00  0.00    -0.203 F 
ATOM     72  C   UNL     1      -5.203  -1.734  11.376  1.00  0.00     0.198 A 
ATOM     73  C   UNL     1      -4.013  -0.682  13.177  1.00  0.00     0.198 A 
ATOM     74  F   UNL     1      -1.681  -0.402  13.044  1.00  0.00    -0.203 F 
ATOM     75  F   UNL     1      -6.357  -2.133  10.824  1.00  0.00    -0.200 F 
ATOM     76  C   UNL     1      -5.206  -1.119  12.619  1.00  0.00     0.200 A 
ATOM     77  F   UNL     1      -4.014  -0.095  14.382  1.00  0.00    -0.200 F 
ATOM     78  F   UNL     1      -6.360  -0.939  13.276  1.00  0.00    -0.200 F 
ENDBRANCH  54  68
BRANCH  55  79
ATOM     79  C   UNL     1       5.740  -2.393   6.177  1.00  0.00     0.064 A 
ATOM     80  C   UNL     1       6.053  -3.576   5.492  1.00  0.00     0.173 A 
ATOM     81  C   UNL     1       6.693  -1.365   6.173  1.00  0.00     0.173 A 
ATOM     82  F   UNL     1       5.185  -4.599   5.493  1.00  0.00    -0.203 F 
ATOM     83  C   UNL     1       7.278  -3.732   4.848  1.00  0.00     0.198 A 
ATOM     84  C   UNL     1       7.908  -1.512   5.507  1.00  0.00     0.198 A 
ATOM     85  F   UNL     1       6.444  -0.216   6.819  1.00  0.00    -0.203 F 
ATOM     86  F   UNL     1       7.572  -4.892   4.244  1.00  0.00    -0.200 F 
ATOM     87  C   UNL     1       8.203  -2.699   4.853  1.00  0.00     0.200 A 
ATOM     88  F   UNL     1       8.796  -0.510   5.508  1.00  0.00    -0.200 F 
ATOM     89  F   UNL     1       9.383  -2.851   4.236  1.00  0.00    -0.200 F 
ENDBRANCH  55  79
BRANCH  67  90
ATOM     90  C   UNL     1       3.180  -5.482  11.864  1.00  0.00     0.064 A 
ATOM     91  C   UNL     1       4.239  -5.232  12.749  1.00  0.00     0.173 A 
ATOM     92  C   UNL     1       2.624  -6.771  11.853  1.00  0.00     0.173 A 
ATOM     93  F   UNL     1       4.814  -4.021  12.789  1.00  0.00    -0.203 F 
ATOM     94  C   UNL     1       4.744  -6.242  13.565  1.00  0.00     0.198 A 
ATOM     95  C   UNL     1       3.113  -7.770  12.690  1.00  0.00     0.198 A 
ATOM     96  F   UNL     1       1.605  -7.060  11.031  1.00  0.00    -0.203 F 
ATOM     97  F   UNL     1       5.793  -5.995  14.363  1.00  0.00    -0.200 F 
ATOM     98  C   UNL     1       4.178  -7.508  13.538  1.00  0.00     0.200 A 
ATOM     99  F   UNL     1       2.557  -8.989  12.672  1.00  0.00    -0.200 F 
ATOM    100  F   UNL     1       4.667  -8.479  14.322  1.00  0.00    -0.200 F 
ENDBRANCH  67  90
ENDBRANCH  41  42
ENDBRANCH  34  36
ENDBRANCH  33  34
ENDBRANCH  32  33
ENDBRANCH  31  32
ENDBRANCH  30  31
ENDBRANCH  29  30
ENDBRANCH  28  29
ENDBRANCH   1  28
TORSDOF 22
