REMARK SMILES Cc1ccc(OCCC[N@H+]2CCCC[C@@H]2C(=O)OCCOCCOCCOC(=O)c2ccc(-c3c4nc(c(-c5c(F)c(F)c(F)c(F)c5F)c5ccc([nH]5)c(-c5c(F)c(F)c(F)c(F)c5F)c5nc(c(-c6c(F)c(F)c(F)c(F)c6F)c6ccc3[nH]6)C=C5)C=C4)cc2)cc1C
REMARK SMILES IDX 21 1 20 2 19 3 18 4 16 5 17 6 15 7 10 8 11 9 12 11 14 12
REMARK SMILES IDX 13 13 9 14 8 15 7 16 6 17 5 18 1 19 2 20 3 21 94 22 4 23
REMARK SMILES IDX 93 24 95 25 22 26 23 27 24 28 25 29 26 30 27 31 28 32 29 33
REMARK SMILES IDX 30 34 31 35 92 36 32 37 91 38 33 39 34 40 35 41 85 42 36 43
REMARK SMILES IDX 90 44 84 45 86 46 37 47 89 48 83 49 82 50 38 52 70 53 50 54
REMARK SMILES IDX 69 55 51 56 54 57 68 58 87 59 52 60 53 61 67 63 88 64 55 65
REMARK SMILES IDX 39 66 40 67 48 68 41 69 42 70 46 71 49 72 43 73 44 74 47 75
REMARK SMILES IDX 45 76 71 77 72 78 80 79 73 80 74 81 78 82 81 83 75 84 76 85
REMARK SMILES IDX 79 86 77 87 56 88 57 89 65 90 58 91 59 92 63 93 66 94 60 95
REMARK SMILES IDX 61 96 64 97 62 98
REMARK H PARENT 10 10 86 51 54 62
REMARK Flexibility Score: inf
ROOT
ATOM      1  O   UNL     1       1.151   0.229  -2.411  1.00  0.00    -0.376 OA
ENDROOT
BRANCH   1   2
ATOM      2  C   UNL     1       0.042  -0.422  -1.802  1.00  0.00     0.202 C 
BRANCH   2   3
ATOM      3  C   UNL     1      -1.313  -0.044  -2.395  1.00  0.00     0.261 C 
BRANCH   3   4
ATOM      4  O   UNL     1      -2.101   1.038  -1.832  1.00  0.00    -0.459 OA
BRANCH   4   5
ATOM      5  C   UNL     1      -1.838   1.712  -0.682  1.00  0.00     0.364 C 
ATOM      6  O   UNL     1      -0.873   1.567   0.038  1.00  0.00    -0.245 OA
BRANCH   5   7
ATOM      7  C   UNL     1      -2.906   2.766  -0.388  1.00  0.00     0.295 C 
ATOM      8  N   UNL     1      -4.226   2.139  -0.062  1.00  0.00    -0.323 N 
ATOM      9  C   UNL     1      -5.257   3.199   0.052  1.00  0.00     0.262 C 
ATOM     10  H   UNL     1      -4.465   1.485  -0.808  1.00  0.00     0.348 HD
ATOM     11  C   UNL     1      -5.333   4.124  -1.164  1.00  0.00     0.062 C 
ATOM     12  C   UNL     1      -2.929   3.731  -1.585  1.00  0.00     0.078 C 
ATOM     13  C   UNL     1      -3.994   4.795  -1.425  1.00  0.00     0.013 C 
BRANCH   8  14
ATOM     14  C   UNL     1      -4.159   1.397   1.230  1.00  0.00     0.266 C 
BRANCH  14  15
ATOM     15  C   UNL     1      -4.600  -0.081   1.179  1.00  0.00     0.103 C 
BRANCH  15  16
ATOM     16  C   UNL     1      -3.644  -1.062   0.488  1.00  0.00     0.235 C 
BRANCH  16  17
ATOM     17  O   UNL     1      -2.948  -1.927   1.416  1.00  0.00    -0.493 OA
BRANCH  17  18
ATOM     18  C   UNL     1      -1.669  -1.508   1.668  1.00  0.00     0.119 A 
ATOM     19  C   UNL     1       2.266   0.180   2.073  1.00  0.00     0.044 C 
ATOM     20  C   UNL     1       0.932  -0.512   2.009  1.00  0.00    -0.048 A 
ATOM     21  C   UNL     1      -0.162   0.099   2.639  1.00  0.00     0.007 A 
ATOM     22  C   UNL     1       0.735  -1.732   1.329  1.00  0.00    -0.045 A 
ATOM     23  C   UNL     1      -1.448  -0.416   2.493  1.00  0.00     0.047 A 
ATOM     24  C   UNL     1      -0.581  -2.216   1.154  1.00  0.00     0.050 A 
ATOM     25  C   UNL     1       1.896  -2.511   0.769  1.00  0.00     0.045 C 
ENDBRANCH  17  18
ENDBRANCH  16  17
ENDBRANCH  15  16
ENDBRANCH  14  15
ENDBRANCH   8  14
ENDBRANCH   5   7
ENDBRANCH   4   5
ENDBRANCH   3   4
ENDBRANCH   2   3
ENDBRANCH   1   2
BRANCH   1  26
ATOM     26  C   UNL     1       1.447   1.520  -1.889  1.00  0.00     0.188 C 
BRANCH  26  27
ATOM     27  C   UNL     1       0.758   2.626  -2.695  1.00  0.00     0.188 C 
BRANCH  27  28
ATOM     28  O   UNL     1       1.038   2.731  -4.091  1.00  0.00    -0.376 OA
BRANCH  28  29
ATOM     29  C   UNL     1       2.233   2.141  -4.582  1.00  0.00     0.202 C 
BRANCH  29  30
ATOM     30  C   UNL     1       3.516   2.950  -4.352  1.00  0.00     0.261 C 
BRANCH  30  31
ATOM     31  O   UNL     1       3.709   3.369  -2.987  1.00  0.00    -0.460 OA
BRANCH  31  32
ATOM     32  C   UNL     1       3.285   4.627  -2.720  1.00  0.00     0.338 C 
ATOM     33  O   UNL     1       2.825   5.431  -3.515  1.00  0.00    -0.246 OA
BRANCH  32  34
ATOM     34  C   UNL     1       3.337   4.917  -1.270  1.00  0.00     0.060 A 
ATOM     35  C   UNL     1       2.232   5.568  -0.705  1.00  0.00     0.016 A 
ATOM     36  C   UNL     1       4.496   4.720  -0.515  1.00  0.00     0.016 A 
ATOM     37  C   UNL     1       2.314   6.116   0.574  1.00  0.00     0.010 A 
ATOM     38  C   UNL     1       4.586   5.287   0.765  1.00  0.00     0.010 A 
ATOM     39  C   UNL     1       3.520   6.048   1.282  1.00  0.00    -0.014 A 
BRANCH  39  40
ATOM     40  C   UNL     1       3.740   7.019   2.388  1.00  0.00     0.031 A 
ATOM     41  C   UNL     1       4.447   8.314   2.064  1.00  0.00     0.074 A 
ATOM     42  C   UNL     1       3.260   6.817   3.627  1.00  0.00     0.049 A 
ATOM     43  N   UNL     1       4.737   9.326   2.843  1.00  0.00    -0.248 NA
ATOM     44  C   UNL     1       4.885   8.490   0.668  1.00  0.00     0.031 C 
ATOM     45  C   UNL     1       2.521   5.638   4.071  1.00  0.00     0.029 A 
ATOM     46  N   UNL     1       3.328   7.613   4.745  1.00  0.00    -0.354 N 
ATOM     47  C   UNL     1       5.399  10.245   2.038  1.00  0.00     0.074 A 
ATOM     48  C   UNL     1       5.492   9.666   0.717  1.00  0.00     0.031 C 
ATOM     49  C   UNL     1       2.219   5.780   5.374  1.00  0.00     0.029 A 
ATOM     50  C   UNL     1       2.756   7.052   5.859  1.00  0.00     0.049 A 
ATOM     51  H   UNL     1       3.749   8.504   4.747  1.00  0.00     0.167 HD
ATOM     52  C   UNL     1       5.878  11.469   2.362  1.00  0.00     0.037 A 
ATOM     53  C   UNL     1       2.688   7.508   7.126  1.00  0.00     0.037 A 
ATOM     54  C   UNL     1       5.767  12.071   3.663  1.00  0.00     0.049 A 
ATOM     55  C   UNL     1       3.261   8.863   7.468  1.00  0.00     0.074 A 
ATOM     56  C   UNL     1       6.191  13.324   4.071  1.00  0.00     0.029 A 
ATOM     57  N   UNL     1       5.191  11.463   4.766  1.00  0.00    -0.354 N 
ATOM     58  N   UNL     1       3.848   9.739   6.690  1.00  0.00    -0.248 NA
ATOM     59  C   UNL     1       3.149   9.295   8.871  1.00  0.00     0.031 C 
ATOM     60  C   UNL     1       5.914  13.456   5.436  1.00  0.00     0.029 A 
ATOM     61  C   UNL     1       5.270  12.307   5.862  1.00  0.00     0.049 A 
ATOM     62  H   UNL     1       4.787  10.566   4.771  1.00  0.00     0.167 HD
ATOM     63  C   UNL     1       4.143  10.832   7.498  1.00  0.00     0.074 A 
ATOM     64  C   UNL     1       3.654  10.519   8.822  1.00  0.00     0.031 C 
ATOM     65  C   UNL     1       4.765  11.992   7.173  1.00  0.00     0.037 A 
BRANCH  52  66
ATOM     66  C   UNL     1       6.589  12.243   1.294  1.00  0.00     0.064 A 
ATOM     67  C   UNL     1       5.896  12.854   0.239  1.00  0.00     0.173 A 
ATOM     68  C   UNL     1       7.979  12.424   1.362  1.00  0.00     0.173 A 
ATOM     69  F   UNL     1       4.569  12.697   0.122  1.00  0.00    -0.203 F 
ATOM     70  C   UNL     1       6.571  13.610  -0.716  1.00  0.00     0.198 A 
ATOM     71  C   UNL     1       8.646  13.201   0.420  1.00  0.00     0.198 A 
ATOM     72  F   UNL     1       8.686  11.861   2.353  1.00  0.00    -0.203 F 
ATOM     73  F   UNL     1       5.894  14.159  -1.734  1.00  0.00    -0.200 F 
ATOM     74  C   UNL     1       7.943  13.790  -0.619  1.00  0.00     0.200 A 
ATOM     75  F   UNL     1       9.970  13.384   0.522  1.00  0.00    -0.200 F 
ATOM     76  F   UNL     1       8.589  14.530  -1.531  1.00  0.00    -0.200 F 
ENDBRANCH  52  66
BRANCH  53  77
ATOM     77  C   UNL     1       2.071   6.674   8.192  1.00  0.00     0.064 A 
ATOM     78  C   UNL     1       0.884   7.064   8.828  1.00  0.00     0.173 A 
ATOM     79  C   UNL     1       2.701   5.506   8.648  1.00  0.00     0.173 A 
ATOM     80  F   UNL     1       0.262   8.191   8.450  1.00  0.00    -0.203 F 
ATOM     81  C   UNL     1       0.371   6.339   9.902  1.00  0.00     0.198 A 
ATOM     82  C   UNL     1       2.170   4.765   9.701  1.00  0.00     0.198 A 
ATOM     83  F   UNL     1       3.842   5.092   8.077  1.00  0.00    -0.203 F 
ATOM     84  F   UNL     1      -0.727   6.774  10.537  1.00  0.00    -0.200 F 
ATOM     85  C   UNL     1       1.013   5.189  10.336  1.00  0.00     0.200 A 
ATOM     86  F   UNL     1       2.790   3.651  10.112  1.00  0.00    -0.200 F 
ATOM     87  F   UNL     1       0.525   4.499  11.376  1.00  0.00    -0.200 F 
ENDBRANCH  53  77
BRANCH  65  88
ATOM     88  C   UNL     1       4.913  13.028   8.251  1.00  0.00     0.064 A 
ATOM     89  C   UNL     1       5.795  12.853   9.327  1.00  0.00     0.173 A 
ATOM     90  C   UNL     1       4.181  14.225   8.191  1.00  0.00     0.173 A 
ATOM     91  F   UNL     1       6.510  11.723   9.438  1.00  0.00    -0.203 F 
ATOM     92  C   UNL     1       5.913  13.821  10.322  1.00  0.00     0.198 A 
ATOM     93  C   UNL     1       4.325  15.204   9.170  1.00  0.00     0.198 A 
ATOM     94  F   UNL     1       3.332  14.448   7.177  1.00  0.00    -0.203 F 
ATOM     95  F   UNL     1       6.720  13.607  11.370  1.00  0.00    -0.200 F 
ATOM     96  C   UNL     1       5.183  14.998  10.239  1.00  0.00     0.200 A 
ATOM     97  F   UNL     1       3.630  16.347   9.080  1.00  0.00    -0.200 F 
ATOM     98  F   UNL     1       5.299  15.928  11.197  1.00  0.00    -0.200 F 
ENDBRANCH  65  88
ENDBRANCH  39  40
ENDBRANCH  32  34
ENDBRANCH  31  32
ENDBRANCH  30  31
ENDBRANCH  29  30
ENDBRANCH  28  29
ENDBRANCH  27  28
ENDBRANCH  26  27
ENDBRANCH   1  26
TORSDOF 22
