REMARK SMILES O=C(C[C@H]1CN(S(=O)(=O)c2cc(F)cc(F)c2)CCO1)OCCOCCOCCOC(=O)c1ccc(-c2c3nc(c(-c4c(F)c(F)c(F)c(F)c4F)c4ccc([nH]4)c(-c4c(F)c(F)c(F)c(F)c4F)c4nc(c(-c5c(F)c(F)c(F)c(F)c5F)c5ccc2[nH]5)C=C4)C=C3)cc1
REMARK SMILES IDX 25 1 24 2 23 3 22 4 21 5 2 6 1 7 3 8 4 9 5 10 20 11 6 12
REMARK SMILES IDX 19 13 18 14 7 15 8 16 9 17 10 18 11 19 17 20 12 21 15 22
REMARK SMILES IDX 13 23 14 24 16 25 26 26 27 27 28 28 29 29 30 30 31 31 32 32
REMARK SMILES IDX 33 33 34 34 95 35 35 36 94 37 36 38 37 39 38 40 88 41 39 42
REMARK SMILES IDX 93 43 87 44 89 45 40 46 92 47 86 48 85 49 41 51 73 52 53 53
REMARK SMILES IDX 72 54 54 55 57 56 71 57 90 58 55 59 56 60 70 62 91 63 58 64
REMARK SMILES IDX 42 65 43 66 51 67 44 68 45 69 49 70 52 71 46 72 47 73 50 74
REMARK SMILES IDX 48 75 74 76 75 77 83 78 76 79 77 80 81 81 84 82 78 83 79 84
REMARK SMILES IDX 82 85 80 86 59 87 60 88 68 89 61 90 62 91 66 92 69 93 63 94
REMARK SMILES IDX 64 95 67 96 65 97
REMARK H PARENT 89 50 57 61
REMARK Flexibility Score: inf
ROOT
ATOM      1  C   UNL     1       6.585   0.264  -0.680  1.00  0.00     0.188 C 
ENDROOT
BRANCH   1   2
ATOM      2  O   UNL     1       5.239  -0.199  -0.797  1.00  0.00    -0.376 OA
BRANCH   2   3
ATOM      3  C   UNL     1       4.343   0.685  -1.461  1.00  0.00     0.202 C 
BRANCH   3   4
ATOM      4  C   UNL     1       3.471   1.440  -0.463  1.00  0.00     0.261 C 
BRANCH   4   5
ATOM      5  O   UNL     1       4.206   2.472   0.225  1.00  0.00    -0.463 OA
BRANCH   5   6
ATOM      6  C   UNL     1       4.574   2.444   1.528  1.00  0.00     0.308 C 
ATOM      7  O   UNL     1       4.847   3.494   2.105  1.00  0.00    -0.252 OA
BRANCH   6   8
ATOM      8  C   UNL     1       4.755   1.111   2.210  1.00  0.00     0.156 C 
BRANCH   8   9
ATOM      9  C   UNL     1       3.489   0.547   2.845  1.00  0.00     0.144 C 
ATOM     10  C   UNL     1       3.200  -0.922   2.430  1.00  0.00     0.135 C 
ATOM     11  O   UNL     1       3.473   0.723   4.269  1.00  0.00    -0.375 OA
ATOM     12  N   UNL     1       3.921  -1.974   3.209  1.00  0.00    -0.193 NA
ATOM     13  C   UNL     1       4.275  -0.237   4.966  1.00  0.00     0.177 C 
ATOM     14  C   UNL     1       3.791  -1.658   4.674  1.00  0.00     0.131 C 
BRANCH  12  15
ATOM     15  S   UNL     1       5.465  -2.530   2.750  1.00  0.00     0.243 S 
ATOM     16  O   UNL     1       6.293  -1.395   2.429  1.00  0.00    -0.207 OA
ATOM     17  O   UNL     1       5.882  -3.447   3.797  1.00  0.00    -0.207 OA
BRANCH  15  18
ATOM     18  C   UNL     1       5.345  -3.529   1.277  1.00  0.00     0.088 A 
ATOM     19  C   UNL     1       4.568  -3.194   0.172  1.00  0.00     0.061 A 
ATOM     20  C   UNL     1       6.183  -4.651   1.198  1.00  0.00     0.061 A 
ATOM     21  C   UNL     1       4.664  -3.947  -0.999  1.00  0.00     0.127 A 
ATOM     22  C   UNL     1       6.274  -5.375   0.012  1.00  0.00     0.127 A 
ATOM     23  F   UNL     1       3.938  -3.588  -2.066  1.00  0.00    -0.207 F 
ATOM     24  C   UNL     1       5.524  -5.028  -1.099  1.00  0.00     0.078 A 
ATOM     25  F   UNL     1       7.141  -6.392  -0.072  1.00  0.00    -0.207 F 
ENDBRANCH  15  18
ENDBRANCH  12  15
ENDBRANCH   8   9
ENDBRANCH   6   8
ENDBRANCH   5   6
ENDBRANCH   4   5
ENDBRANCH   3   4
ENDBRANCH   2   3
ENDBRANCH   1   2
BRANCH   1  26
ATOM     26  C   UNL     1       7.346   0.546  -1.982  1.00  0.00     0.188 C 
BRANCH  26  27
ATOM     27  O   UNL     1       6.821   0.002  -3.185  1.00  0.00    -0.376 OA
BRANCH  27  28
ATOM     28  C   UNL     1       6.586  -1.402  -3.244  1.00  0.00     0.202 C 
BRANCH  28  29
ATOM     29  C   UNL     1       7.820  -2.285  -3.077  1.00  0.00     0.261 C 
BRANCH  29  30
ATOM     30  O   UNL     1       8.102  -2.520  -1.682  1.00  0.00    -0.460 OA
BRANCH  30  31
ATOM     31  C   UNL     1       9.353  -2.208  -1.281  1.00  0.00     0.338 C 
ATOM     32  O   UNL     1      10.246  -1.706  -1.948  1.00  0.00    -0.246 OA
BRANCH  31  33
ATOM     33  C   UNL     1       9.508  -2.489   0.153  1.00  0.00     0.060 A 
ATOM     34  C   UNL     1       9.879  -1.442   1.000  1.00  0.00     0.016 A 
ATOM     35  C   UNL     1       9.433  -3.799   0.630  1.00  0.00     0.016 A 
ATOM     36  C   UNL     1      10.238  -1.716   2.319  1.00  0.00     0.010 A 
ATOM     37  C   UNL     1       9.760  -4.066   1.963  1.00  0.00     0.010 A 
ATOM     38  C   UNL     1      10.222  -3.035   2.800  1.00  0.00    -0.014 A 
BRANCH  38  39
ATOM     39  C   UNL     1      10.851  -3.347   4.110  1.00  0.00     0.031 A 
ATOM     40  C   UNL     1      12.178  -4.061   4.140  1.00  0.00     0.074 A 
ATOM     41  C   UNL     1      10.280  -2.954   5.263  1.00  0.00     0.049 A 
ATOM     42  N   UNL     1      12.925  -4.388   5.165  1.00  0.00    -0.248 NA
ATOM     43  C   UNL     1      12.736  -4.472   2.841  1.00  0.00     0.031 C 
ATOM     44  C   UNL     1       9.003  -2.253   5.372  1.00  0.00     0.029 A 
ATOM     45  N   UNL     1      10.708  -3.081   6.562  1.00  0.00    -0.354 N 
ATOM     46  C   UNL     1      14.027  -5.047   4.635  1.00  0.00     0.074 A 
ATOM     47  C   UNL     1      13.831  -5.122   3.206  1.00  0.00     0.031 C 
ATOM     48  C   UNL     1       8.760  -1.990   6.667  1.00  0.00     0.029 A 
ATOM     49  C   UNL     1       9.852  -2.526   7.481  1.00  0.00     0.049 A 
ATOM     50  H   UNL     1      11.549  -3.527   6.811  1.00  0.00     0.167 HD
ATOM     51  C   UNL     1      15.119  -5.524   5.278  1.00  0.00     0.037 A 
ATOM     52  C   UNL     1       9.938  -2.454   8.824  1.00  0.00     0.037 A 
ATOM     53  C   UNL     1      15.332  -5.420   6.697  1.00  0.00     0.049 A 
ATOM     54  C   UNL     1      11.148  -3.015   9.525  1.00  0.00     0.074 A 
ATOM     55  C   UNL     1      16.431  -5.826   7.433  1.00  0.00     0.029 A 
ATOM     56  N   UNL     1      14.427  -4.873   7.593  1.00  0.00    -0.354 N 
ATOM     57  N   UNL     1      12.207  -3.590   9.009  1.00  0.00    -0.248 NA
ATOM     58  C   UNL     1      11.179  -2.913  10.992  1.00  0.00     0.031 C 
ATOM     59  C   UNL     1      16.168  -5.574   8.782  1.00  0.00     0.029 A 
ATOM     60  C   UNL     1      14.931  -4.957   8.880  1.00  0.00     0.049 A 
ATOM     61  H   UNL     1      13.556  -4.483   7.351  1.00  0.00     0.167 HD
ATOM     62  C   UNL     1      13.041  -3.889  10.079  1.00  0.00     0.074 A 
ATOM     63  C   UNL     1      12.367  -3.433  11.276  1.00  0.00     0.031 C 
ATOM     64  C   UNL     1      14.258  -4.485  10.064  1.00  0.00     0.037 A 
BRANCH  51  65
ATOM     65  C   UNL     1      16.175  -6.203   4.455  1.00  0.00     0.064 A 
ATOM     66  C   UNL     1      16.404  -7.581   4.591  1.00  0.00     0.173 A 
ATOM     67  C   UNL     1      16.995  -5.486   3.570  1.00  0.00     0.173 A 
ATOM     68  F   UNL     1      15.655  -8.312   5.430  1.00  0.00    -0.203 F 
ATOM     69  C   UNL     1      17.418  -8.213   3.876  1.00  0.00     0.198 A 
ATOM     70  C   UNL     1      17.987  -6.128   2.833  1.00  0.00     0.198 A 
ATOM     71  F   UNL     1      16.811  -4.168   3.396  1.00  0.00    -0.203 F 
ATOM     72  F   UNL     1      17.637  -9.524   4.044  1.00  0.00    -0.200 F 
ATOM     73  C   UNL     1      18.203  -7.488   2.993  1.00  0.00     0.200 A 
ATOM     74  F   UNL     1      18.727  -5.430   1.960  1.00  0.00    -0.200 F 
ATOM     75  F   UNL     1      19.167  -8.101   2.292  1.00  0.00    -0.200 F 
ENDBRANCH  51  65
BRANCH  52  76
ATOM     76  C   UNL     1       8.854  -1.779   9.584  1.00  0.00     0.064 A 
ATOM     77  C   UNL     1       7.575  -2.347   9.687  1.00  0.00     0.173 A 
ATOM     78  C   UNL     1       9.062  -0.526  10.175  1.00  0.00     0.173 A 
ATOM     79  F   UNL     1       7.325  -3.544   9.139  1.00  0.00    -0.203 F 
ATOM     80  C   UNL     1       6.538  -1.671  10.326  1.00  0.00     0.198 A 
ATOM     81  C   UNL     1       8.030   0.137  10.837  1.00  0.00     0.198 A 
ATOM     82  F   UNL     1      10.273   0.047  10.122  1.00  0.00    -0.203 F 
ATOM     83  F   UNL     1       5.314  -2.216  10.371  1.00  0.00    -0.200 F 
ATOM     84  C   UNL     1       6.766  -0.431  10.902  1.00  0.00     0.200 A 
ATOM     85  F   UNL     1       8.259   1.326  11.410  1.00  0.00    -0.200 F 
ATOM     86  F   UNL     1       5.768   0.218  11.517  1.00  0.00    -0.200 F 
ENDBRANCH  52  76
BRANCH  64  87
ATOM     87  C   UNL     1      14.979  -4.664  11.368  1.00  0.00     0.064 A 
ATOM     88  C   UNL     1      16.139  -3.921  11.642  1.00  0.00     0.173 A 
ATOM     89  C   UNL     1      14.603  -5.658  12.282  1.00  0.00     0.173 A 
ATOM     90  F   UNL     1      16.546  -2.967  10.792  1.00  0.00    -0.203 F 
ATOM     91  C   UNL     1      16.911  -4.188  12.769  1.00  0.00     0.198 A 
ATOM     92  C   UNL     1      15.365  -5.904  13.422  1.00  0.00     0.198 A 
ATOM     93  F   UNL     1      13.498  -6.388  12.069  1.00  0.00    -0.203 F 
ATOM     94  F   UNL     1      18.041  -3.500  12.983  1.00  0.00    -0.200 F 
ATOM     95  C   UNL     1      16.524  -5.180  13.657  1.00  0.00     0.200 A 
ATOM     96  F   UNL     1      14.982  -6.852  14.289  1.00  0.00    -0.200 F 
ATOM     97  F   UNL     1      17.273  -5.441  14.738  1.00  0.00    -0.200 F 
ENDBRANCH  64  87
ENDBRANCH  38  39
ENDBRANCH  31  33
ENDBRANCH  30  31
ENDBRANCH  29  30
ENDBRANCH  28  29
ENDBRANCH  27  28
ENDBRANCH  26  27
ENDBRANCH   1  26
TORSDOF 20
