REMARK SMILES COc1ccc(-n2c(=S)[nH]cc(CC(=O)OCCOCCOCCOC(=O)c3ccc(-c4c5nc(c(-c6c(F)c(F)c(F)c(F)c6F)c6ccc([nH]6)c(-c6c(F)c(F)c(F)c(F)c6F)c6nc(c(-c7c(F)c(F)c(F)c(F)c7F)c7ccc4[nH]7)C=C6)C=C5)cc3)c2=O)cc1Cl
REMARK SMILES IDX 20 1 19 2 18 3 17 4 16 5 14 6 15 7 13 8 12 9 7 10 8 11 91 12
REMARK SMILES IDX 9 13 10 14 92 15 11 16 6 18 3 19 4 20 94 21 5 22 93 23 95 24
REMARK SMILES IDX 2 25 1 26 21 27 22 28 23 29 24 30 25 31 26 32 27 33 28 34
REMARK SMILES IDX 29 35 90 36 30 37 89 38 31 39 32 40 33 41 83 42 34 43 88 44
REMARK SMILES IDX 82 45 84 46 35 47 87 48 81 49 80 50 36 52 68 53 48 54 67 55
REMARK SMILES IDX 49 56 52 57 66 58 85 59 50 60 51 61 65 63 86 64 53 65 37 66
REMARK SMILES IDX 38 67 46 68 39 69 40 70 44 71 47 72 41 73 42 74 45 75 43 76
REMARK SMILES IDX 69 77 70 78 78 79 71 80 72 81 76 82 79 83 73 84 74 85 77 86
REMARK SMILES IDX 75 87 54 88 55 89 63 90 56 91 57 92 61 93 64 94 58 95 59 96
REMARK SMILES IDX 62 97 60 98
REMARK H PARENT 10 17 84 51 52 62
REMARK Flexibility Score: inf
ROOT
ATOM      1  C   UNL     1       3.022 -12.229  -0.046  1.00  0.00     0.188 C 
ENDROOT
BRANCH   1   2
ATOM      2  O   UNL     1       3.615 -12.629  -1.272  1.00  0.00    -0.376 OA
BRANCH   2   3
ATOM      3  C   UNL     1       4.017 -11.615  -2.191  1.00  0.00     0.202 C 
BRANCH   3   4
ATOM      4  C   UNL     1       2.944 -10.607  -2.635  1.00  0.00     0.261 C 
BRANCH   4   5
ATOM      5  O   UNL     1       2.361  -9.804  -1.573  1.00  0.00    -0.463 OA
BRANCH   5   6
ATOM      6  C   UNL     1       1.003  -9.716  -1.569  1.00  0.00     0.310 C 
ATOM      7  O   UNL     1       0.285 -10.258  -2.407  1.00  0.00    -0.252 OA
BRANCH   6   8
ATOM      8  C   UNL     1       0.375  -9.034  -0.346  1.00  0.00     0.165 C 
BRANCH   8   9
ATOM      9  C   UNL     1       1.166  -8.151   0.582  1.00  0.00     0.045 A 
ATOM     10  N   UNL     1       1.901  -5.885   1.220  1.00  0.00    -0.253 N 
ATOM     11  C   UNL     1       2.536  -6.395   2.364  1.00  0.00     0.184 A 
ATOM     12  C   UNL     1       1.292  -6.702   0.253  1.00  0.00     0.262 A 
ATOM     13  S   UNL     1       3.434  -5.577   3.524  1.00  0.00    -0.040 S 
ATOM     14  N   UNL     1       2.328  -7.732   2.597  1.00  0.00    -0.338 N 
ATOM     15  O   UNL     1       0.830  -6.303  -0.815  1.00  0.00    -0.269 OA
ATOM     16  C   UNL     1       1.609  -8.547   1.781  1.00  0.00     0.095 A 
ATOM     17  H   UNL     1       2.725  -8.126   3.407  1.00  0.00     0.168 HD
BRANCH  10  18
ATOM     18  C   UNL     1       1.670  -4.479   1.105  1.00  0.00     0.053 A 
ATOM     19  C   UNL     1       1.149  -1.730   1.143  1.00  0.00     0.137 A 
ATOM     20  C   UNL     1       0.109  -2.636   1.351  1.00  0.00     0.050 A 
ATOM     21  C   UNL     1       2.454  -2.195   0.936  1.00  0.00     0.085 A 
ATOM     22  C   UNL     1       0.365  -4.006   1.316  1.00  0.00     0.031 A 
ATOM     23  C   UNL     1       2.713  -3.570   0.907  1.00  0.00     0.051 A 
ATOM     24  Cl  UNL     1       3.795  -1.120   0.774  1.00  0.00    -0.080 Cl
BRANCH  19  25
ATOM     25  O   UNL     1       0.825  -0.402   1.250  1.00  0.00    -0.495 OA
ATOM     26  C   UNL     1       0.830   0.241  -0.025  1.00  0.00     0.278 C 
ENDBRANCH  19  25
ENDBRANCH  10  18
ENDBRANCH   8   9
ENDBRANCH   6   8
ENDBRANCH   5   6
ENDBRANCH   4   5
ENDBRANCH   3   4
ENDBRANCH   2   3
ENDBRANCH   1   2
BRANCH   1  27
ATOM     27  C   UNL     1       3.621 -11.023   0.682  1.00  0.00     0.188 C 
BRANCH  27  28
ATOM     28  O   UNL     1       4.909 -10.683   0.223  1.00  0.00    -0.376 OA
BRANCH  28  29
ATOM     29  C   UNL     1       5.747  -9.964   1.109  1.00  0.00     0.202 C 
BRANCH  29  30
ATOM     30  C   UNL     1       6.490 -10.936   2.029  1.00  0.00     0.261 C 
BRANCH  30  31
ATOM     31  O   UNL     1       5.645 -11.776   2.841  1.00  0.00    -0.460 OA
BRANCH  31  32
ATOM     32  C   UNL     1       4.825 -11.181   3.736  1.00  0.00     0.338 C 
ATOM     33  O   UNL     1       4.751  -9.986   3.985  1.00  0.00    -0.246 OA
BRANCH  32  34
ATOM     34  C   UNL     1       3.808 -12.182   4.154  1.00  0.00     0.060 A 
ATOM     35  C   UNL     1       4.141 -13.525   4.342  1.00  0.00     0.016 A 
ATOM     36  C   UNL     1       2.471 -11.773   4.269  1.00  0.00     0.016 A 
ATOM     37  C   UNL     1       3.140 -14.449   4.657  1.00  0.00     0.010 A 
ATOM     38  C   UNL     1       1.469 -12.698   4.579  1.00  0.00     0.010 A 
ATOM     39  C   UNL     1       1.799 -14.042   4.793  1.00  0.00    -0.014 A 
BRANCH  39  40
ATOM     40  C   UNL     1       0.793 -14.998   5.324  1.00  0.00     0.031 A 
ATOM     41  C   UNL     1      -0.263 -15.623   4.462  1.00  0.00     0.074 A 
ATOM     42  C   UNL     1       0.851 -15.300   6.636  1.00  0.00     0.049 A 
ATOM     43  N   UNL     1      -1.118 -16.567   4.769  1.00  0.00    -0.248 NA
ATOM     44  C   UNL     1      -0.391 -15.118   3.089  1.00  0.00     0.031 C 
ATOM     45  C   UNL     1       1.792 -14.706   7.586  1.00  0.00     0.029 A 
ATOM     46  N   UNL     1       0.125 -16.186   7.391  1.00  0.00    -0.354 N 
ATOM     47  C   UNL     1      -1.865 -16.794   3.622  1.00  0.00     0.074 A 
ATOM     48  C   UNL     1      -1.407 -15.841   2.631  1.00  0.00     0.031 C 
ATOM     49  C   UNL     1       1.621 -15.278   8.786  1.00  0.00     0.029 A 
ATOM     50  C   UNL     1       0.544 -16.260   8.696  1.00  0.00     0.049 A 
ATOM     51  H   UNL     1      -0.622 -16.716   7.032  1.00  0.00     0.167 HD
ATOM     52  C   UNL     1      -2.824 -17.730   3.413  1.00  0.00     0.037 A 
ATOM     53  C   UNL     1       0.122 -17.044   9.707  1.00  0.00     0.037 A 
ATOM     54  C   UNL     1      -3.283 -18.666   4.410  1.00  0.00     0.049 A 
ATOM     55  C   UNL     1      -0.964 -18.051   9.456  1.00  0.00     0.074 A 
ATOM     56  C   UNL     1      -4.208 -19.688   4.272  1.00  0.00     0.029 A 
ATOM     57  N   UNL     1      -2.866 -18.687   5.734  1.00  0.00    -0.354 N 
ATOM     58  N   UNL     1      -1.584 -18.334   8.336  1.00  0.00    -0.248 NA
ATOM     59  C   UNL     1      -1.406 -18.851  10.606  1.00  0.00     0.031 C 
ATOM     60  C   UNL     1      -4.394 -20.287   5.522  1.00  0.00     0.029 A 
ATOM     61  C   UNL     1      -3.545 -19.677   6.430  1.00  0.00     0.049 A 
ATOM     62  H   UNL     1      -2.188 -18.087   6.121  1.00  0.00     0.167 HD
ATOM     63  C   UNL     1      -2.478 -19.351   8.643  1.00  0.00     0.074 A 
ATOM     64  C   UNL     1      -2.300 -19.655  10.047  1.00  0.00     0.031 C 
ATOM     65  C   UNL     1      -3.371 -19.969   7.831  1.00  0.00     0.037 A 
BRANCH  52  66
ATOM     66  C   UNL     1      -3.436 -17.820   2.042  1.00  0.00     0.064 A 
ATOM     67  C   UNL     1      -2.700 -18.301   0.949  1.00  0.00     0.173 A 
ATOM     68  C   UNL     1      -4.792 -17.522   1.836  1.00  0.00     0.173 A 
ATOM     69  F   UNL     1      -1.401 -18.604   1.091  1.00  0.00    -0.203 F 
ATOM     70  C   UNL     1      -3.292 -18.463  -0.302  1.00  0.00     0.198 A 
ATOM     71  C   UNL     1      -5.388 -17.712   0.592  1.00  0.00     0.198 A 
ATOM     72  F   UNL     1      -5.548 -17.074   2.850  1.00  0.00    -0.203 F 
ATOM     73  F   UNL     1      -2.559 -18.896  -1.337  1.00  0.00    -0.200 F 
ATOM     74  C   UNL     1      -4.637 -18.177  -0.477  1.00  0.00     0.200 A 
ATOM     75  F   UNL     1      -6.694 -17.456   0.429  1.00  0.00    -0.200 F 
ATOM     76  F   UNL     1      -5.210 -18.353  -1.676  1.00  0.00    -0.200 F 
ENDBRANCH  52  66
BRANCH  53  77
ATOM     77  C   UNL     1       0.776 -16.933  11.037  1.00  0.00     0.064 A 
ATOM     78  C   UNL     1       1.587 -17.966  11.525  1.00  0.00     0.173 A 
ATOM     79  C   UNL     1       0.631 -15.785  11.829  1.00  0.00     0.173 A 
ATOM     80  F   UNL     1       1.743 -19.090  10.810  1.00  0.00    -0.203 F 
ATOM     81  C   UNL     1       2.222 -17.858  12.760  1.00  0.00     0.198 A 
ATOM     82  C   UNL     1       1.291 -15.666  13.049  1.00  0.00     0.198 A 
ATOM     83  F   UNL     1      -0.128 -14.765  11.401  1.00  0.00    -0.203 F 
ATOM     84  F   UNL     1       2.966 -18.874  13.219  1.00  0.00    -0.200 F 
ATOM     85  C   UNL     1       2.081 -16.705  13.517  1.00  0.00     0.200 A 
ATOM     86  F   UNL     1       1.168 -14.541  13.768  1.00  0.00    -0.200 F 
ATOM     87  F   UNL     1       2.705 -16.596  14.697  1.00  0.00    -0.200 F 
ENDBRANCH  53  77
BRANCH  65  88
ATOM     88  C   UNL     1      -4.243 -21.032   8.437  1.00  0.00     0.064 A 
ATOM     89  C   UNL     1      -5.277 -20.706   9.328  1.00  0.00     0.173 A 
ATOM     90  C   UNL     1      -4.098 -22.378   8.066  1.00  0.00     0.173 A 
ATOM     91  F   UNL     1      -5.449 -19.437   9.727  1.00  0.00    -0.203 F 
ATOM     92  C   UNL     1      -6.125 -21.688   9.833  1.00  0.00     0.198 A 
ATOM     93  C   UNL     1      -4.968 -23.353   8.548  1.00  0.00     0.198 A 
ATOM     94  F   UNL     1      -3.130 -22.744   7.213  1.00  0.00    -0.203 F 
ATOM     95  F   UNL     1      -7.084 -21.357  10.709  1.00  0.00    -0.200 F 
ATOM     96  C   UNL     1      -5.978 -23.008   9.433  1.00  0.00     0.200 A 
ATOM     97  F   UNL     1      -4.835 -24.625   8.148  1.00  0.00    -0.200 F 
ATOM     98  F   UNL     1      -6.809 -23.948   9.903  1.00  0.00    -0.200 F 
ENDBRANCH  65  88
ENDBRANCH  39  40
ENDBRANCH  32  34
ENDBRANCH  31  32
ENDBRANCH  30  31
ENDBRANCH  29  30
ENDBRANCH  28  29
ENDBRANCH  27  28
ENDBRANCH   1  27
TORSDOF 20
