REMARK SMILES COc1ccc2c(c1OC)C(=O)O[C@@H]2Nc1nonc1C(=O)OCCOCCOCCOC(=O)c1ccc(-c2c3nc(c(-c4c(F)c(F)c(F)c(F)c4F)c4ccc([nH]4)c(-c4c(F)c(F)c(F)c(F)c4F)c4nc(c(-c5c(F)c(F)c(F)c(F)c5F)c5ccc2[nH]5)C=C4)C=C3)cc1
REMARK SMILES IDX 27 1 26 2 25 3 24 4 23 5 21 6 22 7 20 8 16 9 17 10 18 11
REMARK SMILES IDX 19 12 15 13 14 15 3 16 4 17 8 18 5 19 7 20 6 21 11 22 12 23
REMARK SMILES IDX 13 24 2 25 1 26 9 27 10 28 28 29 29 30 30 31 31 32 32 33
REMARK SMILES IDX 33 34 34 35 35 36 36 37 97 38 37 39 96 40 38 41 39 42 40 43
REMARK SMILES IDX 90 44 41 45 95 46 89 47 91 48 42 49 94 50 88 51 87 52 43 54
REMARK SMILES IDX 75 55 55 56 74 57 56 58 59 59 73 60 92 61 57 62 58 63 72 65
REMARK SMILES IDX 93 66 60 67 44 68 45 69 53 70 46 71 47 72 51 73 54 74 48 75
REMARK SMILES IDX 49 76 52 77 50 78 76 79 77 80 85 81 78 82 79 83 83 84 86 85
REMARK SMILES IDX 80 86 81 87 84 88 82 89 61 90 62 91 70 92 63 93 64 94 68 95
REMARK SMILES IDX 71 96 65 97 66 98 69 99 67 100
REMARK H PARENT 15 14 91 53 59 64
REMARK Flexibility Score: inf
ROOT
ATOM      1  C   UNL     1      -2.995   4.395  -6.402  1.00  0.00     0.188 C 
ENDROOT
BRANCH   1   2
ATOM      2  O   UNL     1      -3.553   3.086  -6.331  1.00  0.00    -0.376 OA
BRANCH   2   3
ATOM      3  C   UNL     1      -2.747   2.013  -5.847  1.00  0.00     0.202 C 
BRANCH   3   4
ATOM      4  C   UNL     1      -1.380   1.801  -6.513  1.00  0.00     0.261 C 
BRANCH   4   5
ATOM      5  O   UNL     1      -0.491   2.915  -6.290  1.00  0.00    -0.458 OA
BRANCH   5   6
ATOM      6  C   UNL     1       0.107   3.463  -7.391  1.00  0.00     0.364 C 
ATOM      7  O   UNL     1       0.087   2.945  -8.501  1.00  0.00    -0.244 OA
BRANCH   6   8
ATOM      8  C   UNL     1       0.646   4.791  -7.128  1.00  0.00     0.236 A 
ATOM      9  C   UNL     1       1.273   5.353  -5.978  1.00  0.00     0.209 A 
ATOM     10  N   UNL     1       1.379   6.671  -6.154  1.00  0.00    -0.031 NA
ATOM     11  O   UNL     1       0.916   6.922  -7.431  1.00  0.00    -0.241 OA
ATOM     12  N   UNL     1       0.459   5.765  -8.033  1.00  0.00    -0.040 NA
BRANCH   9  13
ATOM     13  N   UNL     1       1.687   4.756  -4.832  1.00  0.00    -0.326 N 
ATOM     14  H   UNL     1       1.569   5.236  -3.981  1.00  0.00     0.166 HD
BRANCH  13  15
ATOM     15  C   UNL     1       2.290   3.457  -4.808  1.00  0.00     0.307 C 
ATOM     16  C   UNL     1       1.349   0.584  -1.911  1.00  0.00     0.161 A 
ATOM     17  C   UNL     1       0.266   1.281  -2.460  1.00  0.00     0.051 A 
ATOM     18  C   UNL     1       2.691   0.910  -2.212  1.00  0.00     0.175 A 
ATOM     19  C   UNL     1       0.498   2.312  -3.354  1.00  0.00     0.014 A 
ATOM     20  C   UNL     1       2.890   1.952  -3.114  1.00  0.00     0.114 A 
ATOM     21  C   UNL     1       1.808   2.602  -3.702  1.00  0.00     0.032 A 
ATOM     22  C   UNL     1       4.092   2.580  -3.688  1.00  0.00     0.344 C 
ATOM     23  O   UNL     1       5.261   2.353  -3.448  1.00  0.00    -0.246 OA
ATOM     24  O   UNL     1       3.683   3.565  -4.543  1.00  0.00    -0.434 OA
BRANCH  16  25
ATOM     25  O   UNL     1       1.028  -0.499  -1.127  1.00  0.00    -0.493 OA
ATOM     26  C   UNL     1       1.121  -0.162   0.255  1.00  0.00     0.278 C 
ENDBRANCH  16  25
BRANCH  18  27
ATOM     27  O   UNL     1       3.607   0.085  -1.631  1.00  0.00    -0.492 OA
ATOM     28  C   UNL     1       4.918   0.564  -1.389  1.00  0.00     0.278 C 
ENDBRANCH  18  27
ENDBRANCH  13  15
ENDBRANCH   9  13
ENDBRANCH   6   8
ENDBRANCH   5   6
ENDBRANCH   4   5
ENDBRANCH   3   4
ENDBRANCH   2   3
ENDBRANCH   1   2
BRANCH   1  29
ATOM     29  C   UNL     1      -2.392   5.012  -5.122  1.00  0.00     0.188 C 
BRANCH  29  30
ATOM     30  O   UNL     1      -2.385   4.125  -4.030  1.00  0.00    -0.376 OA
BRANCH  30  31
ATOM     31  C   UNL     1      -3.338   4.292  -2.995  1.00  0.00     0.202 C 
BRANCH  31  32
ATOM     32  C   UNL     1      -4.803   4.704  -3.249  1.00  0.00     0.261 C 
BRANCH  32  33
ATOM     33  O   UNL     1      -5.109   5.367  -4.479  1.00  0.00    -0.460 OA
BRANCH  33  34
ATOM     34  C   UNL     1      -5.101   6.722  -4.479  1.00  0.00     0.338 C 
ATOM     35  O   UNL     1      -4.805   7.460  -3.559  1.00  0.00    -0.246 OA
BRANCH  34  36
ATOM     36  C   UNL     1      -5.337   7.159  -5.871  1.00  0.00     0.060 A 
ATOM     37  C   UNL     1      -4.292   7.759  -6.589  1.00  0.00     0.016 A 
ATOM     38  C   UNL     1      -6.568   6.916  -6.481  1.00  0.00     0.016 A 
ATOM     39  C   UNL     1      -4.473   8.100  -7.932  1.00  0.00     0.010 A 
ATOM     40  C   UNL     1      -6.757   7.286  -7.814  1.00  0.00     0.010 A 
ATOM     41  C   UNL     1      -5.714   7.884  -8.545  1.00  0.00    -0.014 A 
BRANCH  41  42
ATOM     42  C   UNL     1      -5.992   8.397  -9.908  1.00  0.00     0.031 A 
ATOM     43  C   UNL     1      -6.707   9.709 -10.049  1.00  0.00     0.074 A 
ATOM     44  C   UNL     1      -5.656   7.691 -11.002  1.00  0.00     0.049 A 
ATOM     45  N   UNL     1      -7.177  10.294 -11.120  1.00  0.00    -0.248 NA
ATOM     46  C   UNL     1      -6.926  10.459  -8.803  1.00  0.00     0.031 C 
ATOM     47  C   UNL     1      -4.912   6.435 -11.002  1.00  0.00     0.029 A 
ATOM     48  N   UNL     1      -5.920   7.929 -12.328  1.00  0.00    -0.354 N 
ATOM     49  C   UNL     1      -7.753  11.477 -10.678  1.00  0.00     0.074 A 
ATOM     50  C   UNL     1      -7.603  11.510  -9.239  1.00  0.00     0.031 C 
ATOM     51  C   UNL     1      -4.789   6.003 -12.270  1.00  0.00     0.029 A 
ATOM     52  C   UNL     1      -5.487   6.929 -13.162  1.00  0.00     0.049 A 
ATOM     53  H   UNL     1      -6.377   8.740 -12.650  1.00  0.00     0.167 HD
ATOM     54  C   UNL     1      -8.350  12.449 -11.409  1.00  0.00     0.037 A 
ATOM     55  C   UNL     1      -5.663   6.767 -14.489  1.00  0.00     0.037 A 
ATOM     56  C   UNL     1      -8.518  12.399 -12.838  1.00  0.00     0.049 A 
ATOM     57  C   UNL     1      -6.447   7.798 -15.263  1.00  0.00     0.074 A 
ATOM     58  C   UNL     1      -9.101  13.335 -13.673  1.00  0.00     0.029 A 
ATOM     59  N   UNL     1      -8.117  11.340 -13.642  1.00  0.00    -0.354 N 
ATOM     60  N   UNL     1      -6.971   8.927 -14.849  1.00  0.00    -0.248 NA
ATOM     61  C   UNL     1      -6.671   7.526 -16.691  1.00  0.00     0.031 C 
ATOM     62  C   UNL     1      -9.113  12.815 -14.971  1.00  0.00     0.029 A 
ATOM     63  C   UNL     1      -8.478  11.583 -14.958  1.00  0.00     0.049 A 
ATOM     64  H   UNL     1      -7.647  10.536 -13.324  1.00  0.00     0.167 HD
ATOM     65  C   UNL     1      -7.555   9.513 -15.966  1.00  0.00     0.074 A 
ATOM     66  C   UNL     1      -7.314   8.618 -17.079  1.00  0.00     0.031 C 
ATOM     67  C   UNL     1      -8.227  10.688 -16.061  1.00  0.00     0.037 A 
BRANCH  54  68
ATOM     68  C   UNL     1      -8.904  13.627 -10.658  1.00  0.00     0.064 A 
ATOM     69  C   UNL     1      -8.069  14.549 -10.008  1.00  0.00     0.173 A 
ATOM     70  C   UNL     1     -10.290  13.831 -10.581  1.00  0.00     0.173 A 
ATOM     71  F   UNL     1      -6.737  14.393 -10.039  1.00  0.00    -0.203 F 
ATOM     72  C   UNL     1      -8.602  15.604  -9.273  1.00  0.00     0.198 A 
ATOM     73  C   UNL     1     -10.818  14.909  -9.875  1.00  0.00     0.198 A 
ATOM     74  F   UNL     1     -11.134  12.984 -11.188  1.00  0.00    -0.203 F 
ATOM     75  F   UNL     1      -7.787  16.431  -8.602  1.00  0.00    -0.200 F 
ATOM     76  C   UNL     1      -9.975  15.786  -9.210  1.00  0.00     0.200 A 
ATOM     77  F   UNL     1     -12.145  15.090  -9.828  1.00  0.00    -0.200 F 
ATOM     78  F   UNL     1     -10.487  16.799  -8.499  1.00  0.00    -0.200 F 
ENDBRANCH  54  68
BRANCH  55  79
ATOM     79  C   UNL     1      -5.096   5.577 -15.177  1.00  0.00     0.064 A 
ATOM     80  C   UNL     1      -4.057   5.718 -16.109  1.00  0.00     0.173 A 
ATOM     81  C   UNL     1      -5.585   4.285 -14.937  1.00  0.00     0.173 A 
ATOM     82  F   UNL     1      -3.578   6.937 -16.398  1.00  0.00    -0.203 F 
ATOM     83  C   UNL     1      -3.538   4.613 -16.782  1.00  0.00     0.198 A 
ATOM     84  C   UNL     1      -5.045   3.178 -15.589  1.00  0.00     0.198 A 
ATOM     85  F   UNL     1      -6.585   4.096 -14.064  1.00  0.00    -0.203 F 
ATOM     86  F   UNL     1      -2.578   4.783 -17.701  1.00  0.00    -0.200 F 
ATOM     87  C   UNL     1      -4.027   3.343 -16.516  1.00  0.00     0.200 A 
ATOM     88  F   UNL     1      -5.516   1.951 -15.324  1.00  0.00    -0.200 F 
ATOM     89  F   UNL     1      -3.525   2.281 -17.161  1.00  0.00    -0.200 F 
ENDBRANCH  55  79
BRANCH  67  90
ATOM     90  C   UNL     1      -8.721  11.101 -17.419  1.00  0.00     0.064 A 
ATOM     91  C   UNL     1      -9.795  10.452 -18.045  1.00  0.00     0.173 A 
ATOM     92  C   UNL     1      -8.151  12.204 -18.075  1.00  0.00     0.173 A 
ATOM     93  F   UNL     1     -10.366   9.383 -17.469  1.00  0.00    -0.203 F 
ATOM     94  C   UNL     1     -10.268  10.880 -19.283  1.00  0.00     0.198 A 
ATOM     95  C   UNL     1      -8.648  12.650 -19.297  1.00  0.00     0.198 A 
ATOM     96  F   UNL     1      -7.125  12.867 -17.519  1.00  0.00    -0.203 F 
ATOM     97  F   UNL     1     -11.269  10.219 -19.881  1.00  0.00    -0.200 F 
ATOM     98  C   UNL     1      -9.702  11.984 -19.903  1.00  0.00     0.200 A 
ATOM     99  F   UNL     1      -8.110  13.727 -19.885  1.00  0.00    -0.200 F 
ATOM    100  F   UNL     1     -10.170  12.404 -21.086  1.00  0.00    -0.200 F 
ENDBRANCH  67  90
ENDBRANCH  41  42
ENDBRANCH  34  36
ENDBRANCH  33  34
ENDBRANCH  32  33
ENDBRANCH  31  32
ENDBRANCH  30  31
ENDBRANCH  29  30
ENDBRANCH   1  29
TORSDOF 21
