REMARK SMILES Cc1cc(=O)c(Oc2ccc(C(=O)OCCOCCOCCOC(=O)c3ccc(-c4c5nc(c(-c6c(F)c(F)c(F)c(F)c6F)c6ccc([nH]6)c(-c6c(F)c(F)c(F)c(F)c6F)c6nc(c(-c7c(F)c(F)c(F)c(F)c7F)c7ccc4[nH]7)C=C6)C=C5)cc3)cc2)c(-c2ccc(S(C)(=O)=O)cc2)o1
REMARK SMILES IDX 18 1 17 2 16 3 15 4 14 5 12 6 13 7 11 8 8 9 9 10 90 11 10 12
REMARK SMILES IDX 89 13 7 14 6 15 1 16 2 17 3 18 102 19 4 20 91 21 5 22 92 23
REMARK SMILES IDX 93 24 101 25 94 26 100 27 95 28 96 29 97 30 98 31 99 32
REMARK SMILES IDX 19 33 20 34 21 35 22 36 23 37 24 38 25 39 26 40 27 41 88 42
REMARK SMILES IDX 28 43 87 44 29 45 30 46 31 47 81 48 32 49 86 50 80 51 82 52
REMARK SMILES IDX 33 53 85 54 79 55 78 56 34 58 66 59 46 60 65 61 47 62 50 63
REMARK SMILES IDX 64 64 83 65 48 66 49 67 63 69 84 70 51 71 35 72 36 73 44 74
REMARK SMILES IDX 37 75 38 76 42 77 45 78 39 79 40 80 43 81 41 82 67 83 68 84
REMARK SMILES IDX 76 85 69 86 70 87 74 88 77 89 71 90 72 91 75 92 73 93 52 94
REMARK SMILES IDX 53 95 61 96 54 97 55 98 59 99 62 100 56 101 57 102 60 103
REMARK SMILES IDX 58 104
REMARK H PARENT 82 57 50 68
REMARK Flexibility Score: inf
ROOT
ATOM      1  C   UNL     1       0.204   4.554   9.683  1.00  0.00     0.188 C 
ENDROOT
BRANCH   1   2
ATOM      2  O   UNL     1      -0.336   5.632  10.442  1.00  0.00    -0.376 OA
BRANCH   2   3
ATOM      3  C   UNL     1      -1.708   5.507  10.850  1.00  0.00     0.202 C 
BRANCH   3   4
ATOM      4  C   UNL     1      -2.176   4.163  11.434  1.00  0.00     0.261 C 
BRANCH   4   5
ATOM      5  O   UNL     1      -2.093   3.071  10.499  1.00  0.00    -0.460 OA
BRANCH   5   6
ATOM      6  C   UNL     1      -3.087   2.934   9.586  1.00  0.00     0.338 C 
ATOM      7  O   UNL     1      -4.145   3.539   9.579  1.00  0.00    -0.246 OA
BRANCH   6   8
ATOM      8  C   UNL     1      -2.658   1.963   8.528  1.00  0.00     0.060 A 
ATOM      9  C   UNL     1      -1.818   0.288   6.430  1.00  0.00     0.127 A 
ATOM     10  C   UNL     1      -3.064   0.911   6.371  1.00  0.00     0.048 A 
ATOM     11  C   UNL     1      -1.027   0.428   7.570  1.00  0.00     0.048 A 
ATOM     12  C   UNL     1      -3.469   1.774   7.401  1.00  0.00     0.019 A 
ATOM     13  C   UNL     1      -1.445   1.259   8.615  1.00  0.00     0.019 A 
BRANCH   9  14
ATOM     14  O   UNL     1      -1.430  -0.617   5.484  1.00  0.00    -0.449 OA
BRANCH  14  15
ATOM     15  C   UNL     1      -0.917  -0.296   4.235  1.00  0.00     0.217 A 
ATOM     16  C   UNL     1       0.694   0.154   0.241  1.00  0.00     0.088 C 
ATOM     17  C   UNL     1       0.166  -0.107   1.616  1.00  0.00     0.105 A 
ATOM     18  C   UNL     1       0.102  -1.334   2.137  1.00  0.00     0.098 A 
ATOM     19  O   UNL     1      -0.263   1.014   2.298  1.00  0.00    -0.457 OA
ATOM     20  C   UNL     1      -0.435  -1.506   3.494  1.00  0.00     0.228 A 
ATOM     21  C   UNL     1      -0.787   0.889   3.581  1.00  0.00     0.180 A 
ATOM     22  O   UNL     1      -0.470  -2.632   3.983  1.00  0.00    -0.285 OA
BRANCH  21  23
ATOM     23  C   UNL     1      -1.186   2.201   4.107  1.00  0.00     0.021 A 
ATOM     24  C   UNL     1      -2.422   2.762   3.756  1.00  0.00     0.013 A 
ATOM     25  C   UNL     1      -0.372   2.861   5.029  1.00  0.00     0.013 A 
ATOM     26  C   UNL     1      -2.905   3.887   4.435  1.00  0.00     0.021 A 
ATOM     27  C   UNL     1      -0.849   3.996   5.687  1.00  0.00     0.021 A 
ATOM     28  C   UNL     1      -2.121   4.505   5.413  1.00  0.00     0.067 A 
BRANCH  28  29
ATOM     29  S   UNL     1      -2.870   5.634   6.578  1.00  0.00     0.175 S 
ATOM     30  C   UNL     1      -2.455   7.301   6.196  1.00  0.00     0.163 C 
ATOM     31  O   UNL     1      -4.304   5.498   6.426  1.00  0.00    -0.224 OA
ATOM     32  O   UNL     1      -2.221   5.343   7.838  1.00  0.00    -0.224 OA
ENDBRANCH  28  29
ENDBRANCH  21  23
ENDBRANCH  14  15
ENDBRANCH   9  14
ENDBRANCH   6   8
ENDBRANCH   5   6
ENDBRANCH   4   5
ENDBRANCH   3   4
ENDBRANCH   2   3
ENDBRANCH   1   2
BRANCH   1  33
ATOM     33  C   UNL     1       1.239   5.000   8.642  1.00  0.00     0.188 C 
BRANCH  33  34
ATOM     34  O   UNL     1       2.254   5.853   9.150  1.00  0.00    -0.376 OA
BRANCH  34  35
ATOM     35  C   UNL     1       1.959   7.237   8.916  1.00  0.00     0.202 C 
BRANCH  35  36
ATOM     36  C   UNL     1       2.466   7.717   7.541  1.00  0.00     0.261 C 
BRANCH  36  37
ATOM     37  O   UNL     1       1.437   7.699   6.513  1.00  0.00    -0.460 OA
BRANCH  37  38
ATOM     38  C   UNL     1       1.709   7.018   5.367  1.00  0.00     0.338 C 
ATOM     39  O   UNL     1       2.647   6.263   5.176  1.00  0.00    -0.246 OA
BRANCH  38  40
ATOM     40  C   UNL     1       0.625   7.231   4.360  1.00  0.00     0.060 A 
ATOM     41  C   UNL     1      -0.031   8.458   4.209  1.00  0.00     0.016 A 
ATOM     42  C   UNL     1       0.235   6.160   3.549  1.00  0.00     0.016 A 
ATOM     43  C   UNL     1      -1.131   8.573   3.333  1.00  0.00     0.010 A 
ATOM     44  C   UNL     1      -0.882   6.266   2.701  1.00  0.00     0.010 A 
ATOM     45  C   UNL     1      -1.607   7.464   2.608  1.00  0.00    -0.014 A 
BRANCH  45  46
ATOM     46  C   UNL     1      -2.707   7.612   1.608  1.00  0.00     0.031 A 
ATOM     47  C   UNL     1      -4.169   7.347   1.885  1.00  0.00     0.074 A 
ATOM     48  C   UNL     1      -2.355   7.986   0.368  1.00  0.00     0.049 A 
ATOM     49  N   UNL     1      -5.225   7.553   1.132  1.00  0.00    -0.248 NA
ATOM     50  C   UNL     1      -4.498   6.765   3.180  1.00  0.00     0.031 C 
ATOM     51  C   UNL     1      -0.985   8.251  -0.065  1.00  0.00     0.029 A 
ATOM     52  N   UNL     1      -3.117   8.198  -0.749  1.00  0.00    -0.354 N 
ATOM     53  C   UNL     1      -6.331   7.169   1.892  1.00  0.00     0.074 A 
ATOM     54  C   UNL     1      -5.820   6.682   3.151  1.00  0.00     0.031 C 
ATOM     55  C   UNL     1      -1.001   8.592  -1.360  1.00  0.00     0.029 A 
ATOM     56  C   UNL     1      -2.380   8.557  -1.845  1.00  0.00     0.049 A 
ATOM     57  H   UNL     1      -4.097   8.102  -0.763  1.00  0.00     0.167 HD
ATOM     58  C   UNL     1      -7.648   7.210   1.572  1.00  0.00     0.037 A 
ATOM     59  C   UNL     1      -2.765   8.836  -3.102  1.00  0.00     0.037 A 
ATOM     60  C   UNL     1      -8.159   7.623   0.290  1.00  0.00     0.049 A 
ATOM     61  C   UNL     1      -4.221   8.834  -3.458  1.00  0.00     0.074 A 
ATOM     62  C   UNL     1      -9.477   7.744  -0.118  1.00  0.00     0.029 A 
ATOM     63  N   UNL     1      -7.372   7.946  -0.802  1.00  0.00    -0.354 N 
ATOM     64  N   UNL     1      -5.258   8.579  -2.699  1.00  0.00    -0.248 NA
ATOM     65  C   UNL     1      -4.559   9.179  -4.845  1.00  0.00     0.031 C 
ATOM     66  C   UNL     1      -9.486   8.077  -1.476  1.00  0.00     0.029 A 
ATOM     67  C   UNL     1      -8.175   8.226  -1.896  1.00  0.00     0.049 A 
ATOM     68  H   UNL     1      -6.388   7.973  -0.802  1.00  0.00     0.167 HD
ATOM     69  C   UNL     1      -6.373   8.750  -3.509  1.00  0.00     0.074 A 
ATOM     70  C   UNL     1      -5.884   9.146  -4.813  1.00  0.00     0.031 C 
ATOM     71  C   UNL     1      -7.683   8.595  -3.197  1.00  0.00     0.037 A 
BRANCH  58  72
ATOM     72  C   UNL     1      -8.662   6.808   2.611  1.00  0.00     0.064 A 
ATOM     73  C   UNL     1      -8.969   7.652   3.689  1.00  0.00     0.173 A 
ATOM     74  C   UNL     1      -9.445   5.654   2.442  1.00  0.00     0.173 A 
ATOM     75  F   UNL     1      -8.257   8.770   3.894  1.00  0.00    -0.203 F 
ATOM     76  C   UNL     1     -10.025   7.361   4.552  1.00  0.00     0.198 A 
ATOM     77  C   UNL     1     -10.513   5.377   3.294  1.00  0.00     0.198 A 
ATOM     78  F   UNL     1      -9.204   4.819   1.420  1.00  0.00    -0.203 F 
ATOM     79  F   UNL     1     -10.304   8.187   5.570  1.00  0.00    -0.200 F 
ATOM     80  C   UNL     1     -10.805   6.232   4.345  1.00  0.00     0.200 A 
ATOM     81  F   UNL     1     -11.280   4.299   3.078  1.00  0.00    -0.200 F 
ATOM     82  F   UNL     1     -11.846   5.976   5.151  1.00  0.00    -0.200 F 
ENDBRANCH  58  72
BRANCH  59  83
ATOM     83  C   UNL     1      -1.722   9.199  -4.086  1.00  0.00     0.064 A 
ATOM     84  C   UNL     1      -1.554  10.530  -4.485  1.00  0.00     0.173 A 
ATOM     85  C   UNL     1      -0.810   8.245  -4.560  1.00  0.00     0.173 A 
ATOM     86  F   UNL     1      -2.409  11.470  -4.057  1.00  0.00    -0.203 F 
ATOM     87  C   UNL     1      -0.505  10.896  -5.322  1.00  0.00     0.198 A 
ATOM     88  C   UNL     1       0.254   8.617  -5.375  1.00  0.00     0.198 A 
ATOM     89  F   UNL     1      -0.924   6.962  -4.184  1.00  0.00    -0.203 F 
ATOM     90  F   UNL     1      -0.368  12.175  -5.698  1.00  0.00    -0.200 F 
ATOM     91  C   UNL     1       0.405   9.943  -5.756  1.00  0.00     0.200 A 
ATOM     92  F   UNL     1       1.146   7.699  -5.769  1.00  0.00    -0.200 F 
ATOM     93  F   UNL     1       1.434  10.303  -6.535  1.00  0.00    -0.200 F 
ENDBRANCH  59  83
BRANCH  71  94
ATOM     94  C   UNL     1      -8.687   8.846  -4.282  1.00  0.00     0.064 A 
ATOM     95  C   UNL     1      -8.844   7.953  -5.352  1.00  0.00     0.173 A 
ATOM     96  C   UNL     1      -9.533   9.964  -4.228  1.00  0.00     0.173 A 
ATOM     97  F   UNL     1      -8.052   6.874  -5.452  1.00  0.00    -0.203 F 
ATOM     98  C   UNL     1      -9.792   8.186  -6.344  1.00  0.00     0.198 A 
ATOM     99  C   UNL     1     -10.500  10.178  -5.207  1.00  0.00     0.198 A 
ATOM    100  F   UNL     1      -9.431  10.842  -3.219  1.00  0.00    -0.203 F 
ATOM    101  F   UNL     1      -9.893   7.344  -7.382  1.00  0.00    -0.200 F 
ATOM    102  C   UNL     1     -10.623   9.293  -6.267  1.00  0.00     0.200 A 
ATOM    103  F   UNL     1     -11.311  11.241  -5.123  1.00  0.00    -0.200 F 
ATOM    104  F   UNL     1     -11.539   9.512  -7.221  1.00  0.00    -0.200 F 
ENDBRANCH  71  94
ENDBRANCH  45  46
ENDBRANCH  38  40
ENDBRANCH  37  38
ENDBRANCH  36  37
ENDBRANCH  35  36
ENDBRANCH  34  35
ENDBRANCH  33  34
ENDBRANCH   1  33
TORSDOF 21
