REMARK SMILES O=C(OCCOCCOCCOC(=O)c1ccc(S(=O)(=O)[O-])cc1N1C(=O)/C(=C\C=C\c2ccccc2)[NH+]=C1c1ccccc1)c1ccc(-c2c3nc(c(-c4c(F)c(F)c(F)c(F)c4F)c4ccc([nH]4)c(-c4c(F)c(F)c(F)c(F)c4F)c4nc(c(-c5c(F)c(F)c(F)c(F)c5F)c5ccc2[nH]5)C=C4)C=C3)cc1
REMARK SMILES IDX 8 1 7 2 6 3 5 4 4 5 3 6 2 7 1 8 46 9 47 10 108 11 48 12
REMARK SMILES IDX 107 13 49 14 50 15 51 16 101 17 52 18 106 19 100 20 102 21
REMARK SMILES IDX 53 22 105 23 99 24 98 25 54 27 86 28 66 29 85 30 67 31 70 32
REMARK SMILES IDX 84 33 103 34 68 35 69 36 83 38 104 39 71 40 55 41 56 42
REMARK SMILES IDX 64 43 57 44 58 45 62 46 65 47 59 48 60 49 63 50 61 51 87 52
REMARK SMILES IDX 88 53 96 54 89 55 90 56 94 57 97 58 91 59 92 60 95 61 93 62
REMARK SMILES IDX 72 63 73 64 81 65 74 66 75 67 79 68 82 69 76 70 77 71 80 72
REMARK SMILES IDX 78 73 9 74 10 75 11 76 12 77 13 78 14 79 15 80 16 81 24 82
REMARK SMILES IDX 17 83 23 84 18 85 25 86 26 87 39 88 27 89 28 90 38 91 29 92
REMARK SMILES IDX 40 94 41 95 45 96 42 97 44 98 43 99 30 100 31 101 32 102
REMARK SMILES IDX 33 103 37 104 34 105 36 106 35 107 19 108 20 109 21 110
REMARK SMILES IDX 22 111
REMARK H PARENT 102 26 70 37 38 93
REMARK Flexibility Score: inf
ROOT
ATOM      1  C   UNL     1       1.991   2.613   1.768  1.00  0.00     0.188 C 
ENDROOT
BRANCH   1   2
ATOM      2  C   UNL     1       2.672   1.633   0.820  1.00  0.00     0.188 C 
BRANCH   2   3
ATOM      3  O   UNL     1       4.060   1.440   1.042  1.00  0.00    -0.376 OA
BRANCH   3   4
ATOM      4  C   UNL     1       4.930   1.363  -0.091  1.00  0.00     0.202 C 
BRANCH   4   5
ATOM      5  C   UNL     1       4.456   0.677  -1.397  1.00  0.00     0.261 C 
BRANCH   5   6
ATOM      6  O   UNL     1       3.079   0.207  -1.478  1.00  0.00    -0.460 OA
BRANCH   6   7
ATOM      7  C   UNL     1       2.450  -0.898  -1.000  1.00  0.00     0.338 C 
ATOM      8  O   UNL     1       1.251  -1.065  -1.196  1.00  0.00    -0.246 OA
BRANCH   7   9
ATOM      9  C   UNL     1       3.193  -1.915  -0.228  1.00  0.00     0.060 A 
ATOM     10  C   UNL     1       4.273  -1.547   0.539  1.00  0.00     0.016 A 
ATOM     11  C   UNL     1       2.788  -3.249  -0.168  1.00  0.00     0.016 A 
ATOM     12  C   UNL     1       5.156  -2.438   1.060  1.00  0.00     0.010 A 
ATOM     13  C   UNL     1       3.557  -4.172   0.558  1.00  0.00     0.010 A 
ATOM     14  C   UNL     1       4.775  -3.762   1.125  1.00  0.00    -0.014 A 
BRANCH  14  15
ATOM     15  C   UNL     1       5.752  -4.590   1.832  1.00  0.00     0.031 A 
ATOM     16  C   UNL     1       6.477  -5.617   1.084  1.00  0.00     0.074 A 
ATOM     17  C   UNL     1       5.991  -4.207   3.104  1.00  0.00     0.049 A 
ATOM     18  N   UNL     1       7.248  -6.548   1.552  1.00  0.00    -0.248 NA
ATOM     19  C   UNL     1       6.220  -5.672  -0.364  1.00  0.00     0.031 C 
ATOM     20  C   UNL     1       4.538  -3.308   3.966  1.00  0.00     0.029 A 
ATOM     21  N   UNL     1       7.216  -4.715   4.351  1.00  0.00    -0.354 N 
ATOM     22  C   UNL     1       7.579  -7.307   0.450  1.00  0.00     0.074 A 
ATOM     23  C   UNL     1       6.861  -6.780  -0.690  1.00  0.00     0.031 C 
ATOM     24  C   UNL     1       4.768  -3.338   5.622  1.00  0.00     0.029 A 
ATOM     25  C   UNL     1       6.616  -4.311   6.095  1.00  0.00     0.049 A 
ATOM     26  H   UNL     1       8.077  -5.144   4.143  1.00  0.00     0.167 HD
ATOM     27  C   UNL     1       8.429  -8.348   0.409  1.00  0.00     0.037 A 
ATOM     28  C   UNL     1       7.380  -4.923   7.105  1.00  0.00     0.037 A 
ATOM     29  C   UNL     1       9.077  -8.875   1.572  1.00  0.00     0.049 A 
ATOM     30  C   UNL     1       8.320  -6.107   6.713  1.00  0.00     0.074 A 
ATOM     31  C   UNL     1       9.935  -9.951   1.646  1.00  0.00     0.029 A 
ATOM     32  N   UNL     1       8.925  -8.374   2.864  1.00  0.00    -0.354 N 
ATOM     33  N   UNL     1       8.480  -6.797   5.596  1.00  0.00    -0.248 NA
ATOM     34  C   UNL     1       9.101  -6.657   7.838  1.00  0.00     0.031 C 
ATOM     35  C   UNL     1      10.251 -10.147   2.990  1.00  0.00     0.029 A 
ATOM     36  C   UNL     1       9.667  -9.137   3.748  1.00  0.00     0.049 A 
ATOM     37  H   UNL     1       8.374  -7.596   3.110  1.00  0.00     0.167 HD
ATOM     38  C   UNL     1       9.335  -7.866   5.903  1.00  0.00     0.074 A 
ATOM     39  C   UNL     1       9.670  -7.720   7.304  1.00  0.00     0.031 C 
ATOM     40  C   UNL     1       9.825  -8.900   5.162  1.00  0.00     0.037 A 
BRANCH  27  41
ATOM     41  C   UNL     1       8.655  -8.960  -0.932  1.00  0.00     0.064 A 
ATOM     42  C   UNL     1       9.327  -8.258  -1.946  1.00  0.00     0.173 A 
ATOM     43  C   UNL     1       8.151 -10.232  -1.226  1.00  0.00     0.173 A 
ATOM     44  F   UNL     1       9.781  -7.015  -1.721  1.00  0.00    -0.203 F 
ATOM     45  C   UNL     1       9.464  -8.802  -3.217  1.00  0.00     0.198 A 
ATOM     46  C   UNL     1       8.323 -10.788  -2.489  1.00  0.00     0.198 A 
ATOM     47  F   UNL     1       7.473 -10.923  -0.298  1.00  0.00    -0.203 F 
ATOM     48  F   UNL     1      10.043  -8.085  -4.190  1.00  0.00    -0.200 F 
ATOM     49  C   UNL     1       8.972 -10.070  -3.484  1.00  0.00     0.200 A 
ATOM     50  F   UNL     1       7.844 -12.012  -2.748  1.00  0.00    -0.200 F 
ATOM     51  F   UNL     1       9.107 -10.595  -4.709  1.00  0.00    -0.200 F 
ENDBRANCH  27  41
BRANCH  28  52
ATOM     52  C   UNL     1       7.294  -4.716   8.599  1.00  0.00     0.064 A 
ATOM     53  C   UNL     1       8.162  -3.820   9.236  1.00  0.00     0.173 A 
ATOM     54  C   UNL     1       6.369  -5.386   9.418  1.00  0.00     0.173 A 
ATOM     55  F   UNL     1       9.235  -3.353   8.582  1.00  0.00    -0.203 F 
ATOM     56  C   UNL     1       7.953  -3.438  10.560  1.00  0.00     0.198 A 
ATOM     57  C   UNL     1       6.064  -4.897  10.686  1.00  0.00     0.198 A 
ATOM     58  F   UNL     1       5.633  -6.396   8.929  1.00  0.00    -0.203 F 
ATOM     59  F   UNL     1       8.806  -2.599  11.160  1.00  0.00    -0.200 F 
ATOM     60  C   UNL     1       6.843  -3.903  11.248  1.00  0.00     0.200 A 
ATOM     61  F   UNL     1       4.953  -5.318  11.308  1.00  0.00    -0.200 F 
ATOM     62  F   UNL     1       6.524  -3.396  12.445  1.00  0.00    -0.200 F 
ENDBRANCH  28  52
BRANCH  40  63
ATOM     63  C   UNL     1      10.707  -9.885   5.901  1.00  0.00     0.064 A 
ATOM     64  C   UNL     1      10.187 -10.785   6.845  1.00  0.00     0.173 A 
ATOM     65  C   UNL     1      12.092  -9.908   5.668  1.00  0.00     0.173 A 
ATOM     66  F   UNL     1       8.872 -10.799   7.111  1.00  0.00    -0.203 F 
ATOM     67  C   UNL     1      11.028 -11.621   7.576  1.00  0.00     0.198 A 
ATOM     68  C   UNL     1      12.924 -10.778   6.368  1.00  0.00     0.198 A 
ATOM     69  F   UNL     1      12.639  -9.088   4.759  1.00  0.00    -0.203 F 
ATOM     70  F   UNL     1      10.522 -12.402   8.539  1.00  0.00    -0.200 F 
ATOM     71  C   UNL     1      12.395 -11.616   7.336  1.00  0.00     0.200 A 
ATOM     72  F   UNL     1      14.240 -10.790   6.117  1.00  0.00    -0.200 F 
ATOM     73  F   UNL     1      13.205 -12.408   8.053  1.00  0.00    -0.200 F 
ENDBRANCH  40  63
ENDBRANCH  14  15
ENDBRANCH   7   9
ENDBRANCH   6   7
ENDBRANCH   5   6
ENDBRANCH   4   5
ENDBRANCH   3   4
ENDBRANCH   2   3
ENDBRANCH   1   2
BRANCH   1  74
ATOM     74  O   UNL     1       2.642   3.844   2.025  1.00  0.00    -0.376 OA
BRANCH  74  75
ATOM     75  C   UNL     1       4.028   3.824   2.342  1.00  0.00     0.202 C 
BRANCH  75  76
ATOM     76  C   UNL     1       4.516   3.091   3.606  1.00  0.00     0.261 C 
BRANCH  76  77
ATOM     77  O   UNL     1       4.122   1.718   3.797  1.00  0.00    -0.460 OA
BRANCH  77  78
ATOM     78  C   UNL     1       3.027   1.573   4.575  1.00  0.00     0.342 C 
ATOM     79  O   UNL     1       2.273   2.454   4.957  1.00  0.00    -0.246 OA
BRANCH  78  80
ATOM     80  C   UNL     1       2.788   0.174   4.967  1.00  0.00     0.107 A 
ATOM     81  C   UNL     1       1.593  -0.403   4.500  1.00  0.00     0.021 A 
ATOM     82  C   UNL     1       3.501  -0.389   6.044  1.00  0.00     0.152 A 
ATOM     83  C   UNL     1       1.048  -1.500   5.156  1.00  0.00     0.020 A 
ATOM     84  C   UNL     1       2.802  -1.308   6.837  1.00  0.00     0.072 A 
ATOM     85  C   UNL     1       1.622  -1.908   6.358  1.00  0.00     0.059 A 
BRANCH  82  86
ATOM     86  N   UNL     1       4.803   0.073   6.381  1.00  0.00    -0.153 N 
ATOM     87  C   UNL     1       4.950   1.357   6.818  1.00  0.00     0.385 C 
ATOM     88  C   UNL     1       6.082  -0.488   6.267  1.00  0.00     0.295 C 
ATOM     89  O   UNL     1       4.102   2.082   7.307  1.00  0.00    -0.236 OA
ATOM     90  C   UNL     1       6.409   1.593   6.682  1.00  0.00     0.215 C 
ATOM     91  N   UNL     1       7.051   0.381   6.423  1.00  0.00    -0.233 N 
ATOM     92  C   UNL     1       6.958   2.814   6.806  1.00  0.00     0.060 C 
ATOM     93  H   UNL     1       8.020   0.215   6.370  1.00  0.00     0.312 HD
BRANCH  88  94
ATOM     94  C   UNL     1       6.308  -1.994   6.248  1.00  0.00     0.065 A 
ATOM     95  C   UNL     1       5.567  -2.633   7.621  1.00  0.00     0.017 A 
ATOM     96  C   UNL     1       6.350  -3.036   4.821  1.00  0.00     0.017 A 
ATOM     97  C   UNL     1       4.737  -4.149   7.713  1.00  0.00     0.001 A 
ATOM     98  C   UNL     1       5.367  -4.891   4.940  1.00  0.00     0.001 A 
ATOM     99  C   UNL     1       4.623  -5.306   6.466  1.00  0.00     0.000 A 
ENDBRANCH  88  94
BRANCH  92 100
ATOM    100  C   UNL     1       6.215   4.064   6.954  1.00  0.00     0.005 C 
ATOM    101  C   UNL     1       6.753   5.263   7.228  1.00  0.00     0.008 C 
BRANCH 101 102
ATOM    102  C   UNL     1       5.969   6.516   7.257  1.00  0.00    -0.026 A 
ATOM    103  C   UNL     1       6.566   7.686   6.767  1.00  0.00     0.008 A 
ATOM    104  C   UNL     1       4.662   6.598   7.762  1.00  0.00     0.008 A 
ATOM    105  C   UNL     1       5.869   8.898   6.754  1.00  0.00     0.001 A 
ATOM    106  C   UNL     1       3.964   7.813   7.750  1.00  0.00     0.001 A 
ATOM    107  C   UNL     1       4.567   8.961   7.244  1.00  0.00     0.000 A 
ENDBRANCH 101 102
ENDBRANCH  92 100
ENDBRANCH  82  86
BRANCH  85 108
ATOM    108  S   UNL     1       0.888  -3.296   7.187  1.00  0.00     0.124 S 
ATOM    109  O   UNL     1      -0.414  -2.895   7.664  1.00  0.00    -0.237 OA
ATOM    110  O   UNL     1       1.066  -4.449   6.332  1.00  0.00    -0.237 OA
ATOM    111  O   UNL     1       1.787  -3.572   8.497  1.00  0.00    -0.744 OA
ENDBRANCH  85 108
ENDBRANCH  78  80
ENDBRANCH  77  78
ENDBRANCH  76  77
ENDBRANCH  75  76
ENDBRANCH  74  75
ENDBRANCH   1  74
TORSDOF 22
