REMARK SMILES Cc1c(Br)c(C)c2c(c1Br)O[C@H](C(F)(F)F)C(C(=O)OCCOCCOCCOC(=O)c1ccc(-c3c4nc(c(-c5c(F)c(F)c(F)c(F)c5F)c5ccc([nH]5)c(-c5c(F)c(F)c(F)c(F)c5F)c5nc(c(-c6c(F)c(F)c(F)c(F)c6F)c6ccc3[nH]6)C=C5)C=C4)cc1)=C2
REMARK SMILES IDX 25 1 24 2 23 3 22 4 21 5 20 6 18 7 19 8 17 9 1 10 2 11 3 12
REMARK SMILES IDX 9 13 4 14 5 15 8 16 10 17 6 18 7 19 11 20 95 21 12 22 13 23
REMARK SMILES IDX 14 24 15 25 16 26 26 27 27 28 28 29 29 30 30 31 31 32 32 33
REMARK SMILES IDX 33 34 94 35 34 36 93 37 35 38 36 39 37 40 87 41 38 42 92 43
REMARK SMILES IDX 86 44 88 45 39 46 91 47 85 48 84 49 40 51 72 52 52 53 71 54
REMARK SMILES IDX 53 55 56 56 70 57 89 58 54 59 55 60 69 62 90 63 57 64 41 65
REMARK SMILES IDX 42 66 50 67 43 68 44 69 48 70 51 71 45 72 46 73 49 74 47 75
REMARK SMILES IDX 73 76 74 77 82 78 75 79 76 80 80 81 83 82 77 83 78 84 81 85
REMARK SMILES IDX 79 86 58 87 59 88 67 89 60 90 61 91 65 92 68 93 62 94 63 95
REMARK SMILES IDX 66 96 64 97
REMARK H PARENT 88 50 56 61
REMARK Flexibility Score: inf
ROOT
ATOM      1  C   UNL     1      -0.643   6.782   4.794  1.00  0.00     0.188 C 
ENDROOT
BRANCH   1   2
ATOM      2  C   UNL     1      -0.550   7.980   3.827  1.00  0.00     0.188 C 
BRANCH   2   3
ATOM      3  O   UNL     1      -1.248   9.178   4.096  1.00  0.00    -0.376 OA
BRANCH   3   4
ATOM      4  C   UNL     1      -2.655   9.180   4.269  1.00  0.00     0.202 C 
BRANCH   4   5
ATOM      5  C   UNL     1      -3.602   8.268   3.472  1.00  0.00     0.261 C 
BRANCH   5   6
ATOM      6  O   UNL     1      -3.142   6.929   3.256  1.00  0.00    -0.460 OA
BRANCH   6   7
ATOM      7  C   UNL     1      -2.850   6.618   1.971  1.00  0.00     0.338 C 
ATOM      8  O   UNL     1      -2.963   7.345   0.998  1.00  0.00    -0.246 OA
BRANCH   7   9
ATOM      9  C   UNL     1      -2.200   5.293   1.918  1.00  0.00     0.087 C 
ATOM     10  C   UNL     1       0.967  -0.113   0.094  1.00  0.00     0.047 C 
ATOM     11  C   UNL     1       0.518   1.279   0.480  1.00  0.00    -0.019 A 
ATOM     12  C   UNL     1       1.131   2.414  -0.111  1.00  0.00     0.025 A 
ATOM     13  C   UNL     1      -0.553   1.492   1.371  1.00  0.00     0.064 A 
ATOM     14  Br  UNL     1       2.560   2.143  -1.367  1.00  0.00    -0.050 Br
ATOM     15  C   UNL     1       0.685   3.730   0.170  1.00  0.00    -0.026 A 
ATOM     16  C   UNL     1      -1.031   2.791   1.633  1.00  0.00     0.142 A 
ATOM     17  Br  UNL     1      -1.448   0.026   2.223  1.00  0.00    -0.046 Br
ATOM     18  C   UNL     1       1.364   4.955  -0.408  1.00  0.00     0.046 C 
ATOM     19  C   UNL     1      -0.448   3.899   1.005  1.00  0.00     0.022 A 
ATOM     20  O   UNL     1      -2.067   2.901   2.525  1.00  0.00    -0.474 OA
ATOM     21  C   UNL     1      -1.088   5.203   1.177  1.00  0.00     0.027 C 
ATOM     22  C   UNL     1      -2.790   4.145   2.674  1.00  0.00     0.316 C 
BRANCH  22  23
ATOM     23  C   UNL     1      -4.263   3.904   2.318  1.00  0.00     0.430 C 
ATOM     24  F   UNL     1      -4.760   2.828   2.973  1.00  0.00    -0.167 F 
ATOM     25  F   UNL     1      -5.039   4.959   2.660  1.00  0.00    -0.167 F 
ATOM     26  F   UNL     1      -4.432   3.690   0.994  1.00  0.00    -0.167 F 
ENDBRANCH  22  23
ENDBRANCH   7   9
ENDBRANCH   6   7
ENDBRANCH   5   6
ENDBRANCH   4   5
ENDBRANCH   3   4
ENDBRANCH   2   3
ENDBRANCH   1   2
BRANCH   1  27
ATOM     27  O   UNL     1      -1.529   6.851   5.883  1.00  0.00    -0.376 OA
BRANCH  27  28
ATOM     28  C   UNL     1      -1.226   7.671   7.001  1.00  0.00     0.202 C 
BRANCH  28  29
ATOM     29  C   UNL     1       0.157   8.272   7.329  1.00  0.00     0.261 C 
BRANCH  29  30
ATOM     30  O   UNL     1       1.087   8.443   6.255  1.00  0.00    -0.460 OA
BRANCH  30  31
ATOM     31  C   UNL     1       2.151   7.599   6.265  1.00  0.00     0.338 C 
ATOM     32  O   UNL     1       2.390   6.715   7.064  1.00  0.00    -0.246 OA
BRANCH  31  33
ATOM     33  C   UNL     1       2.907   7.776   5.009  1.00  0.00     0.060 A 
ATOM     34  C   UNL     1       2.898   6.735   4.069  1.00  0.00     0.016 A 
ATOM     35  C   UNL     1       3.634   8.941   4.771  1.00  0.00     0.016 A 
ATOM     36  C   UNL     1       3.623   6.857   2.886  1.00  0.00     0.010 A 
ATOM     37  C   UNL     1       4.388   9.049   3.598  1.00  0.00     0.010 A 
ATOM     38  C   UNL     1       4.403   7.999   2.661  1.00  0.00    -0.014 A 
BRANCH  38  39
ATOM     39  C   UNL     1       5.380   8.005   1.546  1.00  0.00     0.031 A 
ATOM     40  C   UNL     1       6.795   7.588   1.837  1.00  0.00     0.074 A 
ATOM     41  C   UNL     1       5.017   8.334   0.294  1.00  0.00     0.049 A 
ATOM     42  N   UNL     1       7.832   7.553   1.041  1.00  0.00    -0.248 NA
ATOM     43  C   UNL     1       7.076   7.146   3.213  1.00  0.00     0.031 C 
ATOM     44  C   UNL     1       3.666   8.695  -0.127  1.00  0.00     0.029 A 
ATOM     45  N   UNL     1       5.763   8.420  -0.856  1.00  0.00    -0.354 N 
ATOM     46  C   UNL     1       8.884   7.083   1.817  1.00  0.00     0.074 A 
ATOM     47  C   UNL     1       8.371   6.876   3.153  1.00  0.00     0.031 C 
ATOM     48  C   UNL     1       3.681   8.975  -1.443  1.00  0.00     0.029 A 
ATOM     49  C   UNL     1       5.048   8.847  -1.948  1.00  0.00     0.049 A 
ATOM     50  H   UNL     1       6.721   8.196  -0.894  1.00  0.00     0.167 HD
ATOM     51  C   UNL     1      10.160   6.837   1.443  1.00  0.00     0.037 A 
ATOM     52  C   UNL     1       5.459   9.124  -3.202  1.00  0.00     0.037 A 
ATOM     53  C   UNL     1      10.671   7.048   0.115  1.00  0.00     0.049 A 
ATOM     54  C   UNL     1       6.913   8.942  -3.565  1.00  0.00     0.074 A 
ATOM     55  C   UNL     1      11.953   6.825  -0.357  1.00  0.00     0.029 A 
ATOM     56  N   UNL     1       9.929   7.535  -0.950  1.00  0.00    -0.354 N 
ATOM     57  N   UNL     1       7.900   8.486  -2.832  1.00  0.00    -0.248 NA
ATOM     58  C   UNL     1       7.311   9.315  -4.932  1.00  0.00     0.031 C 
ATOM     59  C   UNL     1      12.001   7.232  -1.692  1.00  0.00     0.029 A 
ATOM     60  C   UNL     1      10.735   7.649  -2.071  1.00  0.00     0.049 A 
ATOM     61  H   UNL     1       8.973   7.766  -0.914  1.00  0.00     0.167 HD
ATOM     62  C   UNL     1       9.023   8.491  -3.651  1.00  0.00     0.074 A 
ATOM     63  C   UNL     1       8.594   8.980  -4.944  1.00  0.00     0.031 C 
ATOM     64  C   UNL     1      10.294   8.124  -3.357  1.00  0.00     0.037 A 
BRANCH  51  65
ATOM     65  C   UNL     1      11.108   6.322   2.484  1.00  0.00     0.064 A 
ATOM     66  C   UNL     1      11.025   5.008   2.966  1.00  0.00     0.173 A 
ATOM     67  C   UNL     1      12.160   7.127   2.946  1.00  0.00     0.173 A 
ATOM     68  F   UNL     1      10.028   4.204   2.567  1.00  0.00    -0.203 F 
ATOM     69  C   UNL     1      11.958   4.520   3.877  1.00  0.00     0.198 A 
ATOM     70  C   UNL     1      13.108   6.627   3.834  1.00  0.00     0.198 A 
ATOM     71  F   UNL     1      12.284   8.392   2.514  1.00  0.00    -0.203 F 
ATOM     72  F   UNL     1      11.844   3.270   4.346  1.00  0.00    -0.200 F 
ATOM     73  C   UNL     1      13.005   5.325   4.300  1.00  0.00     0.200 A 
ATOM     74  F   UNL     1      14.127   7.402   4.231  1.00  0.00    -0.200 F 
ATOM     75  F   UNL     1      13.916   4.847   5.159  1.00  0.00    -0.200 F 
ENDBRANCH  51  65
BRANCH  52  76
ATOM     76  C   UNL     1       4.485   9.618  -4.213  1.00  0.00     0.064 A 
ATOM     77  C   UNL     1       4.153   8.845  -5.335  1.00  0.00     0.173 A 
ATOM     78  C   UNL     1       3.883  10.879  -4.093  1.00  0.00     0.173 A 
ATOM     79  F   UNL     1       4.724   7.645  -5.514  1.00  0.00    -0.203 F 
ATOM     80  C   UNL     1       3.268   9.320  -6.302  1.00  0.00     0.198 A 
ATOM     81  C   UNL     1       2.974  11.340  -5.044  1.00  0.00     0.198 A 
ATOM     82  F   UNL     1       4.171  11.664  -3.044  1.00  0.00    -0.203 F 
ATOM     83  F   UNL     1       3.006   8.580  -7.388  1.00  0.00    -0.200 F 
ATOM     84  C   UNL     1       2.673  10.563  -6.152  1.00  0.00     0.200 A 
ATOM     85  F   UNL     1       2.395  12.539  -4.889  1.00  0.00    -0.200 F 
ATOM     86  F   UNL     1       1.819  11.017  -7.079  1.00  0.00    -0.200 F 
ENDBRANCH  52  76
BRANCH  64  87
ATOM     87  C   UNL     1      11.324   8.206  -4.449  1.00  0.00     0.064 A 
ATOM     88  C   UNL     1      11.809   9.437  -4.912  1.00  0.00     0.173 A 
ATOM     89  C   UNL     1      11.901   7.036  -4.971  1.00  0.00     0.173 A 
ATOM     90  F   UNL     1      11.286  10.584  -4.454  1.00  0.00    -0.203 F 
ATOM     91  C   UNL     1      12.823   9.495  -5.865  1.00  0.00     0.198 A 
ATOM     92  C   UNL     1      12.937   7.098  -5.899  1.00  0.00     0.198 A 
ATOM     93  F   UNL     1      11.483   5.832  -4.553  1.00  0.00    -0.203 F 
ATOM     94  F   UNL     1      13.247  10.684  -6.317  1.00  0.00    -0.200 F 
ATOM     95  C   UNL     1      13.394   8.327  -6.348  1.00  0.00     0.200 A 
ATOM     96  F   UNL     1      13.502   5.969  -6.348  1.00  0.00    -0.200 F 
ATOM     97  F   UNL     1      14.386   8.386  -7.248  1.00  0.00    -0.200 F 
ENDBRANCH  64  87
ENDBRANCH  38  39
ENDBRANCH  31  33
ENDBRANCH  30  31
ENDBRANCH  29  30
ENDBRANCH  28  29
ENDBRANCH  27  28
ENDBRANCH   1  27
TORSDOF 18
