REMARK SMILES CC(C)C[C@H](NC(=O)[C@@H](NC(=O)[C@H](C)NC(=O)CNC(=O)OCc1ccccc1)C(C)C)C(=O)OCCOCCOCCOC(=O)c1ccc(-c2c3nc(c(-c4c(F)c(F)c(F)c(F)c4F)c4ccc([nH]4)c(-c4c(F)c(F)c(F)c(F)c4F)c4nc(c(-c5c(F)c(F)c(F)c(F)c5F)c5ccc2[nH]5)C=C4)C=C3)cc1
REMARK SMILES IDX 36 1 35 2 33 3 34 4 5 5 4 6 2 7 1 8 3 9 6 10 7 11 8 13 9 14
REMARK SMILES IDX 10 15 11 16 12 18 13 19 14 20 15 21 16 22 17 24 18 25 19 26
REMARK SMILES IDX 20 27 21 29 22 30 23 31 24 32 25 33 29 34 26 35 28 36 27 37
REMARK SMILES IDX 30 38 31 39 32 40 37 41 38 42 39 43 40 44 41 45 42 46 43 47
REMARK SMILES IDX 44 48 45 49 46 50 47 51 48 52 109 53 49 54 108 55 50 56
REMARK SMILES IDX 51 57 52 58 102 59 53 60 107 61 101 62 103 63 54 64 106 65
REMARK SMILES IDX 100 66 99 67 55 69 87 70 67 71 86 72 68 73 71 74 85 75
REMARK SMILES IDX 104 76 69 77 70 78 84 80 105 81 72 82 56 83 57 84 65 85
REMARK SMILES IDX 58 86 59 87 63 88 66 89 60 90 61 91 64 92 62 93 88 94 89 95
REMARK SMILES IDX 97 96 90 97 91 98 95 99 98 100 92 101 93 102 96 103 94 104
REMARK SMILES IDX 73 105 74 106 82 107 75 108 76 109 80 110 83 111 77 112
REMARK SMILES IDX 78 113 81 114 79 115
REMARK H PARENT 6 12 10 17 15 23 19 28 103 68 71 79
REMARK Flexibility Score: inf
ROOT
ATOM      1  C   UNL     1      -1.350  -1.568   1.371  1.00  0.00     0.261 C 
ENDROOT
BRANCH   1   2
ATOM      2  O   UNL     1      -1.687  -2.952   1.335  1.00  0.00    -0.462 OA
BRANCH   2   3
ATOM      3  C   UNL     1      -2.775  -3.252   2.083  1.00  0.00     0.328 C 
ATOM      4  O   UNL     1      -2.937  -2.882   3.239  1.00  0.00    -0.250 OA
BRANCH   3   5
ATOM      5  C   UNL     1      -3.619  -4.353   1.457  1.00  0.00     0.192 C 
BRANCH   5   6
ATOM      6  C   UNL     1      -2.802  -5.614   1.882  1.00  0.00     0.040 C 
BRANCH   6   7
ATOM      7  C   UNL     1      -3.617  -6.604   2.723  1.00  0.00    -0.015 C 
ATOM      8  C   UNL     1      -4.122  -7.739   1.839  1.00  0.00     0.007 C 
ATOM      9  C   UNL     1      -2.759  -7.142   3.872  1.00  0.00     0.007 C 
ENDBRANCH   6   7
ENDBRANCH   5   6
BRANCH   5  10
ATOM     10  N   UNL     1      -3.866  -4.387   0.000  1.00  0.00    -0.341 N 
ATOM     11  C   UNL     1      -4.697  -3.824  -0.904  1.00  0.00     0.243 C 
ATOM     12  H   UNL     1      -3.238  -5.002  -0.443  1.00  0.00     0.164 HD
ATOM     13  O   UNL     1      -4.895  -4.632  -1.845  1.00  0.00    -0.273 OA
BRANCH  11  14
ATOM     14  C   UNL     1      -5.637  -2.525  -0.907  1.00  0.00     0.174 C 
BRANCH  14  15
ATOM     15  N   UNL     1      -6.736  -3.131  -0.105  1.00  0.00    -0.342 N 
ATOM     16  C   UNL     1      -7.087  -3.072   1.205  1.00  0.00     0.242 C 
ATOM     17  H   UNL     1      -7.338  -3.697  -0.641  1.00  0.00     0.164 HD
ATOM     18  O   UNL     1      -7.514  -4.095   1.742  1.00  0.00    -0.273 OA
BRANCH  16  19
ATOM     19  C   UNL     1      -7.046  -1.750   1.956  1.00  0.00     0.168 C 
ATOM     20  C   UNL     1      -7.807  -0.774   1.079  1.00  0.00     0.041 C 
BRANCH  19  21
ATOM     21  N   UNL     1      -5.675  -1.412   2.316  1.00  0.00    -0.343 N 
ATOM     22  C   UNL     1      -5.175  -0.525   3.223  1.00  0.00     0.240 C 
ATOM     23  H   UNL     1      -4.989  -1.912   1.817  1.00  0.00     0.164 HD
ATOM     24  O   UNL     1      -3.952  -0.417   3.343  1.00  0.00    -0.273 OA
BRANCH  22  25
ATOM     25  C   UNL     1      -6.071   0.485   3.900  1.00  0.00     0.219 C 
BRANCH  25  26
ATOM     26  N   UNL     1      -6.022   1.628   3.010  1.00  0.00    -0.312 N 
ATOM     27  C   UNL     1      -7.064   2.033   2.241  1.00  0.00     0.407 C 
ATOM     28  H   UNL     1      -5.184   2.141   2.961  1.00  0.00     0.167 HD
ATOM     29  O   UNL     1      -6.923   2.752   1.270  1.00  0.00    -0.225 OA
BRANCH  27  30
ATOM     30  O   UNL     1      -8.229   1.498   2.690  1.00  0.00    -0.445 OA
BRANCH  30  31
ATOM     31  C   UNL     1      -9.411   1.857   1.969  1.00  0.00     0.270 C 
BRANCH  31  32
ATOM     32  C   UNL     1      -9.823   3.256   2.297  1.00  0.00    -0.011 A 
ATOM     33  C   UNL     1     -10.777   3.885   1.494  1.00  0.00     0.007 A 
ATOM     34  C   UNL     1      -9.213   3.968   3.341  1.00  0.00     0.007 A 
ATOM     35  C   UNL     1     -11.045   5.235   1.680  1.00  0.00     0.000 A 
ATOM     36  C   UNL     1      -9.456   5.321   3.502  1.00  0.00     0.000 A 
ATOM     37  C   UNL     1     -10.365   5.956   2.663  1.00  0.00     0.000 A 
ENDBRANCH  31  32
ENDBRANCH  30  31
ENDBRANCH  27  30
ENDBRANCH  25  26
ENDBRANCH  22  25
ENDBRANCH  19  21
ENDBRANCH  16  19
ENDBRANCH  14  15
BRANCH  14  38
ATOM     38  C   UNL     1      -5.518  -0.898  -1.019  1.00  0.00     0.015 C 
ATOM     39  C   UNL     1      -4.484  -0.013  -1.771  1.00  0.00     0.010 C 
ATOM     40  C   UNL     1      -6.780  -0.299  -1.736  1.00  0.00     0.010 C 
ENDBRANCH  14  38
ENDBRANCH  11  14
ENDBRANCH   5  10
ENDBRANCH   3   5
ENDBRANCH   2   3
ENDBRANCH   1   2
BRANCH   1  41
ATOM     41  C   UNL     1      -2.283  -0.862   0.403  1.00  0.00     0.202 C 
BRANCH  41  42
ATOM     42  O   UNL     1      -2.906  -1.760  -0.546  1.00  0.00    -0.376 OA
BRANCH  42  43
ATOM     43  C   UNL     1      -2.098  -2.297  -1.613  1.00  0.00     0.188 C 
BRANCH  43  44
ATOM     44  C   UNL     1      -2.897  -2.542  -2.965  1.00  0.00     0.188 C 
BRANCH  44  45
ATOM     45  O   UNL     1      -2.893  -1.378  -3.775  1.00  0.00    -0.376 OA
BRANCH  45  46
ATOM     46  C   UNL     1      -3.769  -1.224  -4.899  1.00  0.00     0.202 C 
BRANCH  46  47
ATOM     47  C   UNL     1      -5.171  -1.874  -5.187  1.00  0.00     0.261 C 
BRANCH  47  48
ATOM     48  O   UNL     1      -6.205  -1.960  -4.178  1.00  0.00    -0.460 OA
BRANCH  48  49
ATOM     49  C   UNL     1      -7.162  -2.916  -4.427  1.00  0.00     0.338 C 
ATOM     50  O   UNL     1      -7.109  -3.760  -5.311  1.00  0.00    -0.246 OA
BRANCH  49  51
ATOM     51  C   UNL     1      -8.320  -2.919  -3.478  1.00  0.00     0.060 A 
ATOM     52  C   UNL     1      -8.482  -4.036  -2.646  1.00  0.00     0.016 A 
ATOM     53  C   UNL     1      -9.325  -1.940  -3.483  1.00  0.00     0.016 A 
ATOM     54  C   UNL     1      -9.595  -4.157  -1.796  1.00  0.00     0.010 A 
ATOM     55  C   UNL     1     -10.460  -2.073  -2.645  1.00  0.00     0.010 A 
ATOM     56  C   UNL     1     -10.613  -3.194  -1.804  1.00  0.00    -0.014 A 
BRANCH  56  57
ATOM     57  C   UNL     1     -11.913  -3.519  -1.131  1.00  0.00     0.031 A 
ATOM     58  C   UNL     1     -12.974  -4.217  -1.946  1.00  0.00     0.074 A 
ATOM     59  C   UNL     1     -12.127  -3.336   0.188  1.00  0.00     0.049 A 
ATOM     60  N   UNL     1     -14.173  -4.620  -1.603  1.00  0.00    -0.248 NA
ATOM     61  C   UNL     1     -12.614  -4.527  -3.338  1.00  0.00     0.031 C 
ATOM     62  C   UNL     1     -11.152  -2.801   1.132  1.00  0.00     0.029 A 
ATOM     63  N   UNL     1     -13.230  -3.602   0.971  1.00  0.00    -0.354 N 
ATOM     64  C   UNL     1     -14.706  -5.226  -2.734  1.00  0.00     0.074 A 
ATOM     65  C   UNL     1     -13.708  -5.129  -3.776  1.00  0.00     0.031 C 
ATOM     66  C   UNL     1     -11.695  -2.772   2.363  1.00  0.00     0.029 A 
ATOM     67  C   UNL     1     -13.077  -3.249   2.293  1.00  0.00     0.049 A 
ATOM     68  H   UNL     1     -14.054  -4.009   0.617  1.00  0.00     0.167 HD
ATOM     69  C   UNL     1     -15.918  -5.808  -2.897  1.00  0.00     0.037 A 
ATOM     70  C   UNL     1     -13.957  -3.282   3.319  1.00  0.00     0.037 A 
ATOM     71  C   UNL     1     -16.920  -5.899  -1.869  1.00  0.00     0.049 A 
ATOM     72  C   UNL     1     -15.354  -3.811   3.079  1.00  0.00     0.074 A 
ATOM     73  C   UNL     1     -18.194  -6.432  -1.949  1.00  0.00     0.029 A 
ATOM     74  N   UNL     1     -16.762  -5.432  -0.572  1.00  0.00    -0.354 N 
ATOM     75  N   UNL     1     -15.862  -4.349   1.996  1.00  0.00    -0.248 NA
ATOM     76  C   UNL     1     -16.305  -3.727   4.199  1.00  0.00     0.031 C 
ATOM     77  C   UNL     1     -18.832  -6.225  -0.722  1.00  0.00     0.029 A 
ATOM     78  C   UNL     1     -17.930  -5.629   0.146  1.00  0.00     0.049 A 
ATOM     79  H   UNL     1     -15.941  -5.022  -0.215  1.00  0.00     0.167 HD
ATOM     80  C   UNL     1     -17.173  -4.690   2.311  1.00  0.00     0.074 A 
ATOM     81  C   UNL     1     -17.381  -4.314   3.693  1.00  0.00     0.031 C 
ATOM     82  C   UNL     1     -18.120  -5.261   1.526  1.00  0.00     0.037 A 
BRANCH  69  83
ATOM     83  C   UNL     1     -16.255  -6.322  -4.268  1.00  0.00     0.064 A 
ATOM     84  C   UNL     1     -15.643  -7.462  -4.811  1.00  0.00     0.173 A 
ATOM     85  C   UNL     1     -17.207  -5.653  -5.053  1.00  0.00     0.173 A 
ATOM     86  F   UNL     1     -14.713  -8.128  -4.111  1.00  0.00    -0.203 F 
ATOM     87  C   UNL     1     -15.946  -7.890  -6.102  1.00  0.00     0.198 A 
ATOM     88  C   UNL     1     -17.531  -6.102  -6.329  1.00  0.00     0.198 A 
ATOM     89  F   UNL     1     -17.824  -4.559  -4.580  1.00  0.00    -0.203 F 
ATOM     90  F   UNL     1     -15.304  -8.944  -6.625  1.00  0.00    -0.200 F 
ATOM     91  C   UNL     1     -16.892  -7.213  -6.857  1.00  0.00     0.200 A 
ATOM     92  F   UNL     1     -18.455  -5.453  -7.051  1.00  0.00    -0.200 F 
ATOM     93  F   UNL     1     -17.181  -7.625  -8.100  1.00  0.00    -0.200 F 
ENDBRANCH  69  83
BRANCH  70  94
ATOM     94  C   UNL     1     -13.582  -2.742   4.662  1.00  0.00     0.064 A 
ATOM     95  C   UNL     1     -13.572  -3.551   5.809  1.00  0.00     0.173 A 
ATOM     96  C   UNL     1     -13.295  -1.378   4.836  1.00  0.00     0.173 A 
ATOM     97  F   UNL     1     -13.875  -4.854   5.712  1.00  0.00    -0.203 F 
ATOM     98  C   UNL     1     -13.312  -3.016   7.072  1.00  0.00     0.198 A 
ATOM     99  C   UNL     1     -13.002  -0.851   6.093  1.00  0.00     0.198 A 
ATOM    100  F   UNL     1     -13.305  -0.550   3.781  1.00  0.00    -0.203 F 
ATOM    101  F   UNL     1     -13.373  -3.801   8.156  1.00  0.00    -0.200 F 
ATOM    102  C   UNL     1     -13.022  -1.668   7.212  1.00  0.00     0.200 A 
ATOM    103  F   UNL     1     -12.713   0.451   6.219  1.00  0.00    -0.200 F 
ATOM    104  F   UNL     1     -12.776  -1.153   8.425  1.00  0.00    -0.200 F 
ENDBRANCH  70  94
BRANCH  82 105
ATOM    105  C   UNL     1     -19.461  -5.552   2.140  1.00  0.00     0.064 A 
ATOM    106  C   UNL     1     -20.364  -4.529   2.462  1.00  0.00     0.173 A 
ATOM    107  C   UNL     1     -19.877  -6.879   2.337  1.00  0.00     0.173 A 
ATOM    108  F   UNL     1     -20.013  -3.243   2.304  1.00  0.00    -0.203 F 
ATOM    109  C   UNL     1     -21.626  -4.822   2.974  1.00  0.00     0.198 A 
ATOM    110  C   UNL     1     -21.152  -7.169   2.816  1.00  0.00     0.198 A 
ATOM    111  F   UNL     1     -19.057  -7.896   2.036  1.00  0.00    -0.203 F 
ATOM    112  F   UNL     1     -22.458  -3.826   3.311  1.00  0.00    -0.200 F 
ATOM    113  C   UNL     1     -22.023  -6.140   3.140  1.00  0.00     0.200 A 
ATOM    114  F   UNL     1     -21.539  -8.444   2.956  1.00  0.00    -0.200 F 
ATOM    115  F   UNL     1     -23.245  -6.420   3.614  1.00  0.00    -0.200 F 
ENDBRANCH  82 105
ENDBRANCH  56  57
ENDBRANCH  49  51
ENDBRANCH  48  49
ENDBRANCH  47  48
ENDBRANCH  46  47
ENDBRANCH  45  46
ENDBRANCH  44  45
ENDBRANCH  43  44
ENDBRANCH  42  43
ENDBRANCH  41  42
ENDBRANCH   1  41
TORSDOF 30
