REMARK SMILES CC[N@@H+]1C/C(=C\c2ccccc2C)c2nc3ccccc3c(C(=O)OCCOCCOCCOC(=O)c3ccc(-c4c5nc(c(-c6c(F)c(F)c(F)c(F)c6F)c6ccc([nH]6)c(-c6c(F)c(F)c(F)c(F)c6F)c6nc(c(-c7c(F)c(F)c(F)c(F)c7F)c7ccc4[nH]7)C=C6)C=C5)cc3)c2C1
REMARK SMILES IDX 30 1 29 2 28 3 27 4 26 5 25 6 23 7 24 8 22 9 3 10 4 11
REMARK SMILES IDX 101 12 5 14 100 15 6 16 14 17 15 18 21 19 16 20 20 21 17 22
REMARK SMILES IDX 19 23 18 24 2 25 1 26 7 27 8 28 12 29 9 30 11 31 13 32 10 33
REMARK SMILES IDX 31 34 32 35 33 36 34 37 35 38 36 39 37 40 38 41 99 42 39 43
REMARK SMILES IDX 98 44 40 45 41 46 42 47 92 48 43 49 97 50 91 51 93 52 44 53
REMARK SMILES IDX 96 54 90 55 89 56 45 58 77 59 57 60 76 61 58 62 61 63 75 64
REMARK SMILES IDX 94 65 59 66 60 67 74 69 95 70 62 71 46 72 47 73 55 74 48 75
REMARK SMILES IDX 49 76 53 77 56 78 50 79 51 80 54 81 52 82 78 83 79 84 87 85
REMARK SMILES IDX 80 86 81 87 85 88 88 89 82 90 83 91 86 92 84 93 63 94 64 95
REMARK SMILES IDX 72 96 65 97 66 98 70 99 73 100 67 101 68 102 71 103 69 104
REMARK H PARENT 3 13 93 57 61 68
REMARK Flexibility Score: inf
ROOT
ATOM      1  C   UNL     1       3.297  -1.030  -4.520  1.00  0.00     0.188 C 
ENDROOT
BRANCH   1   2
ATOM      2  C   UNL     1       2.447  -1.846  -3.522  1.00  0.00     0.188 C 
BRANCH   2   3
ATOM      3  O   UNL     1       2.409  -3.236  -3.741  1.00  0.00    -0.376 OA
BRANCH   3   4
ATOM      4  C   UNL     1       1.380  -3.798  -4.537  1.00  0.00     0.202 C 
BRANCH   4   5
ATOM      5  C   UNL     1       0.424  -2.995  -5.447  1.00  0.00     0.261 C 
BRANCH   5   6
ATOM      6  O   UNL     1       0.758  -1.625  -5.708  1.00  0.00    -0.460 OA
BRANCH   6   7
ATOM      7  C   UNL     1      -0.230  -0.718  -5.493  1.00  0.00     0.339 C 
ATOM      8  O   UNL     1      -1.362  -0.963  -5.106  1.00  0.00    -0.246 OA
BRANCH   7   9
ATOM      9  C   UNL     1       0.278   0.678  -5.599  1.00  0.00     0.080 A 
ATOM     10  N   UNL     1       0.124   1.669  -2.005  1.00  0.00    -0.328 N 
ATOM     11  C   UNL     1      -0.273   3.077  -2.170  1.00  0.00     0.301 C 
ATOM     12  C   UNL     1      -0.336   0.934  -3.175  1.00  0.00     0.302 C 
ATOM     13  H   UNL     1       1.138   1.606  -1.917  1.00  0.00     0.348 HD
ATOM     14  C   UNL     1       0.470   3.710  -3.332  1.00  0.00     0.033 C 
ATOM     15  C   UNL     1       0.188   1.493  -4.456  1.00  0.00     0.048 A 
ATOM     16  C   UNL     1       0.993   4.958  -3.281  1.00  0.00     0.020 C 
ATOM     17  C   UNL     1       0.567   2.829  -4.538  1.00  0.00     0.082 A 
ATOM     18  N   UNL     1       0.998   3.363  -5.704  1.00  0.00    -0.247 NA
ATOM     19  C   UNL     1       0.772   1.200  -6.803  1.00  0.00     0.015 A 
ATOM     20  C   UNL     1       1.091   2.576  -6.799  1.00  0.00     0.072 A 
ATOM     21  C   UNL     1       0.942   0.440  -7.985  1.00  0.00     0.011 A 
ATOM     22  C   UNL     1       1.507   3.146  -7.995  1.00  0.00     0.029 A 
ATOM     23  C   UNL     1       1.391   1.036  -9.157  1.00  0.00     0.001 A 
ATOM     24  C   UNL     1       1.655   2.397  -9.168  1.00  0.00     0.002 A 
BRANCH  10  25
ATOM     25  C   UNL     1      -0.461   1.098  -0.789  1.00  0.00     0.259 C 
ATOM     26  C   UNL     1      -0.164  -0.399  -0.643  1.00  0.00     0.071 C 
ENDBRANCH  10  25
BRANCH  16  27
ATOM     27  C   UNL     1       0.850   5.858  -2.114  1.00  0.00    -0.022 A 
ATOM     28  C   UNL     1       1.585   5.581  -0.946  1.00  0.00     0.008 A 
ATOM     29  C   UNL     1      -0.061   6.933  -2.103  1.00  0.00    -0.044 A 
ATOM     30  C   UNL     1       1.367   6.300   0.233  1.00  0.00     0.001 A 
ATOM     31  C   UNL     1      -0.268   7.649  -0.908  1.00  0.00     0.004 A 
ATOM     32  C   UNL     1      -0.852   7.359  -3.310  1.00  0.00     0.045 C 
ATOM     33  C   UNL     1       0.428   7.325   0.255  1.00  0.00     0.000 A 
ENDBRANCH  16  27
ENDBRANCH   7   9
ENDBRANCH   6   7
ENDBRANCH   5   6
ENDBRANCH   4   5
ENDBRANCH   3   4
ENDBRANCH   2   3
ENDBRANCH   1   2
BRANCH   1  34
ATOM     34  O   UNL     1       3.963  -1.677  -5.592  1.00  0.00    -0.376 OA
BRANCH  34  35
ATOM     35  C   UNL     1       4.715  -2.852  -5.328  1.00  0.00     0.202 C 
BRANCH  35  36
ATOM     36  C   UNL     1       5.758  -2.870  -4.197  1.00  0.00     0.261 C 
BRANCH  36  37
ATOM     37  O   UNL     1       5.340  -2.308  -2.940  1.00  0.00    -0.460 OA
BRANCH  37  38
ATOM     38  C   UNL     1       5.892  -1.112  -2.616  1.00  0.00     0.338 C 
ATOM     39  O   UNL     1       6.707  -0.475  -3.268  1.00  0.00    -0.246 OA
BRANCH  38  40
ATOM     40  C   UNL     1       5.253  -0.575  -1.394  1.00  0.00     0.060 A 
ATOM     41  C   UNL     1       5.331  -1.273  -0.190  1.00  0.00     0.016 A 
ATOM     42  C   UNL     1       4.624   0.679  -1.441  1.00  0.00     0.016 A 
ATOM     43  C   UNL     1       4.823  -0.690   0.977  1.00  0.00     0.010 A 
ATOM     44  C   UNL     1       4.098   1.251  -0.275  1.00  0.00     0.010 A 
ATOM     45  C   UNL     1       4.228   0.586   0.953  1.00  0.00    -0.014 A 
BRANCH  45  46
ATOM     46  C   UNL     1       3.873   1.255   2.236  1.00  0.00     0.031 A 
ATOM     47  C   UNL     1       2.475   1.296   2.766  1.00  0.00     0.074 A 
ATOM     48  C   UNL     1       4.859   1.787   2.974  1.00  0.00     0.049 A 
ATOM     49  N   UNL     1       1.963   1.904   3.808  1.00  0.00    -0.248 NA
ATOM     50  C   UNL     1       1.504   0.546   1.986  1.00  0.00     0.031 C 
ATOM     51  C   UNL     1       6.272   1.792   2.608  1.00  0.00     0.029 A 
ATOM     52  N   UNL     1       4.819   2.372   4.211  1.00  0.00    -0.354 N 
ATOM     53  C   UNL     1       0.589   1.681   3.741  1.00  0.00     0.074 A 
ATOM     54  C   UNL     1       0.361   0.887   2.563  1.00  0.00     0.031 C 
ATOM     55  C   UNL     1       6.979   2.283   3.637  1.00  0.00     0.029 A 
ATOM     56  C   UNL     1       6.060   2.665   4.709  1.00  0.00     0.049 A 
ATOM     57  H   UNL     1       3.983   2.563   4.694  1.00  0.00     0.167 HD
ATOM     58  C   UNL     1      -0.388   2.070   4.599  1.00  0.00     0.037 A 
ATOM     59  C   UNL     1       6.411   3.163   5.909  1.00  0.00     0.037 A 
ATOM     60  C   UNL     1      -0.111   2.664   5.879  1.00  0.00     0.049 A 
ATOM     61  C   UNL     1       5.343   3.460   6.926  1.00  0.00     0.074 A 
ATOM     62  C   UNL     1      -0.995   2.999   6.890  1.00  0.00     0.029 A 
ATOM     63  N   UNL     1       1.163   2.942   6.349  1.00  0.00    -0.354 N 
ATOM     64  N   UNL     1       4.044   3.306   6.834  1.00  0.00    -0.248 NA
ATOM     65  C   UNL     1       5.791   3.995   8.219  1.00  0.00     0.031 C 
ATOM     66  C   UNL     1      -0.254   3.485   7.970  1.00  0.00     0.029 A 
ATOM     67  C   UNL     1       1.091   3.421   7.643  1.00  0.00     0.049 A 
ATOM     68  H   UNL     1       1.995   2.816   5.838  1.00  0.00     0.167 HD
ATOM     69  C   UNL     1       3.522   3.709   8.057  1.00  0.00     0.074 A 
ATOM     70  C   UNL     1       4.647   4.093   8.883  1.00  0.00     0.031 C 
ATOM     71  C   UNL     1       2.228   3.769   8.455  1.00  0.00     0.037 A 
BRANCH  58  72
ATOM     72  C   UNL     1      -1.835   1.841   4.231  1.00  0.00     0.064 A 
ATOM     73  C   UNL     1      -2.390   0.558   4.109  1.00  0.00     0.173 A 
ATOM     74  C   UNL     1      -2.707   2.935   4.082  1.00  0.00     0.173 A 
ATOM     75  F   UNL     1      -1.617  -0.529   4.250  1.00  0.00    -0.203 F 
ATOM     76  C   UNL     1      -3.739   0.379   3.808  1.00  0.00     0.198 A 
ATOM     77  C   UNL     1      -4.067   2.752   3.831  1.00  0.00     0.198 A 
ATOM     78  F   UNL     1      -2.249   4.190   4.211  1.00  0.00    -0.203 F 
ATOM     79  F   UNL     1      -4.224  -0.859   3.635  1.00  0.00    -0.200 F 
ATOM     80  C   UNL     1      -4.579   1.474   3.682  1.00  0.00     0.200 A 
ATOM     81  F   UNL     1      -4.882   3.812   3.742  1.00  0.00    -0.200 F 
ATOM     82  F   UNL     1      -5.881   1.296   3.418  1.00  0.00    -0.200 F 
ENDBRANCH  58  72
BRANCH  59  83
ATOM     83  C   UNL     1       7.853   3.325   6.214  1.00  0.00     0.064 A 
ATOM     84  C   UNL     1       8.489   2.474   7.127  1.00  0.00     0.173 A 
ATOM     85  C   UNL     1       8.639   4.271   5.539  1.00  0.00     0.173 A 
ATOM     86  F   UNL     1       7.776   1.559   7.799  1.00  0.00    -0.203 F 
ATOM     87  C   UNL     1       9.860   2.566   7.356  1.00  0.00     0.198 A 
ATOM     88  C   UNL     1      10.014   4.339   5.746  1.00  0.00     0.198 A 
ATOM     89  F   UNL     1       8.076   5.095   4.643  1.00  0.00    -0.203 F 
ATOM     90  F   UNL     1      10.442   1.755   8.250  1.00  0.00    -0.200 F 
ATOM     91  C   UNL     1      10.622   3.490   6.657  1.00  0.00     0.200 A 
ATOM     92  F   UNL     1      10.751   5.215   5.049  1.00  0.00    -0.200 F 
ATOM     93  F   UNL     1      11.945   3.558   6.859  1.00  0.00    -0.200 F 
ENDBRANCH  59  83
BRANCH  71  94
ATOM     94  C   UNL     1       1.935   4.251   9.844  1.00  0.00     0.064 A 
ATOM     95  C   UNL     1       2.018   5.611  10.168  1.00  0.00     0.173 A 
ATOM     96  C   UNL     1       1.431   3.368  10.812  1.00  0.00     0.173 A 
ATOM     97  F   UNL     1       2.496   6.490   9.274  1.00  0.00    -0.203 F 
ATOM     98  C   UNL     1       1.604   6.073  11.414  1.00  0.00     0.198 A 
ATOM     99  C   UNL     1       0.994   3.838  12.047  1.00  0.00     0.198 A 
ATOM    100  F   UNL     1       1.318   2.059  10.541  1.00  0.00    -0.203 F 
ATOM    101  F   UNL     1       1.700   7.377  11.707  1.00  0.00    -0.200 F 
ATOM    102  C   UNL     1       1.080   5.189  12.346  1.00  0.00     0.200 A 
ATOM    103  F   UNL     1       0.468   2.987  12.938  1.00  0.00    -0.200 F 
ATOM    104  F   UNL     1       0.650   5.643  13.532  1.00  0.00    -0.200 F 
ENDBRANCH  71  94
ENDBRANCH  45  46
ENDBRANCH  38  40
ENDBRANCH  37  38
ENDBRANCH  36  37
ENDBRANCH  35  36
ENDBRANCH  34  35
ENDBRANCH   1  34
TORSDOF 19
