REMARK SMILES CC(=O)Nc1ccc(/N=C2\C(=O)N(c3ccc(NC(C)=O)cc3)[C@H](c3ccccc3)[C@H]2CC(=O)OCCOCCOCCOC(=O)c2ccc(-c3c4nc(c(-c5c(F)c(F)c(F)c(F)c5F)c5ccc([nH]5)c(-c5c(F)c(F)c(F)c(F)c5F)c5nc(c(-c6c(F)c(F)c(F)c(F)c6F)c6ccc3[nH]6)C=C5)C=C4)cc2)cc1
REMARK SMILES IDX 39 1 38 2 37 3 36 4 35 5 33 6 34 7 32 8 31 9 9 10 10 11
REMARK SMILES IDX 11 12 12 13 13 14 24 15 8 16 5 17 6 18 111 19 7 20 110 21
REMARK SMILES IDX 4 22 1 23 2 24 3 25 14 27 15 28 23 29 16 30 22 31 17 32
REMARK SMILES IDX 18 33 19 34 20 36 21 37 25 38 26 39 30 40 27 41 29 42 28 43
REMARK SMILES IDX 40 44 41 45 42 46 43 47 44 48 45 49 46 50 47 51 48 52 109 53
REMARK SMILES IDX 49 54 108 55 50 56 51 57 52 58 102 59 53 60 107 61 101 62
REMARK SMILES IDX 103 63 54 64 106 65 100 66 99 67 55 69 87 70 67 71 86 72
REMARK SMILES IDX 68 73 71 74 85 75 104 76 69 77 70 78 84 80 105 81 72 82
REMARK SMILES IDX 56 83 57 84 65 85 58 86 59 87 63 88 66 89 60 90 61 91 64 92
REMARK SMILES IDX 62 93 88 94 89 95 97 96 90 97 91 98 95 99 98 100 92 101
REMARK SMILES IDX 93 102 96 103 94 104 73 105 74 106 82 107 75 108 76 109
REMARK SMILES IDX 80 110 83 111 77 112 78 113 81 114 79 115
REMARK H PARENT 4 26 18 35 103 68 71 79
REMARK Flexibility Score: inf
ROOT
ATOM      1  C   UNL     1       6.103  -1.670  -9.399  1.00  0.00     0.188 C 
ENDROOT
BRANCH   1   2
ATOM      2  O   UNL     1       6.033  -3.068  -9.134  1.00  0.00    -0.376 OA
BRANCH   2   3
ATOM      3  C   UNL     1       5.727  -3.433  -7.783  1.00  0.00     0.202 C 
BRANCH   3   4
ATOM      4  C   UNL     1       6.843  -3.124  -6.780  1.00  0.00     0.261 C 
BRANCH   4   5
ATOM      5  O   UNL     1       6.875  -1.725  -6.433  1.00  0.00    -0.463 OA
BRANCH   5   6
ATOM      6  C   UNL     1       7.701  -1.437  -5.394  1.00  0.00     0.306 C 
ATOM      7  O   UNL     1       8.397  -2.255  -4.803  1.00  0.00    -0.252 OA
BRANCH   6   8
ATOM      8  C   UNL     1       7.793   0.047  -5.118  1.00  0.00     0.135 C 
BRANCH   8   9
ATOM      9  C   UNL     1       6.471   0.806  -5.059  1.00  0.00     0.083 C 
ATOM     10  N   UNL     1       4.933  -0.889  -4.227  1.00  0.00    -0.247 NA
ATOM     11  C   UNL     1       5.529   0.246  -4.021  1.00  0.00     0.112 C 
ATOM     12  C   UNL     1       5.357   1.239  -2.890  1.00  0.00     0.273 C 
ATOM     13  O   UNL     1       4.795   1.015  -1.839  1.00  0.00    -0.267 OA
ATOM     14  N   UNL     1       5.976   2.403  -3.296  1.00  0.00    -0.299 N 
ATOM     15  C   UNL     1       6.660   2.276  -4.577  1.00  0.00     0.131 C 
BRANCH  10  16
ATOM     16  C   UNL     1       3.850  -1.314  -3.450  1.00  0.00     0.064 A 
ATOM     17  C   UNL     1       1.507  -1.949  -2.018  1.00  0.00     0.041 A 
ATOM     18  C   UNL     1       1.479  -1.858  -3.410  1.00  0.00     0.028 A 
ATOM     19  C   UNL     1       2.734  -1.850  -1.362  1.00  0.00     0.028 A 
ATOM     20  C   UNL     1       2.639  -1.523  -4.112  1.00  0.00     0.030 A 
ATOM     21  C   UNL     1       3.905  -1.573  -2.082  1.00  0.00     0.030 A 
BRANCH  17  22
ATOM     22  N   UNL     1       0.285  -2.174  -1.370  1.00  0.00    -0.326 N 
ATOM     23  C   UNL     1       0.647  -0.869   0.722  1.00  0.00     0.114 C 
ATOM     24  C   UNL     1      -0.144  -1.834  -0.119  1.00  0.00     0.221 C 
ATOM     25  O   UNL     1      -1.227  -2.273   0.277  1.00  0.00    -0.275 OA
ATOM     26  H   UNL     1      -0.379  -2.661  -1.910  1.00  0.00     0.169 HD
ENDBRANCH  17  22
ENDBRANCH  10  16
BRANCH  14  27
ATOM     27  C   UNL     1       6.077   3.526  -2.437  1.00  0.00     0.045 A 
ATOM     28  C   UNL     1       6.498   3.359  -1.114  1.00  0.00     0.028 A 
ATOM     29  C   UNL     1       5.627   4.785  -2.834  1.00  0.00     0.028 A 
ATOM     30  C   UNL     1       6.449   4.420  -0.200  1.00  0.00     0.028 A 
ATOM     31  C   UNL     1       5.547   5.838  -1.913  1.00  0.00     0.028 A 
ATOM     32  C   UNL     1       5.939   5.659  -0.583  1.00  0.00     0.041 A 
BRANCH  32  33
ATOM     33  N   UNL     1       5.721   6.734   0.302  1.00  0.00    -0.326 N 
ATOM     34  C   UNL     1       6.013   6.782   1.652  1.00  0.00     0.221 C 
ATOM     35  H   UNL     1       5.314   7.543  -0.085  1.00  0.00     0.169 HD
ATOM     36  C   UNL     1       5.460   8.012   2.331  1.00  0.00     0.114 C 
ATOM     37  O   UNL     1       6.641   5.949   2.297  1.00  0.00    -0.275 OA
ENDBRANCH  32  33
ENDBRANCH  14  27
BRANCH  15  38
ATOM     38  C   UNL     1       6.241   3.314  -5.601  1.00  0.00    -0.024 A 
ATOM     39  C   UNL     1       7.154   4.316  -5.982  1.00  0.00     0.006 A 
ATOM     40  C   UNL     1       4.929   3.378  -6.093  1.00  0.00     0.006 A 
ATOM     41  C   UNL     1       6.755   5.370  -6.806  1.00  0.00     0.000 A 
ATOM     42  C   UNL     1       4.532   4.440  -6.909  1.00  0.00     0.000 A 
ATOM     43  C   UNL     1       5.441   5.436  -7.261  1.00  0.00     0.000 A 
ENDBRANCH  15  38
ENDBRANCH   8   9
ENDBRANCH   6   8
ENDBRANCH   5   6
ENDBRANCH   4   5
ENDBRANCH   3   4
ENDBRANCH   2   3
ENDBRANCH   1   2
BRANCH   1  44
ATOM     44  C   UNL     1       4.746  -0.969  -9.518  1.00  0.00     0.188 C 
BRANCH  44  45
ATOM     45  O   UNL     1       3.989  -1.047  -8.314  1.00  0.00    -0.376 OA
BRANCH  45  46
ATOM     46  C   UNL     1       3.021  -0.014  -8.117  1.00  0.00     0.202 C 
BRANCH  46  47
ATOM     47  C   UNL     1       2.037   0.195  -9.279  1.00  0.00     0.261 C 
BRANCH  47  48
ATOM     48  O   UNL     1       2.672   0.866 -10.383  1.00  0.00    -0.460 OA
BRANCH  48  49
ATOM     49  C   UNL     1       3.015   2.153 -10.134  1.00  0.00     0.338 C 
ATOM     50  O   UNL     1       2.641   2.839  -9.198  1.00  0.00    -0.246 OA
BRANCH  49  51
ATOM     51  C   UNL     1       4.118   2.527 -11.043  1.00  0.00     0.060 A 
ATOM     52  C   UNL     1       5.187   3.254 -10.507  1.00  0.00     0.016 A 
ATOM     53  C   UNL     1       4.124   2.149 -12.388  1.00  0.00     0.016 A 
ATOM     54  C   UNL     1       6.245   3.646 -11.322  1.00  0.00     0.010 A 
ATOM     55  C   UNL     1       5.180   2.548 -13.208  1.00  0.00     0.010 A 
ATOM     56  C   UNL     1       6.227   3.322 -12.684  1.00  0.00    -0.014 A 
BRANCH  56  57
ATOM     57  C   UNL     1       7.222   3.927 -13.593  1.00  0.00     0.031 A 
ATOM     58  C   UNL     1       6.913   5.261 -14.207  1.00  0.00     0.074 A 
ATOM     59  C   UNL     1       8.382   3.305 -13.860  1.00  0.00     0.049 A 
ATOM     60  N   UNL     1       7.607   5.958 -15.068  1.00  0.00    -0.248 NA
ATOM     61  C   UNL     1       5.654   5.898 -13.787  1.00  0.00     0.031 C 
ATOM     62  C   UNL     1       8.812   2.030 -13.290  1.00  0.00     0.029 A 
ATOM     63  N   UNL     1       9.412   3.673 -14.687  1.00  0.00    -0.354 N 
ATOM     64  C   UNL     1       6.872   7.112 -15.292  1.00  0.00     0.074 A 
ATOM     65  C   UNL     1       5.677   7.026 -14.480  1.00  0.00     0.031 C 
ATOM     66  C   UNL     1      10.020   1.716 -13.792  1.00  0.00     0.029 A 
ATOM     67  C   UNL     1      10.432   2.759 -14.730  1.00  0.00     0.049 A 
ATOM     68  H   UNL     1       9.418   4.513 -15.200  1.00  0.00     0.167 HD
ATOM     69  C   UNL     1       7.164   8.152 -16.106  1.00  0.00     0.037 A 
ATOM     70  C   UNL     1      11.561   2.761 -15.463  1.00  0.00     0.037 A 
ATOM     71  C   UNL     1       8.337   8.239 -16.927  1.00  0.00     0.049 A 
ATOM     72  C   UNL     1      11.830   3.894 -16.413  1.00  0.00     0.074 A 
ATOM     73  C   UNL     1       8.712   9.245 -17.799  1.00  0.00     0.029 A 
ATOM     74  N   UNL     1       9.326   7.270 -16.978  1.00  0.00    -0.354 N 
ATOM     75  N   UNL     1      11.120   4.973 -16.633  1.00  0.00    -0.248 NA
ATOM     76  C   UNL     1      13.049   3.799 -17.229  1.00  0.00     0.031 C 
ATOM     77  C   UNL     1       9.927   8.877 -18.391  1.00  0.00     0.029 A 
ATOM     78  C   UNL     1      10.308   7.647 -17.877  1.00  0.00     0.049 A 
ATOM     79  H   UNL     1       9.330   6.438 -16.453  1.00  0.00     0.167 HD
ATOM     80  C   UNL     1      11.803   5.685 -17.609  1.00  0.00     0.074 A 
ATOM     81  C   UNL     1      12.989   4.920 -17.935  1.00  0.00     0.031 C 
ATOM     82  C   UNL     1      11.474   6.865 -18.186  1.00  0.00     0.037 A 
BRANCH  69  83
ATOM     83  C   UNL     1       6.173   9.268 -16.147  1.00  0.00     0.064 A 
ATOM     84  C   UNL     1       6.210  10.299 -15.199  1.00  0.00     0.173 A 
ATOM     85  C   UNL     1       5.169   9.295 -17.124  1.00  0.00     0.173 A 
ATOM     86  F   UNL     1       7.140  10.295 -14.233  1.00  0.00    -0.203 F 
ATOM     87  C   UNL     1       5.265  11.320 -15.223  1.00  0.00     0.198 A 
ATOM     88  C   UNL     1       4.229  10.320 -17.147  1.00  0.00     0.198 A 
ATOM     89  F   UNL     1       5.089   8.316 -18.036  1.00  0.00    -0.203 F 
ATOM     90  F   UNL     1       5.297  12.284 -14.293  1.00  0.00    -0.200 F 
ATOM     91  C   UNL     1       4.276  11.330 -16.197  1.00  0.00     0.200 A 
ATOM     92  F   UNL     1       3.265  10.322 -18.079  1.00  0.00    -0.200 F 
ATOM     93  F   UNL     1       3.357  12.306 -16.209  1.00  0.00    -0.200 F 
ENDBRANCH  69  83
BRANCH  70  94
ATOM     94  C   UNL     1      12.517   1.637 -15.344  1.00  0.00     0.064 A 
ATOM     95  C   UNL     1      13.679   1.762 -14.574  1.00  0.00     0.173 A 
ATOM     96  C   UNL     1      12.288   0.422 -16.005  1.00  0.00     0.173 A 
ATOM     97  F   UNL     1      13.944   2.916 -13.944  1.00  0.00    -0.203 F 
ATOM     98  C   UNL     1      14.585   0.709 -14.471  1.00  0.00     0.198 A 
ATOM     99  C   UNL     1      13.191  -0.632 -15.894  1.00  0.00     0.198 A 
ATOM    100  F   UNL     1      11.191   0.266 -16.759  1.00  0.00    -0.203 F 
ATOM    101  F   UNL     1      15.702   0.858 -13.745  1.00  0.00    -0.200 F 
ATOM    102  C   UNL     1      14.339  -0.487 -15.129  1.00  0.00     0.200 A 
ATOM    103  F   UNL     1      12.952  -1.786 -16.532  1.00  0.00    -0.200 F 
ATOM    104  F   UNL     1      15.214  -1.498 -15.033  1.00  0.00    -0.200 F 
ENDBRANCH  70  94
BRANCH  82 105
ATOM    105  C   UNL     1      12.405   7.396 -19.227  1.00  0.00     0.064 A 
ATOM    106  C   UNL     1      12.292   6.993 -20.564  1.00  0.00     0.173 A 
ATOM    107  C   UNL     1      13.378   8.349 -18.898  1.00  0.00     0.173 A 
ATOM    108  F   UNL     1      11.381   6.074 -20.917  1.00  0.00    -0.203 F 
ATOM    109  C   UNL     1      13.128   7.526 -21.540  1.00  0.00     0.198 A 
ATOM    110  C   UNL     1      14.208   8.885 -19.878  1.00  0.00     0.198 A 
ATOM    111  F   UNL     1      13.520   8.759 -17.629  1.00  0.00    -0.203 F 
ATOM    112  F   UNL     1      13.015   7.120 -22.812  1.00  0.00    -0.200 F 
ATOM    113  C   UNL     1      14.082   8.474 -21.197  1.00  0.00     0.200 A 
ATOM    114  F   UNL     1      15.131   9.799 -19.547  1.00  0.00    -0.200 F 
ATOM    115  F   UNL     1      14.885   8.988 -22.139  1.00  0.00    -0.200 F 
ENDBRANCH  82 105
ENDBRANCH  56  57
ENDBRANCH  49  51
ENDBRANCH  48  49
ENDBRANCH  47  48
ENDBRANCH  46  47
ENDBRANCH  45  46
ENDBRANCH  44  45
ENDBRANCH   1  44
TORSDOF 23
