REMARK SMILES CC[N@@H+](C[C@@H](C)C(=O)OCCOCCOCCOC(=O)c1ccc(-c2c3nc(c(-c4c(F)c(F)c(F)c(F)c4F)c4ccc([nH]4)c(-c4c(F)c(F)c(F)c(F)c4F)c4nc(c(-c5c(F)c(F)c(F)c(F)c5F)c5ccc2[nH]5)C=C4)C=C3)cc1)[C@@H]1CCC[C@H](S(C)(=O)=O)C1
REMARK SMILES IDX 13 1 12 2 11 3 10 4 9 5 7 6 8 7 5 8 6 9 4 10 3 11 2 13 1 14
REMARK SMILES IDX 84 15 85 16 93 17 86 18 88 19 87 20 89 21 90 22 91 23 92 24
REMARK SMILES IDX 14 25 15 26 16 27 17 28 18 29 19 30 20 31 21 32 22 33 83 34
REMARK SMILES IDX 23 35 82 36 24 37 25 38 26 39 76 40 27 41 81 42 75 43 77 44
REMARK SMILES IDX 28 45 80 46 74 47 73 48 29 50 61 51 41 52 60 53 42 54 45 55
REMARK SMILES IDX 59 56 78 57 43 58 44 59 58 61 79 62 46 63 30 64 31 65 39 66
REMARK SMILES IDX 32 67 33 68 37 69 40 70 34 71 35 72 38 73 36 74 62 75 63 76
REMARK SMILES IDX 71 77 64 78 65 79 69 80 72 81 66 82 67 83 70 84 68 85 47 86
REMARK SMILES IDX 48 87 56 88 49 89 50 90 54 91 57 92 51 93 52 94 55 95 53 96
REMARK H PARENT 3 12 77 49 45 60
REMARK Flexibility Score: inf
ROOT
ATOM      1  C   UNL     1      -1.539  -0.929  -6.380  1.00  0.00     0.188 C 
ENDROOT
BRANCH   1   2
ATOM      2  O   UNL     1      -1.357  -1.215  -7.758  1.00  0.00    -0.376 OA
BRANCH   2   3
ATOM      3  C   UNL     1      -0.660  -2.408  -8.106  1.00  0.00     0.202 C 
BRANCH   3   4
ATOM      4  C   UNL     1       0.780  -2.593  -7.597  1.00  0.00     0.261 C 
BRANCH   4   5
ATOM      5  O   UNL     1       0.995  -2.335  -6.192  1.00  0.00    -0.463 OA
BRANCH   5   6
ATOM      6  C   UNL     1       1.605  -1.152  -5.928  1.00  0.00     0.314 C 
ATOM      7  O   UNL     1       1.926  -0.342  -6.795  1.00  0.00    -0.252 OA
BRANCH   6   8
ATOM      8  C   UNL     1       1.798  -0.836  -4.447  1.00  0.00     0.151 C 
ATOM      9  C   UNL     1       3.261  -0.404  -4.321  1.00  0.00     0.026 C 
BRANCH   8  10
ATOM     10  C   UNL     1       1.357  -1.940  -3.444  1.00  0.00     0.277 C 
BRANCH  10  11
ATOM     11  N   UNL     1       1.400  -1.629  -1.976  1.00  0.00    -0.332 N 
ATOM     12  H   UNL     1       0.995  -2.389  -1.429  1.00  0.00     0.348 HD
BRANCH  11  13
ATOM     13  C   UNL     1       0.491  -0.523  -1.632  1.00  0.00     0.259 C 
ATOM     14  C   UNL     1       0.216  -0.271  -0.149  1.00  0.00     0.071 C 
ENDBRANCH  11  13
BRANCH  11  15
ATOM     15  C   UNL     1       2.778  -1.631  -1.456  1.00  0.00     0.185 C 
ATOM     16  C   UNL     1       3.065  -2.865  -0.583  1.00  0.00     0.065 C 
ATOM     17  C   UNL     1       3.270  -0.389  -0.706  1.00  0.00     0.084 C 
ATOM     18  C   UNL     1       4.580  -2.981  -0.349  1.00  0.00     0.007 C 
ATOM     19  C   UNL     1       4.792  -0.440  -0.538  1.00  0.00     0.114 C 
ATOM     20  C   UNL     1       5.206  -1.703   0.226  1.00  0.00     0.020 C 
BRANCH  19  21
ATOM     21  S   UNL     1       5.331   1.080   0.264  1.00  0.00     0.150 S 
ATOM     22  C   UNL     1       7.103   1.002   0.227  1.00  0.00     0.158 C 
ATOM     23  O   UNL     1       4.946   2.186  -0.594  1.00  0.00    -0.229 OA
ATOM     24  O   UNL     1       4.913   1.044   1.651  1.00  0.00    -0.229 OA
ENDBRANCH  19  21
ENDBRANCH  11  15
ENDBRANCH  10  11
ENDBRANCH   8  10
ENDBRANCH   6   8
ENDBRANCH   5   6
ENDBRANCH   4   5
ENDBRANCH   3   4
ENDBRANCH   2   3
ENDBRANCH   1   2
BRANCH   1  25
ATOM     25  C   UNL     1      -2.164  -2.005  -5.492  1.00  0.00     0.188 C 
BRANCH  25  26
ATOM     26  O   UNL     1      -1.870  -3.349  -5.835  1.00  0.00    -0.376 OA
BRANCH  26  27
ATOM     27  C   UNL     1      -2.710  -4.344  -5.241  1.00  0.00     0.202 C 
BRANCH  27  28
ATOM     28  C   UNL     1      -4.205  -4.271  -5.630  1.00  0.00     0.261 C 
BRANCH  28  29
ATOM     29  O   UNL     1      -4.909  -3.085  -5.193  1.00  0.00    -0.460 OA
BRANCH  29  30
ATOM     30  C   UNL     1      -4.833  -2.770  -3.877  1.00  0.00     0.338 C 
ATOM     31  O   UNL     1      -4.477  -3.511  -2.977  1.00  0.00    -0.246 OA
BRANCH  30  32
ATOM     32  C   UNL     1      -4.979  -1.294  -3.726  1.00  0.00     0.060 A 
ATOM     33  C   UNL     1      -4.101  -0.636  -2.851  1.00  0.00     0.016 A 
ATOM     34  C   UNL     1      -5.897  -0.548  -4.471  1.00  0.00     0.016 A 
ATOM     35  C   UNL     1      -4.174   0.751  -2.681  1.00  0.00     0.010 A 
ATOM     36  C   UNL     1      -5.978   0.841  -4.291  1.00  0.00     0.010 A 
ATOM     37  C   UNL     1      -5.142   1.496  -3.368  1.00  0.00    -0.014 A 
BRANCH  37  38
ATOM     38  C   UNL     1      -5.402   2.910  -2.977  1.00  0.00     0.031 A 
ATOM     39  C   UNL     1      -6.535   3.195  -2.026  1.00  0.00     0.074 A 
ATOM     40  C   UNL     1      -4.643   3.929  -3.418  1.00  0.00     0.049 A 
ATOM     41  N   UNL     1      -6.956   4.338  -1.543  1.00  0.00    -0.248 NA
ATOM     42  C   UNL     1      -7.298   2.028  -1.558  1.00  0.00     0.031 C 
ATOM     43  C   UNL     1      -3.498   3.808  -4.317  1.00  0.00     0.029 A 
ATOM     44  N   UNL     1      -4.732   5.279  -3.167  1.00  0.00    -0.354 N 
ATOM     45  C   UNL     1      -8.030   4.027  -0.719  1.00  0.00     0.074 A 
ATOM     46  C   UNL     1      -8.219   2.594  -0.794  1.00  0.00     0.031 C 
ATOM     47  C   UNL     1      -2.996   5.034  -4.550  1.00  0.00     0.029 A 
ATOM     48  C   UNL     1      -3.797   6.030  -3.837  1.00  0.00     0.049 A 
ATOM     49  H   UNL     1      -5.403   5.670  -2.562  1.00  0.00     0.167 HD
ATOM     50  C   UNL     1      -8.786   4.854   0.043  1.00  0.00     0.037 A 
ATOM     51  C   UNL     1      -3.619   7.367  -3.885  1.00  0.00     0.037 A 
ATOM     52  C   UNL     1      -8.612   6.281   0.124  1.00  0.00     0.049 A 
ATOM     53  C   UNL     1      -4.516   8.276  -3.079  1.00  0.00     0.074 A 
ATOM     54  C   UNL     1      -9.316   7.193   0.891  1.00  0.00     0.029 A 
ATOM     55  N   UNL     1      -7.676   7.006  -0.597  1.00  0.00    -0.354 N 
ATOM     56  N   UNL     1      -5.503   7.970  -2.273  1.00  0.00    -0.248 NA
ATOM     57  C   UNL     1      -4.265   9.722  -3.189  1.00  0.00     0.031 C 
ATOM     58  C   UNL     1      -8.845   8.476   0.591  1.00  0.00     0.029 A 
ATOM     59  C   UNL     1      -7.806   8.358  -0.317  1.00  0.00     0.049 A 
ATOM     60  H   UNL     1      -7.016   6.619  -1.217  1.00  0.00     0.167 HD
ATOM     61  C   UNL     1      -5.969   9.176  -1.760  1.00  0.00     0.074 A 
ATOM     62  C   UNL     1      -5.147  10.219  -2.333  1.00  0.00     0.031 C 
ATOM     63  C   UNL     1      -6.987   9.396  -0.890  1.00  0.00     0.037 A 
BRANCH  50  64
ATOM     64  C   UNL     1      -9.902   4.233   0.832  1.00  0.00     0.064 A 
ATOM     65  C   UNL     1      -9.655   3.414   1.944  1.00  0.00     0.173 A 
ATOM     66  C   UNL     1     -11.239   4.480   0.483  1.00  0.00     0.173 A 
ATOM     67  F   UNL     1      -8.395   3.134   2.310  1.00  0.00    -0.203 F 
ATOM     68  C   UNL     1     -10.704   2.840   2.658  1.00  0.00     0.198 A 
ATOM     69  C   UNL     1     -12.285   3.930   1.218  1.00  0.00     0.198 A 
ATOM     70  F   UNL     1     -11.530   5.259  -0.570  1.00  0.00    -0.203 F 
ATOM     71  F   UNL     1     -10.443   2.017   3.683  1.00  0.00    -0.200 F 
ATOM     72  C   UNL     1     -12.017   3.104   2.299  1.00  0.00     0.200 A 
ATOM     73  F   UNL     1     -13.553   4.197   0.878  1.00  0.00    -0.200 F 
ATOM     74  F   UNL     1     -13.026   2.555   2.990  1.00  0.00    -0.200 F 
ENDBRANCH  50  64
BRANCH  51  75
ATOM     75  C   UNL     1      -2.545   7.943  -4.739  1.00  0.00     0.064 A 
ATOM     76  C   UNL     1      -1.431   8.582  -4.175  1.00  0.00     0.173 A 
ATOM     77  C   UNL     1      -2.630   7.896  -6.138  1.00  0.00     0.173 A 
ATOM     78  F   UNL     1      -1.323   8.687  -2.842  1.00  0.00    -0.203 F 
ATOM     79  C   UNL     1      -0.452   9.165  -4.978  1.00  0.00     0.198 A 
ATOM     80  C   UNL     1      -1.635   8.453  -6.940  1.00  0.00     0.198 A 
ATOM     81  F   UNL     1      -3.681   7.309  -6.728  1.00  0.00    -0.203 F 
ATOM     82  F   UNL     1       0.574   9.816  -4.413  1.00  0.00    -0.200 F 
ATOM     83  C   UNL     1      -0.551   9.093  -6.359  1.00  0.00     0.200 A 
ATOM     84  F   UNL     1      -1.733   8.378  -8.274  1.00  0.00    -0.200 F 
ATOM     85  F   UNL     1       0.391   9.653  -7.131  1.00  0.00    -0.200 F 
ENDBRANCH  51  75
BRANCH  63  86
ATOM     86  C   UNL     1      -7.252  10.818  -0.475  1.00  0.00     0.064 A 
ATOM     87  C   UNL     1      -7.784  11.763  -1.365  1.00  0.00     0.173 A 
ATOM     88  C   UNL     1      -6.994  11.235   0.841  1.00  0.00     0.173 A 
ATOM     89  F   UNL     1      -8.041  11.423  -2.637  1.00  0.00    -0.203 F 
ATOM     90  C   UNL     1      -8.014  13.078  -0.965  1.00  0.00     0.198 A 
ATOM     91  C   UNL     1      -7.255  12.541   1.247  1.00  0.00     0.198 A 
ATOM     92  F   UNL     1      -6.495  10.371   1.738  1.00  0.00    -0.203 F 
ATOM     93  F   UNL     1      -8.469  13.976  -1.849  1.00  0.00    -0.200 F 
ATOM     94  C   UNL     1      -7.755  13.464   0.342  1.00  0.00     0.200 A 
ATOM     95  F   UNL     1      -7.020  12.907   2.515  1.00  0.00    -0.200 F 
ATOM     96  F   UNL     1      -7.979  14.729   0.726  1.00  0.00    -0.200 F 
ENDBRANCH  63  86
ENDBRANCH  37  38
ENDBRANCH  30  32
ENDBRANCH  29  30
ENDBRANCH  28  29
ENDBRANCH  27  28
ENDBRANCH  26  27
ENDBRANCH  25  26
ENDBRANCH   1  25
TORSDOF 22
