REMARK SMILES COc1ccc(CCN2C(=O)C[C@@H](C(=O)OCCOCCOCCOC(=O)c3ccc(-c4c5nc(c(-c6c(F)c(F)c(F)c(F)c6F)c6ccc([nH]6)c(-c6c(F)c(F)c(F)c(F)c6F)c6nc(c(-c7c(F)c(F)c(F)c(F)c7F)c7ccc4[nH]7)C=C6)C=C5)cc3)S/C2=[NH+]\c2ccc(F)cc2)cc1OC
REMARK SMILES IDX 20 1 19 2 18 3 17 4 16 5 14 6 15 7 13 8 9 9 10 10 92 11
REMARK SMILES IDX 11 12 12 13 91 14 93 15 8 17 7 18 6 19 3 20 4 21 102 22 5 23
REMARK SMILES IDX 101 24 2 25 1 26 103 27 104 28 94 29 95 30 100 31 96 32
REMARK SMILES IDX 99 33 97 34 98 35 21 36 22 37 23 38 24 39 25 40 26 41 27 42
REMARK SMILES IDX 28 43 29 44 90 45 30 46 89 47 31 48 32 49 33 50 83 51 34 52
REMARK SMILES IDX 88 53 82 54 84 55 35 56 87 57 81 58 80 59 36 61 68 62 48 63
REMARK SMILES IDX 67 64 49 65 52 66 66 67 85 68 50 69 51 70 65 72 86 73 53 74
REMARK SMILES IDX 37 75 38 76 46 77 39 78 40 79 44 80 47 81 41 82 42 83 45 84
REMARK SMILES IDX 43 85 69 86 70 87 78 88 71 89 72 90 76 91 79 92 73 93 74 94
REMARK SMILES IDX 77 95 75 96 54 97 55 98 63 99 56 100 57 101 61 102 64 103
REMARK SMILES IDX 58 104 59 105 62 106 60 107
REMARK H PARENT 93 16 84 60 52 71
REMARK Flexibility Score: inf
ROOT
ATOM      1  C   UNL     1      -3.865   6.347  -5.657  1.00  0.00     0.188 C 
ENDROOT
BRANCH   1   2
ATOM      2  O   UNL     1      -4.118   6.867  -6.955  1.00  0.00    -0.376 OA
BRANCH   2   3
ATOM      3  C   UNL     1      -3.026   7.437  -7.676  1.00  0.00     0.202 C 
BRANCH   3   4
ATOM      4  C   UNL     1      -2.195   8.511  -6.960  1.00  0.00     0.261 C 
BRANCH   4   5
ATOM      5  O   UNL     1      -1.576   8.024  -5.750  1.00  0.00    -0.462 OA
BRANCH   5   6
ATOM      6  C   UNL     1      -1.525   8.887  -4.702  1.00  0.00     0.320 C 
ATOM      7  O   UNL     1      -1.866  10.064  -4.776  1.00  0.00    -0.251 OA
BRANCH   6   8
ATOM      8  C   UNL     1      -1.157   8.233  -3.370  1.00  0.00     0.180 C 
ATOM      9  N   UNL     1       0.636   7.455  -1.163  1.00  0.00    -0.191 N 
ATOM     10  C   UNL     1       0.260   8.782  -1.230  1.00  0.00     0.311 C 
ATOM     11  C   UNL     1      -0.088   6.491  -1.812  1.00  0.00     0.319 C 
ATOM     12  O   UNL     1       0.571   9.596  -0.357  1.00  0.00    -0.247 OA
ATOM     13  C   UNL     1      -0.480   9.263  -2.472  1.00  0.00     0.155 C 
ATOM     14  S   UNL     1      -0.084   6.774  -3.514  1.00  0.00    -0.022 SA
ATOM     15  N   UNL     1      -0.728   5.624  -1.115  1.00  0.00    -0.235 N 
ATOM     16  H   UNL     1      -0.691   5.770  -0.142  1.00  0.00     0.313 HD
BRANCH   9  17
ATOM     17  C   UNL     1       1.940   7.117  -0.584  1.00  0.00     0.251 C 
BRANCH  17  18
ATOM     18  C   UNL     1       1.978   6.359   0.752  1.00  0.00     0.082 C 
BRANCH  18  19
ATOM     19  C   UNL     1       1.830   4.857   0.637  1.00  0.00    -0.040 A 
ATOM     20  C   UNL     1       1.397   2.100   0.177  1.00  0.00     0.160 A 
ATOM     21  C   UNL     1       0.420   2.882   0.792  1.00  0.00     0.051 A 
ATOM     22  C   UNL     1       2.645   2.678  -0.106  1.00  0.00     0.160 A 
ATOM     23  C   UNL     1       0.650   4.237   1.053  1.00  0.00     0.008 A 
ATOM     24  C   UNL     1       2.841   4.054   0.090  1.00  0.00     0.054 A 
BRANCH  20  25
ATOM     25  O   UNL     1       1.182   0.817  -0.246  1.00  0.00    -0.493 OA
ATOM     26  C   UNL     1       0.165   0.065   0.397  1.00  0.00     0.278 C 
ENDBRANCH  20  25
BRANCH  22  27
ATOM     27  O   UNL     1       3.738   2.009  -0.604  1.00  0.00    -0.493 OA
ATOM     28  C   UNL     1       3.870   0.656  -0.165  1.00  0.00     0.278 C 
ENDBRANCH  22  27
ENDBRANCH  18  19
ENDBRANCH  17  18
ENDBRANCH   9  17
BRANCH  15  29
ATOM     29  C   UNL     1      -1.469   4.507  -1.510  1.00  0.00     0.125 A 
ATOM     30  C   UNL     1      -2.552   4.151  -0.681  1.00  0.00     0.055 A 
ATOM     31  C   UNL     1      -1.023   3.570  -2.447  1.00  0.00     0.055 A 
ATOM     32  C   UNL     1      -3.139   2.883  -0.749  1.00  0.00     0.043 A 
ATOM     33  C   UNL     1      -1.628   2.307  -2.541  1.00  0.00     0.043 A 
ATOM     34  C   UNL     1      -2.665   1.968  -1.678  1.00  0.00     0.123 A 
ATOM     35  F   UNL     1      -3.215   0.748  -1.740  1.00  0.00    -0.207 F 
ENDBRANCH  15  29
ENDBRANCH   6   8
ENDBRANCH   5   6
ENDBRANCH   4   5
ENDBRANCH   3   4
ENDBRANCH   2   3
ENDBRANCH   1   2
BRANCH   1  36
ATOM     36  C   UNL     1      -2.698   5.368  -5.463  1.00  0.00     0.188 C 
BRANCH  36  37
ATOM     37  O   UNL     1      -1.901   5.128  -6.605  1.00  0.00    -0.376 OA
BRANCH  37  38
ATOM     38  C   UNL     1      -1.801   3.757  -6.978  1.00  0.00     0.202 C 
BRANCH  38  39
ATOM     39  C   UNL     1      -3.110   3.153  -7.516  1.00  0.00     0.261 C 
BRANCH  39  40
ATOM     40  O   UNL     1      -4.242   3.256  -6.625  1.00  0.00    -0.460 OA
BRANCH  40  41
ATOM     41  C   UNL     1      -4.262   2.419  -5.566  1.00  0.00     0.338 C 
ATOM     42  O   UNL     1      -3.444   1.545  -5.305  1.00  0.00    -0.246 OA
BRANCH  41  43
ATOM     43  C   UNL     1      -5.341   2.846  -4.651  1.00  0.00     0.060 A 
ATOM     44  C   UNL     1      -5.014   3.562  -3.494  1.00  0.00     0.016 A 
ATOM     45  C   UNL     1      -6.668   2.506  -4.899  1.00  0.00     0.016 A 
ATOM     46  C   UNL     1      -5.986   3.895  -2.554  1.00  0.00     0.010 A 
ATOM     47  C   UNL     1      -7.649   2.841  -3.956  1.00  0.00     0.010 A 
ATOM     48  C   UNL     1      -7.309   3.504  -2.761  1.00  0.00    -0.014 A 
BRANCH  48  49
ATOM     49  C   UNL     1      -8.300   3.644  -1.667  1.00  0.00     0.031 A 
ATOM     50  C   UNL     1      -8.723   2.412  -0.917  1.00  0.00     0.074 A 
ATOM     51  C   UNL     1      -8.795   4.845  -1.318  1.00  0.00     0.049 A 
ATOM     52  N   UNL     1      -9.687   2.257  -0.045  1.00  0.00    -0.248 NA
ATOM     53  C   UNL     1      -7.952   1.189  -1.189  1.00  0.00     0.031 C 
ATOM     54  C   UNL     1      -8.394   6.127  -1.892  1.00  0.00     0.029 A 
ATOM     55  N   UNL     1      -9.762   5.175  -0.399  1.00  0.00    -0.354 N 
ATOM     56  C   UNL     1      -9.665   0.913   0.303  1.00  0.00     0.074 A 
ATOM     57  C   UNL     1      -8.596   0.295  -0.453  1.00  0.00     0.031 C 
ATOM     58  C   UNL     1      -9.124   7.105  -1.329  1.00  0.00     0.029 A 
ATOM     59  C   UNL     1     -10.082   6.510  -0.399  1.00  0.00     0.049 A 
ATOM     60  H   UNL     1     -10.184   4.518   0.201  1.00  0.00     0.167 HD
ATOM     61  C   UNL     1     -10.469   0.255   1.171  1.00  0.00     0.037 A 
ATOM     62  C   UNL     1     -11.069   7.167   0.242  1.00  0.00     0.037 A 
ATOM     63  C   UNL     1     -11.516   0.879   1.937  1.00  0.00     0.049 A 
ATOM     64  C   UNL     1     -12.011   6.398   1.133  1.00  0.00     0.074 A 
ATOM     65  C   UNL     1     -12.381   0.302   2.849  1.00  0.00     0.029 A 
ATOM     66  N   UNL     1     -11.838   2.227   1.877  1.00  0.00    -0.354 N 
ATOM     67  N   UNL     1     -12.011   5.122   1.436  1.00  0.00    -0.248 NA
ATOM     68  C   UNL     1     -13.099   7.161   1.763  1.00  0.00     0.031 C 
ATOM     69  C   UNL     1     -13.259   1.290   3.305  1.00  0.00     0.029 A 
ATOM     70  C   UNL     1     -12.906   2.495   2.720  1.00  0.00     0.049 A 
ATOM     71  H   UNL     1     -11.377   2.895   1.320  1.00  0.00     0.167 HD
ATOM     72  C   UNL     1     -13.074   4.936   2.312  1.00  0.00     0.074 A 
ATOM     73  C   UNL     1     -13.691   6.232   2.500  1.00  0.00     0.031 C 
ATOM     74  C   UNL     1     -13.500   3.795   2.907  1.00  0.00     0.037 A 
BRANCH  61  75
ATOM     75  C   UNL     1     -10.279  -1.228   1.303  1.00  0.00     0.064 A 
ATOM     76  C   UNL     1      -9.161  -1.781   1.943  1.00  0.00     0.173 A 
ATOM     77  C   UNL     1     -11.249  -2.108   0.798  1.00  0.00     0.173 A 
ATOM     78  F   UNL     1      -8.197  -0.983   2.428  1.00  0.00    -0.203 F 
ATOM     79  C   UNL     1      -9.007  -3.161   2.049  1.00  0.00     0.198 A 
ATOM     80  C   UNL     1     -11.107  -3.486   0.932  1.00  0.00     0.198 A 
ATOM     81  F   UNL     1     -12.339  -1.631   0.179  1.00  0.00    -0.203 F 
ATOM     82  F   UNL     1      -7.907  -3.669   2.621  1.00  0.00    -0.200 F 
ATOM     83  C   UNL     1      -9.983  -4.012   1.550  1.00  0.00     0.200 A 
ATOM     84  F   UNL     1     -12.056  -4.306   0.460  1.00  0.00    -0.200 F 
ATOM     85  F   UNL     1      -9.836  -5.340   1.659  1.00  0.00    -0.200 F 
ENDBRANCH  61  75
BRANCH  62  86
ATOM     86  C   UNL     1     -11.248   8.629   0.036  1.00  0.00     0.064 A 
ATOM     87  C   UNL     1     -11.028   9.538   1.080  1.00  0.00     0.173 A 
ATOM     88  C   UNL     1     -11.671   9.144  -1.198  1.00  0.00     0.173 A 
ATOM     89  F   UNL     1     -10.653   9.091   2.288  1.00  0.00    -0.203 F 
ATOM     90  C   UNL     1     -11.239  10.904   0.902  1.00  0.00     0.198 A 
ATOM     91  C   UNL     1     -11.852  10.513  -1.384  1.00  0.00     0.198 A 
ATOM     92  F   UNL     1     -11.904   8.317  -2.228  1.00  0.00    -0.203 F 
ATOM     93  F   UNL     1     -11.069  11.745   1.931  1.00  0.00    -0.200 F 
ATOM     94  C   UNL     1     -11.644  11.391  -0.332  1.00  0.00     0.200 A 
ATOM     95  F   UNL     1     -12.234  10.979  -2.581  1.00  0.00    -0.200 F 
ATOM     96  F   UNL     1     -11.845  12.705  -0.503  1.00  0.00    -0.200 F 
ENDBRANCH  62  86
BRANCH  74  97
ATOM     97  C   UNL     1     -14.658   3.901   3.857  1.00  0.00     0.064 A 
ATOM     98  C   UNL     1     -15.966   4.130   3.406  1.00  0.00     0.173 A 
ATOM     99  C   UNL     1     -14.460   3.729   5.236  1.00  0.00     0.173 A 
ATOM    100  F   UNL     1     -16.207   4.316   2.100  1.00  0.00    -0.203 F 
ATOM    101  C   UNL     1     -17.029   4.207   4.303  1.00  0.00     0.198 A 
ATOM    102  C   UNL     1     -15.529   3.775   6.126  1.00  0.00     0.198 A 
ATOM    103  F   UNL     1     -13.229   3.500   5.719  1.00  0.00    -0.203 F 
ATOM    104  F   UNL     1     -18.264   4.473   3.854  1.00  0.00    -0.200 F 
ATOM    105  C   UNL     1     -16.811   4.022   5.660  1.00  0.00     0.200 A 
ATOM    106  F   UNL     1     -15.318   3.582   7.436  1.00  0.00    -0.200 F 
ATOM    107  F   UNL     1     -17.837   4.088   6.520  1.00  0.00    -0.200 F 
ENDBRANCH  74  97
ENDBRANCH  48  49
ENDBRANCH  41  43
ENDBRANCH  40  41
ENDBRANCH  39  40
ENDBRANCH  38  39
ENDBRANCH  37  38
ENDBRANCH  36  37
ENDBRANCH   1  36
TORSDOF 23
