REMARK SMILES CO[C@@H]1C[C@@H](C(=O)OCCOCCOCCOC(=O)c2ccc(-c3c4nc(c(-c5c(F)c(F)c(F)c(F)c5F)c5ccc([nH]5)c(-c5c(F)c(F)c(F)c(F)c5F)c5nc(c(-c6c(F)c(F)c(F)c(F)c6F)c6ccc3[nH]6)C=C5)C=C4)cc2)N(C(=O)CSc2cccs2)C1
REMARK SMILES IDX 12 1 11 2 10 3 9 4 8 5 6 6 7 7 5 8 3 9 4 10 93 11 83 12 2 13
REMARK SMILES IDX 1 14 84 15 85 16 86 17 87 18 88 19 89 20 92 21 90 22 91 23
REMARK SMILES IDX 13 24 14 25 15 26 16 27 17 28 18 29 19 30 20 31 21 32 82 33
REMARK SMILES IDX 22 34 81 35 23 36 24 37 25 38 75 39 26 40 80 41 74 42 76 43
REMARK SMILES IDX 27 44 79 45 73 46 72 47 28 49 60 50 40 51 59 52 41 53 44 54
REMARK SMILES IDX 58 55 77 56 42 57 43 58 57 60 78 61 45 62 29 63 30 64 38 65
REMARK SMILES IDX 31 66 32 67 36 68 39 69 33 70 34 71 37 72 35 73 61 74 62 75
REMARK SMILES IDX 70 76 63 77 64 78 68 79 71 80 65 81 66 82 69 83 67 84 46 85
REMARK SMILES IDX 47 86 55 87 48 88 49 89 53 90 56 91 50 92 51 93 54 94 52 95
REMARK H PARENT 76 48 44 59
REMARK Flexibility Score: inf
ROOT
ATOM      1  C   UNL     1       5.349   1.035   4.689  1.00  0.00     0.188 C 
ENDROOT
BRANCH   1   2
ATOM      2  O   UNL     1       6.740   1.153   4.468  1.00  0.00    -0.376 OA
BRANCH   2   3
ATOM      3  C   UNL     1       7.291   0.790   3.216  1.00  0.00     0.202 C 
BRANCH   3   4
ATOM      4  C   UNL     1       6.616   1.340   1.953  1.00  0.00     0.261 C 
BRANCH   4   5
ATOM      5  O   UNL     1       5.300   0.858   1.587  1.00  0.00    -0.462 OA
BRANCH   5   6
ATOM      6  C   UNL     1       4.948  -0.431   1.828  1.00  0.00     0.329 C 
ATOM      7  O   UNL     1       5.665  -1.235   2.404  1.00  0.00    -0.250 OA
BRANCH   6   8
ATOM      8  C   UNL     1       3.552  -0.749   1.275  1.00  0.00     0.197 C 
ATOM      9  C   UNL     1       1.214  -0.146   1.720  1.00  0.00     0.140 C 
ATOM     10  C   UNL     1       2.621   0.420   1.660  1.00  0.00     0.071 C 
ATOM     11  C   UNL     1       1.405  -1.637   1.973  1.00  0.00     0.152 C 
ATOM     12  N   UNL     1       2.827  -1.936   1.785  1.00  0.00    -0.325 N 
BRANCH   9  13
ATOM     13  O   UNL     1       0.405   0.214   0.605  1.00  0.00    -0.380 OA
ATOM     14  C   UNL     1       0.800  -0.249  -0.674  1.00  0.00     0.195 C 
ENDBRANCH   9  13
BRANCH  12  15
ATOM     15  C   UNL     1       3.181  -3.278   1.771  1.00  0.00     0.233 C 
ATOM     16  O   UNL     1       2.300  -4.141   1.900  1.00  0.00    -0.274 OA
BRANCH  15  17
ATOM     17  C   UNL     1       4.627  -3.746   1.794  1.00  0.00     0.175 C 
BRANCH  17  18
ATOM     18  S   UNL     1       5.587  -3.375   0.309  1.00  0.00    -0.105 SA
BRANCH  18  19
ATOM     19  C   UNL     1       4.676  -4.210  -0.915  1.00  0.00     0.060 A 
ATOM     20  C   UNL     1       4.614  -5.573  -1.095  1.00  0.00     0.027 A 
ATOM     21  S   UNL     1       3.781  -3.358  -2.090  1.00  0.00    -0.137 S 
ATOM     22  C   UNL     1       3.822  -5.921  -2.227  1.00  0.00     0.013 A 
ATOM     23  C   UNL     1       3.310  -4.809  -2.859  1.00  0.00     0.066 A 
ENDBRANCH  18  19
ENDBRANCH  17  18
ENDBRANCH  15  17
ENDBRANCH  12  15
ENDBRANCH   6   8
ENDBRANCH   5   6
ENDBRANCH   4   5
ENDBRANCH   3   4
ENDBRANCH   2   3
ENDBRANCH   1   2
BRANCH   1  24
ATOM     24  C   UNL     1       4.575   2.335   4.414  1.00  0.00     0.188 C 
BRANCH  24  25
ATOM     25  O   UNL     1       5.243   3.576   4.610  1.00  0.00    -0.376 OA
BRANCH  25  26
ATOM     26  C   UNL     1       6.146   3.711   5.701  1.00  0.00     0.202 C 
BRANCH  26  27
ATOM     27  C   UNL     1       5.538   3.645   7.104  1.00  0.00     0.261 C 
BRANCH  27  28
ATOM     28  O   UNL     1       5.065   2.330   7.461  1.00  0.00    -0.460 OA
BRANCH  28  29
ATOM     29  C   UNL     1       3.729   2.215   7.648  1.00  0.00     0.338 C 
ATOM     30  O   UNL     1       2.896   3.103   7.577  1.00  0.00    -0.246 OA
BRANCH  29  31
ATOM     31  C   UNL     1       3.344   0.796   7.820  1.00  0.00     0.060 A 
ATOM     32  C   UNL     1       2.314   0.292   7.012  1.00  0.00     0.016 A 
ATOM     33  C   UNL     1       3.897   0.003   8.827  1.00  0.00     0.016 A 
ATOM     34  C   UNL     1       1.792  -0.983   7.248  1.00  0.00     0.010 A 
ATOM     35  C   UNL     1       3.361  -1.268   9.074  1.00  0.00     0.010 A 
ATOM     36  C   UNL     1       2.277  -1.750   8.315  1.00  0.00    -0.014 A 
BRANCH  36  37
ATOM     37  C   UNL     1       1.531  -2.951   8.774  1.00  0.00     0.031 A 
ATOM     38  C   UNL     1       0.536  -2.797   9.894  1.00  0.00     0.074 A 
ATOM     39  C   UNL     1       1.721  -4.160   8.219  1.00  0.00     0.049 A 
ATOM     40  N   UNL     1      -0.166  -3.707  10.521  1.00  0.00    -0.248 NA
ATOM     41  C   UNL     1       0.303  -1.424  10.370  1.00  0.00     0.031 C 
ATOM     42  C   UNL     1       2.599  -4.446   7.089  1.00  0.00     0.029 A 
ATOM     43  N   UNL     1       1.184  -5.382   8.549  1.00  0.00    -0.354 N 
ATOM     44  C   UNL     1      -0.913  -3.021  11.470  1.00  0.00     0.074 A 
ATOM     45  C   UNL     1      -0.565  -1.621  11.351  1.00  0.00     0.031 C 
ATOM     46  C   UNL     1       2.552  -5.764   6.825  1.00  0.00     0.029 A 
ATOM     47  C   UNL     1       1.670  -6.419   7.793  1.00  0.00     0.049 A 
ATOM     48  H   UNL     1       0.514  -5.502   9.261  1.00  0.00     0.167 HD
ATOM     49  C   UNL     1      -1.809  -3.510  12.361  1.00  0.00     0.037 A 
ATOM     50  C   UNL     1       1.449  -7.745   7.889  1.00  0.00     0.037 A 
ATOM     51  C   UNL     1      -2.160  -4.899  12.488  1.00  0.00     0.049 A 
ATOM     52  C   UNL     1       0.529  -8.277   8.960  1.00  0.00     0.074 A 
ATOM     53  C   UNL     1      -3.076  -5.484  13.346  1.00  0.00     0.029 A 
ATOM     54  N   UNL     1      -1.601  -5.925  11.742  1.00  0.00    -0.354 N 
ATOM     55  N   UNL     1      -0.186  -7.623   9.843  1.00  0.00    -0.248 NA
ATOM     56  C   UNL     1       0.393  -9.740   9.049  1.00  0.00     0.031 C 
ATOM     57  C   UNL     1      -3.034  -6.870  13.155  1.00  0.00     0.029 A 
ATOM     58  C   UNL     1      -2.128  -7.143  12.143  1.00  0.00     0.049 A 
ATOM     59  H   UNL     1      -0.929  -5.806  11.033  1.00  0.00     0.167 HD
ATOM     60  C   UNL     1      -0.881  -8.587  10.564  1.00  0.00     0.074 A 
ATOM     61  C   UNL     1      -0.504  -9.873  10.017  1.00  0.00     0.031 C 
ATOM     62  C   UNL     1      -1.757  -8.418  11.585  1.00  0.00     0.037 A 
BRANCH  49  63
ATOM     63  C   UNL     1      -2.446  -2.528  13.300  1.00  0.00     0.064 A 
ATOM     64  C   UNL     1      -3.406  -1.604  12.862  1.00  0.00     0.173 A 
ATOM     65  C   UNL     1      -2.096  -2.521  14.658  1.00  0.00     0.173 A 
ATOM     66  F   UNL     1      -3.763  -1.562  11.570  1.00  0.00    -0.203 F 
ATOM     67  C   UNL     1      -3.969  -0.686  13.745  1.00  0.00     0.198 A 
ATOM     68  C   UNL     1      -2.681  -1.620  15.543  1.00  0.00     0.198 A 
ATOM     69  F   UNL     1      -1.186  -3.387  15.127  1.00  0.00    -0.203 F 
ATOM     70  F   UNL     1      -4.845   0.223  13.296  1.00  0.00    -0.200 F 
ATOM     71  C   UNL     1      -3.610  -0.697  15.085  1.00  0.00     0.200 A 
ATOM     72  F   UNL     1      -2.340  -1.638  16.839  1.00  0.00    -0.200 F 
ATOM     73  F   UNL     1      -4.151   0.188  15.933  1.00  0.00    -0.200 F 
ENDBRANCH  49  63
BRANCH  50  74
ATOM     74  C   UNL     1       2.121  -8.681   6.951  1.00  0.00     0.064 A 
ATOM     75  C   UNL     1       1.385  -9.382   5.985  1.00  0.00     0.173 A 
ATOM     76  C   UNL     1       3.501  -8.920   7.022  1.00  0.00     0.173 A 
ATOM     77  F   UNL     1       0.056  -9.215   5.906  1.00  0.00    -0.203 F 
ATOM     78  C   UNL     1       2.002 -10.296   5.134  1.00  0.00     0.198 A 
ATOM     79  C   UNL     1       4.121  -9.816   6.153  1.00  0.00     0.198 A 
ATOM     80  F   UNL     1       4.247  -8.286   7.938  1.00  0.00    -0.203 F 
ATOM     81  F   UNL     1       1.268 -10.988   4.252  1.00  0.00    -0.200 F 
ATOM     82  C   UNL     1       3.370 -10.507   5.214  1.00  0.00     0.200 A 
ATOM     83  F   UNL     1       5.443 -10.016   6.232  1.00  0.00    -0.200 F 
ATOM     84  F   UNL     1       3.963 -11.388   4.396  1.00  0.00    -0.200 F 
ENDBRANCH  50  74
BRANCH  62  85
ATOM     85  C   UNL     1      -2.410  -9.647  12.151  1.00  0.00     0.064 A 
ATOM     86  C   UNL     1      -1.706 -10.553  12.957  1.00  0.00     0.173 A 
ATOM     87  C   UNL     1      -3.772  -9.896  11.921  1.00  0.00     0.173 A 
ATOM     88  F   UNL     1      -0.399 -10.369  13.196  1.00  0.00    -0.203 F 
ATOM     89  C   UNL     1      -2.336 -11.673  13.495  1.00  0.00     0.198 A 
ATOM     90  C   UNL     1      -4.406 -11.002  12.482  1.00  0.00     0.198 A 
ATOM     91  F   UNL     1      -4.494  -9.057  11.162  1.00  0.00    -0.203 F 
ATOM     92  F   UNL     1      -1.634 -12.547  14.229  1.00  0.00    -0.200 F 
ATOM     93  C   UNL     1      -3.686 -11.893  13.263  1.00  0.00     0.200 A 
ATOM     94  F   UNL     1      -5.713 -11.204  12.267  1.00  0.00    -0.200 F 
ATOM     95  F   UNL     1      -4.292 -12.966  13.788  1.00  0.00    -0.200 F 
ENDBRANCH  62  85
ENDBRANCH  36  37
ENDBRANCH  29  31
ENDBRANCH  28  29
ENDBRANCH  27  28
ENDBRANCH  26  27
ENDBRANCH  25  26
ENDBRANCH  24  25
ENDBRANCH   1  24
TORSDOF 22
