REMARK SMILES Cc1cc(Br)cc2c1O[C@H](C(F)(F)F)C(C(=O)OCCOCCOCCOC(=O)c1ccc(-c3c4nc(c(-c5c(F)c(F)c(F)c(F)c5F)c5ccc([nH]5)c(-c5c(F)c(F)c(F)c(F)c5F)c5nc(c(-c6c(F)c(F)c(F)c(F)c6F)c6ccc3[nH]6)C=C5)C=C4)cc1)=C2
REMARK SMILES IDX 23 1 22 2 21 3 20 4 19 5 18 6 16 7 17 8 15 9 1 10 2 11 3 12
REMARK SMILES IDX 8 13 4 14 7 15 9 16 5 17 6 18 93 19 10 20 11 21 12 22 13 23
REMARK SMILES IDX 14 24 24 25 25 26 26 27 27 28 28 29 29 30 30 31 31 32 92 33
REMARK SMILES IDX 32 34 91 35 33 36 34 37 35 38 85 39 36 40 90 41 84 42 86 43
REMARK SMILES IDX 37 44 89 45 83 46 82 47 38 49 70 50 50 51 69 52 51 53 54 54
REMARK SMILES IDX 68 55 87 56 52 57 53 58 67 60 88 61 55 62 39 63 40 64 48 65
REMARK SMILES IDX 41 66 42 67 46 68 49 69 43 70 44 71 47 72 45 73 71 74 72 75
REMARK SMILES IDX 80 76 73 77 74 78 78 79 81 80 75 81 76 82 79 83 77 84 56 85
REMARK SMILES IDX 57 86 65 87 58 88 59 89 63 90 66 91 60 92 61 93 64 94 62 95
REMARK H PARENT 86 48 54 59
REMARK Flexibility Score: inf
ROOT
ATOM      1  C   UNL     1       0.835  -4.599   5.503  1.00  0.00     0.188 C 
ENDROOT
BRANCH   1   2
ATOM      2  C   UNL     1      -0.289  -4.478   6.553  1.00  0.00     0.188 C 
BRANCH   2   3
ATOM      3  O   UNL     1      -0.885  -5.638   7.088  1.00  0.00    -0.376 OA
BRANCH   3   4
ATOM      4  C   UNL     1      -1.611  -6.536   6.266  1.00  0.00     0.202 C 
BRANCH   4   5
ATOM      5  C   UNL     1      -2.347  -6.129   4.979  1.00  0.00     0.261 C 
BRANCH   5   6
ATOM      6  O   UNL     1      -1.734  -5.103   4.191  1.00  0.00    -0.460 OA
BRANCH   6   7
ATOM      7  C   UNL     1      -2.402  -3.925   4.158  1.00  0.00     0.338 C 
ATOM      8  O   UNL     1      -3.458  -3.667   4.710  1.00  0.00    -0.246 OA
BRANCH   7   9
ATOM      9  C   UNL     1      -1.576  -2.908   3.477  1.00  0.00     0.087 C 
ATOM     10  C   UNL     1       0.960  -0.061   0.034  1.00  0.00     0.048 C 
ATOM     11  C   UNL     1       0.397   0.139   1.413  1.00  0.00    -0.007 A 
ATOM     12  C   UNL     1       0.453   1.420   1.986  1.00  0.00     0.023 A 
ATOM     13  C   UNL     1      -0.176  -0.913   2.147  1.00  0.00     0.130 A 
ATOM     14  C   UNL     1      -0.063   1.644   3.260  1.00  0.00     0.019 A 
ATOM     15  C   UNL     1      -0.737  -0.669   3.406  1.00  0.00     0.019 A 
ATOM     16  O   UNL     1      -0.153  -2.154   1.575  1.00  0.00    -0.475 OA
ATOM     17  Br  UNL     1       0.009   3.377   4.013  1.00  0.00    -0.051 Br
ATOM     18  C   UNL     1      -0.659   0.608   3.974  1.00  0.00     0.027 A 
ATOM     19  C   UNL     1      -1.466  -1.722   4.090  1.00  0.00     0.027 C 
ATOM     20  C   UNL     1      -0.912  -3.239   2.170  1.00  0.00     0.316 C 
BRANCH  20  21
ATOM     21  C   UNL     1      -1.909  -3.756   1.125  1.00  0.00     0.430 C 
ATOM     22  F   UNL     1      -1.300  -3.995  -0.061  1.00  0.00    -0.167 F 
ATOM     23  F   UNL     1      -2.480  -4.922   1.510  1.00  0.00    -0.167 F 
ATOM     24  F   UNL     1      -2.907  -2.872   0.900  1.00  0.00    -0.167 F 
ENDBRANCH  20  21
ENDBRANCH   7   9
ENDBRANCH   6   7
ENDBRANCH   5   6
ENDBRANCH   4   5
ENDBRANCH   3   4
ENDBRANCH   2   3
ENDBRANCH   1   2
BRANCH   1  25
ATOM     25  O   UNL     1       1.166  -5.864   4.981  1.00  0.00    -0.376 OA
BRANCH  25  26
ATOM     26  C   UNL     1       1.773  -6.837   5.816  1.00  0.00     0.202 C 
BRANCH  26  27
ATOM     27  C   UNL     1       2.592  -6.524   7.085  1.00  0.00     0.261 C 
BRANCH  27  28
ATOM     28  O   UNL     1       2.240  -5.352   7.830  1.00  0.00    -0.460 OA
BRANCH  28  29
ATOM     29  C   UNL     1       3.143  -4.336   7.787  1.00  0.00     0.338 C 
ATOM     30  O   UNL     1       4.199  -4.307   7.189  1.00  0.00    -0.246 OA
BRANCH  29  31
ATOM     31  C   UNL     1       2.545  -3.149   8.433  1.00  0.00     0.060 A 
ATOM     32  C   UNL     1       2.199  -2.050   7.634  1.00  0.00     0.016 A 
ATOM     33  C   UNL     1       2.333  -3.118   9.811  1.00  0.00     0.016 A 
ATOM     34  C   UNL     1       1.629  -0.918   8.213  1.00  0.00     0.010 A 
ATOM     35  C   UNL     1       1.790  -1.969  10.394  1.00  0.00     0.010 A 
ATOM     36  C   UNL     1       1.450  -0.858   9.601  1.00  0.00    -0.014 A 
BRANCH  36  37
ATOM     37  C   UNL     1       1.064   0.430  10.228  1.00  0.00     0.031 A 
ATOM     38  C   UNL     1       2.146   1.312  10.784  1.00  0.00     0.074 A 
ATOM     39  C   UNL     1      -0.218   0.834  10.261  1.00  0.00     0.049 A 
ATOM     40  N   UNL     1       2.051   2.488  11.350  1.00  0.00    -0.248 NA
ATOM     41  C   UNL     1       3.523   0.801  10.686  1.00  0.00     0.031 C 
ATOM     42  C   UNL     1      -1.352   0.086   9.723  1.00  0.00     0.029 A 
ATOM     43  N   UNL     1      -0.781   1.981  10.767  1.00  0.00    -0.354 N 
ATOM     44  C   UNL     1       3.351   2.861  11.662  1.00  0.00     0.074 A 
ATOM     45  C   UNL     1       4.214   1.769  11.270  1.00  0.00     0.031 C 
ATOM     46  C   UNL     1      -2.476   0.796   9.923  1.00  0.00     0.029 A 
ATOM     47  C   UNL     1      -2.146   2.036  10.626  1.00  0.00     0.049 A 
ATOM     48  H   UNL     1      -0.254   2.697  11.191  1.00  0.00     0.167 HD
ATOM     49  C   UNL     1       3.787   4.019  12.208  1.00  0.00     0.037 A 
ATOM     50  C   UNL     1      -3.026   2.977  11.026  1.00  0.00     0.037 A 
ATOM     51  C   UNL     1       2.928   5.102  12.604  1.00  0.00     0.049 A 
ATOM     52  C   UNL     1      -2.524   4.218  11.722  1.00  0.00     0.074 A 
ATOM     53  C   UNL     1       3.281   6.319  13.158  1.00  0.00     0.029 A 
ATOM     54  N   UNL     1       1.545   5.095  12.496  1.00  0.00    -0.354 N 
ATOM     55  N   UNL     1      -1.290   4.580  11.979  1.00  0.00    -0.248 NA
ATOM     56  C   UNL     1      -3.534   5.184  12.182  1.00  0.00     0.031 C 
ATOM     57  C   UNL     1       2.110   7.024  13.443  1.00  0.00     0.029 A 
ATOM     58  C   UNL     1       1.029   6.275  13.004  1.00  0.00     0.049 A 
ATOM     59  H   UNL     1       1.011   4.361  12.115  1.00  0.00     0.167 HD
ATOM     60  C   UNL     1      -1.373   5.822  12.596  1.00  0.00     0.074 A 
ATOM     61  C   UNL     1      -2.779   6.159  12.672  1.00  0.00     0.031 C 
ATOM     62  C   UNL     1      -0.372   6.611  13.056  1.00  0.00     0.037 A 
BRANCH  49  63
ATOM     63  C   UNL     1       5.264   4.183  12.415  1.00  0.00     0.064 A 
ATOM     64  C   UNL     1       6.139   4.362  11.334  1.00  0.00     0.173 A 
ATOM     65  C   UNL     1       5.800   4.237  13.711  1.00  0.00     0.173 A 
ATOM     66  F   UNL     1       5.677   4.306  10.075  1.00  0.00    -0.203 F 
ATOM     67  C   UNL     1       7.499   4.574  11.541  1.00  0.00     0.198 A 
ATOM     68  C   UNL     1       7.155   4.482  13.915  1.00  0.00     0.198 A 
ATOM     69  F   UNL     1       5.005   4.078  14.780  1.00  0.00    -0.203 F 
ATOM     70  F   UNL     1       8.322   4.708  10.491  1.00  0.00    -0.200 F 
ATOM     71  C   UNL     1       8.004   4.646  12.831  1.00  0.00     0.200 A 
ATOM     72  F   UNL     1       7.638   4.568  15.162  1.00  0.00    -0.200 F 
ATOM     73  F   UNL     1       9.309   4.872  13.028  1.00  0.00    -0.200 F 
ENDBRANCH  49  63
BRANCH  50  74
ATOM     74  C   UNL     1      -4.479   2.790  10.761  1.00  0.00     0.064 A 
ATOM     75  C   UNL     1      -5.158   3.617   9.855  1.00  0.00     0.173 A 
ATOM     76  C   UNL     1      -5.216   1.783  11.402  1.00  0.00     0.173 A 
ATOM     77  F   UNL     1      -4.505   4.612   9.238  1.00  0.00    -0.203 F 
ATOM     78  C   UNL     1      -6.519   3.447   9.605  1.00  0.00     0.198 A 
ATOM     79  C   UNL     1      -6.570   1.596  11.129  1.00  0.00     0.198 A 
ATOM     80  F   UNL     1      -4.617   0.969  12.283  1.00  0.00    -0.203 F 
ATOM     81  F   UNL     1      -7.152   4.276   8.763  1.00  0.00    -0.200 F 
ATOM     82  C   UNL     1      -7.222   2.432  10.235  1.00  0.00     0.200 A 
ATOM     83  F   UNL     1      -7.242   0.606  11.733  1.00  0.00    -0.200 F 
ATOM     84  F   UNL     1      -8.528   2.262   9.986  1.00  0.00    -0.200 F 
ENDBRANCH  50  74
BRANCH  62  85
ATOM     85  C   UNL     1      -0.727   7.940  13.661  1.00  0.00     0.064 A 
ATOM     86  C   UNL     1      -1.300   8.035  14.936  1.00  0.00     0.173 A 
ATOM     87  C   UNL     1      -0.360   9.132  13.015  1.00  0.00     0.173 A 
ATOM     88  F   UNL     1      -1.677   6.926  15.591  1.00  0.00    -0.203 F 
ATOM     89  C   UNL     1      -1.489   9.273  15.545  1.00  0.00     0.198 A 
ATOM     90  C   UNL     1      -0.522  10.365  13.639  1.00  0.00     0.198 A 
ATOM     91  F   UNL     1       0.203   9.095  11.798  1.00  0.00    -0.203 F 
ATOM     92  F   UNL     1      -2.051   9.342  16.760  1.00  0.00    -0.200 F 
ATOM     93  C   UNL     1      -1.086  10.435  14.903  1.00  0.00     0.200 A 
ATOM     94  F   UNL     1      -0.111  11.484  13.026  1.00  0.00    -0.200 F 
ATOM     95  F   UNL     1      -1.235  11.623  15.507  1.00  0.00    -0.200 F 
ENDBRANCH  62  85
ENDBRANCH  36  37
ENDBRANCH  29  31
ENDBRANCH  28  29
ENDBRANCH  27  28
ENDBRANCH  26  27
ENDBRANCH  25  26
ENDBRANCH   1  25
TORSDOF 18
