REMARK SMILES CSCC[C@H](NC(=O)Cc1c(C)c2ccc(O)cc2oc1=O)C(=O)OCCOCCOCCOC(=O)c1ccc(-c2c3nc(c(-c4c(F)c(F)c(F)c(F)c4F)c4ccc([nH]4)c(-c4c(F)c(F)c(F)c(F)c4F)c4nc(c(-c5c(F)c(F)c(F)c(F)c5F)c5ccc2[nH]5)C=C4)C=C3)cc1
REMARK SMILES IDX 29 1 28 2 27 3 26 4 25 5 23 6 24 7 5 8 4 9 3 10 2 11 1 12
REMARK SMILES IDX 6 13 7 14 8 16 9 17 10 18 11 19 21 20 12 21 13 22 20 23
REMARK SMILES IDX 22 24 14 25 19 26 15 27 18 28 16 29 17 30 30 32 31 33 32 34
REMARK SMILES IDX 33 35 34 36 35 37 36 38 37 39 38 40 99 41 39 42 98 43 40 44
REMARK SMILES IDX 41 45 42 46 92 47 43 48 97 49 91 50 93 51 44 52 96 53 90 54
REMARK SMILES IDX 89 55 45 57 77 58 57 59 76 60 58 61 61 62 75 63 94 64 59 65
REMARK SMILES IDX 60 66 74 68 95 69 62 70 46 71 47 72 55 73 48 74 49 75 53 76
REMARK SMILES IDX 56 77 50 78 51 79 54 80 52 81 78 82 79 83 87 84 80 85 81 86
REMARK SMILES IDX 85 87 88 88 82 89 83 90 86 91 84 92 63 93 64 94 72 95 65 96
REMARK SMILES IDX 66 97 70 98 73 99 67 100 68 101 71 102 69 103
REMARK H PARENT 6 15 17 31 93 56 61 67
REMARK Flexibility Score: inf
ROOT
ATOM      1  C   UNL     1      -1.768   3.522   4.493  1.00  0.00     0.188 C 
ENDROOT
BRANCH   1   2
ATOM      2  O   UNL     1      -1.152   3.875   5.728  1.00  0.00    -0.376 OA
BRANCH   2   3
ATOM      3  C   UNL     1       0.069   4.609   5.650  1.00  0.00     0.202 C 
BRANCH   3   4
ATOM      4  C   UNL     1       1.234   3.810   5.062  1.00  0.00     0.261 C 
BRANCH   4   5
ATOM      5  O   UNL     1       1.135   3.695   3.623  1.00  0.00    -0.462 OA
BRANCH   5   6
ATOM      6  C   UNL     1       1.821   2.648   3.094  1.00  0.00     0.328 C 
ATOM      7  O   UNL     1       2.440   1.826   3.765  1.00  0.00    -0.250 OA
BRANCH   6   8
ATOM      8  C   UNL     1       1.770   2.568   1.552  1.00  0.00     0.193 C 
BRANCH   8   9
ATOM      9  C   UNL     1       3.216   2.674   1.038  1.00  0.00     0.048 C 
BRANCH   9  10
ATOM     10  C   UNL     1       3.374   2.229  -0.418  1.00  0.00     0.072 C 
BRANCH  10  11
ATOM     11  S   UNL     1       3.731   3.618  -1.545  1.00  0.00    -0.165 SA
ATOM     12  C   UNL     1       2.114   3.849  -2.333  1.00  0.00     0.085 C 
ENDBRANCH  10  11
ENDBRANCH   9  10
ENDBRANCH   8   9
BRANCH   8  13
ATOM     13  N   UNL     1       0.925   3.518   0.832  1.00  0.00    -0.342 N 
ATOM     14  C   UNL     1      -0.257   3.335   0.180  1.00  0.00     0.225 C 
ATOM     15  H   UNL     1       1.266   4.442   0.816  1.00  0.00     0.164 HD
ATOM     16  O   UNL     1      -0.602   4.213  -0.614  1.00  0.00    -0.275 OA
BRANCH  14  17
ATOM     17  C   UNL     1      -1.226   2.226   0.569  1.00  0.00     0.143 C 
BRANCH  17  18
ATOM     18  C   UNL     1      -1.001   0.759   0.292  1.00  0.00     0.051 A 
ATOM     19  C   UNL     1      -0.717  -0.170   1.235  1.00  0.00    -0.029 A 
ATOM     20  C   UNL     1      -1.372   0.340  -1.091  1.00  0.00     0.340 A 
ATOM     21  C   UNL     1      -0.449   0.134   2.684  1.00  0.00     0.046 C 
ATOM     22  C   UNL     1      -0.770  -1.602   0.889  1.00  0.00     0.021 A 
ATOM     23  O   UNL     1      -1.667  -1.002  -1.288  1.00  0.00    -0.422 OA
ATOM     24  O   UNL     1      -1.491   1.159  -1.994  1.00  0.00    -0.246 OA
ATOM     25  C   UNL     1      -0.366  -2.626   1.762  1.00  0.00     0.016 A 
ATOM     26  C   UNL     1      -1.329  -1.971  -0.329  1.00  0.00     0.142 A 
ATOM     27  C   UNL     1      -0.551  -3.972   1.431  1.00  0.00     0.047 A 
ATOM     28  C   UNL     1      -1.554  -3.307  -0.662  1.00  0.00     0.094 A 
ATOM     29  C   UNL     1      -1.161  -4.300   0.227  1.00  0.00     0.119 A 
BRANCH  29  30
ATOM     30  O   UNL     1      -1.378  -5.596  -0.129  1.00  0.00    -0.508 OA
ATOM     31  H   UNL     1      -1.125  -6.289   0.449  1.00  0.00     0.293 HD
ENDBRANCH  29  30
ENDBRANCH  17  18
ENDBRANCH  14  17
ENDBRANCH   8  13
ENDBRANCH   6   8
ENDBRANCH   5   6
ENDBRANCH   4   5
ENDBRANCH   3   4
ENDBRANCH   2   3
ENDBRANCH   1   2
BRANCH   1  32
ATOM     32  C   UNL     1      -1.858   4.618   3.426  1.00  0.00     0.188 C 
BRANCH  32  33
ATOM     33  O   UNL     1      -2.416   5.811   3.964  1.00  0.00    -0.376 OA
BRANCH  33  34
ATOM     34  C   UNL     1      -3.550   6.281   3.239  1.00  0.00     0.202 C 
BRANCH  34  35
ATOM     35  C   UNL     1      -4.831   5.647   3.780  1.00  0.00     0.261 C 
BRANCH  35  36
ATOM     36  O   UNL     1      -4.888   4.224   3.542  1.00  0.00    -0.460 OA
BRANCH  36  37
ATOM     37  C   UNL     1      -5.443   3.859   2.368  1.00  0.00     0.338 C 
ATOM     38  O   UNL     1      -5.812   4.594   1.464  1.00  0.00    -0.246 OA
BRANCH  37  39
ATOM     39  C   UNL     1      -5.566   2.393   2.317  1.00  0.00     0.060 A 
ATOM     40  C   UNL     1      -4.448   1.612   2.034  1.00  0.00     0.016 A 
ATOM     41  C   UNL     1      -6.822   1.800   2.412  1.00  0.00     0.016 A 
ATOM     42  C   UNL     1      -4.590   0.251   1.747  1.00  0.00     0.010 A 
ATOM     43  C   UNL     1      -6.954   0.423   2.193  1.00  0.00     0.010 A 
ATOM     44  C   UNL     1      -5.848  -0.361   1.806  1.00  0.00    -0.014 A 
BRANCH  44  45
ATOM     45  C   UNL     1      -6.058  -1.763   1.331  1.00  0.00     0.031 A 
ATOM     46  C   UNL     1      -7.009  -2.008   0.185  1.00  0.00     0.074 A 
ATOM     47  C   UNL     1      -5.410  -2.820   1.859  1.00  0.00     0.049 A 
ATOM     48  N   UNL     1      -7.584  -3.119  -0.202  1.00  0.00    -0.248 NA
ATOM     49  C   UNL     1      -7.369  -0.833  -0.625  1.00  0.00     0.031 C 
ATOM     50  C   UNL     1      -4.374  -2.764   2.887  1.00  0.00     0.029 A 
ATOM     51  N   UNL     1      -5.533  -4.164   1.587  1.00  0.00    -0.354 N 
ATOM     52  C   UNL     1      -8.437  -2.761  -1.238  1.00  0.00     0.074 A 
ATOM     53  C   UNL     1      -8.283  -1.336  -1.441  1.00  0.00     0.031 C 
ATOM     54  C   UNL     1      -3.928  -4.009   3.130  1.00  0.00     0.029 A 
ATOM     55  C   UNL     1      -4.709  -4.961   2.344  1.00  0.00     0.049 A 
ATOM     56  H   UNL     1      -6.154  -4.521   0.911  1.00  0.00     0.167 HD
ATOM     57  C   UNL     1      -9.285  -3.547  -1.943  1.00  0.00     0.037 A 
ATOM     58  C   UNL     1      -4.625  -6.304   2.430  1.00  0.00     0.037 A 
ATOM     59  C   UNL     1      -9.381  -4.975  -1.798  1.00  0.00     0.049 A 
ATOM     60  C   UNL     1      -5.591  -7.164   1.651  1.00  0.00     0.074 A 
ATOM     61  C   UNL     1     -10.252  -5.854  -2.420  1.00  0.00     0.029 A 
ATOM     62  N   UNL     1      -8.543  -5.740  -1.003  1.00  0.00    -0.354 N 
ATOM     63  N   UNL     1      -6.517  -6.809   0.796  1.00  0.00    -0.248 NA
ATOM     64  C   UNL     1      -5.524  -8.616   1.888  1.00  0.00     0.031 C 
ATOM     65  C   UNL     1      -9.951  -7.150  -1.988  1.00  0.00     0.029 A 
ATOM     66  C   UNL     1      -8.871  -7.080  -1.123  1.00  0.00     0.049 A 
ATOM     67  H   UNL     1      -7.822  -5.383  -0.436  1.00  0.00     0.167 HD
ATOM     68  C   UNL     1      -7.136  -7.986   0.390  1.00  0.00     0.074 A 
ATOM     69  C   UNL     1      -6.463  -9.071   1.070  1.00  0.00     0.031 C 
ATOM     70  C   UNL     1      -8.182  -8.152  -0.456  1.00  0.00     0.037 A 
BRANCH  57  71
ATOM     71  C   UNL     1     -10.226  -2.871  -2.894  1.00  0.00     0.064 A 
ATOM     72  C   UNL     1      -9.805  -2.368  -4.131  1.00  0.00     0.173 A 
ATOM     73  C   UNL     1     -11.586  -2.755  -2.563  1.00  0.00     0.173 A 
ATOM     74  F   UNL     1      -8.513  -2.438  -4.484  1.00  0.00    -0.203 F 
ATOM     75  C   UNL     1     -10.708  -1.753  -4.996  1.00  0.00     0.198 A 
ATOM     76  C   UNL     1     -12.490  -2.165  -3.440  1.00  0.00     0.198 A 
ATOM     77  F   UNL     1     -12.039  -3.226  -1.391  1.00  0.00    -0.203 F 
ATOM     78  F   UNL     1     -10.279  -1.240  -6.157  1.00  0.00    -0.200 F 
ATOM     79  C   UNL     1     -12.050  -1.659  -4.653  1.00  0.00     0.200 A 
ATOM     80  F   UNL     1     -13.787  -2.086  -3.111  1.00  0.00    -0.200 F 
ATOM     81  F   UNL     1     -12.918  -1.073  -5.490  1.00  0.00    -0.200 F 
ENDBRANCH  57  71
BRANCH  58  82
ATOM     82  C   UNL     1      -3.628  -6.942   3.332  1.00  0.00     0.064 A 
ATOM     83  C   UNL     1      -2.574  -7.705   2.809  1.00  0.00     0.173 A 
ATOM     84  C   UNL     1      -3.725  -6.841   4.727  1.00  0.00     0.173 A 
ATOM     85  F   UNL     1      -2.436  -7.841   1.482  1.00  0.00    -0.203 F 
ATOM     86  C   UNL     1      -1.673  -8.360   3.645  1.00  0.00     0.198 A 
ATOM     87  C   UNL     1      -2.802  -7.467   5.562  1.00  0.00     0.198 A 
ATOM     88  F   UNL     1      -4.713  -6.123   5.282  1.00  0.00    -0.203 F 
ATOM     89  F   UNL     1      -0.702  -9.116   3.115  1.00  0.00    -0.200 F 
ATOM     90  C   UNL     1      -1.783  -8.236   5.021  1.00  0.00     0.200 A 
ATOM     91  F   UNL     1      -2.899  -7.325   6.891  1.00  0.00    -0.200 F 
ATOM     92  F   UNL     1      -0.908  -8.857   5.824  1.00  0.00    -0.200 F 
ENDBRANCH  58  82
BRANCH  70  93
ATOM     93  C   UNL     1      -8.650  -9.553  -0.717  1.00  0.00     0.064 A 
ATOM     94  C   UNL     1      -9.388 -10.267   0.238  1.00  0.00     0.173 A 
ATOM     95  C   UNL     1      -8.404 -10.167  -1.953  1.00  0.00     0.173 A 
ATOM     96  F   UNL     1      -9.637  -9.726   1.441  1.00  0.00    -0.203 F 
ATOM     97  C   UNL     1      -9.847 -11.554  -0.029  1.00  0.00     0.198 A 
ATOM     98  C   UNL     1      -8.884 -11.446  -2.225  1.00  0.00     0.198 A 
ATOM     99  F   UNL     1      -7.707  -9.523  -2.902  1.00  0.00    -0.203 F 
ATOM    100  F   UNL     1     -10.520 -12.232   0.911  1.00  0.00    -0.200 F 
ATOM    101  C   UNL     1      -9.601 -12.139  -1.262  1.00  0.00     0.200 A 
ATOM    102  F   UNL     1      -8.652 -12.008  -3.420  1.00  0.00    -0.200 F 
ATOM    103  F   UNL     1     -10.049 -13.376  -1.519  1.00  0.00    -0.200 F 
ENDBRANCH  70  93
ENDBRANCH  44  45
ENDBRANCH  37  39
ENDBRANCH  36  37
ENDBRANCH  35  36
ENDBRANCH  34  35
ENDBRANCH  33  34
ENDBRANCH  32  33
ENDBRANCH   1  32
TORSDOF 24
