REMARK SMILES Nc1nc(CC(=O)NC2(CC(=O)OCCOCCOCCOC(=O)c3ccc(-c4c5nc(c(-c6c(F)c(F)c(F)c(F)c6F)c6ccc([nH]6)c(-c6c(F)c(F)c(F)c(F)c6F)c6nc(c(-c7c(F)c(F)c(F)c(F)c7F)c7ccc4[nH]7)C=C6)C=C5)cc3)CCC2)cs1
REMARK SMILES IDX 16 1 15 2 14 3 13 4 11 5 12 6 10 7 9 8 88 9 90 10 89 11 8 12
REMARK SMILES IDX 6 13 7 14 5 16 4 17 2 18 3 19 92 20 91 21 1 22 17 25 18 26
REMARK SMILES IDX 19 27 20 28 21 29 22 30 23 31 24 32 25 33 26 34 87 35 27 36
REMARK SMILES IDX 86 37 28 38 29 39 30 40 80 41 31 42 85 43 79 44 81 45 32 46
REMARK SMILES IDX 84 47 78 48 77 49 33 51 65 52 45 53 64 54 46 55 49 56 63 57
REMARK SMILES IDX 82 58 47 59 48 60 62 62 83 63 50 64 34 65 35 66 43 67 36 68
REMARK SMILES IDX 37 69 41 70 44 71 38 72 39 73 42 74 40 75 66 76 67 77 75 78
REMARK SMILES IDX 68 79 69 80 73 81 76 82 70 83 71 84 74 85 72 86 51 87 52 88
REMARK SMILES IDX 60 89 53 90 54 91 58 92 61 93 55 94 56 95 59 96 57 97
REMARK H PARENT 8 15 1 23 1 24 81 50 49 61
REMARK Flexibility Score: inf
ROOT
ATOM      1  O   UNL     1      -3.063  -6.253  -0.246  1.00  0.00    -0.376 OA
ENDROOT
BRANCH   1   2
ATOM      2  C   UNL     1      -1.874  -6.947   0.123  1.00  0.00     0.202 C 
BRANCH   2   3
ATOM      3  C   UNL     1      -0.576  -6.231  -0.243  1.00  0.00     0.261 C 
BRANCH   3   4
ATOM      4  O   UNL     1      -0.295  -5.153   0.673  1.00  0.00    -0.463 OA
BRANCH   4   5
ATOM      5  C   UNL     1       0.528  -4.201   0.173  1.00  0.00     0.308 C 
ATOM      6  O   UNL     1       0.993  -4.226  -0.962  1.00  0.00    -0.252 OA
BRANCH   5   7
ATOM      7  C   UNL     1       0.914  -3.142   1.165  1.00  0.00     0.151 C 
BRANCH   7   8
ATOM      8  C   UNL     1      -0.053  -2.667   2.250  1.00  0.00     0.050 C 
ATOM      9  C   UNL     1       0.572  -1.594   3.213  1.00  0.00     0.029 C 
ATOM     10  C   UNL     1      -0.089  -3.601   3.518  1.00  0.00     0.029 C 
ATOM     11  C   UNL     1       1.022  -2.739   4.139  1.00  0.00     0.005 C 
BRANCH   8  12
ATOM     12  N   UNL     1      -1.430  -2.266   1.859  1.00  0.00    -0.350 N 
ATOM     13  C   UNL     1      -2.040  -1.742   0.764  1.00  0.00     0.226 C 
ATOM     14  O   UNL     1      -3.258  -1.562   0.858  1.00  0.00    -0.275 OA
ATOM     15  H   UNL     1      -2.071  -2.423   2.589  1.00  0.00     0.164 HD
BRANCH  13  16
ATOM     16  C   UNL     1      -1.353  -1.414  -0.529  1.00  0.00     0.157 C 
BRANCH  16  17
ATOM     17  C   UNL     1      -0.563  -0.168  -0.408  1.00  0.00     0.063 A 
ATOM     18  C   UNL     1       1.374   0.886  -0.285  1.00  0.00     0.180 A 
ATOM     19  N   UNL     1       0.808  -0.269  -0.511  1.00  0.00    -0.225 NA
ATOM     20  S   UNL     1       0.293   2.191  -0.032  1.00  0.00    -0.106 S 
ATOM     21  C   UNL     1      -1.033   1.114  -0.191  1.00  0.00     0.093 A 
BRANCH  18  22
ATOM     22  N   UNL     1       2.700   1.023  -0.236  1.00  0.00    -0.375 N 
ATOM     23  H   UNL     1       3.281   0.243  -0.388  1.00  0.00     0.159 HD
ATOM     24  H   UNL     1       3.097   1.903  -0.046  1.00  0.00     0.159 HD
ENDBRANCH  18  22
ENDBRANCH  16  17
ENDBRANCH  13  16
ENDBRANCH   8  12
ENDBRANCH   7   8
ENDBRANCH   5   7
ENDBRANCH   4   5
ENDBRANCH   3   4
ENDBRANCH   2   3
ENDBRANCH   1   2
BRANCH   1  25
ATOM     25  C   UNL     1      -3.328  -5.012   0.400  1.00  0.00     0.188 C 
BRANCH  25  26
ATOM     26  C   UNL     1      -3.130  -4.941   1.923  1.00  0.00     0.188 C 
BRANCH  26  27
ATOM     27  O   UNL     1      -3.471  -6.064   2.722  1.00  0.00    -0.376 OA
BRANCH  27  28
ATOM     28  C   UNL     1      -4.697  -6.718   2.438  1.00  0.00     0.202 C 
BRANCH  28  29
ATOM     29  C   UNL     1      -5.947  -5.975   2.900  1.00  0.00     0.261 C 
BRANCH  29  30
ATOM     30  O   UNL     1      -6.166  -4.752   2.174  1.00  0.00    -0.460 OA
BRANCH  30  31
ATOM     31  C   UNL     1      -6.103  -3.609   2.899  1.00  0.00     0.338 C 
ATOM     32  O   UNL     1      -5.825  -3.512   4.089  1.00  0.00    -0.246 OA
BRANCH  31  33
ATOM     33  C   UNL     1      -6.327  -2.430   2.033  1.00  0.00     0.060 A 
ATOM     34  C   UNL     1      -5.705  -1.225   2.383  1.00  0.00     0.016 A 
ATOM     35  C   UNL     1      -7.140  -2.487   0.895  1.00  0.00     0.016 A 
ATOM     36  C   UNL     1      -5.853  -0.094   1.577  1.00  0.00     0.010 A 
ATOM     37  C   UNL     1      -7.319  -1.343   0.109  1.00  0.00     0.010 A 
ATOM     38  C   UNL     1      -6.670  -0.143   0.440  1.00  0.00    -0.014 A 
BRANCH  38  39
ATOM     39  C   UNL     1      -6.935   1.089  -0.341  1.00  0.00     0.031 A 
ATOM     40  C   UNL     1      -7.926   2.084   0.186  1.00  0.00     0.074 A 
ATOM     41  C   UNL     1      -6.308   1.318  -1.509  1.00  0.00     0.049 A 
ATOM     42  N   UNL     1      -8.344   3.204  -0.347  1.00  0.00    -0.248 NA
ATOM     43  C   UNL     1      -8.519   1.781   1.498  1.00  0.00     0.031 C 
ATOM     44  C   UNL     1      -5.275   0.466  -2.095  1.00  0.00     0.029 A 
ATOM     45  N   UNL     1      -6.462   2.336  -2.419  1.00  0.00    -0.354 N 
ATOM     46  C   UNL     1      -9.227   3.750   0.573  1.00  0.00     0.074 A 
ATOM     47  C   UNL     1      -9.302   2.831   1.689  1.00  0.00     0.031 C 
ATOM     48  C   UNL     1      -4.908   0.981  -3.282  1.00  0.00     0.029 A 
ATOM     49  C   UNL     1      -5.702   2.181  -3.552  1.00  0.00     0.049 A 
ATOM     50  H   UNL     1      -7.060   3.104  -2.272  1.00  0.00     0.167 HD
ATOM     51  C   UNL     1      -9.920   4.910   0.493  1.00  0.00     0.037 A 
ATOM     52  C   UNL     1      -5.679   2.908  -4.688  1.00  0.00     0.037 A 
ATOM     53  C   UNL     1      -9.903   5.789  -0.644  1.00  0.00     0.049 A 
ATOM     54  C   UNL     1      -6.585   4.108  -4.819  1.00  0.00     0.074 A 
ATOM     55  C   UNL     1     -10.586   6.978  -0.826  1.00  0.00     0.029 A 
ATOM     56  N   UNL     1      -9.188   5.554  -1.809  1.00  0.00    -0.354 N 
ATOM     57  N   UNL     1      -7.391   4.641  -3.932  1.00  0.00    -0.248 NA
ATOM     58  C   UNL     1      -6.589   4.800  -6.117  1.00  0.00     0.031 C 
ATOM     59  C   UNL     1     -10.335   7.429  -2.127  1.00  0.00     0.029 A 
ATOM     60  C   UNL     1      -9.453   6.550  -2.734  1.00  0.00     0.049 A 
ATOM     61  H   UNL     1      -8.583   4.792  -1.956  1.00  0.00     0.167 HD
ATOM     62  C   UNL     1      -7.982   5.734  -4.555  1.00  0.00     0.074 A 
ATOM     63  C   UNL     1      -7.429   5.801  -5.891  1.00  0.00     0.031 C 
ATOM     64  C   UNL     1      -8.901   6.601  -4.065  1.00  0.00     0.037 A 
BRANCH  51  65
ATOM     65  C   UNL     1     -10.798   5.254   1.657  1.00  0.00     0.064 A 
ATOM     66  C   UNL     1     -10.261   5.672   2.884  1.00  0.00     0.173 A 
ATOM     67  C   UNL     1     -12.193   5.153   1.548  1.00  0.00     0.173 A 
ATOM     68  F   UNL     1      -8.931   5.765   3.042  1.00  0.00    -0.203 F 
ATOM     69  C   UNL     1     -11.088   5.947   3.969  1.00  0.00     0.198 A 
ATOM     70  C   UNL     1     -13.017   5.453   2.628  1.00  0.00     0.198 A 
ATOM     71  F   UNL     1     -12.754   4.756   0.397  1.00  0.00    -0.203 F 
ATOM     72  F   UNL     1     -10.551   6.293   5.148  1.00  0.00    -0.200 F 
ATOM     73  C   UNL     1     -12.464   5.841   3.840  1.00  0.00     0.200 A 
ATOM     74  F   UNL     1     -14.348   5.356   2.500  1.00  0.00    -0.200 F 
ATOM     75  F   UNL     1     -13.259   6.099   4.887  1.00  0.00    -0.200 F 
ENDBRANCH  51  65
BRANCH  52  76
ATOM     76  C   UNL     1      -4.800   2.506  -5.819  1.00  0.00     0.064 A 
ATOM     77  C   UNL     1      -3.724   3.310  -6.220  1.00  0.00     0.173 A 
ATOM     78  C   UNL     1      -5.046   1.335  -6.551  1.00  0.00     0.173 A 
ATOM     79  F   UNL     1      -3.471   4.459  -5.576  1.00  0.00    -0.203 F 
ATOM     80  C   UNL     1      -2.939   2.967  -7.319  1.00  0.00     0.198 A 
ATOM     81  C   UNL     1      -4.243   0.978  -7.633  1.00  0.00     0.198 A 
ATOM     82  F   UNL     1      -6.072   0.538  -6.220  1.00  0.00    -0.203 F 
ATOM     83  F   UNL     1      -1.950   3.781  -7.714  1.00  0.00    -0.200 F 
ATOM     84  C   UNL     1      -3.195   1.798  -8.021  1.00  0.00     0.200 A 
ATOM     85  F   UNL     1      -4.494  -0.152  -8.307  1.00  0.00    -0.200 F 
ATOM     86  F   UNL     1      -2.443   1.472  -9.081  1.00  0.00    -0.200 F 
ENDBRANCH  52  76
BRANCH  64  87
ATOM     87  C   UNL     1      -9.371   7.705  -4.970  1.00  0.00     0.064 A 
ATOM     88  C   UNL     1     -10.234   7.451  -6.046  1.00  0.00     0.173 A 
ATOM     89  C   UNL     1      -9.013   9.037  -4.716  1.00  0.00     0.173 A 
ATOM     90  F   UNL     1     -10.594   6.192  -6.340  1.00  0.00    -0.203 F 
ATOM     91  C   UNL     1     -10.711   8.489  -6.842  1.00  0.00     0.198 A 
ATOM     92  C   UNL     1      -9.514  10.076  -5.496  1.00  0.00     0.198 A 
ATOM     93  F   UNL     1      -8.195   9.335  -3.695  1.00  0.00    -0.203 F 
ATOM     94  F   UNL     1     -11.508   8.220  -7.885  1.00  0.00    -0.200 F 
ATOM     95  C   UNL     1     -10.360   9.801  -6.560  1.00  0.00     0.200 A 
ATOM     96  F   UNL     1      -9.186  11.344  -5.213  1.00  0.00    -0.200 F 
ATOM     97  F   UNL     1     -10.834  10.801  -7.316  1.00  0.00    -0.200 F 
ENDBRANCH  64  87
ENDBRANCH  38  39
ENDBRANCH  31  33
ENDBRANCH  30  31
ENDBRANCH  29  30
ENDBRANCH  28  29
ENDBRANCH  27  28
ENDBRANCH  26  27
ENDBRANCH  25  26
ENDBRANCH   1  25
TORSDOF 22
