REMARK SMILES O=C(NC1(C(=O)OCCOCCOCCOC(=O)c2ccc(-c3c4nc(c(-c5c(F)c(F)c(F)c(F)c5F)c5ccc([nH]5)c(-c5c(F)c(F)c(F)c(F)c5F)c5nc(c(-c6c(F)c(F)c(F)c(F)c6F)c6ccc3[nH]6)C=C5)C=C4)cc2)CC[NH2+]CC1)OCC1c2ccccc2-c2ccccc21
REMARK SMILES IDX 11 1 10 2 9 3 8 4 7 5 5 6 6 7 4 8 82 9 86 10 83 11 85 12
REMARK SMILES IDX 84 13 3 16 1 17 2 18 87 20 88 21 89 22 90 23 101 24 91 25
REMARK SMILES IDX 95 26 96 27 100 28 92 29 94 30 97 31 99 32 93 33 98 34 12 35
REMARK SMILES IDX 13 36 14 37 15 38 16 39 17 40 18 41 19 42 20 43 81 44 21 45
REMARK SMILES IDX 80 46 22 47 23 48 24 49 74 50 25 51 79 52 73 53 75 54 26 55
REMARK SMILES IDX 78 56 72 57 71 58 27 60 59 61 39 62 58 63 40 64 43 65 57 66
REMARK SMILES IDX 76 67 41 68 42 69 56 71 77 72 44 73 28 74 29 75 37 76 30 77
REMARK SMILES IDX 31 78 35 79 38 80 32 81 33 82 36 83 34 84 60 85 61 86 69 87
REMARK SMILES IDX 62 88 63 89 67 90 70 91 64 92 65 93 68 94 66 95 45 96 46 97
REMARK SMILES IDX 54 98 47 99 48 100 52 101 55 102 49 103 50 104 53 105 51 106
REMARK H PARENT 84 14 84 15 3 19 75 59 43 70
REMARK Flexibility Score: inf
ROOT
ATOM      1  C   UNL     1       4.228  -2.171  -2.530  1.00  0.00     0.188 C 
ENDROOT
BRANCH   1   2
ATOM      2  O   UNL     1       4.706  -1.467  -3.669  1.00  0.00    -0.376 OA
BRANCH   2   3
ATOM      3  C   UNL     1       5.275  -0.175  -3.477  1.00  0.00     0.202 C 
BRANCH   3   4
ATOM      4  C   UNL     1       4.301   1.020  -3.103  1.00  0.00     0.261 C 
BRANCH   4   5
ATOM      5  O   UNL     1       4.191   1.263  -1.652  1.00  0.00    -0.461 OA
BRANCH   5   6
ATOM      6  C   UNL     1       3.508   2.273  -1.025  1.00  0.00     0.332 C 
ATOM      7  O   UNL     1       2.708   2.974  -1.648  1.00  0.00    -0.249 OA
BRANCH   6   8
ATOM      8  C   UNL     1       3.695   2.415   0.704  1.00  0.00     0.151 C 
ATOM      9  C   UNL     1       4.672   1.899   1.832  1.00  0.00     0.102 C 
ATOM     10  C   UNL     1       3.591   3.935   1.021  1.00  0.00     0.102 C 
ATOM     11  C   UNL     1       4.319   2.320   3.257  1.00  0.00     0.263 C 
ATOM     12  C   UNL     1       3.494   4.381   2.486  1.00  0.00     0.263 C 
ATOM     13  N   UNL     1       4.487   3.747   3.341  1.00  0.00    -0.346 N 
ATOM     14  H   UNL     1       5.424   4.001   3.027  1.00  0.00     0.346 HD
ATOM     15  H   UNL     1       4.367   4.056   4.305  1.00  0.00     0.346 HD
BRANCH   8  16
ATOM     16  N   UNL     1       2.578   1.546   0.890  1.00  0.00    -0.305 N 
ATOM     17  O   UNL     1       1.788  -0.512   0.463  1.00  0.00    -0.225 OA
ATOM     18  C   UNL     1       2.774   0.233   0.523  1.00  0.00     0.408 C 
ATOM     19  H   UNL     1       1.722   1.865   1.258  1.00  0.00     0.168 HD
BRANCH  18  20
ATOM     20  O   UNL     1       4.029  -0.202   0.142  1.00  0.00    -0.449 OA
BRANCH  20  21
ATOM     21  C   UNL     1       5.542   0.188   0.143  1.00  0.00     0.248 C 
BRANCH  21  22
ATOM     22  C   UNL     1       6.521   1.266  -0.601  1.00  0.00     0.088 C 
ATOM     23  C   UNL     1       7.978   0.769  -0.452  1.00  0.00    -0.029 A 
ATOM     24  C   UNL     1       6.747   2.756  -1.047  1.00  0.00    -0.029 A 
ATOM     25  C   UNL     1       8.440  -0.478  -0.044  1.00  0.00     0.005 A 
ATOM     26  C   UNL     1       8.846   1.706  -1.032  1.00  0.00    -0.014 A 
ATOM     27  C   UNL     1       8.100   2.866  -1.461  1.00  0.00    -0.014 A 
ATOM     28  C   UNL     1       5.912   3.792  -1.466  1.00  0.00     0.005 A 
ATOM     29  C   UNL     1       9.784  -0.779  -0.228  1.00  0.00     0.000 A 
ATOM     30  C   UNL     1      10.185   1.410  -1.204  1.00  0.00     0.009 A 
ATOM     31  C   UNL     1       8.543   3.878  -2.320  1.00  0.00     0.009 A 
ATOM     32  C   UNL     1       6.344   4.813  -2.327  1.00  0.00     0.000 A 
ATOM     33  C   UNL     1      10.650   0.157  -0.805  1.00  0.00     0.001 A 
ATOM     34  C   UNL     1       7.650   4.839  -2.779  1.00  0.00     0.001 A 
ENDBRANCH  21  22
ENDBRANCH  20  21
ENDBRANCH  18  20
ENDBRANCH   8  16
ENDBRANCH   6   8
ENDBRANCH   5   6
ENDBRANCH   4   5
ENDBRANCH   3   4
ENDBRANCH   2   3
ENDBRANCH   1   2
BRANCH   1  35
ATOM     35  C   UNL     1       5.213  -2.797  -1.519  1.00  0.00     0.188 C 
BRANCH  35  36
ATOM     36  O   UNL     1       6.468  -3.272  -1.954  1.00  0.00    -0.376 OA
BRANCH  36  37
ATOM     37  C   UNL     1       6.439  -4.501  -2.677  1.00  0.00     0.202 C 
BRANCH  37  38
ATOM     38  C   UNL     1       5.783  -5.697  -1.955  1.00  0.00     0.261 C 
BRANCH  38  39
ATOM     39  O   UNL     1       4.337  -5.582  -1.955  1.00  0.00    -0.460 OA
BRANCH  39  40
ATOM     40  C   UNL     1       3.733  -5.569  -0.730  1.00  0.00     0.338 C 
ATOM     41  O   UNL     1       4.245  -5.805   0.341  1.00  0.00    -0.246 OA
BRANCH  40  42
ATOM     42  C   UNL     1       2.396  -4.930  -0.866  1.00  0.00     0.060 A 
ATOM     43  C   UNL     1       2.067  -3.861  -0.017  1.00  0.00     0.016 A 
ATOM     44  C   UNL     1       1.471  -5.387  -1.802  1.00  0.00     0.016 A 
ATOM     45  C   UNL     1       0.791  -3.290  -0.066  1.00  0.00     0.010 A 
ATOM     46  C   UNL     1       0.194  -4.818  -1.842  1.00  0.00     0.010 A 
ATOM     47  C   UNL     1      -0.165  -3.788  -0.953  1.00  0.00    -0.014 A 
BRANCH  47  48
ATOM     48  C   UNL     1      -1.601  -3.451  -0.780  1.00  0.00     0.031 A 
ATOM     49  C   UNL     1      -2.429  -4.395   0.046  1.00  0.00     0.074 A 
ATOM     50  C   UNL     1      -2.175  -2.376  -1.347  1.00  0.00     0.049 A 
ATOM     51  N   UNL     1      -3.728  -4.489   0.164  1.00  0.00    -0.248 NA
ATOM     52  C   UNL     1      -1.677  -5.381   0.839  1.00  0.00     0.031 C 
ATOM     53  C   UNL     1      -1.477  -1.321  -2.074  1.00  0.00     0.029 A 
ATOM     54  N   UNL     1      -3.501  -2.017  -1.417  1.00  0.00    -0.354 N 
ATOM     55  C   UNL     1      -3.947  -5.559   1.021  1.00  0.00     0.074 A 
ATOM     56  C   UNL     1      -2.652  -6.092   1.381  1.00  0.00     0.031 C 
ATOM     57  C   UNL     1      -2.386  -0.455  -2.559  1.00  0.00     0.029 A 
ATOM     58  C   UNL     1      -3.729  -0.922  -2.216  1.00  0.00     0.049 A 
ATOM     59  H   UNL     1      -4.217  -2.498  -0.942  1.00  0.00     0.167 HD
ATOM     60  C   UNL     1      -5.125  -6.058   1.463  1.00  0.00     0.037 A 
ATOM     61  C   UNL     1      -4.891  -0.395  -2.654  1.00  0.00     0.037 A 
ATOM     62  C   UNL     1      -6.410  -5.529   1.095  1.00  0.00     0.049 A 
ATOM     63  C   UNL     1      -6.199  -1.032  -2.239  1.00  0.00     0.074 A 
ATOM     64  C   UNL     1      -7.665  -5.974   1.466  1.00  0.00     0.029 A 
ATOM     65  N   UNL     1      -6.601  -4.436   0.262  1.00  0.00    -0.354 N 
ATOM     66  N   UNL     1      -6.410  -2.064  -1.458  1.00  0.00    -0.248 NA
ATOM     67  C   UNL     1      -7.431  -0.431  -2.773  1.00  0.00     0.031 C 
ATOM     68  C   UNL     1      -8.617  -5.184   0.814  1.00  0.00     0.029 A 
ATOM     69  C   UNL     1      -7.955  -4.205   0.090  1.00  0.00     0.049 A 
ATOM     70  H   UNL     1      -5.880  -3.904  -0.146  1.00  0.00     0.167 HD
ATOM     71  C   UNL     1      -7.791  -2.214  -1.381  1.00  0.00     0.074 A 
ATOM     72  C   UNL     1      -8.369  -1.160  -2.186  1.00  0.00     0.031 C 
ATOM     73  C   UNL     1      -8.515  -3.140  -0.704  1.00  0.00     0.037 A 
BRANCH  60  74
ATOM     74  C   UNL     1      -5.067  -7.268   2.348  1.00  0.00     0.064 A 
ATOM     75  C   UNL     1      -4.574  -7.204   3.660  1.00  0.00     0.173 A 
ATOM     76  C   UNL     1      -5.507  -8.512   1.872  1.00  0.00     0.173 A 
ATOM     77  F   UNL     1      -4.120  -6.043   4.157  1.00  0.00    -0.203 F 
ATOM     78  C   UNL     1      -4.492  -8.348   4.450  1.00  0.00     0.198 A 
ATOM     79  C   UNL     1      -5.457  -9.646   2.677  1.00  0.00     0.198 A 
ATOM     80  F   UNL     1      -5.986  -8.628   0.625  1.00  0.00    -0.203 F 
ATOM     81  F   UNL     1      -3.961  -8.276   5.678  1.00  0.00    -0.200 F 
ATOM     82  C   UNL     1      -4.940  -9.566   3.961  1.00  0.00     0.200 A 
ATOM     83  F   UNL     1      -5.901 -10.820   2.205  1.00  0.00    -0.200 F 
ATOM     84  F   UNL     1      -4.863 -10.666   4.723  1.00  0.00    -0.200 F 
ENDBRANCH  60  74
BRANCH  61  85
ATOM     85  C   UNL     1      -4.885   0.776  -3.575  1.00  0.00     0.064 A 
ATOM     86  C   UNL     1      -5.405   2.016  -3.176  1.00  0.00     0.173 A 
ATOM     87  C   UNL     1      -4.399   0.669  -4.888  1.00  0.00     0.173 A 
ATOM     88  F   UNL     1      -5.917   2.162  -1.945  1.00  0.00    -0.203 F 
ATOM     89  C   UNL     1      -5.457   3.095  -4.058  1.00  0.00     0.198 A 
ATOM     90  C   UNL     1      -4.422   1.758  -5.758  1.00  0.00     0.198 A 
ATOM     91  F   UNL     1      -3.905  -0.497  -5.329  1.00  0.00    -0.203 F 
ATOM     92  F   UNL     1      -6.014   4.250  -3.668  1.00  0.00    -0.200 F 
ATOM     93  C   UNL     1      -4.960   2.967  -5.346  1.00  0.00     0.200 A 
ATOM     94  F   UNL     1      -3.936   1.631  -7.000  1.00  0.00    -0.200 F 
ATOM     95  F   UNL     1      -5.011   4.004  -6.193  1.00  0.00    -0.200 F 
ENDBRANCH  61  85
BRANCH  73  96
ATOM     96  C   UNL     1     -10.014  -3.029  -0.754  1.00  0.00     0.064 A 
ATOM     97  C   UNL     1     -10.741  -3.325  -1.916  1.00  0.00     0.173 A 
ATOM     98  C   UNL     1     -10.734  -2.675   0.398  1.00  0.00     0.173 A 
ATOM     99  F   UNL     1     -10.102  -3.658  -3.047  1.00  0.00    -0.203 F 
ATOM    100  C   UNL     1     -12.132  -3.247  -1.929  1.00  0.00     0.198 A 
ATOM    101  C   UNL     1     -12.126  -2.631   0.390  1.00  0.00     0.198 A 
ATOM    102  F   UNL     1     -10.089  -2.392   1.540  1.00  0.00    -0.203 F 
ATOM    103  F   UNL     1     -12.804  -3.489  -3.063  1.00  0.00    -0.200 F 
ATOM    104  C   UNL     1     -12.823  -2.908  -0.775  1.00  0.00     0.200 A 
ATOM    105  F   UNL     1     -12.791  -2.322   1.512  1.00  0.00    -0.200 F 
ATOM    106  F   UNL     1     -14.162  -2.845  -0.787  1.00  0.00    -0.200 F 
ENDBRANCH  73  96
ENDBRANCH  47  48
ENDBRANCH  40  42
ENDBRANCH  39  40
ENDBRANCH  38  39
ENDBRANCH  37  38
ENDBRANCH  36  37
ENDBRANCH  35  36
ENDBRANCH   1  35
TORSDOF 21
