REMARK SMILES O=C(CSc1nnnn1C1CC1)N[C@H](CO)C(=O)OCCOCCOCCOC(=O)c1ccc(-c2c3nc(c(-c4c(F)c(F)c(F)c(F)c4F)c4ccc([nH]4)c(-c4c(F)c(F)c(F)c(F)c4F)c4nc(c(-c5c(F)c(F)c(F)c(F)c5F)c5ccc2[nH]5)C=C4)C=C3)cc1
REMARK SMILES IDX 22 1 21 2 20 3 19 4 17 5 18 6 14 7 13 8 1 9 2 10 3 12 4 13
REMARK SMILES IDX 5 14 6 15 9 16 7 17 8 18 10 19 11 20 12 21 15 22 16 23 23 25
REMARK SMILES IDX 24 26 25 27 26 28 27 29 28 30 29 31 30 32 31 33 32 34 93 35
REMARK SMILES IDX 33 36 92 37 34 38 35 39 36 40 86 41 37 42 91 43 85 44 87 45
REMARK SMILES IDX 38 46 90 47 84 48 83 49 39 51 71 52 51 53 70 54 52 55 55 56
REMARK SMILES IDX 69 57 88 58 53 59 54 60 68 62 89 63 56 64 40 65 41 66 49 67
REMARK SMILES IDX 42 68 43 69 47 70 50 71 44 72 45 73 48 74 46 75 72 76 73 77
REMARK SMILES IDX 81 78 74 79 75 80 79 81 82 82 76 83 77 84 80 85 78 86 57 87
REMARK SMILES IDX 58 88 66 89 59 90 60 91 64 92 67 93 61 94 62 95 65 96 63 97
REMARK H PARENT 13 11 16 24 87 50 55 61
REMARK Flexibility Score: inf
ROOT
ATOM      1  O   UNL     1       2.022   4.786  -3.065  1.00  0.00    -0.376 OA
ENDROOT
BRANCH   1   2
ATOM      2  C   UNL     1       3.253   5.320  -2.571  1.00  0.00     0.202 C 
BRANCH   2   3
ATOM      3  C   UNL     1       3.428   5.362  -1.039  1.00  0.00     0.261 C 
BRANCH   3   4
ATOM      4  O   UNL     1       3.387   4.071  -0.370  1.00  0.00    -0.462 OA
BRANCH   4   5
ATOM      5  C   UNL     1       2.525   3.922   0.666  1.00  0.00     0.331 C 
ATOM      6  O   UNL     1       1.830   4.835   1.109  1.00  0.00    -0.250 OA
BRANCH   5   7
ATOM      7  C   UNL     1       2.529   2.535   1.339  1.00  0.00     0.218 C 
BRANCH   7   8
ATOM      8  N   UNL     1       2.758   2.824   2.770  1.00  0.00    -0.340 N 
ATOM      9  O   UNL     1       2.941   0.676   3.516  1.00  0.00    -0.274 OA
ATOM     10  C   UNL     1       2.977   1.881   3.743  1.00  0.00     0.231 C 
ATOM     11  H   UNL     1       2.753   3.769   3.047  1.00  0.00     0.164 HD
BRANCH  10  12
ATOM     12  C   UNL     1       3.274   2.444   5.123  1.00  0.00     0.178 C 
BRANCH  12  13
ATOM     13  S   UNL     1       4.740   3.527   5.121  1.00  0.00    -0.075 SA
BRANCH  13  14
ATOM     14  C   UNL     1       5.919   2.509   4.371  1.00  0.00     0.210 A 
ATOM     15  N   UNL     1       6.408   1.417   4.914  1.00  0.00    -0.102 NA
ATOM     16  N   UNL     1       6.398   2.609   3.084  1.00  0.00    -0.217 N 
ATOM     17  N   UNL     1       7.171   0.820   3.942  1.00  0.00    -0.023 NA
ATOM     18  N   UNL     1       7.134   1.513   2.812  1.00  0.00    -0.044 NA
BRANCH  16  19
ATOM     19  C   UNL     1       6.183   3.600   2.050  1.00  0.00     0.112 C 
ATOM     20  C   UNL     1       5.384   4.880   2.150  1.00  0.00     0.029 C 
ATOM     21  C   UNL     1       6.871   4.949   2.083  1.00  0.00     0.029 C 
ENDBRANCH  16  19
ENDBRANCH  13  14
ENDBRANCH  12  13
ENDBRANCH  10  12
ENDBRANCH   7   8
BRANCH   7  22
ATOM     22  C   UNL     1       3.484   1.477   0.769  1.00  0.00     0.193 C 
BRANCH  22  23
ATOM     23  O   UNL     1       2.934   0.165   0.937  1.00  0.00    -0.394 OA
ATOM     24  H   UNL     1       2.803  -0.012   1.882  1.00  0.00     0.210 HD
ENDBRANCH  22  23
ENDBRANCH   7  22
ENDBRANCH   5   7
ENDBRANCH   4   5
ENDBRANCH   3   4
ENDBRANCH   2   3
ENDBRANCH   1   2
BRANCH   1  25
ATOM     25  C   UNL     1       1.621   3.520  -2.541  1.00  0.00     0.188 C 
BRANCH  25  26
ATOM     26  C   UNL     1       2.633   2.376  -2.729  1.00  0.00     0.188 C 
BRANCH  26  27
ATOM     27  O   UNL     1       3.973   2.791  -2.500  1.00  0.00    -0.376 OA
BRANCH  27  28
ATOM     28  C   UNL     1       5.081   2.042  -2.979  1.00  0.00     0.202 C 
BRANCH  28  29
ATOM     29  C   UNL     1       5.271   2.021  -4.499  1.00  0.00     0.261 C 
BRANCH  29  30
ATOM     30  O   UNL     1       4.144   1.541  -5.213  1.00  0.00    -0.460 OA
BRANCH  30  31
ATOM     31  C   UNL     1       3.635   0.354  -4.831  1.00  0.00     0.338 C 
ATOM     32  O   UNL     1       4.137  -0.469  -4.085  1.00  0.00    -0.246 OA
BRANCH  31  33
ATOM     33  C   UNL     1       2.301   0.249  -5.440  1.00  0.00     0.060 A 
ATOM     34  C   UNL     1       1.590  -0.932  -5.237  1.00  0.00     0.016 A 
ATOM     35  C   UNL     1       1.844   1.259  -6.308  1.00  0.00     0.016 A 
ATOM     36  C   UNL     1       0.598  -1.240  -6.135  1.00  0.00     0.010 A 
ATOM     37  C   UNL     1       0.867   0.952  -7.210  1.00  0.00     0.010 A 
ATOM     38  C   UNL     1       0.368  -0.344  -7.181  1.00  0.00    -0.014 A 
BRANCH  38  39
ATOM     39  C   UNL     1      -0.226  -0.863  -8.386  1.00  0.00     0.031 A 
ATOM     40  C   UNL     1      -1.692  -0.832  -8.420  1.00  0.00     0.074 A 
ATOM     41  C   UNL     1       0.578  -1.235  -9.400  1.00  0.00     0.049 A 
ATOM     42  N   UNL     1      -2.489  -1.843  -8.490  1.00  0.00    -0.248 NA
ATOM     43  C   UNL     1      -2.361   0.462  -8.220  1.00  0.00     0.031 C 
ATOM     44  C   UNL     1       2.028  -1.039  -9.526  1.00  0.00     0.029 A 
ATOM     45  N   UNL     1       0.240  -1.772 -10.598  1.00  0.00    -0.354 N 
ATOM     46  C   UNL     1      -3.765  -1.303  -8.527  1.00  0.00     0.074 A 
ATOM     47  C   UNL     1      -3.639   0.088  -8.179  1.00  0.00     0.031 C 
ATOM     48  C   UNL     1       2.391  -1.238 -10.812  1.00  0.00     0.029 A 
ATOM     49  C   UNL     1       1.227  -1.666 -11.566  1.00  0.00     0.049 A 
ATOM     50  H   UNL     1      -0.630  -2.200 -10.766  1.00  0.00     0.167 HD
ATOM     51  C   UNL     1      -4.793  -1.986  -9.093  1.00  0.00     0.037 A 
ATOM     52  C   UNL     1       1.037  -1.810 -12.900  1.00  0.00     0.037 A 
ATOM     53  C   UNL     1      -4.493  -3.388  -9.224  1.00  0.00     0.049 A 
ATOM     54  C   UNL     1      -0.241  -2.558 -13.082  1.00  0.00     0.074 A 
ATOM     55  C   UNL     1      -4.163  -4.383  -8.322  1.00  0.00     0.029 A 
ATOM     56  N   UNL     1      -4.126  -3.866 -10.459  1.00  0.00    -0.354 N 
ATOM     57  N   UNL     1      -0.397  -3.814 -12.760  1.00  0.00    -0.248 NA
ATOM     58  C   UNL     1      -1.476  -1.786 -13.171  1.00  0.00     0.031 C 
ATOM     59  C   UNL     1      -3.199  -5.189  -8.992  1.00  0.00     0.029 A 
ATOM     60  C   UNL     1      -3.032  -4.674 -10.277  1.00  0.00     0.049 A 
ATOM     61  H   UNL     1      -4.567  -3.665 -11.316  1.00  0.00     0.167 HD
ATOM     62  C   UNL     1      -1.666  -3.885 -12.200  1.00  0.00     0.074 A 
ATOM     63  C   UNL     1      -2.317  -2.630 -12.565  1.00  0.00     0.031 C 
ATOM     64  C   UNL     1      -1.964  -4.811 -11.241  1.00  0.00     0.037 A 
BRANCH  51  65
ATOM     65  C   UNL     1      -5.908  -1.316  -9.840  1.00  0.00     0.064 A 
ATOM     66  C   UNL     1      -7.055  -2.057 -10.172  1.00  0.00     0.173 A 
ATOM     67  C   UNL     1      -5.776  -0.064 -10.481  1.00  0.00     0.173 A 
ATOM     68  F   UNL     1      -7.256  -3.274  -9.643  1.00  0.00    -0.203 F 
ATOM     69  C   UNL     1      -7.972  -1.601 -11.120  1.00  0.00     0.198 A 
ATOM     70  C   UNL     1      -6.724   0.416 -11.378  1.00  0.00     0.198 A 
ATOM     71  F   UNL     1      -4.676   0.689 -10.354  1.00  0.00    -0.203 F 
ATOM     72  F   UNL     1      -8.985  -2.391 -11.497  1.00  0.00    -0.200 F 
ATOM     73  C   UNL     1      -7.806  -0.365 -11.722  1.00  0.00     0.200 A 
ATOM     74  F   UNL     1      -6.533   1.606 -11.964  1.00  0.00    -0.200 F 
ATOM     75  F   UNL     1      -8.656   0.050 -12.669  1.00  0.00    -0.200 F 
ENDBRANCH  51  65
BRANCH  52  76
ATOM     76  C   UNL     1       1.717  -1.069 -13.993  1.00  0.00     0.064 A 
ATOM     77  C   UNL     1       1.582  -1.472 -15.331  1.00  0.00     0.173 A 
ATOM     78  C   UNL     1       2.323   0.188 -13.784  1.00  0.00     0.173 A 
ATOM     79  F   UNL     1       0.973  -2.628 -15.629  1.00  0.00    -0.203 F 
ATOM     80  C   UNL     1       2.013  -0.663 -16.390  1.00  0.00     0.198 A 
ATOM     81  C   UNL     1       2.769   0.985 -14.839  1.00  0.00     0.198 A 
ATOM     82  F   UNL     1       2.418   0.722 -12.559  1.00  0.00    -0.203 F 
ATOM     83  F   UNL     1       1.810  -1.055 -17.655  1.00  0.00    -0.200 F 
ATOM     84  C   UNL     1       2.602   0.566 -16.143  1.00  0.00     0.200 A 
ATOM     85  F   UNL     1       3.307   2.186 -14.582  1.00  0.00    -0.200 F 
ATOM     86  F   UNL     1       2.969   1.362 -17.157  1.00  0.00    -0.200 F 
ENDBRANCH  52  76
BRANCH  64  87
ATOM     87  C   UNL     1      -0.966  -5.907 -10.989  1.00  0.00     0.064 A 
ATOM     88  C   UNL     1       0.340  -5.676 -10.520  1.00  0.00     0.173 A 
ATOM     89  C   UNL     1      -1.392  -7.238 -11.073  1.00  0.00     0.173 A 
ATOM     90  F   UNL     1       0.783  -4.433 -10.299  1.00  0.00    -0.203 F 
ATOM     91  C   UNL     1       1.194  -6.731 -10.204  1.00  0.00     0.198 A 
ATOM     92  C   UNL     1      -0.550  -8.290 -10.718  1.00  0.00     0.198 A 
ATOM     93  F   UNL     1      -2.649  -7.519 -11.450  1.00  0.00    -0.203 F 
ATOM     94  F   UNL     1       2.439  -6.480  -9.773  1.00  0.00    -0.200 F 
ATOM     95  C   UNL     1       0.746  -8.037 -10.297  1.00  0.00     0.200 A 
ATOM     96  F   UNL     1      -1.006  -9.550 -10.757  1.00  0.00    -0.200 F 
ATOM     97  F   UNL     1       1.552  -9.051  -9.951  1.00  0.00    -0.200 F 
ENDBRANCH  64  87
ENDBRANCH  38  39
ENDBRANCH  31  33
ENDBRANCH  30  31
ENDBRANCH  29  30
ENDBRANCH  28  29
ENDBRANCH  27  28
ENDBRANCH  26  27
ENDBRANCH  25  26
ENDBRANCH   1  25
TORSDOF 24
