REMARK SMILES Cc1cccc(OC2(C(=O)OCCOCCOCCOC(=O)c3ccc(-c4c5nc(c(-c6c(F)c(F)c(F)c(F)c6F)c6ccc([nH]6)c(-c6c(F)c(F)c(F)c(F)c6F)c6nc(c(-c7c(F)c(F)c(F)c(F)c7F)c7ccc4[nH]7)C=C6)C=C5)cc3)CCN(C(=O)c3cnc[nH]c3=O)CC2)c1
REMARK SMILES IDX 15 1 14 2 13 3 12 4 11 5 9 6 10 7 8 8 86 9 99 10 87 11 98 12
REMARK SMILES IDX 88 13 89 14 90 15 7 16 6 17 1 18 2 19 3 20 100 21 4 22 5 23
REMARK SMILES IDX 91 24 92 25 96 26 93 27 95 28 97 29 94 30 16 32 17 33 18 34
REMARK SMILES IDX 19 35 20 36 21 37 22 38 23 39 24 40 85 41 25 42 84 43 26 44
REMARK SMILES IDX 27 45 28 46 78 47 29 48 83 49 77 50 79 51 30 52 82 53 76 54
REMARK SMILES IDX 75 55 31 57 63 58 43 59 62 60 44 61 47 62 61 63 80 64 45 65
REMARK SMILES IDX 46 66 60 68 81 69 48 70 32 71 33 72 41 73 34 74 35 75 39 76
REMARK SMILES IDX 42 77 36 78 37 79 40 80 38 81 64 82 65 83 73 84 66 85 67 86
REMARK SMILES IDX 71 87 74 88 68 89 69 90 72 91 70 92 49 93 50 94 58 95 51 96
REMARK SMILES IDX 52 97 56 98 59 99 53 100 54 101 57 102 55 103
REMARK H PARENT 95 31 79 56 47 67
REMARK Flexibility Score: inf
ROOT
ATOM      1  C   UNL     1       0.696   3.273  -5.410  1.00  0.00     0.188 C 
ENDROOT
BRANCH   1   2
ATOM      2  O   UNL     1       0.396   4.630  -5.016  1.00  0.00    -0.376 OA
BRANCH   2   3
ATOM      3  C   UNL     1       1.279   5.499  -4.279  1.00  0.00     0.202 C 
BRANCH   3   4
ATOM      4  C   UNL     1       0.854   6.199  -2.806  1.00  0.00     0.261 C 
BRANCH   4   5
ATOM      5  O   UNL     1       0.793   5.468  -1.204  1.00  0.00    -0.460 OA
BRANCH   5   6
ATOM      6  C   UNL     1      -0.120   4.953  -0.198  1.00  0.00     0.350 C 
ATOM      7  O   UNL     1      -1.347   5.096  -0.153  1.00  0.00    -0.247 OA
BRANCH   6   8
ATOM      8  C   UNL     1       0.351   4.016   0.930  1.00  0.00     0.209 C 
ATOM      9  C   UNL     1       1.857   4.146   1.036  1.00  0.00     0.082 C 
ATOM     10  C   UNL     1      -0.503   4.432   2.182  1.00  0.00     0.082 C 
ATOM     11  C   UNL     1       2.377   4.009   2.449  1.00  0.00     0.124 C 
ATOM     12  C   UNL     1       0.179   4.096   3.485  1.00  0.00     0.124 C 
ATOM     13  N   UNL     1       1.508   4.671   3.396  1.00  0.00    -0.338 N 
ATOM     14  C   UNL     1       1.732   5.993   3.755  1.00  0.00     0.261 C 
ATOM     15  O   UNL     1       2.353   6.790   3.060  1.00  0.00    -0.269 OA
BRANCH   8  16
ATOM     16  O   UNL     1      -0.212   2.762   0.465  1.00  0.00    -0.475 OA
BRANCH  16  17
ATOM     17  C   UNL     1      -0.147   1.554   1.089  1.00  0.00     0.121 A 
ATOM     18  C   UNL     1       2.357  -1.282   1.141  1.00  0.00     0.044 C 
ATOM     19  C   UNL     1       1.073  -0.529   1.321  1.00  0.00    -0.047 A 
ATOM     20  C   UNL     1      -0.126  -1.218   1.536  1.00  0.00     0.003 A 
ATOM     21  C   UNL     1       1.053   0.860   1.128  1.00  0.00     0.050 A 
ATOM     22  C   UNL     1      -1.334  -0.523   1.545  1.00  0.00     0.004 A 
ATOM     23  C   UNL     1      -1.345   0.856   1.299  1.00  0.00     0.046 A 
ENDBRANCH  16  17
ENDBRANCH   8  16
BRANCH  14  24
ATOM     24  C   UNL     1       1.163   6.374   5.061  1.00  0.00     0.123 A 
ATOM     25  C   UNL     1       0.346   7.429   5.191  1.00  0.00     0.132 A 
ATOM     26  C   UNL     1       1.429   5.575   6.272  1.00  0.00     0.263 A 
ATOM     27  N   UNL     1      -0.281   7.800   6.359  1.00  0.00    -0.246 NA
ATOM     28  N   UNL     1       0.763   5.972   7.391  1.00  0.00    -0.312 N 
ATOM     29  O   UNL     1       2.196   4.612   6.294  1.00  0.00    -0.269 OA
ATOM     30  C   UNL     1      -0.054   7.063   7.394  1.00  0.00     0.199 A 
ATOM     31  H   UNL     1       0.874   5.456   8.221  1.00  0.00     0.171 HD
ENDBRANCH  14  24
ENDBRANCH   6   8
ENDBRANCH   5   6
ENDBRANCH   4   5
ENDBRANCH   3   4
ENDBRANCH   2   3
ENDBRANCH   1   2
BRANCH   1  32
ATOM     32  C   UNL     1       2.094   2.714  -5.716  1.00  0.00     0.188 C 
BRANCH  32  33
ATOM     33  O   UNL     1       3.075   3.215  -4.832  1.00  0.00    -0.376 OA
BRANCH  33  34
ATOM     34  C   UNL     1       4.380   2.675  -4.994  1.00  0.00     0.202 C 
BRANCH  34  35
ATOM     35  C   UNL     1       4.565   1.279  -4.358  1.00  0.00     0.261 C 
BRANCH  35  36
ATOM     36  O   UNL     1       4.206   1.258  -2.955  1.00  0.00    -0.460 OA
BRANCH  36  37
ATOM     37  C   UNL     1       3.153   0.446  -2.591  1.00  0.00     0.338 C 
ATOM     38  O   UNL     1       3.224  -0.766  -2.519  1.00  0.00    -0.246 OA
BRANCH  37  39
ATOM     39  C   UNL     1       1.926   1.262  -2.315  1.00  0.00     0.060 A 
ATOM     40  C   UNL     1       0.573   0.885  -2.282  1.00  0.00     0.016 A 
ATOM     41  C   UNL     1       2.141   2.586  -2.200  1.00  0.00     0.016 A 
ATOM     42  C   UNL     1      -0.533   1.876  -2.292  1.00  0.00     0.010 A 
ATOM     43  C   UNL     1       1.062   3.451  -2.364  1.00  0.00     0.010 A 
ATOM     44  C   UNL     1      -0.345   3.268  -2.402  1.00  0.00    -0.014 A 
BRANCH  44  45
ATOM     45  C   UNL     1      -1.520   4.437  -2.760  1.00  0.00     0.031 A 
ATOM     46  C   UNL     1      -2.025   5.997  -2.134  1.00  0.00     0.074 A 
ATOM     47  C   UNL     1      -2.294   4.127  -3.828  1.00  0.00     0.049 A 
ATOM     48  N   UNL     1      -3.278   6.440  -2.138  1.00  0.00    -0.248 NA
ATOM     49  C   UNL     1      -1.232   7.096  -1.423  1.00  0.00     0.031 C 
ATOM     50  C   UNL     1      -3.154   5.036  -4.582  1.00  0.00     0.029 A 
ATOM     51  N   UNL     1      -2.510   2.880  -4.436  1.00  0.00    -0.354 N 
ATOM     52  C   UNL     1      -3.322   7.749  -1.611  1.00  0.00     0.074 A 
ATOM     53  C   UNL     1      -2.068   8.036  -1.051  1.00  0.00     0.031 C 
ATOM     54  C   UNL     1      -3.998   4.317  -5.333  1.00  0.00     0.029 A 
ATOM     55  C   UNL     1      -3.805   2.926  -4.984  1.00  0.00     0.049 A 
ATOM     56  H   UNL     1      -1.881   2.123  -4.471  1.00  0.00     0.167 HD
ATOM     57  C   UNL     1      -4.309   8.667  -1.796  1.00  0.00     0.037 A 
ATOM     58  C   UNL     1      -4.776   2.038  -4.638  1.00  0.00     0.037 A 
ATOM     59  C   UNL     1      -5.329   8.122  -2.630  1.00  0.00     0.049 A 
ATOM     60  C   UNL     1      -6.051   2.684  -4.161  1.00  0.00     0.074 A 
ATOM     61  C   UNL     1      -5.499   8.123  -4.000  1.00  0.00     0.029 A 
ATOM     62  N   UNL     1      -6.112   7.114  -2.114  1.00  0.00    -0.354 N 
ATOM     63  N   UNL     1      -6.156   3.948  -3.865  1.00  0.00    -0.248 NA
ATOM     64  C   UNL     1      -7.297   1.959  -3.931  1.00  0.00     0.031 C 
ATOM     65  C   UNL     1      -6.391   7.074  -4.315  1.00  0.00     0.029 A 
ATOM     66  C   UNL     1      -6.781   6.474  -3.131  1.00  0.00     0.049 A 
ATOM     67  H   UNL     1      -6.183   6.885  -1.159  1.00  0.00     0.167 HD
ATOM     68  C   UNL     1      -7.392   4.194  -3.333  1.00  0.00     0.074 A 
ATOM     69  C   UNL     1      -8.086   2.930  -3.439  1.00  0.00     0.031 C 
ATOM     70  C   UNL     1      -7.707   5.412  -2.805  1.00  0.00     0.037 A 
BRANCH  57  71
ATOM     71  C   UNL     1      -4.079  10.145  -1.502  1.00  0.00     0.064 A 
ATOM     72  C   UNL     1      -4.347  11.124  -2.475  1.00  0.00     0.173 A 
ATOM     73  C   UNL     1      -3.461  10.629  -0.326  1.00  0.00     0.173 A 
ATOM     74  F   UNL     1      -5.015  10.822  -3.595  1.00  0.00    -0.203 F 
ATOM     75  C   UNL     1      -3.903  12.445  -2.349  1.00  0.00     0.198 A 
ATOM     76  C   UNL     1      -2.955  11.933  -0.229  1.00  0.00     0.198 A 
ATOM     77  F   UNL     1      -3.283   9.825   0.736  1.00  0.00    -0.203 F 
ATOM     78  F   UNL     1      -4.163  13.329  -3.324  1.00  0.00    -0.200 F 
ATOM     79  C   UNL     1      -3.163  12.837  -1.251  1.00  0.00     0.200 A 
ATOM     80  F   UNL     1      -2.227  12.295   0.839  1.00  0.00    -0.200 F 
ATOM     81  F   UNL     1      -2.658  14.077  -1.179  1.00  0.00    -0.200 F 
ENDBRANCH  57  71
BRANCH  58  82
ATOM     82  C   UNL     1      -4.236   0.724  -4.201  1.00  0.00     0.064 A 
ATOM     83  C   UNL     1      -3.521  -0.042  -5.145  1.00  0.00     0.173 A 
ATOM     84  C   UNL     1      -4.060   0.408  -2.849  1.00  0.00     0.173 A 
ATOM     85  F   UNL     1      -3.650   0.221  -6.456  1.00  0.00    -0.203 F 
ATOM     86  C   UNL     1      -2.578  -0.988  -4.750  1.00  0.00     0.198 A 
ATOM     87  C   UNL     1      -3.136  -0.566  -2.458  1.00  0.00     0.198 A 
ATOM     88  F   UNL     1      -4.680   1.123  -1.900  1.00  0.00    -0.203 F 
ATOM     89  F   UNL     1      -1.819  -1.602  -5.670  1.00  0.00    -0.200 F 
ATOM     90  C   UNL     1      -2.367  -1.230  -3.405  1.00  0.00     0.200 A 
ATOM     91  F   UNL     1      -2.903  -0.779  -1.156  1.00  0.00    -0.200 F 
ATOM     92  F   UNL     1      -1.382  -2.055  -3.019  1.00  0.00    -0.200 F 
ENDBRANCH  58  82
BRANCH  70  93
ATOM     93  C   UNL     1      -8.891   5.755  -1.934  1.00  0.00     0.064 A 
ATOM     94  C   UNL     1      -9.544   4.833  -1.105  1.00  0.00     0.173 A 
ATOM     95  C   UNL     1      -9.281   7.111  -1.767  1.00  0.00     0.173 A 
ATOM     96  F   UNL     1      -9.194   3.541  -1.086  1.00  0.00    -0.203 F 
ATOM     97  C   UNL     1     -10.543   5.226  -0.211  1.00  0.00     0.198 A 
ATOM     98  C   UNL     1     -10.225   7.507  -0.823  1.00  0.00     0.198 A 
ATOM     99  F   UNL     1      -8.727   8.098  -2.489  1.00  0.00    -0.203 F 
ATOM    100  F   UNL     1     -11.168   4.301   0.529  1.00  0.00    -0.200 F 
ATOM    101  C   UNL     1     -10.869   6.561  -0.057  1.00  0.00     0.200 A 
ATOM    102  F   UNL     1     -10.483   8.811  -0.645  1.00  0.00    -0.200 F 
ATOM    103  F   UNL     1     -11.788   6.936   0.843  1.00  0.00    -0.200 F 
ENDBRANCH  70  93
ENDBRANCH  44  45
ENDBRANCH  37  39
ENDBRANCH  36  37
ENDBRANCH  35  36
ENDBRANCH  34  35
ENDBRANCH  33  34
ENDBRANCH  32  33
ENDBRANCH   1  32
TORSDOF 20
