REMARK SMILES Cc1cc(NC(=O)[C@@H]2[C@@H](C(=O)OCCOCCOCCOC(=O)c3ccc(-c4c5nc(c(-c6c(F)c(F)c(F)c(F)c6F)c6ccc([nH]6)c(-c6c(F)c(F)c(F)c(F)c6F)c6nc(c(-c7c(F)c(F)c(F)c(F)c7F)c7ccc4[nH]7)C=C6)C=C5)cc3)C2(C)C)on1
REMARK SMILES IDX 16 1 15 2 14 3 13 4 12 5 10 6 11 7 9 8 8 9 87 10 88 11 89 12
REMARK SMILES IDX 6 13 5 14 7 16 4 17 1 18 2 19 3 20 91 21 90 22 17 23 18 24
REMARK SMILES IDX 19 25 20 26 21 27 22 28 23 29 24 30 25 31 86 32 26 33 85 34
REMARK SMILES IDX 27 35 28 36 29 37 79 38 30 39 84 40 78 41 80 42 31 43 83 44
REMARK SMILES IDX 77 45 76 46 32 48 64 49 44 50 63 51 45 52 48 53 62 54 81 55
REMARK SMILES IDX 46 56 47 57 61 59 82 60 49 61 33 62 34 63 42 64 35 65 36 66
REMARK SMILES IDX 40 67 43 68 37 69 38 70 41 71 39 72 65 73 66 74 74 75 67 76
REMARK SMILES IDX 68 77 72 78 75 79 69 80 70 81 73 82 71 83 50 84 51 85 59 86
REMARK SMILES IDX 52 87 53 88 57 89 60 90 54 91 55 92 58 93 56 94
REMARK H PARENT 5 15 80 47 48 58
REMARK Flexibility Score: inf
ROOT
ATOM      1  C   UNL     1      -8.466  -0.524   1.178  1.00  0.00     0.188 C 
ENDROOT
BRANCH   1   2
ATOM      2  O   UNL     1      -8.973  -1.809   0.822  1.00  0.00    -0.376 OA
BRANCH   2   3
ATOM      3  C   UNL     1      -8.098  -2.935   0.869  1.00  0.00     0.202 C 
BRANCH   3   4
ATOM      4  C   UNL     1      -6.838  -2.845   0.007  1.00  0.00     0.261 C 
BRANCH   4   5
ATOM      5  O   UNL     1      -5.990  -1.778   0.458  1.00  0.00    -0.463 OA
BRANCH   5   6
ATOM      6  C   UNL     1      -5.327  -1.108  -0.513  1.00  0.00     0.310 C 
ATOM      7  O   UNL     1      -5.218  -1.457  -1.679  1.00  0.00    -0.252 OA
BRANCH   6   8
ATOM      8  C   UNL     1      -4.852   0.228  -0.067  1.00  0.00     0.118 C 
ATOM      9  C   UNL     1      -3.368   0.451  -0.134  1.00  0.00     0.100 C 
ATOM     10  C   UNL     1      -4.062   0.571   1.209  1.00  0.00    -0.009 C 
ATOM     11  C   UNL     1      -3.732  -0.508   2.222  1.00  0.00     0.013 C 
ATOM     12  C   UNL     1      -4.304   1.901   1.882  1.00  0.00     0.013 C 
BRANCH   9  13
ATOM     13  C   UNL     1      -2.726   1.400  -1.078  1.00  0.00     0.231 C 
ATOM     14  N   UNL     1      -2.849   2.758  -1.156  1.00  0.00    -0.294 N 
ATOM     15  H   UNL     1      -2.065   3.199  -1.555  1.00  0.00     0.173 HD
ATOM     16  O   UNL     1      -1.858   0.917  -1.812  1.00  0.00    -0.274 OA
BRANCH  14  17
ATOM     17  C   UNL     1      -3.832   3.627  -0.794  1.00  0.00     0.231 A 
ATOM     18  C   UNL     1      -5.527   6.709   0.176  1.00  0.00     0.070 C 
ATOM     19  C   UNL     1      -5.061   5.367  -0.239  1.00  0.00     0.083 A 
ATOM     20  C   UNL     1      -3.770   4.993  -0.668  1.00  0.00     0.096 A 
ATOM     21  N   UNL     1      -5.883   4.310  -0.198  1.00  0.00    -0.083 NA
ATOM     22  O   UNL     1      -5.104   3.224  -0.575  1.00  0.00    -0.338 OA
ENDBRANCH  14  17
ENDBRANCH   9  13
ENDBRANCH   6   8
ENDBRANCH   5   6
ENDBRANCH   4   5
ENDBRANCH   3   4
ENDBRANCH   2   3
ENDBRANCH   1   2
BRANCH   1  23
ATOM     23  C   UNL     1      -7.590  -0.393   2.437  1.00  0.00     0.188 C 
BRANCH  23  24
ATOM     24  O   UNL     1      -7.696  -1.499   3.317  1.00  0.00    -0.376 OA
BRANCH  24  25
ATOM     25  C   UNL     1      -8.167  -1.212   4.624  1.00  0.00     0.202 C 
BRANCH  25  26
ATOM     26  C   UNL     1      -9.670  -0.923   4.683  1.00  0.00     0.261 C 
BRANCH  26  27
ATOM     27  O   UNL     1     -10.104   0.197   3.891  1.00  0.00    -0.460 OA
BRANCH  27  28
ATOM     28  C   UNL     1      -9.684   1.427   4.265  1.00  0.00     0.338 C 
ATOM     29  O   UNL     1      -8.978   1.713   5.213  1.00  0.00    -0.246 OA
BRANCH  28  30
ATOM     30  C   UNL     1     -10.085   2.362   3.193  1.00  0.00     0.060 A 
ATOM     31  C   UNL     1      -9.104   3.102   2.519  1.00  0.00     0.016 A 
ATOM     32  C   UNL     1     -11.429   2.466   2.825  1.00  0.00     0.016 A 
ATOM     33  C   UNL     1      -9.470   3.947   1.467  1.00  0.00     0.010 A 
ATOM     34  C   UNL     1     -11.793   3.326   1.790  1.00  0.00     0.010 A 
ATOM     35  C   UNL     1     -10.819   4.079   1.112  1.00  0.00    -0.014 A 
BRANCH  35  36
ATOM     36  C   UNL     1     -11.256   5.076   0.107  1.00  0.00     0.031 A 
ATOM     37  C   UNL     1     -11.736   6.417   0.577  1.00  0.00     0.074 A 
ATOM     38  C   UNL     1     -11.283   4.771  -1.202  1.00  0.00     0.049 A 
ATOM     39  N   UNL     1     -12.282   7.392  -0.104  1.00  0.00    -0.248 NA
ATOM     40  C   UNL     1     -11.585   6.694   2.014  1.00  0.00     0.031 C 
ATOM     41  C   UNL     1     -10.806   3.521  -1.788  1.00  0.00     0.029 A 
ATOM     42  N   UNL     1     -11.756   5.489  -2.273  1.00  0.00    -0.354 N 
ATOM     43  C   UNL     1     -12.548   8.392   0.820  1.00  0.00     0.074 A 
ATOM     44  C   UNL     1     -12.119   7.902   2.113  1.00  0.00     0.031 C 
ATOM     45  C   UNL     1     -11.027   3.550  -3.114  1.00  0.00     0.029 A 
ATOM     46  C   UNL     1     -11.698   4.803  -3.460  1.00  0.00     0.049 A 
ATOM     47  H   UNL     1     -12.103   6.407  -2.196  1.00  0.00     0.167 HD
ATOM     48  C   UNL     1     -13.101   9.610   0.607  1.00  0.00     0.037 A 
ATOM     49  C   UNL     1     -12.165   5.136  -4.679  1.00  0.00     0.037 A 
ATOM     50  C   UNL     1     -13.533  10.092  -0.678  1.00  0.00     0.049 A 
ATOM     51  C   UNL     1     -12.881   6.449  -4.867  1.00  0.00     0.074 A 
ATOM     52  C   UNL     1     -14.047  11.334  -1.006  1.00  0.00     0.029 A 
ATOM     53  N   UNL     1     -13.522   9.342  -1.844  1.00  0.00    -0.354 N 
ATOM     54  N   UNL     1     -13.089   7.411  -4.002  1.00  0.00    -0.248 NA
ATOM     55  C   UNL     1     -13.445   6.712  -6.200  1.00  0.00     0.031 C 
ATOM     56  C   UNL     1     -14.401  11.316  -2.360  1.00  0.00     0.029 A 
ATOM     57  C   UNL     1     -14.065  10.079  -2.885  1.00  0.00     0.049 A 
ATOM     58  H   UNL     1     -13.179   8.423  -1.922  1.00  0.00     0.167 HD
ATOM     59  C   UNL     1     -13.788   8.398  -4.686  1.00  0.00     0.074 A 
ATOM     60  C   UNL     1     -13.961   7.923  -6.043  1.00  0.00     0.031 C 
ATOM     61  C   UNL     1     -14.242   9.591  -4.229  1.00  0.00     0.037 A 
BRANCH  48  62
ATOM     62  C   UNL     1     -13.304  10.491   1.802  1.00  0.00     0.064 A 
ATOM     63  C   UNL     1     -12.229  11.118   2.447  1.00  0.00     0.173 A 
ATOM     64  C   UNL     1     -14.596  10.723   2.298  1.00  0.00     0.173 A 
ATOM     65  F   UNL     1     -10.973  10.916   2.019  1.00  0.00    -0.203 F 
ATOM     66  C   UNL     1     -12.437  11.925   3.563  1.00  0.00     0.198 A 
ATOM     67  C   UNL     1     -14.802  11.549   3.398  1.00  0.00     0.198 A 
ATOM     68  F   UNL     1     -15.658  10.146   1.715  1.00  0.00    -0.203 F 
ATOM     69  F   UNL     1     -11.391  12.478   4.192  1.00  0.00    -0.200 F 
ATOM     70  C   UNL     1     -13.723  12.144   4.034  1.00  0.00     0.200 A 
ATOM     71  F   UNL     1     -16.046  11.766   3.848  1.00  0.00    -0.200 F 
ATOM     72  F   UNL     1     -13.921  12.921   5.108  1.00  0.00    -0.200 F 
ENDBRANCH  48  62
BRANCH  49  73
ATOM     73  C   UNL     1     -11.994   4.200  -5.820  1.00  0.00     0.064 A 
ATOM     74  C   UNL     1     -11.118   4.503  -6.871  1.00  0.00     0.173 A 
ATOM     75  C   UNL     1     -12.709   2.996  -5.890  1.00  0.00     0.173 A 
ATOM     76  F   UNL     1     -10.440   5.660  -6.864  1.00  0.00    -0.203 F 
ATOM     77  C   UNL     1     -10.966   3.638  -7.952  1.00  0.00     0.198 A 
ATOM     78  C   UNL     1     -12.539   2.120  -6.961  1.00  0.00     0.198 A 
ATOM     79  F   UNL     1     -13.571   2.668  -4.916  1.00  0.00    -0.203 F 
ATOM     80  F   UNL     1     -10.151   3.969  -8.962  1.00  0.00    -0.200 F 
ATOM     81  C   UNL     1     -11.671   2.444  -7.993  1.00  0.00     0.200 A 
ATOM     82  F   UNL     1     -13.221   0.967  -6.996  1.00  0.00    -0.200 F 
ATOM     83  F   UNL     1     -11.524   1.612  -9.033  1.00  0.00    -0.200 F 
ENDBRANCH  49  73
BRANCH  61  84
ATOM     84  C   UNL     1     -14.964  10.475  -5.203  1.00  0.00     0.064 A 
ATOM     85  C   UNL     1     -16.274  10.192  -5.616  1.00  0.00     0.173 A 
ATOM     86  C   UNL     1     -14.361  11.646  -5.686  1.00  0.00     0.173 A 
ATOM     87  F   UNL     1     -16.887   9.076  -5.195  1.00  0.00    -0.203 F 
ATOM     88  C   UNL     1     -16.949  11.043  -6.488  1.00  0.00     0.198 A 
ATOM     89  C   UNL     1     -15.048  12.508  -6.537  1.00  0.00     0.198 A 
ATOM     90  F   UNL     1     -13.111  11.965  -5.317  1.00  0.00    -0.203 F 
ATOM     91  F   UNL     1     -18.188  10.735  -6.896  1.00  0.00    -0.200 F 
ATOM     92  C   UNL     1     -16.339  12.203  -6.940  1.00  0.00     0.200 A 
ATOM     93  F   UNL     1     -14.462  13.635  -6.963  1.00  0.00    -0.200 F 
ATOM     94  F   UNL     1     -16.995  13.027  -7.769  1.00  0.00    -0.200 F 
ENDBRANCH  61  84
ENDBRANCH  35  36
ENDBRANCH  28  30
ENDBRANCH  27  28
ENDBRANCH  26  27
ENDBRANCH  25  26
ENDBRANCH  24  25
ENDBRANCH  23  24
ENDBRANCH   1  23
TORSDOF 19
