REMARK SMILES O=C(OCCOCCOCCOC(=O)c1ccc(-c2c3nc(c(-c4c(F)c(F)c(F)c(F)c4F)c4ccc([nH]4)c(-c4c(F)c(F)c(F)c(F)c4F)c4nc(c(-c5c(F)c(F)c(F)c(F)c5F)c5ccc2[nH]5)C=C4)C=C3)cc1)C1=Cc2cc(S(F)(F)(F)(F)F)ccc2O[C@H]1C(F)(F)F
REMARK SMILES IDX 8 1 7 2 6 3 5 4 4 5 3 6 2 7 1 8 78 9 79 10 93 11 80 12 92 13
REMARK SMILES IDX 81 14 91 15 82 16 90 17 89 18 94 19 95 20 96 21 97 22 83 23
REMARK SMILES IDX 84 24 85 25 86 26 87 27 88 28 9 29 10 30 11 31 12 32 13 33
REMARK SMILES IDX 14 34 15 35 16 36 77 37 17 38 76 39 18 40 19 41 20 42 70 43
REMARK SMILES IDX 21 44 75 45 69 46 71 47 22 48 74 49 68 50 67 51 23 53 55 54
REMARK SMILES IDX 35 55 54 56 36 57 39 58 53 59 72 60 37 61 38 62 52 64 73 65
REMARK SMILES IDX 40 66 24 67 25 68 33 69 26 70 27 71 31 72 34 73 28 74 29 75
REMARK SMILES IDX 32 76 30 77 56 78 57 79 65 80 58 81 59 82 63 83 66 84 60 85
REMARK SMILES IDX 61 86 64 87 62 88 41 89 42 90 50 91 43 92 44 93 48 94 51 95
REMARK SMILES IDX 45 96 46 97 49 98 47 99
REMARK H PARENT 71 52 39 63
REMARK Flexibility Score: inf
ROOT
ATOM      1  C   UNL     1       2.478   0.928  -2.391  1.00  0.00     0.188 C 
ENDROOT
BRANCH   1   2
ATOM      2  C   UNL     1       2.985   1.238  -0.992  1.00  0.00     0.188 C 
BRANCH   2   3
ATOM      3  O   UNL     1       4.405   1.238  -0.992  1.00  0.00    -0.376 OA
BRANCH   3   4
ATOM      4  C   UNL     1       4.878  -0.039  -1.395  1.00  0.00     0.202 C 
BRANCH   4   5
ATOM      5  C   UNL     1       4.372  -1.096  -0.427  1.00  0.00     0.261 C 
BRANCH   5   6
ATOM      6  O   UNL     1       2.952  -1.096  -0.427  1.00  0.00    -0.460 OA
BRANCH   6   7
ATOM      7  C   UNL     1       2.242   0.077  -0.057  1.00  0.00     0.338 C 
ATOM      8  O   UNL     1       0.971   0.077  -0.057  1.00  0.00    -0.246 OA
BRANCH   7   9
ATOM      9  C   UNL     1       3.002   1.332   0.339  1.00  0.00     0.087 C 
ATOM     10  C   UNL     1       4.362   1.332   0.339  1.00  0.00     0.027 C 
ATOM     11  C   UNL     1       2.242   2.587   0.736  1.00  0.00     0.316 C 
ATOM     12  C   UNL     1       5.122   0.077  -0.057  1.00  0.00     0.019 A 
ATOM     13  O   UNL     1       3.589  -0.308  -1.831  1.00  0.00    -0.475 OA
ATOM     14  C   UNL     1       6.183  -0.305   0.748  1.00  0.00     0.036 A 
ATOM     15  C   UNL     1       4.775  -0.636  -1.122  1.00  0.00     0.128 A 
ATOM     16  C   UNL     1       7.004  -1.306   0.178  1.00  0.00     0.107 A 
ATOM     17  C   UNL     1       5.552  -1.687  -1.545  1.00  0.00     0.048 A 
ATOM     18  C   UNL     1       6.649  -2.082  -0.830  1.00  0.00     0.028 A 
BRANCH  11  19
ATOM     19  C   UNL     1       0.747   2.322   0.652  1.00  0.00     0.430 C 
ATOM     20  F   UNL     1       0.388   2.098  -0.609  1.00  0.00    -0.167 F 
ATOM     21  F   UNL     1       0.414   1.275   1.401  1.00  0.00    -0.167 F 
ATOM     22  F   UNL     1       0.124   3.407   1.104  1.00  0.00    -0.167 F 
ENDBRANCH  11  19
BRANCH  16  23
ATOM     23  S   UNL     1       8.657  -1.539   0.878  1.00  0.00     0.310 S 
ATOM     24  F   UNL     1       8.096  -1.504   2.361  1.00  0.00    -0.094 F 
ATOM     25  F   UNL     1       8.809   0.026   0.971  1.00  0.00    -0.094 F 
ATOM     26  F   UNL     1      10.075  -1.741   1.484  1.00  0.00    -0.094 F 
ATOM     27  F   UNL     1       8.431  -3.102   0.907  1.00  0.00    -0.094 F 
ATOM     28  F   UNL     1       7.173  -1.349   0.368  1.00  0.00    -0.094 F 
ENDBRANCH  16  23
ENDBRANCH   7   9
ENDBRANCH   6   7
ENDBRANCH   5   6
ENDBRANCH   4   5
ENDBRANCH   3   4
ENDBRANCH   2   3
ENDBRANCH   1   2
BRANCH   1  29
ATOM     29  O   UNL     1       2.952  -0.348  -2.794  1.00  0.00    -0.376 OA
BRANCH  29  30
ATOM     30  C   UNL     1       4.372  -0.348  -2.794  1.00  0.00     0.202 C 
BRANCH  30  31
ATOM     31  C   UNL     1       4.878   0.709  -3.762  1.00  0.00     0.261 C 
BRANCH  31  32
ATOM     32  O   UNL     1       4.405   1.985  -3.359  1.00  0.00    -0.460 OA
BRANCH  32  33
ATOM     33  C   UNL     1       3.009   2.233  -3.281  1.00  0.00     0.338 C 
ATOM     34  O   UNL     1       2.183   1.312  -3.572  1.00  0.00    -0.246 OA
BRANCH  33  35
ATOM     35  C   UNL     1       2.502   3.599  -2.849  1.00  0.00     0.060 A 
ATOM     36  C   UNL     1       1.423   3.639  -1.982  1.00  0.00     0.016 A 
ATOM     37  C   UNL     1       3.033   4.713  -3.341  1.00  0.00     0.016 A 
ATOM     38  C   UNL     1       0.785   4.901  -1.918  1.00  0.00     0.010 A 
ATOM     39  C   UNL     1       2.430   5.929  -3.126  1.00  0.00     0.010 A 
ATOM     40  C   UNL     1       1.325   6.035  -2.327  1.00  0.00    -0.014 A 
BRANCH  40  41
ATOM     41  C   UNL     1       0.750   7.384  -1.931  1.00  0.00     0.031 A 
ATOM     42  C   UNL     1       0.300   8.280  -2.902  1.00  0.00     0.074 A 
ATOM     43  C   UNL     1       0.671   7.616  -0.568  1.00  0.00     0.049 A 
ATOM     44  N   UNL     1      -0.295   9.459  -2.708  1.00  0.00    -0.248 NA
ATOM     45  C   UNL     1       0.413   8.052  -4.350  1.00  0.00     0.031 C 
ATOM     46  C   UNL     1       1.115   6.713   0.418  1.00  0.00     0.029 A 
ATOM     47  N   UNL     1       0.167   8.725   0.073  1.00  0.00    -0.354 N 
ATOM     48  C   UNL     1      -0.599  10.020  -3.881  1.00  0.00     0.074 A 
ATOM     49  C   UNL     1      -0.142   9.126  -4.953  1.00  0.00     0.031 C 
ATOM     50  C   UNL     1       0.893   7.275   1.635  1.00  0.00     0.029 A 
ATOM     51  C   UNL     1       0.305   8.538   1.431  1.00  0.00     0.049 A 
ATOM     52  H   UNL     1      -0.225   9.516  -0.363  1.00  0.00     0.167 HD
ATOM     53  C   UNL     1      -1.240  11.241  -4.097  1.00  0.00     0.037 A 
ATOM     54  C   UNL     1      -0.053   9.408   2.448  1.00  0.00     0.037 A 
ATOM     55  C   UNL     1      -1.638  12.091  -3.077  1.00  0.00     0.049 A 
ATOM     56  C   UNL     1      -0.642  10.655   2.230  1.00  0.00     0.074 A 
ATOM     57  C   UNL     1      -2.292  13.322  -3.278  1.00  0.00     0.029 A 
ATOM     58  N   UNL     1      -1.477  11.915  -1.721  1.00  0.00    -0.354 N 
ATOM     59  N   UNL     1      -0.981  11.198   1.060  1.00  0.00    -0.248 NA
ATOM     60  C   UNL     1      -0.996  11.599   3.299  1.00  0.00     0.031 C 
ATOM     61  C   UNL     1      -2.515  13.884  -2.060  1.00  0.00     0.029 A 
ATOM     62  C   UNL     1      -2.002  13.014  -1.079  1.00  0.00     0.049 A 
ATOM     63  H   UNL     1      -1.059  11.137  -1.286  1.00  0.00     0.167 HD
ATOM     64  C   UNL     1      -1.538  12.396   1.253  1.00  0.00     0.074 A 
ATOM     65  C   UNL     1      -1.550  12.674   2.696  1.00  0.00     0.031 C 
ATOM     66  C   UNL     1      -2.042  13.265   0.284  1.00  0.00     0.037 A 
BRANCH  53  67
ATOM     67  C   UNL     1      -1.518  11.661  -5.531  1.00  0.00     0.064 A 
ATOM     68  C   UNL     1      -2.397  10.888  -6.271  1.00  0.00     0.173 A 
ATOM     69  C   UNL     1      -1.007  12.784  -6.021  1.00  0.00     0.173 A 
ATOM     70  F   UNL     1      -3.123   9.907  -5.742  1.00  0.00    -0.203 F 
ATOM     71  C   UNL     1      -2.453  11.237  -7.641  1.00  0.00     0.198 A 
ATOM     72  C   UNL     1      -1.215  13.132  -7.334  1.00  0.00     0.198 A 
ATOM     73  F   UNL     1      -0.288  13.579  -5.235  1.00  0.00    -0.203 F 
ATOM     74  F   UNL     1      -2.973  10.350  -8.485  1.00  0.00    -0.200 F 
ATOM     75  C   UNL     1      -2.025  12.382  -8.141  1.00  0.00     0.200 A 
ATOM     76  F   UNL     1      -0.620  14.214  -7.828  1.00  0.00    -0.200 F 
ATOM     77  F   UNL     1      -2.364  12.784  -9.363  1.00  0.00    -0.200 F 
ENDBRANCH  53  67
BRANCH  54  78
ATOM     78  C   UNL     1       0.210   8.980   3.883  1.00  0.00     0.064 A 
ATOM     79  C   UNL     1      -0.834   8.969   4.793  1.00  0.00     0.173 A 
ATOM     80  C   UNL     1       1.456   8.720   4.261  1.00  0.00     0.173 A 
ATOM     81  F   UNL     1      -2.114   8.970   4.430  1.00  0.00    -0.203 F 
ATOM     82  C   UNL     1      -0.416   8.956   6.145  1.00  0.00     0.198 A 
ATOM     83  C   UNL     1       1.770   8.585   5.591  1.00  0.00     0.198 A 
ATOM     84  F   UNL     1       2.409   8.590   3.342  1.00  0.00    -0.203 F 
ATOM     85  F   UNL     1      -1.305   9.304   7.071  1.00  0.00    -0.200 F 
ATOM     86  C   UNL     1       0.796   8.623   6.551  1.00  0.00     0.200 A 
ATOM     87  F   UNL     1       3.039   8.415   5.952  1.00  0.00    -0.200 F 
ATOM     88  F   UNL     1       1.056   8.340   7.824  1.00  0.00    -0.200 F 
ENDBRANCH  54  78
BRANCH  66  89
ATOM     89  C   UNL     1      -2.671  14.568   0.752  1.00  0.00     0.064 A 
ATOM     90  C   UNL     1      -1.889  15.408   1.527  1.00  0.00     0.173 A 
ATOM     91  C   UNL     1      -3.938  14.859   0.483  1.00  0.00     0.173 A 
ATOM     92  F   UNL     1      -0.567  15.294   1.614  1.00  0.00    -0.203 F 
ATOM     93  C   UNL     1      -2.625  16.399   2.219  1.00  0.00     0.198 A 
ATOM     94  C   UNL     1      -4.555  15.925   1.093  1.00  0.00     0.198 A 
ATOM     95  F   UNL     1      -4.616  14.113  -0.385  1.00  0.00    -0.203 F 
ATOM     96  F   UNL     1      -2.034  17.006   3.244  1.00  0.00    -0.200 F 
ATOM     97  C   UNL     1      -3.858  16.762   1.918  1.00  0.00     0.200 A 
ATOM     98  F   UNL     1      -5.849  16.144   0.877  1.00  0.00    -0.200 F 
ATOM     99  F   UNL     1      -4.394  17.884   2.393  1.00  0.00    -0.200 F 
ENDBRANCH  66  89
ENDBRANCH  40  41
ENDBRANCH  33  35
ENDBRANCH  32  33
ENDBRANCH  31  32
ENDBRANCH  30  31
ENDBRANCH  29  30
ENDBRANCH   1  29
TORSDOF 19
