REMARK SMILES C[C@H]1[C@H](C)CC[C@@]2(C(=O)OCCOCCOCCOC(=O)c3ccc(-c4c5nc(c(-c6c(F)c(F)c(F)c(F)c6F)c6ccc([nH]6)c(-c6c(F)c(F)c(F)c(F)c6F)c6nc(c(-c7c(F)c(F)c(F)c(F)c7F)c7ccc4[nH]7)C=C6)C=C5)cc3)CC[C@@]3(C)C(=CC[C@@H]4[C@@]5(C)CC[C@H](O)C(C)(C)[C@@H]5CC[C@]43C)[C@H]12
REMARK SMILES IDX 15 1 14 2 13 3 12 4 11 5 10 6 8 7 9 8 7 9 1 10 2 11 3 12
REMARK SMILES IDX 107 13 4 14 5 15 89 16 6 17 85 18 87 19 90 20 86 21 88 22
REMARK SMILES IDX 105 23 91 24 92 25 104 26 106 27 93 28 103 29 94 30 95 31
REMARK SMILES IDX 102 32 96 33 99 34 97 35 100 36 101 37 98 38 16 40 17 41
REMARK SMILES IDX 18 42 19 43 20 44 21 45 22 46 23 47 84 48 24 49 83 50 25 51
REMARK SMILES IDX 26 52 27 53 77 54 28 55 82 56 76 57 78 58 29 59 81 60 75 61
REMARK SMILES IDX 74 62 30 64 62 65 42 66 61 67 43 68 46 69 60 70 79 71 44 72
REMARK SMILES IDX 45 73 59 75 80 76 47 77 31 78 32 79 40 80 33 81 34 82 38 83
REMARK SMILES IDX 41 84 35 85 36 86 39 87 37 88 63 89 64 90 72 91 65 92 66 93
REMARK SMILES IDX 70 94 73 95 67 96 68 97 71 98 69 99 48 100 49 101 57 102
REMARK SMILES IDX 50 103 51 104 55 105 58 106 52 107 53 108 56 109 54 110
REMARK H PARENT 98 39 78 63 46 74
REMARK Flexibility Score: inf
ROOT
ATOM      1  C   UNL     1      -1.752  -2.635  -3.472  1.00  0.00     0.188 C 
ENDROOT
BRANCH   1   2
ATOM      2  C   UNL     1      -2.749  -1.466  -3.216  1.00  0.00     0.188 C 
BRANCH   2   3
ATOM      3  O   UNL     1      -2.335  -0.227  -3.746  1.00  0.00    -0.376 OA
BRANCH   3   4
ATOM      4  C   UNL     1      -1.403   0.453  -2.942  1.00  0.00     0.202 C 
BRANCH   4   5
ATOM      5  C   UNL     1      -0.464  -0.381  -2.077  1.00  0.00     0.261 C 
BRANCH   5   6
ATOM      6  O   UNL     1      -0.927  -1.131  -0.869  1.00  0.00    -0.463 OA
BRANCH   6   7
ATOM      7  C   UNL     1      -1.590  -2.187  -0.325  1.00  0.00     0.312 C 
ATOM      8  O   UNL     1      -2.417  -2.914  -0.860  1.00  0.00    -0.252 OA
BRANCH   7   9
ATOM      9  C   UNL     1      -1.069  -2.489   1.111  1.00  0.00     0.075 C 
ATOM     10  C   UNL     1       1.723   0.295   1.643  1.00  0.00     0.008 C 
ATOM     11  C   UNL     1       0.952  -0.874   1.028  1.00  0.00    -0.003 C 
ATOM     12  C   UNL     1       1.881  -2.115   0.749  1.00  0.00    -0.011 C 
ATOM     13  C   UNL     1      -0.465  -1.196   1.741  1.00  0.00     0.036 C 
ATOM     14  C   UNL     1       2.994  -1.820  -0.281  1.00  0.00     0.008 C 
ATOM     15  C   UNL     1       1.144  -3.337   0.195  1.00  0.00     0.005 C 
ATOM     16  C   UNL     1      -1.710  -0.188   1.714  1.00  0.00    -0.063 C 
ATOM     17  C   UNL     1      -0.083  -3.665   1.000  1.00  0.00     0.020 C 
ATOM     18  C   UNL     1      -2.193  -3.021   2.031  1.00  0.00     0.020 C 
ATOM     19  C   UNL     1      -3.054  -0.613   2.450  1.00  0.00    -0.006 C 
ATOM     20  C   UNL     1      -1.741   0.847   0.848  1.00  0.00    -0.027 C 
ATOM     21  C   UNL     1      -3.389  -2.099   2.149  1.00  0.00     0.013 C 
ATOM     22  C   UNL     1      -2.791  -0.493   3.970  1.00  0.00     0.017 C 
ATOM     23  C   UNL     1      -4.360   0.318   2.012  1.00  0.00    -0.020 C 
ATOM     24  C   UNL     1      -3.016   1.375   0.227  1.00  0.00     0.032 C 
ATOM     25  C   UNL     1      -4.254   0.469   0.455  1.00  0.00     0.006 C 
ATOM     26  C   UNL     1      -5.746  -0.272   2.388  1.00  0.00     0.008 C 
ATOM     27  C   UNL     1      -4.301   1.698   2.735  1.00  0.00     0.012 C 
ATOM     28  C   UNL     1      -5.558   0.817  -0.427  1.00  0.00    -0.025 C 
ATOM     29  C   UNL     1      -6.933   0.457   1.714  1.00  0.00     0.005 C 
ATOM     30  C   UNL     1      -5.587   2.331  -0.710  1.00  0.00     0.012 C 
ATOM     31  C   UNL     1      -5.458   0.086  -1.813  1.00  0.00     0.010 C 
ATOM     32  C   UNL     1      -6.881   0.238   0.199  1.00  0.00     0.003 C 
ATOM     33  C   UNL     1      -6.696   0.208  -2.713  1.00  0.00     0.033 C 
ATOM     34  C   UNL     1      -8.214   0.514  -0.629  1.00  0.00    -0.006 C 
ATOM     35  C   UNL     1      -8.011  -0.159  -2.019  1.00  0.00     0.120 C 
ATOM     36  C   UNL     1      -8.625   1.994  -0.770  1.00  0.00     0.014 C 
ATOM     37  C   UNL     1      -9.444  -0.161   0.029  1.00  0.00     0.014 C 
BRANCH  35  38
ATOM     38  O   UNL     1      -9.098   0.084  -2.912  1.00  0.00    -0.393 OA
ATOM     39  H   UNL     1      -9.138   1.030  -3.122  1.00  0.00     0.210 HD
ENDBRANCH  35  38
ENDBRANCH   7   9
ENDBRANCH   6   7
ENDBRANCH   5   6
ENDBRANCH   4   5
ENDBRANCH   3   4
ENDBRANCH   2   3
ENDBRANCH   1   2
BRANCH   1  40
ATOM     40  O   UNL     1      -0.934  -2.619  -4.631  1.00  0.00    -0.376 OA
BRANCH  40  41
ATOM     41  C   UNL     1      -1.445  -1.999  -5.791  1.00  0.00     0.202 C 
BRANCH  41  42
ATOM     42  C   UNL     1      -2.729  -2.595  -6.391  1.00  0.00     0.261 C 
BRANCH  42  43
ATOM     43  O   UNL     1      -3.865  -2.749  -5.502  1.00  0.00    -0.460 OA
BRANCH  43  44
ATOM     44  C   UNL     1      -4.076  -3.980  -4.952  1.00  0.00     0.338 C 
ATOM     45  O   UNL     1      -3.445  -4.989  -5.199  1.00  0.00    -0.246 OA
BRANCH  44  46
ATOM     46  C   UNL     1      -5.105  -3.929  -3.858  1.00  0.00     0.060 A 
ATOM     47  C   UNL     1      -4.839  -4.522  -2.610  1.00  0.00     0.016 A 
ATOM     48  C   UNL     1      -6.364  -3.376  -4.076  1.00  0.00     0.016 A 
ATOM     49  C   UNL     1      -5.840  -4.639  -1.620  1.00  0.00     0.010 A 
ATOM     50  C   UNL     1      -7.365  -3.507  -3.093  1.00  0.00     0.010 A 
ATOM     51  C   UNL     1      -7.139  -4.187  -1.872  1.00  0.00    -0.014 A 
BRANCH  51  52
ATOM     52  C   UNL     1      -8.322  -4.631  -1.050  1.00  0.00     0.031 A 
ATOM     53  C   UNL     1      -9.284  -5.609  -1.693  1.00  0.00     0.074 A 
ATOM     54  C   UNL     1      -8.601  -4.226   0.209  1.00  0.00     0.049 A 
ATOM     55  N   UNL     1     -10.462  -6.024  -1.293  1.00  0.00    -0.248 NA
ATOM     56  C   UNL     1      -8.847  -6.198  -2.970  1.00  0.00     0.031 C 
ATOM     57  C   UNL     1      -7.759  -3.385   1.048  1.00  0.00     0.029 A 
ATOM     58  N   UNL     1      -9.721  -4.448   0.994  1.00  0.00    -0.354 N 
ATOM     59  C   UNL     1     -10.910  -6.894  -2.280  1.00  0.00     0.074 A 
ATOM     60  C   UNL     1      -9.906  -6.908  -3.321  1.00  0.00     0.031 C 
ATOM     61  C   UNL     1      -8.415  -3.095   2.190  1.00  0.00     0.029 A 
ATOM     62  C   UNL     1      -9.735  -3.727   2.168  1.00  0.00     0.049 A 
ATOM     63  H   UNL     1     -10.442  -5.066   0.736  1.00  0.00     0.167 HD
ATOM     64  C   UNL     1     -12.034  -7.647  -2.314  1.00  0.00     0.037 A 
ATOM     65  C   UNL     1     -10.700  -3.569   3.102  1.00  0.00     0.037 A 
ATOM     66  C   UNL     1     -13.024  -7.702  -1.273  1.00  0.00     0.049 A 
ATOM     67  C   UNL     1     -12.007  -4.326   2.986  1.00  0.00     0.074 A 
ATOM     68  C   UNL     1     -14.156  -8.496  -1.207  1.00  0.00     0.029 A 
ATOM     69  N   UNL     1     -13.005  -6.935  -0.121  1.00  0.00    -0.354 N 
ATOM     70  N   UNL     1     -12.391  -5.186   2.077  1.00  0.00    -0.248 NA
ATOM     71  C   UNL     1     -13.004  -4.113   4.052  1.00  0.00     0.031 C 
ATOM     72  C   UNL     1     -14.855  -8.169  -0.042  1.00  0.00     0.029 A 
ATOM     73  C   UNL     1     -14.124  -7.217   0.648  1.00  0.00     0.049 A 
ATOM     74  H   UNL     1     -12.303  -6.287   0.116  1.00  0.00     0.167 HD
ATOM     75  C   UNL     1     -13.628  -5.666   2.498  1.00  0.00     0.074 A 
ATOM     76  C   UNL     1     -13.940  -4.997   3.739  1.00  0.00     0.031 C 
ATOM     77  C   UNL     1     -14.422  -6.593   1.909  1.00  0.00     0.037 A 
BRANCH  64  78
ATOM     78  C   UNL     1     -12.264  -8.492  -3.531  1.00  0.00     0.064 A 
ATOM     79  C   UNL     1     -11.492  -9.635  -3.791  1.00  0.00     0.173 A 
ATOM     80  C   UNL     1     -13.305  -8.184  -4.418  1.00  0.00     0.173 A 
ATOM     81  F   UNL     1     -10.477  -9.965  -2.978  1.00  0.00    -0.203 F 
ATOM     82  C   UNL     1     -11.741 -10.424  -4.910  1.00  0.00     0.198 A 
ATOM     83  C   UNL     1     -13.572  -8.994  -5.517  1.00  0.00     0.198 A 
ATOM     84  F   UNL     1     -14.077  -7.106  -4.208  1.00  0.00    -0.203 F 
ATOM     85  F   UNL     1     -10.963 -11.486  -5.164  1.00  0.00    -0.200 F 
ATOM     86  C   UNL     1     -12.786 -10.109  -5.765  1.00  0.00     0.200 A 
ATOM     87  F   UNL     1     -14.593  -8.699  -6.333  1.00  0.00    -0.200 F 
ATOM     88  F   UNL     1     -13.034 -10.880  -6.833  1.00  0.00    -0.200 F 
ENDBRANCH  64  78
BRANCH  65  89
ATOM     89  C   UNL     1     -10.511  -2.645   4.261  1.00  0.00     0.064 A 
ATOM     90  C   UNL     1     -10.433  -3.131   5.576  1.00  0.00     0.173 A 
ATOM     91  C   UNL     1     -10.539  -1.253   4.091  1.00  0.00     0.173 A 
ATOM     92  F   UNL     1     -10.457  -4.453   5.801  1.00  0.00    -0.203 F 
ATOM     93  C   UNL     1     -10.424  -2.265   6.670  1.00  0.00     0.198 A 
ATOM     94  C   UNL     1     -10.494  -0.386   5.184  1.00  0.00     0.198 A 
ATOM     95  F   UNL     1     -10.653  -0.731   2.864  1.00  0.00    -0.203 F 
ATOM     96  F   UNL     1     -10.436  -2.761   7.915  1.00  0.00    -0.200 F 
ATOM     97  C   UNL     1     -10.452  -0.893   6.473  1.00  0.00     0.200 A 
ATOM     98  F   UNL     1     -10.525   0.940   4.988  1.00  0.00    -0.200 F 
ATOM     99  F   UNL     1     -10.464  -0.062   7.524  1.00  0.00    -0.200 F 
ENDBRANCH  65  89
BRANCH  77 100
ATOM    100  C   UNL     1     -15.666  -7.029   2.632  1.00  0.00     0.064 A 
ATOM    101  C   UNL     1     -16.780  -6.190   2.782  1.00  0.00     0.173 A 
ATOM    102  C   UNL     1     -15.764  -8.338   3.136  1.00  0.00     0.173 A 
ATOM    103  F   UNL     1     -16.739  -4.928   2.330  1.00  0.00    -0.203 F 
ATOM    104  C   UNL     1     -17.932  -6.634   3.429  1.00  0.00     0.198 A 
ATOM    105  C   UNL     1     -16.929  -8.789   3.751  1.00  0.00     0.198 A 
ATOM    106  F   UNL     1     -14.734  -9.188   3.014  1.00  0.00    -0.203 F 
ATOM    107  F   UNL     1     -18.965  -5.798   3.601  1.00  0.00    -0.200 F 
ATOM    108  C   UNL     1     -18.009  -7.935   3.904  1.00  0.00     0.200 A 
ATOM    109  F   UNL     1     -17.006 -10.052   4.193  1.00  0.00    -0.200 F 
ATOM    110  F   UNL     1     -19.123  -8.363   4.514  1.00  0.00    -0.200 F 
ENDBRANCH  77 100
ENDBRANCH  51  52
ENDBRANCH  44  46
ENDBRANCH  43  44
ENDBRANCH  42  43
ENDBRANCH  41  42
ENDBRANCH  40  41
ENDBRANCH   1  40
TORSDOF 18
