REMARK SMILES O=C(OCCOCCOCCOC(=O)c1ccc(NC(=O)[C@@H]2COCCO2)cc1O)c1ccc(-c2c3nc(c(-c4c(F)c(F)c(F)c(F)c4F)c4ccc([nH]4)c(-c4c(F)c(F)c(F)c(F)c4F)c4nc(c(-c5c(F)c(F)c(F)c(F)c5F)c5ccc2[nH]5)C=C4)C=C3)cc1
REMARK SMILES IDX 7 1 6 2 5 3 4 4 3 5 2 6 1 7 31 8 32 9 93 10 33 11 92 12
REMARK SMILES IDX 34 13 35 14 36 15 86 16 37 17 91 18 85 19 87 20 38 21 90 22
REMARK SMILES IDX 84 23 83 24 39 26 71 27 51 28 70 29 52 30 55 31 69 32 88 33
REMARK SMILES IDX 53 34 54 35 68 37 89 38 56 39 40 40 41 41 49 42 42 43 43 44
REMARK SMILES IDX 47 45 50 46 44 47 45 48 48 49 46 50 72 51 73 52 81 53 74 54
REMARK SMILES IDX 75 55 79 56 82 57 76 58 77 59 80 60 78 61 57 62 58 63 66 64
REMARK SMILES IDX 59 65 60 66 64 67 67 68 61 69 62 70 65 71 63 72 8 73 9 74
REMARK SMILES IDX 10 75 11 76 12 77 13 78 14 79 15 80 16 81 29 82 17 83 28 84
REMARK SMILES IDX 18 85 30 86 19 88 20 89 21 91 22 92 23 93 27 94 24 95 26 96
REMARK SMILES IDX 25 97
REMARK H PARENT 87 25 55 36 30 87 19 90
REMARK Flexibility Score: inf
ROOT
ATOM      1  C   UNL     1       2.470   0.516   2.128  1.00  0.00     0.188 C 
ENDROOT
BRANCH   1   2
ATOM      2  O   UNL     1       3.732   0.063   1.621  1.00  0.00    -0.376 OA
BRANCH   2   3
ATOM      3  C   UNL     1       4.571   1.116   1.140  1.00  0.00     0.202 C 
BRANCH   3   4
ATOM      4  C   UNL     1       4.373   1.451  -0.344  1.00  0.00     0.261 C 
BRANCH   4   5
ATOM      5  O   UNL     1       3.003   1.308  -0.752  1.00  0.00    -0.460 OA
BRANCH   5   6
ATOM      6  C   UNL     1       2.458   0.276  -1.443  1.00  0.00     0.338 C 
ATOM      7  O   UNL     1       1.282   0.344  -1.799  1.00  0.00    -0.246 OA
BRANCH   6   8
ATOM      8  C   UNL     1       3.230  -0.939  -1.840  1.00  0.00     0.060 A 
ATOM      9  C   UNL     1       4.239  -1.521  -1.073  1.00  0.00     0.016 A 
ATOM     10  C   UNL     1       2.835  -1.594  -3.017  1.00  0.00     0.016 A 
ATOM     11  C   UNL     1       4.903  -2.667  -1.502  1.00  0.00     0.010 A 
ATOM     12  C   UNL     1       3.432  -2.800  -3.403  1.00  0.00     0.010 A 
ATOM     13  C   UNL     1       4.490  -3.332  -2.657  1.00  0.00    -0.014 A 
BRANCH  13  14
ATOM     14  C   UNL     1       5.216  -4.545  -3.101  1.00  0.00     0.031 A 
ATOM     15  C   UNL     1       6.013  -4.496  -4.370  1.00  0.00     0.074 A 
ATOM     16  C   UNL     1       5.237  -5.651  -2.334  1.00  0.00     0.049 A 
ATOM     17  N   UNL     1       6.658  -5.457  -4.979  1.00  0.00    -0.248 NA
ATOM     18  C   UNL     1       6.117  -3.185  -5.031  1.00  0.00     0.031 C 
ATOM     19  C   UNL     1       4.611  -5.778  -1.018  1.00  0.00     0.029 A 
ATOM     20  N   UNL     1       5.831  -6.873  -2.538  1.00  0.00    -0.354 N 
ATOM     21  C   UNL     1       7.235  -4.870  -6.094  1.00  0.00     0.074 A 
ATOM     22  C   UNL     1       6.846  -3.477  -6.098  1.00  0.00     0.031 C 
ATOM     23  C   UNL     1       4.875  -6.999  -0.529  1.00  0.00     0.029 A 
ATOM     24  C   UNL     1       5.578  -7.775  -1.535  1.00  0.00     0.049 A 
ATOM     25  H   UNL     1       6.384  -7.081  -3.325  1.00  0.00     0.167 HD
ATOM     26  C   UNL     1       8.034  -5.444  -7.023  1.00  0.00     0.037 A 
ATOM     27  C   UNL     1       5.828  -9.095  -1.454  1.00  0.00     0.037 A 
ATOM     28  C   UNL     1       8.436  -6.823  -6.999  1.00  0.00     0.049 A 
ATOM     29  C   UNL     1       6.570  -9.748  -2.581  1.00  0.00     0.074 A 
ATOM     30  C   UNL     1       9.251  -7.502  -7.885  1.00  0.00     0.029 A 
ATOM     31  N   UNL     1       8.046  -7.736  -6.030  1.00  0.00    -0.354 N 
ATOM     32  N   UNL     1       7.086  -9.195  -3.651  1.00  0.00    -0.248 NA
ATOM     33  C   UNL     1       6.765 -11.200  -2.496  1.00  0.00     0.031 C 
ATOM     34  C   UNL     1       9.321  -8.839  -7.475  1.00  0.00     0.029 A 
ATOM     35  C   UNL     1       8.577  -8.983  -6.315  1.00  0.00     0.049 A 
ATOM     36  H   UNL     1       7.476  -7.529  -5.255  1.00  0.00     0.167 HD
ATOM     37  C   UNL     1       7.685 -10.225  -4.357  1.00  0.00     0.074 A 
ATOM     38  C   UNL     1       7.478 -11.436  -3.588  1.00  0.00     0.031 C 
ATOM     39  C   UNL     1       8.352 -10.171  -5.535  1.00  0.00     0.037 A 
BRANCH  26  40
ATOM     40  C   UNL     1       8.493  -4.579  -8.155  1.00  0.00     0.064 A 
ATOM     41  C   UNL     1       9.498  -3.615  -7.987  1.00  0.00     0.173 A 
ATOM     42  C   UNL     1       7.915  -4.717  -9.425  1.00  0.00     0.173 A 
ATOM     43  F   UNL     1      10.060  -3.428  -6.783  1.00  0.00    -0.203 F 
ATOM     44  C   UNL     1       9.895  -2.807  -9.048  1.00  0.00     0.198 A 
ATOM     45  C   UNL     1       8.329  -3.921 -10.488  1.00  0.00     0.198 A 
ATOM     46  F   UNL     1       6.944  -5.619  -9.631  1.00  0.00    -0.203 F 
ATOM     47  F   UNL     1      10.826  -1.862  -8.857  1.00  0.00    -0.200 F 
ATOM     48  C   UNL     1       9.314  -2.963 -10.299  1.00  0.00     0.200 A 
ATOM     49  F   UNL     1       7.766  -4.072 -11.695  1.00  0.00    -0.200 F 
ATOM     50  F   UNL     1       9.696  -2.182 -11.318  1.00  0.00    -0.200 F 
ENDBRANCH  26  40
BRANCH  27  51
ATOM     51  C   UNL     1       5.292  -9.899  -0.322  1.00  0.00     0.064 A 
ATOM     52  C   UNL     1       6.135 -10.502   0.620  1.00  0.00     0.173 A 
ATOM     53  C   UNL     1       3.910 -10.104  -0.181  1.00  0.00     0.173 A 
ATOM     54  F   UNL     1       7.463 -10.346   0.526  1.00  0.00    -0.203 F 
ATOM     55  C   UNL     1       5.618 -11.295   1.645  1.00  0.00     0.198 A 
ATOM     56  C   UNL     1       3.394 -10.877   0.856  1.00  0.00     0.198 A 
ATOM     57  F   UNL     1       3.051  -9.523  -1.029  1.00  0.00    -0.203 F 
ATOM     58  F   UNL     1       6.447 -11.883   2.517  1.00  0.00    -0.200 F 
ATOM     59  C   UNL     1       4.248 -11.480   1.763  1.00  0.00     0.200 A 
ATOM     60  F   UNL     1       2.068 -11.012   0.987  1.00  0.00    -0.200 F 
ATOM     61  F   UNL     1       3.752 -12.230   2.756  1.00  0.00    -0.200 F 
ENDBRANCH  27  51
BRANCH  39  62
ATOM     62  C   UNL     1       8.924 -11.458  -6.039  1.00  0.00     0.064 A 
ATOM     63  C   UNL     1       8.108 -12.442  -6.614  1.00  0.00     0.173 A 
ATOM     64  C   UNL     1      10.302 -11.700  -5.958  1.00  0.00     0.173 A 
ATOM     65  F   UNL     1       6.781 -12.261  -6.686  1.00  0.00    -0.203 F 
ATOM     66  C   UNL     1       8.653 -13.635  -7.075  1.00  0.00     0.198 A 
ATOM     67  C   UNL     1      10.846 -12.884  -6.443  1.00  0.00     0.198 A 
ATOM     68  F   UNL     1      11.119 -10.786  -5.412  1.00  0.00    -0.203 F 
ATOM     69  F   UNL     1       7.852 -14.583  -7.581  1.00  0.00    -0.200 F 
ATOM     70  C   UNL     1      10.021 -13.852  -6.996  1.00  0.00     0.200 A 
ATOM     71  F   UNL     1      12.168 -13.091  -6.370  1.00  0.00    -0.200 F 
ATOM     72  F   UNL     1      10.544 -15.002  -7.443  1.00  0.00    -0.200 F 
ENDBRANCH  39  62
ENDBRANCH  13  14
ENDBRANCH   6   8
ENDBRANCH   5   6
ENDBRANCH   4   5
ENDBRANCH   3   4
ENDBRANCH   2   3
ENDBRANCH   1   2
BRANCH   1  73
ATOM     73  C   UNL     1       1.934  -0.469   3.171  1.00  0.00     0.188 C 
BRANCH  73  74
ATOM     74  O   UNL     1       2.577  -0.409   4.447  1.00  0.00    -0.376 OA
BRANCH  74  75
ATOM     75  C   UNL     1       3.962  -0.742   4.479  1.00  0.00     0.202 C 
BRANCH  75  76
ATOM     76  C   UNL     1       4.313  -2.234   4.461  1.00  0.00     0.261 C 
BRANCH  76  77
ATOM     77  O   UNL     1       3.672  -3.000   3.429  1.00  0.00    -0.460 OA
BRANCH  77  78
ATOM     78  C   UNL     1       2.714  -3.854   3.872  1.00  0.00     0.341 C 
ATOM     79  O   UNL     1       2.266  -3.953   5.006  1.00  0.00    -0.246 OA
BRANCH  78  80
ATOM     80  C   UNL     1       2.263  -4.712   2.768  1.00  0.00     0.101 A 
ATOM     81  C   UNL     1       1.263  -4.272   1.901  1.00  0.00     0.022 A 
ATOM     82  C   UNL     1       2.740  -6.014   2.658  1.00  0.00     0.132 A 
ATOM     83  C   UNL     1       0.799  -5.110   0.876  1.00  0.00     0.027 A 
ATOM     84  C   UNL     1       2.250  -6.852   1.653  1.00  0.00     0.073 A 
ATOM     85  C   UNL     1       1.333  -6.383   0.698  1.00  0.00     0.044 A 
BRANCH  82  86
ATOM     86  O   UNL     1       3.714  -6.458   3.505  1.00  0.00    -0.507 OA
ATOM     87  H   UNL     1       4.042  -5.896   4.179  1.00  0.00     0.293 HD
ENDBRANCH  82  86
BRANCH  85  88
ATOM     88  N   UNL     1       1.072  -7.247  -0.380  1.00  0.00    -0.324 N 
ATOM     89  C   UNL     1       0.476  -7.125  -1.603  1.00  0.00     0.255 C 
ATOM     90  H   UNL     1       1.397  -8.161  -0.213  1.00  0.00     0.170 HD
ATOM     91  O   UNL     1       0.462  -8.153  -2.295  1.00  0.00    -0.272 OA
BRANCH  89  92
ATOM     92  C   UNL     1      -0.199  -5.840  -2.100  1.00  0.00     0.233 C 
ATOM     93  C   UNL     1      -0.595  -5.998  -3.582  1.00  0.00     0.202 C 
ATOM     94  O   UNL     1       0.603  -4.657  -1.984  1.00  0.00    -0.364 OA
ATOM     95  O   UNL     1      -1.333  -4.848  -4.042  1.00  0.00    -0.376 OA
ATOM     96  C   UNL     1      -0.170  -3.514  -2.386  1.00  0.00     0.189 C 
ATOM     97  C   UNL     1      -0.565  -3.651  -3.852  1.00  0.00     0.188 C 
ENDBRANCH  89  92
ENDBRANCH  85  88
ENDBRANCH  78  80
ENDBRANCH  77  78
ENDBRANCH  76  77
ENDBRANCH  75  76
ENDBRANCH  74  75
ENDBRANCH  73  74
ENDBRANCH   1  73
TORSDOF 20
