REMARK SMILES O=C(OCCOCCOCCOC(=O)c1ccc(N2C(=O)[C@@H]3N=NC(c4ccccc4)=C3[C@H]2c2cccc(Br)c2)cc1)c1ccc(-c2c3nc(c(-c4c(F)c(F)c(F)c(F)c4F)c4ccc([nH]4)c(-c4c(F)c(F)c(F)c(F)c4F)c4nc(c(-c5c(F)c(F)c(F)c(F)c5F)c5ccc2[nH]5)C=C4)C=C3)cc1
REMARK SMILES IDX 7 1 6 2 5 3 4 4 3 5 2 6 1 7 43 8 44 9 105 10 45 11 104 12
REMARK SMILES IDX 46 13 47 14 48 15 98 16 49 17 103 18 97 19 99 20 50 21
REMARK SMILES IDX 102 22 96 23 95 24 51 26 83 27 63 28 82 29 64 30 67 31 81 32
REMARK SMILES IDX 100 33 65 34 66 35 80 37 101 38 68 39 52 40 53 41 61 42
REMARK SMILES IDX 54 43 55 44 59 45 62 46 56 47 57 48 60 49 58 50 84 51 85 52
REMARK SMILES IDX 93 53 86 54 87 55 91 56 94 57 88 58 89 59 92 60 90 61 69 62
REMARK SMILES IDX 70 63 78 64 71 65 72 66 76 67 79 68 73 69 74 70 77 71 75 72
REMARK SMILES IDX 8 73 9 74 10 75 11 76 12 77 13 78 14 79 15 80 16 81 42 82
REMARK SMILES IDX 17 83 41 84 18 85 19 86 20 87 33 88 22 89 21 90 32 91 23 92
REMARK SMILES IDX 25 93 24 94 34 95 35 96 40 97 36 98 38 99 37 100 39 101
REMARK SMILES IDX 26 102 27 103 31 104 28 105 30 106 29 107
REMARK H PARENT 99 25 67 36
REMARK Flexibility Score: inf
ROOT
ATOM      1  C   UNL     1       3.525   0.822   1.493  1.00  0.00     0.188 C 
ENDROOT
BRANCH   1   2
ATOM      2  O   UNL     1       4.830   1.104   1.018  1.00  0.00    -0.376 OA
BRANCH   2   3
ATOM      3  C   UNL     1       5.305   0.356  -0.085  1.00  0.00     0.202 C 
BRANCH   3   4
ATOM      4  C   UNL     1       4.622   0.606  -1.434  1.00  0.00     0.261 C 
BRANCH   4   5
ATOM      5  O   UNL     1       3.206   0.837  -1.385  1.00  0.00    -0.460 OA
BRANCH   5   6
ATOM      6  C   UNL     1       2.166  -0.002  -1.536  1.00  0.00     0.338 C 
ATOM      7  O   UNL     1       1.087   0.436  -1.931  1.00  0.00    -0.246 OA
BRANCH   6   8
ATOM      8  C   UNL     1       2.196  -1.400  -1.042  1.00  0.00     0.060 A 
ATOM      9  C   UNL     1       3.295  -2.254  -1.118  1.00  0.00     0.016 A 
ATOM     10  C   UNL     1       0.972  -1.898  -0.551  1.00  0.00     0.016 A 
ATOM     11  C   UNL     1       3.146  -3.602  -0.820  1.00  0.00     0.010 A 
ATOM     12  C   UNL     1       0.820  -3.244  -0.249  1.00  0.00     0.010 A 
ATOM     13  C   UNL     1       1.892  -4.104  -0.463  1.00  0.00    -0.014 A 
BRANCH  13  14
ATOM     14  C   UNL     1       1.738  -5.555  -0.436  1.00  0.00     0.031 A 
ATOM     15  C   UNL     1       2.501  -6.304   0.598  1.00  0.00     0.074 A 
ATOM     16  C   UNL     1       0.921  -6.189  -1.302  1.00  0.00     0.049 A 
ATOM     17  N   UNL     1       3.348  -7.270   0.429  1.00  0.00    -0.248 NA
ATOM     18  C   UNL     1       2.328  -5.895   1.998  1.00  0.00     0.031 C 
ATOM     19  C   UNL     1      -0.074  -5.597  -2.202  1.00  0.00     0.029 A 
ATOM     20  N   UNL     1       0.747  -7.529  -1.486  1.00  0.00    -0.354 N 
ATOM     21  C   UNL     1       3.702  -7.702   1.708  1.00  0.00     0.074 A 
ATOM     22  C   UNL     1       3.122  -6.760   2.630  1.00  0.00     0.031 C 
ATOM     23  C   UNL     1      -0.891  -6.569  -2.662  1.00  0.00     0.029 A 
ATOM     24  C   UNL     1      -0.396  -7.853  -2.199  1.00  0.00     0.049 A 
ATOM     25  H   UNL     1       1.375  -8.205  -1.144  1.00  0.00     0.167 HD
ATOM     26  C   UNL     1       4.291  -8.911   1.921  1.00  0.00     0.037 A 
ATOM     27  C   UNL     1      -0.947  -9.082  -2.333  1.00  0.00     0.037 A 
ATOM     28  C   UNL     1       4.966  -9.391   0.745  1.00  0.00     0.049 A 
ATOM     29  C   UNL     1       0.098 -10.089  -2.034  1.00  0.00     0.074 A 
ATOM     30  C   UNL     1       5.999  -8.920  -0.044  1.00  0.00     0.029 A 
ATOM     31  N   UNL     1       4.413 -10.422   0.030  1.00  0.00    -0.354 N 
ATOM     32  N   UNL     1       1.124 -10.333  -2.800  1.00  0.00    -0.248 NA
ATOM     33  C   UNL     1       0.213 -10.565  -0.664  1.00  0.00     0.031 C 
ATOM     34  C   UNL     1       5.687  -9.352  -1.367  1.00  0.00     0.029 A 
ATOM     35  C   UNL     1       4.498 -10.076  -1.292  1.00  0.00     0.049 A 
ATOM     36  H   UNL     1       4.029 -11.252   0.397  1.00  0.00     0.167 HD
ATOM     37  C   UNL     1       2.161 -10.607  -1.921  1.00  0.00     0.074 A 
ATOM     38  C   UNL     1       1.518 -10.844  -0.633  1.00  0.00     0.031 C 
ATOM     39  C   UNL     1       3.458 -10.342  -2.254  1.00  0.00     0.037 A 
BRANCH  26  40
ATOM     40  C   UNL     1       3.971  -9.814   3.094  1.00  0.00     0.064 A 
ATOM     41  C   UNL     1       4.690 -11.018   3.255  1.00  0.00     0.173 A 
ATOM     42  C   UNL     1       2.795  -9.706   3.867  1.00  0.00     0.173 A 
ATOM     43  F   UNL     1       5.823 -11.237   2.570  1.00  0.00    -0.203 F 
ATOM     44  C   UNL     1       4.210 -12.068   4.042  1.00  0.00     0.198 A 
ATOM     45  C   UNL     1       2.346 -10.736   4.693  1.00  0.00     0.198 A 
ATOM     46  F   UNL     1       1.975  -8.653   3.774  1.00  0.00    -0.203 F 
ATOM     47  F   UNL     1       4.855 -13.242   4.050  1.00  0.00    -0.200 F 
ATOM     48  C   UNL     1       3.031 -11.931   4.751  1.00  0.00     0.200 A 
ATOM     49  F   UNL     1       1.196 -10.589   5.364  1.00  0.00    -0.200 F 
ATOM     50  F   UNL     1       2.530 -12.960   5.446  1.00  0.00    -0.200 F 
ENDBRANCH  26  40
BRANCH  27  51
ATOM     51  C   UNL     1      -2.388  -9.412  -2.408  1.00  0.00     0.064 A 
ATOM     52  C   UNL     1      -2.829 -10.651  -2.894  1.00  0.00     0.173 A 
ATOM     53  C   UNL     1      -3.354  -8.608  -1.769  1.00  0.00     0.173 A 
ATOM     54  F   UNL     1      -1.962 -11.497  -3.468  1.00  0.00    -0.203 F 
ATOM     55  C   UNL     1      -4.156 -11.065  -2.740  1.00  0.00     0.198 A 
ATOM     56  C   UNL     1      -4.679  -9.015  -1.628  1.00  0.00     0.198 A 
ATOM     57  F   UNL     1      -3.011  -7.450  -1.185  1.00  0.00    -0.203 F 
ATOM     58  F   UNL     1      -4.530 -12.280  -3.166  1.00  0.00    -0.200 F 
ATOM     59  C   UNL     1      -5.078 -10.250  -2.103  1.00  0.00     0.200 A 
ATOM     60  F   UNL     1      -5.550  -8.231  -0.978  1.00  0.00    -0.200 F 
ATOM     61  F   UNL     1      -6.336 -10.668  -1.911  1.00  0.00    -0.200 F 
ENDBRANCH  27  51
BRANCH  39  62
ATOM     62  C   UNL     1       3.759 -10.018  -3.687  1.00  0.00     0.064 A 
ATOM     63  C   UNL     1       3.256  -8.882  -4.346  1.00  0.00     0.173 A 
ATOM     64  C   UNL     1       4.699 -10.800  -4.371  1.00  0.00     0.173 A 
ATOM     65  F   UNL     1       2.442  -8.025  -3.716  1.00  0.00    -0.203 F 
ATOM     66  C   UNL     1       3.638  -8.577  -5.650  1.00  0.00     0.198 A 
ATOM     67  C   UNL     1       5.106 -10.472  -5.662  1.00  0.00     0.198 A 
ATOM     68  F   UNL     1       5.261 -11.858  -3.767  1.00  0.00    -0.203 F 
ATOM     69  F   UNL     1       3.136  -7.494  -6.262  1.00  0.00    -0.200 F 
ATOM     70  C   UNL     1       4.567  -9.369  -6.305  1.00  0.00     0.200 A 
ATOM     71  F   UNL     1       6.045 -11.209  -6.272  1.00  0.00    -0.200 F 
ATOM     72  F   UNL     1       4.966  -9.052  -7.544  1.00  0.00    -0.200 F 
ENDBRANCH  39  62
ENDBRANCH  13  14
ENDBRANCH   6   8
ENDBRANCH   5   6
ENDBRANCH   4   5
ENDBRANCH   3   4
ENDBRANCH   2   3
ENDBRANCH   1   2
BRANCH   1  73
ATOM     73  C   UNL     1       2.517   1.979   1.311  1.00  0.00     0.188 C 
BRANCH  73  74
ATOM     74  O   UNL     1       2.943   3.316   1.080  1.00  0.00    -0.376 OA
BRANCH  74  75
ATOM     75  C   UNL     1       4.222   3.745   1.509  1.00  0.00     0.202 C 
BRANCH  75  76
ATOM     76  C   UNL     1       4.491   3.805   3.018  1.00  0.00     0.261 C 
BRANCH  76  77
ATOM     77  O   UNL     1       4.062   2.666   3.784  1.00  0.00    -0.460 OA
BRANCH  77  78
ATOM     78  C   UNL     1       2.911   2.833   4.469  1.00  0.00     0.338 C 
ATOM     79  O   UNL     1       2.181   3.824   4.476  1.00  0.00    -0.246 OA
BRANCH  78  80
ATOM     80  C   UNL     1       2.564   1.618   5.223  1.00  0.00     0.060 A 
ATOM     81  C   UNL     1       1.433   0.881   4.857  1.00  0.00     0.018 A 
ATOM     82  C   UNL     1       3.270   1.285   6.378  1.00  0.00     0.018 A 
ATOM     83  C   UNL     1       0.991  -0.170   5.666  1.00  0.00     0.027 A 
ATOM     84  C   UNL     1       2.800   0.252   7.201  1.00  0.00     0.027 A 
ATOM     85  C   UNL     1       1.638  -0.455   6.874  1.00  0.00     0.045 A 
BRANCH  85  86
ATOM     86  N   UNL     1       1.082  -1.416   7.760  1.00  0.00    -0.299 N 
ATOM     87  C   UNL     1       0.673  -2.690   7.263  1.00  0.00     0.259 C 
ATOM     88  C   UNL     1       0.229  -0.985   8.898  1.00  0.00     0.152 C 
ATOM     89  C   UNL     1      -0.427  -3.195   8.165  1.00  0.00     0.248 C 
ATOM     90  O   UNL     1       1.111  -3.263   6.277  1.00  0.00    -0.271 OA
ATOM     91  C   UNL     1      -0.932  -1.865   8.589  1.00  0.00     0.021 C 
ATOM     92  N   UNL     1      -1.580  -3.778   7.473  1.00  0.00    -0.170 NA
ATOM     93  C   UNL     1      -2.219  -1.833   8.232  1.00  0.00     0.097 C 
ATOM     94  N   UNL     1      -2.587  -3.034   7.651  1.00  0.00    -0.154 NA
BRANCH  88  95
ATOM     95  C   UNL     1       0.869  -1.328  10.261  1.00  0.00    -0.020 A 
ATOM     96  C   UNL     1       0.222  -2.141  11.216  1.00  0.00     0.006 A 
ATOM     97  C   UNL     1       2.154  -0.870  10.593  1.00  0.00     0.022 A 
ATOM     98  C   UNL     1       0.875  -2.578  12.375  1.00  0.00     0.002 A 
ATOM     99  C   UNL     1       2.808  -1.310  11.750  1.00  0.00     0.018 A 
ATOM    100  C   UNL     1       2.181  -2.180  12.633  1.00  0.00     0.016 A 
ATOM    101  Br  UNL     1       4.575  -0.736  12.104  1.00  0.00    -0.051 Br
ENDBRANCH  88  95
BRANCH  93 102
ATOM    102  C   UNL     1      -3.155  -0.718   8.056  1.00  0.00     0.002 A 
ATOM    103  C   UNL     1      -4.139  -0.440   9.012  1.00  0.00     0.010 A 
ATOM    104  C   UNL     1      -3.259  -0.132   6.784  1.00  0.00     0.010 A 
ATOM    105  C   UNL     1      -5.238   0.362   8.679  1.00  0.00     0.001 A 
ATOM    106  C   UNL     1      -4.359   0.663   6.452  1.00  0.00     0.001 A 
ATOM    107  C   UNL     1      -5.358   0.894   7.394  1.00  0.00     0.000 A 
ENDBRANCH  93 102
ENDBRANCH  85  86
ENDBRANCH  78  80
ENDBRANCH  77  78
ENDBRANCH  76  77
ENDBRANCH  75  76
ENDBRANCH  74  75
ENDBRANCH  73  74
ENDBRANCH   1  73
TORSDOF 20
