REMARK SMILES CCNC(=O)NC(=O)[C@@H](C)[NH2+][C@](C)(C(=O)OCCOCCOCCOC(=O)c1ccc(-c2c3nc(c(-c4c(F)c(F)c(F)c(F)c4F)c4ccc([nH]4)c(-c4c(F)c(F)c(F)c(F)c4F)c4nc(c(-c5c(F)c(F)c(F)c(F)c5F)c5ccc2[nH]5)C=C4)C=C3)cc1)C(F)(F)F
REMARK SMILES IDX 20 1 19 2 18 3 17 4 16 5 14 6 15 7 12 8 13 9 11 10 9 13
REMARK SMILES IDX 10 14 7 15 3 16 4 17 5 19 6 20 8 22 2 23 1 24 91 25 92 26
REMARK SMILES IDX 93 27 94 28 21 29 22 30 23 31 24 32 25 33 26 34 27 35 28 36
REMARK SMILES IDX 29 37 90 38 30 39 89 40 31 41 32 42 33 43 83 44 34 45 88 46
REMARK SMILES IDX 82 47 84 48 35 49 87 50 81 51 80 52 36 54 68 55 48 56 67 57
REMARK SMILES IDX 49 58 52 59 66 60 85 61 50 62 51 63 65 65 86 66 53 67 37 68
REMARK SMILES IDX 38 69 46 70 39 71 40 72 44 73 47 74 41 75 42 76 45 77 43 78
REMARK SMILES IDX 69 79 70 80 78 81 71 82 72 83 76 84 79 85 73 86 74 87 77 88
REMARK SMILES IDX 75 89 54 90 55 91 63 92 56 93 57 94 61 95 64 96 58 97 59 98
REMARK SMILES IDX 62 99 60 100
REMARK H PARENT 11 11 11 12 3 18 6 21 84 53 52 64
REMARK Flexibility Score: inf
ROOT
ATOM      1  C   UNL     1       1.518  -1.930  -5.799  1.00  0.00     0.188 C 
ENDROOT
BRANCH   1   2
ATOM      2  O   UNL     1       2.823  -2.132  -6.315  1.00  0.00    -0.376 OA
BRANCH   2   3
ATOM      3  C   UNL     1       3.669  -3.021  -5.589  1.00  0.00     0.202 C 
BRANCH   3   4
ATOM      4  C   UNL     1       4.151  -2.557  -4.202  1.00  0.00     0.261 C 
BRANCH   4   5
ATOM      5  O   UNL     1       3.097  -2.137  -3.312  1.00  0.00    -0.458 OA
BRANCH   5   6
ATOM      6  C   UNL     1       3.017  -0.796  -3.052  1.00  0.00     0.377 C 
ATOM      7  O   UNL     1       3.866   0.010  -3.413  1.00  0.00    -0.244 OA
BRANCH   6   8
ATOM      8  C   UNL     1       1.747  -0.417  -2.260  1.00  0.00     0.287 C 
ATOM      9  C   UNL     1       0.613  -1.475  -2.311  1.00  0.00     0.103 C 
BRANCH   8  10
ATOM     10  N   UNL     1       2.118  -0.017  -0.876  1.00  0.00    -0.315 N 
ATOM     11  H   UNL     1       2.827   0.709  -0.983  1.00  0.00     0.348 HD
ATOM     12  H   UNL     1       1.197   0.187  -0.489  1.00  0.00     0.348 HD
BRANCH  10  13
ATOM     13  C   UNL     1       2.637  -0.920   0.142  1.00  0.00     0.271 C 
ATOM     14  C   UNL     1       1.917  -2.191   0.601  1.00  0.00     0.086 C 
BRANCH  13  15
ATOM     15  C   UNL     1       2.911  -0.091   1.404  1.00  0.00     0.285 C 
ATOM     16  N   UNL     1      -0.347   1.092   1.346  1.00  0.00    -0.338 N 
ATOM     17  C   UNL     1       0.763   1.425   2.005  1.00  0.00     0.321 C 
ATOM     18  H   UNL     1      -1.085   1.711   1.549  1.00  0.00     0.165 HD
ATOM     19  O   UNL     1       0.674   2.406   2.753  1.00  0.00    -0.248 OA
ATOM     20  N   UNL     1       1.990   0.812   1.956  1.00  0.00    -0.273 N 
ATOM     21  H   UNL     1       2.486   1.224   2.700  1.00  0.00     0.175 HD
ATOM     22  O   UNL     1       3.985  -0.224   2.006  1.00  0.00    -0.268 OA
BRANCH  16  23
ATOM     23  C   UNL     1      -0.757   0.073   0.419  1.00  0.00     0.114 C 
ATOM     24  C   UNL     1      -1.814  -0.877   0.939  1.00  0.00     0.027 C 
ENDBRANCH  16  23
ENDBRANCH  13  15
ENDBRANCH  10  13
ENDBRANCH   8  10
BRANCH   8  25
ATOM     25  C   UNL     1       1.199   0.841  -3.019  1.00  0.00     0.455 C 
ATOM     26  F   UNL     1       0.713   0.550  -4.247  1.00  0.00    -0.164 F 
ATOM     27  F   UNL     1       0.144   1.353  -2.316  1.00  0.00    -0.164 F 
ATOM     28  F   UNL     1       2.077   1.855  -3.144  1.00  0.00    -0.164 F 
ENDBRANCH   8  25
ENDBRANCH   6   8
ENDBRANCH   5   6
ENDBRANCH   4   5
ENDBRANCH   3   4
ENDBRANCH   2   3
ENDBRANCH   1   2
BRANCH   1  29
ATOM     29  C   UNL     1       0.636  -3.160  -5.624  1.00  0.00     0.188 C 
BRANCH  29  30
ATOM     30  O   UNL     1       1.185  -4.218  -4.851  1.00  0.00    -0.376 OA
BRANCH  30  31
ATOM     31  C   UNL     1       0.313  -5.335  -4.625  1.00  0.00     0.202 C 
BRANCH  31  32
ATOM     32  C   UNL     1      -0.501  -5.852  -5.833  1.00  0.00     0.261 C 
BRANCH  32  33
ATOM     33  O   UNL     1      -1.395  -4.892  -6.450  1.00  0.00    -0.460 OA
BRANCH  33  34
ATOM     34  C   UNL     1      -2.289  -4.245  -5.661  1.00  0.00     0.338 C 
ATOM     35  O   UNL     1      -2.587  -4.541  -4.522  1.00  0.00    -0.246 OA
BRANCH  34  36
ATOM     36  C   UNL     1      -2.636  -2.936  -6.302  1.00  0.00     0.060 A 
ATOM     37  C   UNL     1      -2.792  -1.817  -5.468  1.00  0.00     0.016 A 
ATOM     38  C   UNL     1      -2.711  -2.767  -7.689  1.00  0.00     0.016 A 
ATOM     39  C   UNL     1      -3.045  -0.548  -6.009  1.00  0.00     0.010 A 
ATOM     40  C   UNL     1      -2.982  -1.498  -8.229  1.00  0.00     0.010 A 
ATOM     41  C   UNL     1      -3.172  -0.381  -7.394  1.00  0.00    -0.014 A 
BRANCH  41  42
ATOM     42  C   UNL     1      -3.643   0.916  -7.962  1.00  0.00     0.031 A 
ATOM     43  C   UNL     1      -5.096   1.062  -8.333  1.00  0.00     0.074 A 
ATOM     44  C   UNL     1      -2.817   1.965  -8.142  1.00  0.00     0.049 A 
ATOM     45  N   UNL     1      -5.717   2.059  -8.914  1.00  0.00    -0.248 NA
ATOM     46  C   UNL     1      -5.968  -0.074  -7.996  1.00  0.00     0.031 C 
ATOM     47  C   UNL     1      -1.405   2.005  -7.774  1.00  0.00     0.029 A 
ATOM     48  N   UNL     1      -3.056   3.204  -8.695  1.00  0.00    -0.354 N 
ATOM     49  C   UNL     1      -7.046   1.670  -9.017  1.00  0.00     0.074 A 
ATOM     50  C   UNL     1      -7.138   0.337  -8.460  1.00  0.00     0.031 C 
ATOM     51  C   UNL     1      -0.897   3.200  -8.129  1.00  0.00     0.029 A 
ATOM     52  C   UNL     1      -1.935   3.994  -8.787  1.00  0.00     0.049 A 
ATOM     53  H   UNL     1      -3.947   3.495  -8.997  1.00  0.00     0.167 HD
ATOM     54  C   UNL     1      -8.098   2.360  -9.523  1.00  0.00     0.037 A 
ATOM     55  C   UNL     1      -1.757   5.201  -9.365  1.00  0.00     0.037 A 
ATOM     56  C   UNL     1      -8.019   3.685 -10.082  1.00  0.00     0.049 A 
ATOM     57  C   UNL     1      -2.920   5.900 -10.032  1.00  0.00     0.074 A 
ATOM     58  C   UNL     1      -9.042   4.465 -10.595  1.00  0.00     0.029 A 
ATOM     59  N   UNL     1      -6.853   4.421 -10.217  1.00  0.00    -0.354 N 
ATOM     60  N   UNL     1      -4.177   5.536 -10.105  1.00  0.00    -0.248 NA
ATOM     61  C   UNL     1      -2.632   7.177 -10.707  1.00  0.00     0.031 C 
ATOM     62  C   UNL     1      -8.485   5.643 -11.102  1.00  0.00     0.029 A 
ATOM     63  C   UNL     1      -7.124   5.626 -10.848  1.00  0.00     0.049 A 
ATOM     64  H   UNL     1      -5.963   4.131  -9.910  1.00  0.00     0.167 HD
ATOM     65  C   UNL     1      -4.829   6.543 -10.810  1.00  0.00     0.074 A 
ATOM     66  C   UNL     1      -3.835   7.545 -11.126  1.00  0.00     0.031 C 
ATOM     67  C   UNL     1      -6.135   6.624 -11.166  1.00  0.00     0.037 A 
BRANCH  54  68
ATOM     68  C   UNL     1      -9.435   1.676  -9.532  1.00  0.00     0.064 A 
ATOM     69  C   UNL     1     -10.157   1.446  -8.352  1.00  0.00     0.173 A 
ATOM     70  C   UNL     1     -10.020   1.286 -10.747  1.00  0.00     0.173 A 
ATOM     71  F   UNL     1      -9.637   1.789  -7.164  1.00  0.00    -0.203 F 
ATOM     72  C   UNL     1     -11.403   0.826  -8.385  1.00  0.00     0.198 A 
ATOM     73  C   UNL     1     -11.280   0.696 -10.779  1.00  0.00     0.198 A 
ATOM     74  F   UNL     1      -9.375   1.490 -11.905  1.00  0.00    -0.203 F 
ATOM     75  F   UNL     1     -12.054   0.571  -7.242  1.00  0.00    -0.200 F 
ATOM     76  C   UNL     1     -11.967   0.459  -9.598  1.00  0.00     0.200 A 
ATOM     77  F   UNL     1     -11.830   0.357 -11.953  1.00  0.00    -0.200 F 
ATOM     78  F   UNL     1     -13.170  -0.130  -9.629  1.00  0.00    -0.200 F 
ENDBRANCH  54  68
BRANCH  55  79
ATOM     79  C   UNL     1      -0.404   5.826  -9.389  1.00  0.00     0.064 A 
ATOM     80  C   UNL     1      -0.142   7.022  -8.706  1.00  0.00     0.173 A 
ATOM     81  C   UNL     1       0.640   5.266 -10.142  1.00  0.00     0.173 A 
ATOM     82  F   UNL     1      -1.118   7.620  -8.007  1.00  0.00    -0.203 F 
ATOM     83  C   UNL     1       1.104   7.641  -8.787  1.00  0.00     0.198 A 
ATOM     84  C   UNL     1       1.895   5.869 -10.197  1.00  0.00     0.198 A 
ATOM     85  F   UNL     1       0.438   4.134 -10.832  1.00  0.00    -0.203 F 
ATOM     86  F   UNL     1       1.307   8.815  -8.174  1.00  0.00    -0.200 F 
ATOM     87  C   UNL     1       2.124   7.061  -9.526  1.00  0.00     0.200 A 
ATOM     88  F   UNL     1       2.877   5.303 -10.911  1.00  0.00    -0.200 F 
ATOM     89  F   UNL     1       3.320   7.659  -9.607  1.00  0.00    -0.200 F 
ENDBRANCH  55  79
BRANCH  67  90
ATOM     90  C   UNL     1      -6.582   7.841 -11.929  1.00  0.00     0.064 A 
ATOM     91  C   UNL     1      -6.206   8.051 -13.264  1.00  0.00     0.173 A 
ATOM     92  C   UNL     1      -7.442   8.780 -11.338  1.00  0.00     0.173 A 
ATOM     93  F   UNL     1      -5.375   7.193 -13.875  1.00  0.00    -0.203 F 
ATOM     94  C   UNL     1      -6.658   9.164 -13.972  1.00  0.00     0.198 A 
ATOM     95  C   UNL     1      -7.917   9.875 -12.058  1.00  0.00     0.198 A 
ATOM     96  F   UNL     1      -7.841   8.627 -10.067  1.00  0.00    -0.203 F 
ATOM     97  F   UNL     1      -6.251   9.364 -15.233  1.00  0.00    -0.200 F 
ATOM     98  C   UNL     1      -7.520  10.069 -13.372  1.00  0.00     0.200 A 
ATOM     99  F   UNL     1      -8.764  10.739 -11.481  1.00  0.00    -0.200 F 
ATOM    100  F   UNL     1      -7.964  11.131 -14.058  1.00  0.00    -0.200 F 
ENDBRANCH  67  90
ENDBRANCH  41  42
ENDBRANCH  34  36
ENDBRANCH  33  34
ENDBRANCH  32  33
ENDBRANCH  31  32
ENDBRANCH  30  31
ENDBRANCH  29  30
ENDBRANCH   1  29
TORSDOF 22
