REMARK SMILES C[C@@H]1CCC[C@H](C)[N@H+]1Cc1cc2c(cc1Cl)C=C(C(=O)OCCOCCOCCOC(=O)c1ccc(-c3c4nc(c(-c5c(F)c(F)c(F)c(F)c5F)c5ccc([nH]5)c(-c5c(F)c(F)c(F)c(F)c5F)c5nc(c(-c6c(F)c(F)c(F)c(F)c6F)c6ccc3[nH]6)C=C5)C=C4)cc1)[C@@H](C(F)(F)F)O2
REMARK SMILES IDX 25 1 24 2 23 3 22 4 21 5 19 6 20 7 18 8 10 9 11 10 15 11
REMARK SMILES IDX 12 12 14 13 16 14 13 15 101 16 17 17 96 18 9 19 8 20 7 21
REMARK SMILES IDX 6 22 5 23 4 24 2 25 3 27 1 28 97 29 98 30 99 31 100 32 26 33
REMARK SMILES IDX 27 34 28 35 29 36 30 37 31 38 32 39 33 40 34 41 95 42 35 43
REMARK SMILES IDX 94 44 36 45 37 46 38 47 88 48 39 49 93 50 87 51 89 52 40 53
REMARK SMILES IDX 92 54 86 55 85 56 41 58 73 59 53 60 72 61 54 62 57 63 71 64
REMARK SMILES IDX 90 65 55 66 56 67 70 69 91 70 58 71 42 72 43 73 51 74 44 75
REMARK SMILES IDX 45 76 49 77 52 78 46 79 47 80 50 81 48 82 74 83 75 84 83 85
REMARK SMILES IDX 76 86 77 87 81 88 84 89 78 90 79 91 82 92 80 93 59 94 60 95
REMARK SMILES IDX 68 96 61 97 62 98 66 99 69 100 63 101 64 102 67 103 65 104
REMARK H PARENT 8 26 89 57 57 68
REMARK Flexibility Score: inf
ROOT
ATOM      1  C   UNL     1      -8.516  -0.344   2.203  1.00  0.00     0.188 C 
ENDROOT
BRANCH   1   2
ATOM      2  O   UNL     1      -9.830  -0.200   2.681  1.00  0.00    -0.376 OA
BRANCH   2   3
ATOM      3  C   UNL     1     -10.319  -0.935   3.788  1.00  0.00     0.202 C 
BRANCH   3   4
ATOM      4  C   UNL     1      -9.527  -1.940   4.644  1.00  0.00     0.261 C 
BRANCH   4   5
ATOM      5  O   UNL     1      -8.116  -2.023   4.446  1.00  0.00    -0.460 OA
BRANCH   5   6
ATOM      6  C   UNL     1      -7.696  -3.130   3.791  1.00  0.00     0.338 C 
ATOM      7  O   UNL     1      -8.404  -4.011   3.330  1.00  0.00    -0.246 OA
BRANCH   6   8
ATOM      8  C   UNL     1      -6.237  -3.070   3.580  1.00  0.00     0.087 C 
ATOM      9  C   UNL     1      -1.589  -3.553   1.692  1.00  0.00     0.029 A 
ATOM     10  C   UNL     1      -2.137  -2.890   2.814  1.00  0.00     0.058 A 
ATOM     11  C   UNL     1      -2.454  -4.346   0.919  1.00  0.00     0.050 A 
ATOM     12  C   UNL     1      -3.509  -2.935   3.086  1.00  0.00     0.128 A 
ATOM     13  C   UNL     1      -3.832  -4.332   1.149  1.00  0.00     0.033 A 
ATOM     14  Cl  UNL     1      -1.907  -5.407  -0.331  1.00  0.00    -0.084 Cl
ATOM     15  C   UNL     1      -4.361  -3.610   2.216  1.00  0.00     0.019 A 
ATOM     16  O   UNL     1      -3.956  -2.261   4.189  1.00  0.00    -0.475 OA
ATOM     17  C   UNL     1      -5.795  -3.571   2.422  1.00  0.00     0.027 C 
ATOM     18  C   UNL     1      -5.319  -2.526   4.644  1.00  0.00     0.316 C 
BRANCH   9  19
ATOM     19  C   UNL     1      -0.118  -3.370   1.361  1.00  0.00     0.301 C 
BRANCH  19  20
ATOM     20  N   UNL     1       0.253  -2.250   0.466  1.00  0.00    -0.327 N 
ATOM     21  C   UNL     1       1.320  -0.018   0.616  1.00  0.00     0.075 C 
ATOM     22  C   UNL     1       0.148  -0.909   1.058  1.00  0.00     0.181 C 
ATOM     23  C   UNL     1      -1.192  -0.212   0.777  1.00  0.00     0.065 C 
ATOM     24  C   UNL     1      -1.601  -0.266  -0.690  1.00  0.00     0.012 C 
ATOM     25  C   UNL     1      -0.189  -2.388  -0.929  1.00  0.00     0.181 C 
ATOM     26  H   UNL     1       1.264  -2.351   0.373  1.00  0.00     0.348 HD
ATOM     27  C   UNL     1      -1.524  -1.688  -1.234  1.00  0.00     0.065 C 
ATOM     28  C   UNL     1       0.898  -1.957  -1.925  1.00  0.00     0.075 C 
ENDBRANCH  19  20
ENDBRANCH   9  19
BRANCH  18  29
ATOM     29  C   UNL     1      -5.308  -3.440   5.878  1.00  0.00     0.430 C 
ATOM     30  F   UNL     1      -4.468  -2.980   6.833  1.00  0.00    -0.167 F 
ATOM     31  F   UNL     1      -6.539  -3.515   6.441  1.00  0.00    -0.167 F 
ATOM     32  F   UNL     1      -4.929  -4.702   5.573  1.00  0.00    -0.167 F 
ENDBRANCH  18  29
ENDBRANCH   6   8
ENDBRANCH   5   6
ENDBRANCH   4   5
ENDBRANCH   3   4
ENDBRANCH   2   3
ENDBRANCH   1   2
BRANCH   1  33
ATOM     33  C   UNL     1      -7.403   0.430   2.938  1.00  0.00     0.188 C 
BRANCH  33  34
ATOM     34  O   UNL     1      -7.713   1.206   4.084  1.00  0.00    -0.376 OA
BRANCH  34  35
ATOM     35  C   UNL     1      -8.736   2.193   3.994  1.00  0.00     0.202 C 
BRANCH  35  36
ATOM     36  C   UNL     1      -8.667   3.257   2.891  1.00  0.00     0.261 C 
BRANCH  36  37
ATOM     37  O   UNL     1      -8.645   2.710   1.562  1.00  0.00    -0.460 OA
BRANCH  37  38
ATOM     38  C   UNL     1      -7.541   2.995   0.829  1.00  0.00     0.338 C 
ATOM     39  O   UNL     1      -6.588   3.682   1.154  1.00  0.00    -0.246 OA
BRANCH  38  40
ATOM     40  C   UNL     1      -7.552   2.163  -0.389  1.00  0.00     0.060 A 
ATOM     41  C   UNL     1      -8.610   2.232  -1.297  1.00  0.00     0.016 A 
ATOM     42  C   UNL     1      -6.471   1.300  -0.617  1.00  0.00     0.016 A 
ATOM     43  C   UNL     1      -8.572   1.444  -2.450  1.00  0.00     0.010 A 
ATOM     44  C   UNL     1      -6.446   0.498  -1.759  1.00  0.00     0.010 A 
ATOM     45  C   UNL     1      -7.488   0.580  -2.692  1.00  0.00    -0.014 A 
BRANCH  45  46
ATOM     46  C   UNL     1      -7.383  -0.123  -3.992  1.00  0.00     0.031 A 
ATOM     47  C   UNL     1      -7.824  -1.544  -4.157  1.00  0.00     0.074 A 
ATOM     48  C   UNL     1      -6.893   0.562  -5.042  1.00  0.00     0.049 A 
ATOM     49  N   UNL     1      -7.889  -2.261  -5.251  1.00  0.00    -0.248 NA
ATOM     50  C   UNL     1      -8.248  -2.256  -2.943  1.00  0.00     0.031 C 
ATOM     51  C   UNL     1      -6.422   1.946  -4.991  1.00  0.00     0.029 A 
ATOM     52  N   UNL     1      -6.727   0.198  -6.354  1.00  0.00    -0.354 N 
ATOM     53  C   UNL     1      -8.399  -3.493  -4.869  1.00  0.00     0.074 A 
ATOM     54  C   UNL     1      -8.572  -3.448  -3.430  1.00  0.00     0.031 C 
ATOM     55  C   UNL     1      -6.050   2.326  -6.223  1.00  0.00     0.029 A 
ATOM     56  C   UNL     1      -6.239   1.209  -7.144  1.00  0.00     0.049 A 
ATOM     57  H   UNL     1      -6.937  -0.701  -6.696  1.00  0.00     0.167 HD
ATOM     58  C   UNL     1      -8.716  -4.550  -5.655  1.00  0.00     0.037 A 
ATOM     59  C   UNL     1      -5.988   1.237  -8.466  1.00  0.00     0.037 A 
ATOM     60  C   UNL     1      -8.518  -4.598  -7.082  1.00  0.00     0.049 A 
ATOM     61  C   UNL     1      -6.277   0.017  -9.296  1.00  0.00     0.074 A 
ATOM     62  C   UNL     1      -8.816  -5.627  -7.960  1.00  0.00     0.029 A 
ATOM     63  N   UNL     1      -7.964  -3.577  -7.841  1.00  0.00    -0.354 N 
ATOM     64  N   UNL     1      -6.816  -1.121  -8.935  1.00  0.00    -0.248 NA
ATOM     65  C   UNL     1      -5.928   0.091 -10.722  1.00  0.00     0.031 C 
ATOM     66  C   UNL     1      -8.404  -5.247  -9.241  1.00  0.00     0.029 A 
ATOM     67  C   UNL     1      -7.892  -3.962  -9.172  1.00  0.00     0.049 A 
ATOM     68  H   UNL     1      -7.666  -2.708  -7.487  1.00  0.00     0.167 HD
ATOM     69  C   UNL     1      -6.898  -1.886 -10.089  1.00  0.00     0.074 A 
ATOM     70  C   UNL     1      -6.367  -1.078 -11.167  1.00  0.00     0.031 C 
ATOM     71  C   UNL     1      -7.369  -3.148 -10.239  1.00  0.00     0.037 A 
BRANCH  58  72
ATOM     72  C   UNL     1      -9.346  -5.747  -5.005  1.00  0.00     0.064 A 
ATOM     73  C   UNL     1     -10.682  -5.715  -4.579  1.00  0.00     0.173 A 
ATOM     74  C   UNL     1      -8.656  -6.965  -4.915  1.00  0.00     0.173 A 
ATOM     75  F   UNL     1     -11.383  -4.573  -4.642  1.00  0.00    -0.203 F 
ATOM     76  C   UNL     1     -11.305  -6.859  -4.086  1.00  0.00     0.198 A 
ATOM     77  C   UNL     1      -9.289  -8.113  -4.443  1.00  0.00     0.198 A 
ATOM     78  F   UNL     1      -7.380  -7.052  -5.320  1.00  0.00    -0.203 F 
ATOM     79  F   UNL     1     -12.579  -6.801  -3.675  1.00  0.00    -0.200 F 
ATOM     80  C   UNL     1     -10.612  -8.059  -4.030  1.00  0.00     0.200 A 
ATOM     81  F   UNL     1      -8.624  -9.276  -4.405  1.00  0.00    -0.200 F 
ATOM     82  F   UNL     1     -11.221  -9.165  -3.580  1.00  0.00    -0.200 F 
ENDBRANCH  58  72
BRANCH  59  83
ATOM     83  C   UNL     1      -5.478   2.481  -9.095  1.00  0.00     0.064 A 
ATOM     84  C   UNL     1      -6.286   3.223  -9.967  1.00  0.00     0.173 A 
ATOM     85  C   UNL     1      -4.182   2.952  -8.841  1.00  0.00     0.173 A 
ATOM     86  F   UNL     1      -7.526   2.800 -10.255  1.00  0.00    -0.203 F 
ATOM     87  C   UNL     1      -5.810   4.382 -10.576  1.00  0.00     0.198 A 
ATOM     88  C   UNL     1      -3.717   4.126  -9.429  1.00  0.00     0.198 A 
ATOM     89  F   UNL     1      -3.373   2.278  -8.010  1.00  0.00    -0.203 F 
ATOM     90  F   UNL     1      -6.587   5.050 -11.438  1.00  0.00    -0.200 F 
ATOM     91  C   UNL     1      -4.528   4.835 -10.302  1.00  0.00     0.200 A 
ATOM     92  F   UNL     1      -2.483   4.568  -9.151  1.00  0.00    -0.200 F 
ATOM     93  F   UNL     1      -4.072   5.952 -10.885  1.00  0.00    -0.200 F 
ENDBRANCH  59  83
BRANCH  71  94
ATOM     94  C   UNL     1      -7.355  -3.731 -11.622  1.00  0.00     0.064 A 
ATOM     95  C   UNL     1      -6.159  -4.124 -12.240  1.00  0.00     0.173 A 
ATOM     96  C   UNL     1      -8.555  -3.949 -12.316  1.00  0.00     0.173 A 
ATOM     97  F   UNL     1      -4.984  -3.923 -11.624  1.00  0.00    -0.203 F 
ATOM     98  C   UNL     1      -6.163  -4.696 -13.509  1.00  0.00     0.198 A 
ATOM     99  C   UNL     1      -8.558  -4.547 -13.574  1.00  0.00     0.198 A 
ATOM    100  F   UNL     1      -9.728  -3.597 -11.768  1.00  0.00    -0.203 F 
ATOM    101  F   UNL     1      -5.004  -5.026 -14.096  1.00  0.00    -0.200 F 
ATOM    102  C   UNL     1      -7.362  -4.915 -14.171  1.00  0.00     0.200 A 
ATOM    103  F   UNL     1      -9.718  -4.770 -14.206  1.00  0.00    -0.200 F 
ATOM    104  F   UNL     1      -7.364  -5.476 -15.388  1.00  0.00    -0.200 F 
ENDBRANCH  71  94
ENDBRANCH  45  46
ENDBRANCH  38  40
ENDBRANCH  37  38
ENDBRANCH  36  37
ENDBRANCH  35  36
ENDBRANCH  34  35
ENDBRANCH  33  34
ENDBRANCH   1  33
TORSDOF 20
