REMARK SMILES C=CCN(CC(=O)OCCOCCOCCOC(=O)c1ccc(-c2c3nc(c(-c4c(F)c(F)c(F)c(F)c4F)c4ccc([nH]4)c(-c4c(F)c(F)c(F)c(F)c4F)c4nc(c(-c5c(F)c(F)c(F)c(F)c5F)c5ccc2[nH]5)C=C4)C=C3)cc1)C(=O)N1CC[C@@H]([NH+]2CCCCC2)C1
REMARK SMILES IDX 12 1 11 2 10 3 9 4 8 5 6 6 7 7 5 8 4 9 3 10 2 11 1 12 83 13
REMARK SMILES IDX 84 14 85 15 86 16 95 17 87 18 88 19 89 20 90 21 94 22 91 24
REMARK SMILES IDX 93 25 92 26 13 27 14 28 15 29 16 30 17 31 18 32 19 33 20 34
REMARK SMILES IDX 21 35 82 36 22 37 81 38 23 39 24 40 25 41 75 42 26 43 80 44
REMARK SMILES IDX 74 45 76 46 27 47 79 48 73 49 72 50 28 52 60 53 40 54 59 55
REMARK SMILES IDX 41 56 44 57 58 58 77 59 42 60 43 61 57 63 78 64 45 65 29 66
REMARK SMILES IDX 30 67 38 68 31 69 32 70 36 71 39 72 33 73 34 74 37 75 35 76
REMARK SMILES IDX 61 77 62 78 70 79 63 80 64 81 68 82 71 83 65 84 66 85 69 86
REMARK SMILES IDX 67 87 46 88 47 89 55 90 48 91 49 92 53 93 56 94 50 95 51 96
REMARK SMILES IDX 54 97 52 98
REMARK H PARENT 89 23 76 51 44 62
REMARK Flexibility Score: inf
ROOT
ATOM      1  C   UNL     1      -5.429   3.647   1.111  1.00  0.00     0.188 C 
ENDROOT
BRANCH   1   2
ATOM      2  O   UNL     1      -6.779   3.216   1.100  1.00  0.00    -0.376 OA
BRANCH   2   3
ATOM      3  C   UNL     1      -6.965   1.873   0.662  1.00  0.00     0.202 C 
BRANCH   3   4
ATOM      4  C   UNL     1      -6.483   1.614  -0.775  1.00  0.00     0.261 C 
BRANCH   4   5
ATOM      5  O   UNL     1      -5.030   1.586  -0.887  1.00  0.00    -0.462 OA
BRANCH   5   6
ATOM      6  C   UNL     1      -4.524   2.172  -2.009  1.00  0.00     0.325 C 
ATOM      7  O   UNL     1      -5.220   2.601  -2.927  1.00  0.00    -0.250 OA
BRANCH   6   8
ATOM      8  C   UNL     1      -2.988   2.225  -2.104  1.00  0.00     0.244 C 
BRANCH   8   9
ATOM      9  N   UNL     1      -2.132   1.975  -0.942  1.00  0.00    -0.310 N 
BRANCH   9  10
ATOM     10  C   UNL     1      -1.588   0.613  -0.832  1.00  0.00     0.149 C 
BRANCH  10  11
ATOM     11  C   UNL     1      -0.099   0.600  -1.079  1.00  0.00    -0.013 C 
ATOM     12  C   UNL     1       0.773  -0.083  -0.321  1.00  0.00     0.006 C 
ENDBRANCH  10  11
ENDBRANCH   9  10
BRANCH   9  13
ATOM     13  C   UNL     1      -1.797   2.854   0.067  1.00  0.00     0.321 C 
ATOM     14  O   UNL     1      -1.085   2.465   1.002  1.00  0.00    -0.248 OA
BRANCH  13  15
ATOM     15  N   UNL     1      -2.261   4.150   0.099  1.00  0.00    -0.318 N 
ATOM     16  C   UNL     1      -2.874   5.018  -0.879  1.00  0.00     0.128 C 
ATOM     17  C   UNL     1      -1.860   4.952   1.236  1.00  0.00     0.186 C 
ATOM     18  C   UNL     1      -3.212   6.330  -0.172  1.00  0.00     0.088 C 
ATOM     19  C   UNL     1      -2.659   6.261   1.262  1.00  0.00     0.205 C 
BRANCH  19  20
ATOM     20  N   UNL     1      -3.691   6.684   2.207  1.00  0.00    -0.331 N 
ATOM     21  C   UNL     1      -4.058   6.080   3.463  1.00  0.00     0.262 C 
ATOM     22  C   UNL     1      -4.092   8.083   2.211  1.00  0.00     0.262 C 
ATOM     23  H   UNL     1      -4.157   6.011   1.600  1.00  0.00     0.348 HD
ATOM     24  C   UNL     1      -5.579   6.007   3.602  1.00  0.00     0.062 C 
ATOM     25  C   UNL     1      -5.590   8.077   1.983  1.00  0.00     0.062 C 
ATOM     26  C   UNL     1      -6.366   7.120   2.897  1.00  0.00     0.012 C 
ENDBRANCH  19  20
ENDBRANCH  13  15
ENDBRANCH   9  13
ENDBRANCH   8   9
ENDBRANCH   6   8
ENDBRANCH   5   6
ENDBRANCH   4   5
ENDBRANCH   3   4
ENDBRANCH   2   3
ENDBRANCH   1   2
BRANCH   1  27
ATOM     27  C   UNL     1      -4.456   2.832   1.974  1.00  0.00     0.188 C 
BRANCH  27  28
ATOM     28  O   UNL     1      -4.919   2.481   3.275  1.00  0.00    -0.376 OA
BRANCH  28  29
ATOM     29  C   UNL     1      -3.876   1.835   4.038  1.00  0.00     0.202 C 
BRANCH  29  30
ATOM     30  C   UNL     1      -3.104   2.804   4.961  1.00  0.00     0.261 C 
BRANCH  30  31
ATOM     31  O   UNL     1      -2.109   3.602   4.266  1.00  0.00    -0.460 OA
BRANCH  31  32
ATOM     32  C   UNL     1      -1.100   4.148   5.014  1.00  0.00     0.338 C 
ATOM     33  O   UNL     1      -0.749   3.789   6.111  1.00  0.00    -0.246 OA
BRANCH  32  34
ATOM     34  C   UNL     1      -0.660   5.448   4.397  1.00  0.00     0.060 A 
ATOM     35  C   UNL     1       0.283   5.546   3.371  1.00  0.00     0.016 A 
ATOM     36  C   UNL     1      -1.253   6.626   4.859  1.00  0.00     0.016 A 
ATOM     37  C   UNL     1       0.532   6.795   2.734  1.00  0.00     0.010 A 
ATOM     38  C   UNL     1      -1.038   7.859   4.203  1.00  0.00     0.010 A 
ATOM     39  C   UNL     1      -0.160   7.966   3.107  1.00  0.00    -0.014 A 
BRANCH  39  40
ATOM     40  C   UNL     1       0.275   9.331   2.621  1.00  0.00     0.031 A 
ATOM     41  C   UNL     1       1.336   9.981   3.468  1.00  0.00     0.074 A 
ATOM     42  C   UNL     1      -0.177  10.016   1.538  1.00  0.00     0.049 A 
ATOM     43  N   UNL     1       1.956  11.121   3.310  1.00  0.00    -0.248 NA
ATOM     44  C   UNL     1       1.760   9.221   4.657  1.00  0.00     0.031 C 
ATOM     45  C   UNL     1      -1.153   9.553   0.568  1.00  0.00     0.029 A 
ATOM     46  N   UNL     1       0.129  11.282   1.060  1.00  0.00    -0.354 N 
ATOM     47  C   UNL     1       2.871  11.184   4.349  1.00  0.00     0.074 A 
ATOM     48  C   UNL     1       2.665  10.022   5.181  1.00  0.00     0.031 C 
ATOM     49  C   UNL     1      -1.408  10.500  -0.351  1.00  0.00     0.029 A 
ATOM     50  C   UNL     1      -0.583  11.661  -0.067  1.00  0.00     0.049 A 
ATOM     51  H   UNL     1       0.798  11.864   1.487  1.00  0.00     0.167 HD
ATOM     52  C   UNL     1       3.832  12.104   4.584  1.00  0.00     0.037 A 
ATOM     53  C   UNL     1      -0.569  12.794  -0.806  1.00  0.00     0.037 A 
ATOM     54  C   UNL     1       3.999  13.305   3.824  1.00  0.00     0.049 A 
ATOM     55  C   UNL     1       0.409  13.882  -0.435  1.00  0.00     0.074 A 
ATOM     56  C   UNL     1       4.894  14.336   4.032  1.00  0.00     0.029 A 
ATOM     57  N   UNL     1       3.226  13.650   2.725  1.00  0.00    -0.354 N 
ATOM     58  N   UNL     1       1.314  13.887   0.512  1.00  0.00    -0.248 NA
ATOM     59  C   UNL     1       0.387  15.111  -1.245  1.00  0.00     0.031 C 
ATOM     60  C   UNL     1       4.621  15.337   3.096  1.00  0.00     0.029 A 
ATOM     61  C   UNL     1       3.605  14.896   2.261  1.00  0.00     0.049 A 
ATOM     62  H   UNL     1       2.515  13.092   2.335  1.00  0.00     0.167 HD
ATOM     63  C   UNL     1       1.998  15.088   0.382  1.00  0.00     0.074 A 
ATOM     64  C   UNL     1       1.410  15.787  -0.740  1.00  0.00     0.031 C 
ATOM     65  C   UNL     1       3.026  15.565   1.124  1.00  0.00     0.037 A 
BRANCH  52  66
ATOM     66  C   UNL     1       4.718  11.824   5.758  1.00  0.00     0.064 A 
ATOM     67  C   UNL     1       5.627  10.752   5.742  1.00  0.00     0.173 A 
ATOM     68  C   UNL     1       4.559  12.541   6.950  1.00  0.00     0.173 A 
ATOM     69  F   UNL     1       5.778  10.011   4.633  1.00  0.00    -0.203 F 
ATOM     70  C   UNL     1       6.296  10.370   6.899  1.00  0.00     0.198 A 
ATOM     71  C   UNL     1       5.258  12.176   8.096  1.00  0.00     0.198 A 
ATOM     72  F   UNL     1       3.691  13.561   7.016  1.00  0.00    -0.203 F 
ATOM     73  F   UNL     1       7.076   9.279   6.891  1.00  0.00    -0.200 F 
ATOM     74  C   UNL     1       6.110  11.081   8.075  1.00  0.00     0.200 A 
ATOM     75  F   UNL     1       5.076  12.860   9.233  1.00  0.00    -0.200 F 
ATOM     76  F   UNL     1       6.729  10.692   9.198  1.00  0.00    -0.200 F 
ENDBRANCH  52  66
BRANCH  53  77
ATOM     77  C   UNL     1      -1.471  12.986  -1.990  1.00  0.00     0.064 A 
ATOM     78  C   UNL     1      -0.952  13.120  -3.291  1.00  0.00     0.173 A 
ATOM     79  C   UNL     1      -2.858  13.148  -1.841  1.00  0.00     0.173 A 
ATOM     80  F   UNL     1       0.368  13.009  -3.497  1.00  0.00    -0.203 F 
ATOM     81  C   UNL     1      -1.770  13.444  -4.376  1.00  0.00     0.198 A 
ATOM     82  C   UNL     1      -3.680  13.445  -2.933  1.00  0.00     0.198 A 
ATOM     83  F   UNL     1      -3.419  13.042  -0.628  1.00  0.00    -0.203 F 
ATOM     84  F   UNL     1      -1.230  13.639  -5.587  1.00  0.00    -0.200 F 
ATOM     85  C   UNL     1      -3.134  13.607  -4.197  1.00  0.00     0.200 A 
ATOM     86  F   UNL     1      -5.000  13.598  -2.754  1.00  0.00    -0.200 F 
ATOM     87  F   UNL     1      -3.917  13.937  -5.234  1.00  0.00    -0.200 F 
ENDBRANCH  53  77
BRANCH  65  88
ATOM     88  C   UNL     1       3.627  16.881   0.729  1.00  0.00     0.064 A 
ATOM     89  C   UNL     1       2.952  18.093   0.923  1.00  0.00     0.173 A 
ATOM     90  C   UNL     1       4.942  16.929   0.241  1.00  0.00     0.173 A 
ATOM     91  F   UNL     1       1.688  18.099   1.374  1.00  0.00    -0.203 F 
ATOM     92  C   UNL     1       3.569  19.307   0.636  1.00  0.00     0.198 A 
ATOM     93  C   UNL     1       5.568  18.145  -0.011  1.00  0.00     0.198 A 
ATOM     94  F   UNL     1       5.633  15.796   0.043  1.00  0.00    -0.203 F 
ATOM     95  F   UNL     1       2.895  20.454   0.799  1.00  0.00    -0.200 F 
ATOM     96  C   UNL     1       4.880  19.333   0.183  1.00  0.00     0.200 A 
ATOM     97  F   UNL     1       6.842  18.167  -0.428  1.00  0.00    -0.200 F 
ATOM     98  F   UNL     1       5.482  20.504  -0.065  1.00  0.00    -0.200 F 
ENDBRANCH  65  88
ENDBRANCH  39  40
ENDBRANCH  32  34
ENDBRANCH  31  32
ENDBRANCH  30  31
ENDBRANCH  29  30
ENDBRANCH  28  29
ENDBRANCH  27  28
ENDBRANCH   1  27
TORSDOF 23
