REMARK SMILES Cc1cccc(CS[C@@H]2CC[C@]([NH3+])(C(=O)OCCOCCOCCOC(=O)c3ccc(-c4c5nc(c(-c6c(F)c(F)c(F)c(F)c6F)c6ccc([nH]6)c(-c6c(F)c(F)c(F)c(F)c6F)c6nc(c(-c7c(F)c(F)c(F)c(F)c7F)c7ccc4[nH]7)C=C6)C=C5)cc3)C2)c1
REMARK SMILES IDX 20 1 19 2 18 3 17 4 16 5 14 6 15 7 12 8 9 9 10 10 91 11
REMARK SMILES IDX 11 12 8 13 7 14 6 15 1 16 2 17 3 18 92 19 4 20 5 21 13 22
REMARK SMILES IDX 21 26 22 27 23 28 24 29 25 30 26 31 27 32 28 33 29 34 90 35
REMARK SMILES IDX 30 36 89 37 31 38 32 39 33 40 83 41 34 42 88 43 82 44 84 45
REMARK SMILES IDX 35 46 87 47 81 48 80 49 36 51 68 52 48 53 67 54 49 55 52 56
REMARK SMILES IDX 66 57 85 58 50 59 51 60 65 62 86 63 53 64 37 65 38 66 46 67
REMARK SMILES IDX 39 68 40 69 44 70 47 71 41 72 42 73 45 74 43 75 69 76 70 77
REMARK SMILES IDX 78 78 71 79 72 80 76 81 79 82 73 83 74 84 77 85 75 86 54 87
REMARK SMILES IDX 55 88 63 89 56 90 57 91 61 92 64 93 58 94 59 95 62 96 60 97
REMARK H PARENT 13 23 13 24 13 25 84 50 52 61
REMARK Flexibility Score: inf
ROOT
ATOM      1  C   UNL     1       5.095   5.457  -5.411  1.00  0.00     0.188 C 
ENDROOT
BRANCH   1   2
ATOM      2  O   UNL     1       5.105   4.078  -4.995  1.00  0.00    -0.376 OA
BRANCH   2   3
ATOM      3  C   UNL     1       4.655   2.955  -5.772  1.00  0.00     0.202 C 
BRANCH   3   4
ATOM      4  C   UNL     1       3.338   1.852  -5.640  1.00  0.00     0.261 C 
BRANCH   4   5
ATOM      5  O   UNL     1       1.580   1.898  -5.256  1.00  0.00    -0.459 OA
BRANCH   5   6
ATOM      6  C   UNL     1       0.636   2.352  -4.249  1.00  0.00     0.368 C 
ATOM      7  O   UNL     1       0.889   3.054  -3.267  1.00  0.00    -0.245 OA
BRANCH   6   8
ATOM      8  C   UNL     1      -0.858   2.002  -4.253  1.00  0.00     0.193 C 
ATOM      9  C   UNL     1      -2.819   2.030  -2.709  1.00  0.00     0.054 C 
ATOM     10  C   UNL     1      -2.595   0.604  -3.218  1.00  0.00     0.022 C 
ATOM     11  C   UNL     1      -1.507   2.730  -2.975  1.00  0.00     0.095 C 
ATOM     12  C   UNL     1      -1.190   0.567  -3.858  1.00  0.00     0.082 C 
BRANCH   9  13
ATOM     13  S   UNL     1      -3.571   2.264  -1.036  1.00  0.00    -0.154 SA
BRANCH  13  14
ATOM     14  C   UNL     1      -2.257   1.883   0.193  1.00  0.00     0.105 C 
BRANCH  14  15
ATOM     15  C   UNL     1      -1.879   0.429   0.376  1.00  0.00    -0.038 A 
ATOM     16  C   UNL     1       1.009  -1.639   1.827  1.00  0.00     0.044 C 
ATOM     17  C   UNL     1      -0.255  -1.245   1.127  1.00  0.00    -0.051 A 
ATOM     18  C   UNL     1      -1.118  -2.260   0.706  1.00  0.00     0.003 A 
ATOM     19  C   UNL     1      -0.632   0.096   0.940  1.00  0.00     0.008 A 
ATOM     20  C   UNL     1      -2.380  -1.946   0.218  1.00  0.00     0.001 A 
ATOM     21  C   UNL     1      -2.772  -0.615   0.105  1.00  0.00     0.004 A 
ENDBRANCH  14  15
ENDBRANCH  13  14
ENDBRANCH   9  13
BRANCH   8  22
ATOM     22  N   UNL     1      -1.514   2.499  -5.468  1.00  0.00    -0.343 N 
ATOM     23  H   UNL     1      -2.503   2.253  -5.445  1.00  0.00     0.345 HD
ATOM     24  H   UNL     1      -1.077   2.076  -6.287  1.00  0.00     0.345 HD
ATOM     25  H   UNL     1      -1.416   3.513  -5.517  1.00  0.00     0.345 HD
ENDBRANCH   8  22
ENDBRANCH   6   8
ENDBRANCH   5   6
ENDBRANCH   4   5
ENDBRANCH   3   4
ENDBRANCH   2   3
ENDBRANCH   1   2
BRANCH   1  26
ATOM     26  C   UNL     1       5.217   5.861  -6.870  1.00  0.00     0.188 C 
BRANCH  26  27
ATOM     27  O   UNL     1       4.449   4.972  -7.650  1.00  0.00    -0.376 OA
BRANCH  27  28
ATOM     28  C   UNL     1       4.653   5.059  -9.045  1.00  0.00     0.202 C 
BRANCH  28  29
ATOM     29  C   UNL     1       3.821   6.191  -9.657  1.00  0.00     0.261 C 
BRANCH  29  30
ATOM     30  O   UNL     1       2.423   6.023  -9.317  1.00  0.00    -0.460 OA
BRANCH  30  31
ATOM     31  C   UNL     1       1.913   6.883  -8.377  1.00  0.00     0.338 C 
ATOM     32  O   UNL     1       1.941   8.103  -8.462  1.00  0.00    -0.246 OA
BRANCH  31  33
ATOM     33  C   UNL     1       1.544   6.125  -7.141  1.00  0.00     0.060 A 
ATOM     34  C   UNL     1       1.565   6.630  -5.833  1.00  0.00     0.016 A 
ATOM     35  C   UNL     1       1.513   4.780  -7.254  1.00  0.00     0.016 A 
ATOM     36  C   UNL     1       1.851   5.784  -4.683  1.00  0.00     0.010 A 
ATOM     37  C   UNL     1       1.982   4.056  -6.160  1.00  0.00     0.010 A 
ATOM     38  C   UNL     1       2.264   4.447  -4.797  1.00  0.00    -0.014 A 
BRANCH  38  39
ATOM     39  C   UNL     1       3.065   3.556  -3.479  1.00  0.00     0.031 A 
ATOM     40  C   UNL     1       2.950   1.881  -2.869  1.00  0.00     0.074 A 
ATOM     41  C   UNL     1       3.787   4.286  -2.590  1.00  0.00     0.049 A 
ATOM     42  N   UNL     1       3.124   1.538  -1.600  1.00  0.00    -0.248 NA
ATOM     43  C   UNL     1       2.531   0.579  -3.533  1.00  0.00     0.031 C 
ATOM     44  C   UNL     1       4.703   3.780  -1.567  1.00  0.00     0.029 A 
ATOM     45  N   UNL     1       3.807   5.674  -2.384  1.00  0.00    -0.354 N 
ATOM     46  C   UNL     1       3.053   0.142  -1.454  1.00  0.00     0.074 A 
ATOM     47  C   UNL     1       2.569  -0.390  -2.651  1.00  0.00     0.031 C 
ATOM     48  C   UNL     1       4.941   4.752  -0.677  1.00  0.00     0.029 A 
ATOM     49  C   UNL     1       4.085   5.867  -1.023  1.00  0.00     0.049 A 
ATOM     50  H   UNL     1       3.655   6.372  -3.061  1.00  0.00     0.167 HD
ATOM     51  C   UNL     1       3.519  -0.576  -0.404  1.00  0.00     0.037 A 
ATOM     52  C   UNL     1       3.269   6.571  -0.192  1.00  0.00     0.037 A 
ATOM     53  C   UNL     1       3.988   0.298   0.628  1.00  0.00     0.049 A 
ATOM     54  C   UNL     1       2.963   5.852   1.094  1.00  0.00     0.074 A 
ATOM     55  C   UNL     1       5.225   0.716   1.070  1.00  0.00     0.029 A 
ATOM     56  N   UNL     1       3.067   1.180   1.158  1.00  0.00    -0.354 N 
ATOM     57  N   UNL     1       3.268   4.602   1.296  1.00  0.00    -0.248 NA
ATOM     58  C   UNL     1       2.266   6.438   2.236  1.00  0.00     0.031 C 
ATOM     59  C   UNL     1       5.020   1.814   1.950  1.00  0.00     0.029 A 
ATOM     60  C   UNL     1       3.658   2.032   2.048  1.00  0.00     0.049 A 
ATOM     61  H   UNL     1       2.110   1.192   0.926  1.00  0.00     0.167 HD
ATOM     62  C   UNL     1       2.755   4.189   2.489  1.00  0.00     0.074 A 
ATOM     63  C   UNL     1       2.175   5.382   3.065  1.00  0.00     0.031 C 
ATOM     64  C   UNL     1       2.796   2.877   2.845  1.00  0.00     0.037 A 
BRANCH  51  65
ATOM     65  C   UNL     1       3.720  -2.087  -0.494  1.00  0.00     0.064 A 
ATOM     66  C   UNL     1       4.904  -2.684  -0.030  1.00  0.00     0.173 A 
ATOM     67  C   UNL     1       2.805  -2.990  -1.093  1.00  0.00     0.173 A 
ATOM     68  F   UNL     1       5.829  -1.967   0.617  1.00  0.00    -0.203 F 
ATOM     69  C   UNL     1       5.194  -4.040  -0.236  1.00  0.00     0.198 A 
ATOM     70  C   UNL     1       3.126  -4.326  -1.370  1.00  0.00     0.198 A 
ATOM     71  F   UNL     1       1.559  -2.603  -1.410  1.00  0.00    -0.203 F 
ATOM     72  F   UNL     1       6.337  -4.553   0.240  1.00  0.00    -0.200 F 
ATOM     73  C   UNL     1       4.326  -4.850  -0.943  1.00  0.00     0.200 A 
ATOM     74  F   UNL     1       2.269  -5.094  -2.060  1.00  0.00    -0.200 F 
ATOM     75  F   UNL     1       4.638  -6.130  -1.193  1.00  0.00    -0.200 F 
ENDBRANCH  51  65
BRANCH  52  76
ATOM     76  C   UNL     1       2.421   7.568  -0.901  1.00  0.00     0.064 A 
ATOM     77  C   UNL     1       3.083   8.581  -1.631  1.00  0.00     0.173 A 
ATOM     78  C   UNL     1       1.073   7.336  -1.205  1.00  0.00     0.173 A 
ATOM     79  F   UNL     1       4.382   8.830  -1.401  1.00  0.00    -0.203 F 
ATOM     80  C   UNL     1       2.466   9.240  -2.692  1.00  0.00     0.198 A 
ATOM     81  C   UNL     1       0.446   8.024  -2.254  1.00  0.00     0.198 A 
ATOM     82  F   UNL     1       0.394   6.367  -0.576  1.00  0.00    -0.203 F 
ATOM     83  F   UNL     1       3.177  10.077  -3.462  1.00  0.00    -0.200 F 
ATOM     84  C   UNL     1       1.152   8.950  -3.012  1.00  0.00     0.200 A 
ATOM     85  F   UNL     1      -0.805   7.703  -2.613  1.00  0.00    -0.200 F 
ATOM     86  F   UNL     1       0.594   9.498  -4.102  1.00  0.00    -0.200 F 
ENDBRANCH  52  76
BRANCH  64  87
ATOM     87  C   UNL     1       1.955   2.212   3.904  1.00  0.00     0.064 A 
ATOM     88  C   UNL     1       0.672   2.654   4.256  1.00  0.00     0.173 A 
ATOM     89  C   UNL     1       2.335   0.947   4.418  1.00  0.00     0.173 A 
ATOM     90  F   UNL     1       0.153   3.774   3.736  1.00  0.00    -0.203 F 
ATOM     91  C   UNL     1      -0.157   1.907   5.096  1.00  0.00     0.198 A 
ATOM     92  C   UNL     1       1.481   0.178   5.205  1.00  0.00     0.198 A 
ATOM     93  F   UNL     1       3.522   0.397   4.120  1.00  0.00    -0.203 F 
ATOM     94  F   UNL     1      -1.365   2.384   5.425  1.00  0.00    -0.200 F 
ATOM     95  C   UNL     1       0.239   0.665   5.556  1.00  0.00     0.200 A 
ATOM     96  F   UNL     1       1.853  -1.053   5.583  1.00  0.00    -0.200 F 
ATOM     97  F   UNL     1      -0.583  -0.071   6.314  1.00  0.00    -0.200 F 
ENDBRANCH  64  87
ENDBRANCH  38  39
ENDBRANCH  31  33
ENDBRANCH  30  31
ENDBRANCH  29  30
ENDBRANCH  28  29
ENDBRANCH  27  28
ENDBRANCH  26  27
ENDBRANCH   1  26
TORSDOF 21
