REMARK SMILES O=C(Cc1ccccc1C(=O)OCCOCCOCCOC(=O)c1ccc(-c2c3nc(c(-c4c(F)c(F)c(F)c(F)c4F)c4ccc([nH]4)c(-c4c(F)c(F)c(F)c(F)c4F)c4nc(c(-c5c(F)c(F)c(F)c(F)c5F)c5ccc2[nH]5)C=C4)C=C3)cc1)Nc1cccc(OC[C@@H]2CCCO2)c1
REMARK SMILES IDX 14 1 13 2 12 3 10 4 11 5 9 6 4 7 5 8 6 9 8 10 7 11 3 12 2 13
REMARK SMILES IDX 1 14 87 15 88 17 89 18 100 19 90 20 92 21 91 22 93 23 94 24
REMARK SMILES IDX 95 25 96 26 99 27 97 28 98 29 15 30 16 31 17 32 18 33 19 34
REMARK SMILES IDX 20 35 21 36 22 37 23 38 24 39 25 40 86 41 26 42 85 43 27 44
REMARK SMILES IDX 28 45 29 46 79 47 30 48 84 49 78 50 80 51 31 52 83 53 77 54
REMARK SMILES IDX 76 55 32 57 64 58 44 59 63 60 45 61 48 62 62 63 81 64 46 65
REMARK SMILES IDX 47 66 61 68 82 69 49 70 33 71 34 72 42 73 35 74 36 75 40 76
REMARK SMILES IDX 43 77 37 78 38 79 41 80 39 81 65 82 66 83 74 84 67 85 68 86
REMARK SMILES IDX 72 87 75 88 69 89 70 90 73 91 71 92 50 93 51 94 59 95 52 96
REMARK SMILES IDX 53 97 57 98 60 99 54 100 55 101 58 102 56 103
REMARK H PARENT 87 16 80 56 48 67
REMARK Flexibility Score: inf
ROOT
ATOM      1  C   UNL     1       6.500   3.310   2.857  1.00  0.00     0.202 C 
ENDROOT
BRANCH   1   2
ATOM      2  C   UNL     1       6.529   2.659   1.473  1.00  0.00     0.261 C 
BRANCH   2   3
ATOM      3  O   UNL     1       5.703   1.485   1.441  1.00  0.00    -0.460 OA
BRANCH   3   4
ATOM      4  C   UNL     1       6.178   0.425   0.756  1.00  0.00     0.338 C 
ATOM      5  O   UNL     1       7.179   0.399   0.058  1.00  0.00    -0.246 OA
BRANCH   4   6
ATOM      6  C   UNL     1       5.407  -0.801   1.102  1.00  0.00     0.063 A 
ATOM      7  C   UNL     1       4.001  -0.890   1.169  1.00  0.00    -0.024 A 
ATOM      8  C   UNL     1       3.420  -2.137   1.481  1.00  0.00     0.005 A 
ATOM      9  C   UNL     1       4.208  -3.255   1.755  1.00  0.00     0.000 A 
ATOM     10  C   UNL     1       6.189  -1.934   1.389  1.00  0.00     0.016 A 
ATOM     11  C   UNL     1       5.594  -3.150   1.723  1.00  0.00     0.001 A 
BRANCH   7  12
ATOM     12  C   UNL     1       3.063   0.272   0.946  1.00  0.00     0.136 C 
BRANCH  12  13
ATOM     13  C   UNL     1       2.249   0.231  -0.324  1.00  0.00     0.228 C 
ATOM     14  O   UNL     1       1.078   0.612  -0.296  1.00  0.00    -0.274 OA
ATOM     15  N   UNL     1       2.930  -0.195  -1.454  1.00  0.00    -0.326 N 
ATOM     16  H   UNL     1       3.837  -0.559  -1.337  1.00  0.00     0.169 HD
BRANCH  15  17
ATOM     17  C   UNL     1       2.405  -0.138  -2.760  1.00  0.00     0.044 A 
ATOM     18  C   UNL     1       2.870  -1.042  -3.715  1.00  0.00     0.026 A 
ATOM     19  C   UNL     1       1.394   0.762  -3.099  1.00  0.00     0.072 A 
ATOM     20  C   UNL     1       2.250  -1.108  -4.965  1.00  0.00     0.006 A 
ATOM     21  C   UNL     1       0.714   0.643  -4.305  1.00  0.00     0.121 A 
ATOM     22  C   UNL     1       1.160  -0.281  -5.248  1.00  0.00     0.046 A 
BRANCH  21  23
ATOM     23  O   UNL     1      -0.440   1.304  -4.620  1.00  0.00    -0.491 OA
BRANCH  23  24
ATOM     24  C   UNL     1      -1.079   2.088  -3.603  1.00  0.00     0.261 C 
BRANCH  24  25
ATOM     25  C   UNL     1      -1.656   1.326  -2.390  1.00  0.00     0.156 C 
ATOM     26  C   UNL     1      -1.676  -0.195  -2.428  1.00  0.00     0.038 C 
ATOM     27  O   UNL     1      -3.033   1.721  -2.160  1.00  0.00    -0.375 OA
ATOM     28  C   UNL     1      -2.735  -0.507  -1.403  1.00  0.00     0.031 C 
ATOM     29  C   UNL     1      -3.754   0.574  -1.682  1.00  0.00     0.161 C 
ENDBRANCH  24  25
ENDBRANCH  23  24
ENDBRANCH  21  23
ENDBRANCH  15  17
ENDBRANCH  12  13
ENDBRANCH   7  12
ENDBRANCH   4   6
ENDBRANCH   3   4
ENDBRANCH   2   3
ENDBRANCH   1   2
BRANCH   1  30
ATOM     30  O   UNL     1       6.963   2.512   3.945  1.00  0.00    -0.376 OA
BRANCH  30  31
ATOM     31  C   UNL     1       6.330   1.261   4.200  1.00  0.00     0.188 C 
BRANCH  31  32
ATOM     32  C   UNL     1       4.791   1.187   4.245  1.00  0.00     0.188 C 
BRANCH  32  33
ATOM     33  O   UNL     1       4.141   2.446   4.247  1.00  0.00    -0.376 OA
BRANCH  33  34
ATOM     34  C   UNL     1       3.429   2.768   5.435  1.00  0.00     0.202 C 
BRANCH  34  35
ATOM     35  C   UNL     1       4.328   3.121   6.627  1.00  0.00     0.261 C 
BRANCH  35  36
ATOM     36  O   UNL     1       5.238   2.081   7.031  1.00  0.00    -0.460 OA
BRANCH  36  37
ATOM     37  C   UNL     1       4.700   0.961   7.562  1.00  0.00     0.338 C 
ATOM     38  O   UNL     1       3.521   0.732   7.757  1.00  0.00    -0.246 OA
BRANCH  37  39
ATOM     39  C   UNL     1       5.780  -0.041   7.693  1.00  0.00     0.060 A 
ATOM     40  C   UNL     1       5.619  -1.293   7.086  1.00  0.00     0.016 A 
ATOM     41  C   UNL     1       6.954   0.257   8.391  1.00  0.00     0.016 A 
ATOM     42  C   UNL     1       6.625  -2.257   7.196  1.00  0.00     0.010 A 
ATOM     43  C   UNL     1       7.953  -0.714   8.513  1.00  0.00     0.010 A 
ATOM     44  C   UNL     1       7.784  -1.985   7.936  1.00  0.00    -0.014 A 
BRANCH  44  45
ATOM     45  C   UNL     1       8.750  -3.072   8.232  1.00  0.00     0.031 A 
ATOM     46  C   UNL     1       8.623  -3.820   9.531  1.00  0.00     0.074 A 
ATOM     47  C   UNL     1       9.725  -3.399   7.365  1.00  0.00     0.049 A 
ATOM     48  N   UNL     1       9.354  -4.797  10.005  1.00  0.00    -0.248 NA
ATOM     49  C   UNL     1       7.521  -3.408  10.414  1.00  0.00     0.031 C 
ATOM     50  C   UNL     1       9.950  -2.766   6.068  1.00  0.00     0.029 A 
ATOM     51  N   UNL     1      10.716  -4.346   7.456  1.00  0.00    -0.354 N 
ATOM     52  C   UNL     1       8.799  -5.119  11.236  1.00  0.00     0.074 A 
ATOM     53  C   UNL     1       7.691  -4.213  11.452  1.00  0.00     0.031 C 
ATOM     54  C   UNL     1      11.022  -3.335   5.487  1.00  0.00     0.029 A 
ATOM     55  C   UNL     1      11.569  -4.356   6.380  1.00  0.00     0.049 A 
ATOM     56  H   UNL     1      10.806  -4.960   8.220  1.00  0.00     0.167 HD
ATOM     57  C   UNL     1       9.171  -6.089  12.105  1.00  0.00     0.037 A 
ATOM     58  C   UNL     1      12.674  -5.094   6.153  1.00  0.00     0.037 A 
ATOM     59  C   UNL     1      10.280  -6.984  11.904  1.00  0.00     0.049 A 
ATOM     60  C   UNL     1      13.110  -6.120   7.168  1.00  0.00     0.074 A 
ATOM     61  C   UNL     1      10.715  -8.016  12.716  1.00  0.00     0.029 A 
ATOM     62  N   UNL     1      11.139  -6.942  10.816  1.00  0.00    -0.354 N 
ATOM     63  N   UNL     1      12.548  -6.454   8.305  1.00  0.00    -0.248 NA
ATOM     64  C   UNL     1      14.334  -6.877   6.863  1.00  0.00     0.031 C 
ATOM     65  C   UNL     1      11.866  -8.568  12.145  1.00  0.00     0.029 A 
ATOM     66  C   UNL     1      12.120  -7.912  10.951  1.00  0.00     0.049 A 
ATOM     67  H   UNL     1      11.063  -6.316  10.060  1.00  0.00     0.167 HD
ATOM     68  C   UNL     1      13.333  -7.469   8.837  1.00  0.00     0.074 A 
ATOM     69  C   UNL     1      14.403  -7.709   7.893  1.00  0.00     0.031 C 
ATOM     70  C   UNL     1      13.180  -8.143  10.004  1.00  0.00     0.037 A 
BRANCH  57  71
ATOM     71  C   UNL     1       8.377  -6.218  13.370  1.00  0.00     0.064 A 
ATOM     72  C   UNL     1       7.076  -6.741  13.369  1.00  0.00     0.173 A 
ATOM     73  C   UNL     1       8.933  -5.839  14.601  1.00  0.00     0.173 A 
ATOM     74  F   UNL     1       6.495  -7.104  12.215  1.00  0.00    -0.203 F 
ATOM     75  C   UNL     1       6.351  -6.858  14.552  1.00  0.00     0.198 A 
ATOM     76  C   UNL     1       8.215  -5.981  15.785  1.00  0.00     0.198 A 
ATOM     77  F   UNL     1      10.175  -5.335  14.655  1.00  0.00    -0.203 F 
ATOM     78  F   UNL     1       5.092  -7.319  14.522  1.00  0.00    -0.200 F 
ATOM     79  C   UNL     1       6.922  -6.483  15.759  1.00  0.00     0.200 A 
ATOM     80  F   UNL     1       8.772  -5.627  16.951  1.00  0.00    -0.200 F 
ATOM     81  F   UNL     1       6.224  -6.599  16.897  1.00  0.00    -0.200 F 
ENDBRANCH  57  71
BRANCH  58  82
ATOM     82  C   UNL     1      13.459  -4.891   4.907  1.00  0.00     0.064 A 
ATOM     83  C   UNL     1      13.490  -5.869   3.904  1.00  0.00     0.173 A 
ATOM     84  C   UNL     1      14.216  -3.727   4.709  1.00  0.00     0.173 A 
ATOM     85  F   UNL     1      12.806  -7.012   4.063  1.00  0.00    -0.203 F 
ATOM     86  C   UNL     1      14.260  -5.697   2.755  1.00  0.00     0.198 A 
ATOM     87  C   UNL     1      14.965  -3.545   3.548  1.00  0.00     0.198 A 
ATOM     88  F   UNL     1      14.226  -2.765   5.643  1.00  0.00    -0.203 F 
ATOM     89  F   UNL     1      14.307  -6.668   1.832  1.00  0.00    -0.200 F 
ATOM     90  C   UNL     1      14.992  -4.533   2.576  1.00  0.00     0.200 A 
ATOM     91  F   UNL     1      15.667  -2.417   3.376  1.00  0.00    -0.200 F 
ATOM     92  F   UNL     1      15.732  -4.369   1.471  1.00  0.00    -0.200 F 
ENDBRANCH  58  82
BRANCH  70  93
ATOM     93  C   UNL     1      14.176  -9.223  10.316  1.00  0.00     0.064 A 
ATOM     94  C   UNL     1      15.493  -8.922  10.691  1.00  0.00     0.173 A 
ATOM     95  C   UNL     1      13.796 -10.573  10.278  1.00  0.00     0.173 A 
ATOM     96  F   UNL     1      15.910  -7.648  10.729  1.00  0.00    -0.203 F 
ATOM     97  C   UNL     1      16.401  -9.935  10.993  1.00  0.00     0.198 A 
ATOM     98  C   UNL     1      14.697 -11.582  10.607  1.00  0.00     0.198 A 
ATOM     99  F   UNL     1      12.545 -10.914   9.932  1.00  0.00    -0.203 F 
ATOM    100  F   UNL     1      17.667  -9.627  11.306  1.00  0.00    -0.200 F 
ATOM    101  C   UNL     1      16.000 -11.263  10.958  1.00  0.00     0.200 A 
ATOM    102  F   UNL     1      14.305 -12.863  10.585  1.00  0.00    -0.200 F 
ATOM    103  F   UNL     1      16.873 -12.236  11.255  1.00  0.00    -0.200 F 
ENDBRANCH  70  93
ENDBRANCH  44  45
ENDBRANCH  37  39
ENDBRANCH  36  37
ENDBRANCH  35  36
ENDBRANCH  34  35
ENDBRANCH  33  34
ENDBRANCH  32  33
ENDBRANCH  31  32
ENDBRANCH  30  31
ENDBRANCH   1  30
TORSDOF 23
