REMARK SMILES O=C(CCC(=O)N1N=C(c2ccc(F)cc2)C[C@@H]1c1ccc2nccnc2c1)OCCOCCOCCOC(=O)c1ccc(-c2c3nc(c(-c4c(F)c(F)c(F)c(F)c4F)c4ccc([nH]4)c(-c4c(F)c(F)c(F)c(F)c4F)c4nc(c(-c5c(F)c(F)c(F)c(F)c5F)c5ccc2[nH]5)C=C4)C=C3)cc1
REMARK SMILES IDX 33 1 32 2 31 3 30 4 29 5 2 6 1 7 3 8 4 9 5 10 6 11 7 12 8 13
REMARK SMILES IDX 18 14 9 15 17 16 19 17 20 18 28 19 21 20 27 21 22 22 26 23
REMARK SMILES IDX 23 24 25 25 24 26 10 27 11 28 16 29 12 30 15 31 13 32 14 33
REMARK SMILES IDX 34 34 35 35 36 36 37 37 38 38 39 39 40 40 41 41 42 42 103 43
REMARK SMILES IDX 43 44 102 45 44 46 45 47 46 48 96 49 47 50 101 51 95 52
REMARK SMILES IDX 97 53 48 54 100 55 94 56 93 57 49 59 81 60 61 61 80 62 62 63
REMARK SMILES IDX 65 64 79 65 98 66 63 67 64 68 78 70 99 71 66 72 50 73 51 74
REMARK SMILES IDX 59 75 52 76 53 77 57 78 60 79 54 80 55 81 58 82 56 83 82 84
REMARK SMILES IDX 83 85 91 86 84 87 85 88 89 89 92 90 86 91 87 92 90 93 88 94
REMARK SMILES IDX 67 95 68 96 76 97 69 98 70 99 74 100 77 101 71 102 72 103
REMARK SMILES IDX 75 104 73 105
REMARK H PARENT 97 58 65 69
REMARK Flexibility Score: inf
ROOT
ATOM      1  C   UNL     1       3.153  -2.831  -0.305  1.00  0.00     0.188 C 
ENDROOT
BRANCH   1   2
ATOM      2  O   UNL     1       3.690  -2.193  -1.467  1.00  0.00    -0.376 OA
BRANCH   2   3
ATOM      3  C   UNL     1       5.047  -1.765  -1.361  1.00  0.00     0.202 C 
BRANCH   3   4
ATOM      4  C   UNL     1       5.007  -0.252  -1.386  1.00  0.00     0.261 C 
BRANCH   4   5
ATOM      5  O   UNL     1       3.766   0.103  -0.722  1.00  0.00    -0.463 OA
BRANCH   5   6
ATOM      6  C   UNL     1       2.613   0.403  -1.346  1.00  0.00     0.306 C 
ATOM      7  O   UNL     1       1.502   0.315  -0.834  1.00  0.00    -0.252 OA
BRANCH   6   8
ATOM      8  C   UNL     1       2.807   1.166  -2.567  1.00  0.00     0.132 C 
BRANCH   8   9
ATOM      9  C   UNL     1       3.303   2.525  -2.138  1.00  0.00     0.114 C 
BRANCH   9  10
ATOM     10  C   UNL     1       4.127   2.974  -0.893  1.00  0.00     0.243 C 
ATOM     11  O   UNL     1       4.689   4.073  -1.126  1.00  0.00    -0.273 OA
BRANCH  10  12
ATOM     12  N   UNL     1       4.315   2.390   0.385  1.00  0.00    -0.225 N 
ATOM     13  N   UNL     1       5.262   3.132   1.095  1.00  0.00    -0.174 NA
ATOM     14  C   UNL     1       3.320   1.853   1.409  1.00  0.00     0.147 C 
ATOM     15  C   UNL     1       4.670   3.564   2.161  1.00  0.00     0.071 C 
ATOM     16  C   UNL     1       3.330   2.976   2.463  1.00  0.00     0.091 C 
BRANCH  14  17
ATOM     17  C   UNL     1       3.567   0.479   2.168  1.00  0.00    -0.021 A 
ATOM     18  C   UNL     1       2.270   0.098   3.300  1.00  0.00     0.008 A 
ATOM     19  C   UNL     1       4.628  -0.821   1.584  1.00  0.00     0.036 A 
ATOM     20  C   UNL     1       1.917  -1.527   3.848  1.00  0.00     0.031 A 
ATOM     21  C   UNL     1       4.405  -2.557   2.084  1.00  0.00     0.089 A 
ATOM     22  C   UNL     1       2.932  -2.886   3.389  1.00  0.00     0.089 A 
ATOM     23  N   UNL     1       5.640  -3.741   1.966  1.00  0.00    -0.253 NA
ATOM     24  N   UNL     1       3.131  -4.255   4.442  1.00  0.00    -0.253 NA
ATOM     25  C   UNL     1       5.673  -5.055   3.058  1.00  0.00     0.132 A 
ATOM     26  C   UNL     1       4.495  -5.303   4.249  1.00  0.00     0.132 A 
ENDBRANCH  14  17
BRANCH  15  27
ATOM     27  C   UNL     1       5.201   4.704   2.909  1.00  0.00    -0.002 A 
ATOM     28  C   UNL     1       5.662   4.558   4.213  1.00  0.00     0.013 A 
ATOM     29  C   UNL     1       5.301   5.929   2.232  1.00  0.00     0.013 A 
ATOM     30  C   UNL     1       6.269   5.652   4.835  1.00  0.00     0.040 A 
ATOM     31  C   UNL     1       5.890   7.020   2.865  1.00  0.00     0.040 A 
ATOM     32  C   UNL     1       6.382   6.866   4.157  1.00  0.00     0.123 A 
ATOM     33  F   UNL     1       6.989   7.899   4.755  1.00  0.00    -0.207 F 
ENDBRANCH  15  27
ENDBRANCH  10  12
ENDBRANCH   9  10
ENDBRANCH   8   9
ENDBRANCH   6   8
ENDBRANCH   5   6
ENDBRANCH   4   5
ENDBRANCH   3   4
ENDBRANCH   2   3
ENDBRANCH   1   2
BRANCH   1  34
ATOM     34  C   UNL     1       2.364  -2.126   0.906  1.00  0.00     0.188 C 
BRANCH  34  35
ATOM     35  O   UNL     1       2.895  -1.401   2.156  1.00  0.00    -0.376 OA
BRANCH  35  36
ATOM     36  C   UNL     1       4.197  -1.371   3.664  1.00  0.00     0.202 C 
BRANCH  36  37
ATOM     37  C   UNL     1       4.835  -3.112   3.947  1.00  0.00     0.261 C 
BRANCH  37  38
ATOM     38  O   UNL     1       3.884  -4.330   2.622  1.00  0.00    -0.460 OA
BRANCH  38  39
ATOM     39  C   UNL     1       2.772  -5.179   2.250  1.00  0.00     0.338 C 
ATOM     40  O   UNL     1       1.800  -5.506   2.933  1.00  0.00    -0.246 OA
BRANCH  39  41
ATOM     41  C   UNL     1       2.643  -5.619   0.844  1.00  0.00     0.060 A 
ATOM     42  C   UNL     1       1.384  -5.395   0.234  1.00  0.00     0.016 A 
ATOM     43  C   UNL     1       3.621  -6.327   0.156  1.00  0.00     0.016 A 
ATOM     44  C   UNL     1       1.122  -5.814  -1.068  1.00  0.00     0.010 A 
ATOM     45  C   UNL     1       3.334  -6.808  -1.132  1.00  0.00     0.010 A 
ATOM     46  C   UNL     1       2.085  -6.563  -1.741  1.00  0.00    -0.014 A 
BRANCH  46  47
ATOM     47  C   UNL     1       1.697  -7.292  -2.970  1.00  0.00     0.031 A 
ATOM     48  C   UNL     1       1.105  -8.661  -2.809  1.00  0.00     0.074 A 
ATOM     49  C   UNL     1       1.859  -6.758  -4.192  1.00  0.00     0.049 A 
ATOM     50  N   UNL     1       0.836  -9.565  -3.713  1.00  0.00    -0.248 NA
ATOM     51  C   UNL     1       0.777  -9.067  -1.432  1.00  0.00     0.031 C 
ATOM     52  C   UNL     1       2.324  -5.401  -4.465  1.00  0.00     0.029 A 
ATOM     53  N   UNL     1       1.664  -7.309  -5.435  1.00  0.00    -0.354 N 
ATOM     54  C   UNL     1       0.338 -10.654  -3.012  1.00  0.00     0.074 A 
ATOM     55  C   UNL     1       0.336 -10.301  -1.611  1.00  0.00     0.031 C 
ATOM     56  C   UNL     1       2.418  -5.237  -5.797  1.00  0.00     0.029 A 
ATOM     57  C   UNL     1       2.064  -6.492  -6.462  1.00  0.00     0.049 A 
ATOM     58  H   UNL     1       1.275  -8.203  -5.575  1.00  0.00     0.167 HD
ATOM     59  C   UNL     1      -0.067 -11.849  -3.500  1.00  0.00     0.037 A 
ATOM     60  C   UNL     1       2.176  -6.749  -7.781  1.00  0.00     0.037 A 
ATOM     61  C   UNL     1      -0.061 -12.184  -4.897  1.00  0.00     0.049 A 
ATOM     62  C   UNL     1       1.805  -8.115  -8.301  1.00  0.00     0.074 A 
ATOM     63  C   UNL     1      -0.471 -13.357  -5.502  1.00  0.00     0.029 A 
ATOM     64  N   UNL     1       0.392 -11.344  -5.904  1.00  0.00    -0.354 N 
ATOM     65  N   UNL     1       1.348  -9.151  -7.639  1.00  0.00    -0.248 NA
ATOM     66  C   UNL     1       1.976  -8.354  -9.741  1.00  0.00     0.031 C 
ATOM     67  C   UNL     1      -0.209 -13.250  -6.871  1.00  0.00     0.029 A 
ATOM     68  C   UNL     1       0.308 -11.988  -7.126  1.00  0.00     0.049 A 
ATOM     69  H   UNL     1       0.723 -10.427  -5.770  1.00  0.00     0.167 HD
ATOM     70  C   UNL     1       1.161 -10.158  -8.578  1.00  0.00     0.074 A 
ATOM     71  C   UNL     1       1.551  -9.607  -9.860  1.00  0.00     0.031 C 
ATOM     72  C   UNL     1       0.704 -11.421  -8.392  1.00  0.00     0.037 A 
BRANCH  59  73
ATOM     73  C   UNL     1      -0.486 -12.894  -2.510  1.00  0.00     0.064 A 
ATOM     74  C   UNL     1       0.324 -14.019  -2.294  1.00  0.00     0.173 A 
ATOM     75  C   UNL     1      -1.682 -12.796  -1.784  1.00  0.00     0.173 A 
ATOM     76  F   UNL     1       1.480 -14.159  -2.961  1.00  0.00    -0.203 F 
ATOM     77  C   UNL     1      -0.050 -15.010  -1.391  1.00  0.00     0.198 A 
ATOM     78  C   UNL     1      -2.039 -13.775  -0.859  1.00  0.00     0.198 A 
ATOM     79  F   UNL     1      -2.481 -11.730  -1.938  1.00  0.00    -0.203 F 
ATOM     80  F   UNL     1       0.731 -16.084  -1.216  1.00  0.00    -0.200 F 
ATOM     81  C   UNL     1      -1.227 -14.883  -0.668  1.00  0.00     0.200 A 
ATOM     82  F   UNL     1      -3.160 -13.637  -0.139  1.00  0.00    -0.200 F 
ATOM     83  F   UNL     1      -1.574 -15.826   0.218  1.00  0.00    -0.200 F 
ENDBRANCH  59  73
BRANCH  60  84
ATOM     84  C   UNL     1       2.699  -5.689  -8.681  1.00  0.00     0.064 A 
ATOM     85  C   UNL     1       4.040  -5.280  -8.618  1.00  0.00     0.173 A 
ATOM     86  C   UNL     1       1.854  -5.013  -9.571  1.00  0.00     0.173 A 
ATOM     87  F   UNL     1       4.892  -5.900  -7.788  1.00  0.00    -0.203 F 
ATOM     88  C   UNL     1       4.505  -4.209  -9.379  1.00  0.00     0.198 A 
ATOM     89  C   UNL     1       2.325  -3.956 -10.348  1.00  0.00     0.198 A 
ATOM     90  F   UNL     1       0.571  -5.386  -9.689  1.00  0.00    -0.203 F 
ATOM     91  F   UNL     1       5.779  -3.809  -9.262  1.00  0.00    -0.200 F 
ATOM     92  C   UNL     1       3.646  -3.546 -10.241  1.00  0.00     0.200 A 
ATOM     93  F   UNL     1       1.498  -3.329 -11.196  1.00  0.00    -0.200 F 
ATOM     94  F   UNL     1       4.090  -2.510 -10.966  1.00  0.00    -0.200 F 
ENDBRANCH  60  84
BRANCH  72  95
ATOM     95  C   UNL     1       0.580 -12.311  -9.593  1.00  0.00     0.064 A 
ATOM     96  C   UNL     1      -0.687 -12.673 -10.077  1.00  0.00     0.173 A 
ATOM     97  C   UNL     1       1.705 -12.914 -10.173  1.00  0.00     0.173 A 
ATOM     98  F   UNL     1      -1.793 -12.132  -9.545  1.00  0.00    -0.203 F 
ATOM     99  C   UNL     1      -0.824 -13.632 -11.076  1.00  0.00     0.198 A 
ATOM    100  C   UNL     1       1.564 -13.854 -11.191  1.00  0.00     0.198 A 
ATOM    101  F   UNL     1       2.936 -12.593  -9.750  1.00  0.00    -0.203 F 
ATOM    102  F   UNL     1      -2.046 -14.001 -11.485  1.00  0.00    -0.200 F 
ATOM    103  C   UNL     1       0.301 -14.222 -11.631  1.00  0.00     0.200 A 
ATOM    104  F   UNL     1       2.652 -14.413 -11.739  1.00  0.00    -0.200 F 
ATOM    105  F   UNL     1       0.168 -15.152 -12.587  1.00  0.00    -0.200 F 
ENDBRANCH  72  95
ENDBRANCH  46  47
ENDBRANCH  39  41
ENDBRANCH  38  39
ENDBRANCH  37  38
ENDBRANCH  36  37
ENDBRANCH  35  36
ENDBRANCH  34  35
ENDBRANCH   1  34
TORSDOF 22
