REMARK SMILES O=C(C[NH2+]C[C@@H]1CCCO1)OCCOCCOCCOC(=O)c1ccc(-c2c3nc(c(-c4c(F)c(F)c(F)c(F)c4F)c4ccc([nH]4)c(-c4c(F)c(F)c(F)c(F)c4F)c4nc(c(-c5c(F)c(F)c(F)c(F)c5F)c5ccc2[nH]5)C=C4)C=C3)cc1
REMARK SMILES IDX 15 1 14 2 13 3 12 4 11 5 2 6 1 7 3 8 4 9 5 12 6 13 7 14
REMARK SMILES IDX 10 15 8 16 9 17 16 18 17 19 18 20 19 21 20 22 21 23 22 24
REMARK SMILES IDX 23 25 24 26 85 27 25 28 84 29 26 30 27 31 28 32 78 33 29 34
REMARK SMILES IDX 83 35 77 36 79 37 30 38 82 39 76 40 75 41 31 43 63 44 43 45
REMARK SMILES IDX 62 46 44 47 47 48 61 49 80 50 45 51 46 52 60 54 81 55 48 56
REMARK SMILES IDX 32 57 33 58 41 59 34 60 35 61 39 62 42 63 36 64 37 65 40 66
REMARK SMILES IDX 38 67 64 68 65 69 73 70 66 71 67 72 71 73 74 74 68 75 69 76
REMARK SMILES IDX 72 77 70 78 49 79 50 80 58 81 51 82 52 83 56 84 59 85 53 86
REMARK SMILES IDX 54 87 57 88 55 89
REMARK H PARENT 4 10 4 11 79 42 47 53
REMARK Flexibility Score: inf
ROOT
ATOM      1  C   UNL     1       2.854   1.739   0.521  1.00  0.00     0.188 C 
ENDROOT
BRANCH   1   2
ATOM      2  O   UNL     1       4.259   1.754   0.322  1.00  0.00    -0.376 OA
BRANCH   2   3
ATOM      3  C   UNL     1       4.874   0.482   0.178  1.00  0.00     0.202 C 
BRANCH   3   4
ATOM      4  C   UNL     1       4.736  -0.110  -1.226  1.00  0.00     0.261 C 
BRANCH   4   5
ATOM      5  O   UNL     1       3.392  -0.373  -1.681  1.00  0.00    -0.459 OA
BRANCH   5   6
ATOM      6  C   UNL     1       2.624  -1.418  -1.298  1.00  0.00     0.361 C 
ATOM      7  O   UNL     1       1.680  -1.781  -1.999  1.00  0.00    -0.245 OA
BRANCH   6   8
ATOM      8  C   UNL     1       2.858  -2.036   0.070  1.00  0.00     0.384 C 
BRANCH   8   9
ATOM      9  N   UNL     1       4.120  -2.788   0.147  1.00  0.00    -0.335 N 
ATOM     10  H   UNL     1       4.842  -2.262  -0.346  1.00  0.00     0.346 HD
ATOM     11  H   UNL     1       3.959  -3.701  -0.277  1.00  0.00     0.346 HD
BRANCH   9  12
ATOM     12  C   UNL     1       4.567  -3.016   1.533  1.00  0.00     0.293 C 
BRANCH  12  13
ATOM     13  C   UNL     1       3.624  -3.714   2.532  1.00  0.00     0.173 C 
ATOM     14  C   UNL     1       3.180  -5.112   2.140  1.00  0.00     0.040 C 
ATOM     15  O   UNL     1       2.424  -2.951   2.775  1.00  0.00    -0.372 OA
ATOM     16  C   UNL     1       1.903  -5.252   2.932  1.00  0.00     0.031 C 
ATOM     17  C   UNL     1       1.315  -3.863   2.826  1.00  0.00     0.161 C 
ENDBRANCH  12  13
ENDBRANCH   9  12
ENDBRANCH   8   9
ENDBRANCH   6   8
ENDBRANCH   5   6
ENDBRANCH   4   5
ENDBRANCH   3   4
ENDBRANCH   2   3
ENDBRANCH   1   2
BRANCH   1  18
ATOM     18  C   UNL     1       2.248   3.143   0.680  1.00  0.00     0.188 C 
BRANCH  18  19
ATOM     19  O   UNL     1       2.958   4.248   0.137  1.00  0.00    -0.376 OA
BRANCH  19  20
ATOM     20  C   UNL     1       4.267   4.513   0.645  1.00  0.00     0.202 C 
BRANCH  20  21
ATOM     21  C   UNL     1       4.412   4.739   2.157  1.00  0.00     0.261 C 
BRANCH  21  22
ATOM     22  O   UNL     1       4.031   3.607   2.969  1.00  0.00    -0.460 OA
BRANCH  22  23
ATOM     23  C   UNL     1       3.130   3.896   3.939  1.00  0.00     0.338 C 
ATOM     24  O   UNL     1       2.631   4.981   4.191  1.00  0.00    -0.246 OA
BRANCH  23  25
ATOM     25  C   UNL     1       2.710   2.691   4.675  1.00  0.00     0.060 A 
ATOM     26  C   UNL     1       1.394   2.242   4.511  1.00  0.00     0.016 A 
ATOM     27  C   UNL     1       3.503   2.198   5.714  1.00  0.00     0.016 A 
ATOM     28  C   UNL     1       0.841   1.352   5.435  1.00  0.00     0.010 A 
ATOM     29  C   UNL     1       2.946   1.308   6.641  1.00  0.00     0.010 A 
ATOM     30  C   UNL     1       1.595   0.930   6.539  1.00  0.00    -0.014 A 
BRANCH  30  31
ATOM     31  C   UNL     1       0.904   0.281   7.685  1.00  0.00     0.031 A 
ATOM     32  C   UNL     1       0.461   1.135   8.846  1.00  0.00     0.074 A 
ATOM     33  C   UNL     1       0.631  -1.035   7.685  1.00  0.00     0.049 A 
ATOM     34  N   UNL     1      -0.177   0.792   9.938  1.00  0.00    -0.248 NA
ATOM     35  C   UNL     1       0.781   2.569   8.765  1.00  0.00     0.031 C 
ATOM     36  C   UNL     1       0.973  -1.970   6.617  1.00  0.00     0.029 A 
ATOM     37  N   UNL     1      -0.003  -1.809   8.626  1.00  0.00    -0.354 N 
ATOM     38  C   UNL     1      -0.332   1.963  10.670  1.00  0.00     0.074 A 
ATOM     39  C   UNL     1       0.304   3.022   9.915  1.00  0.00     0.031 C 
ATOM     40  C   UNL     1       0.545  -3.197   6.963  1.00  0.00     0.029 A 
ATOM     41  C   UNL     1      -0.084  -3.135   8.282  1.00  0.00     0.049 A 
ATOM     42  H   UNL     1      -0.365  -1.447   9.467  1.00  0.00     0.167 HD
ATOM     43  C   UNL     1      -0.955   2.147  11.859  1.00  0.00     0.037 A 
ATOM     44  C   UNL     1      -0.603  -4.178   8.959  1.00  0.00     0.037 A 
ATOM     45  C   UNL     1      -1.599   1.106  12.615  1.00  0.00     0.049 A 
ATOM     46  C   UNL     1      -1.246  -3.957  10.304  1.00  0.00     0.074 A 
ATOM     47  C   UNL     1      -2.282   1.206  13.816  1.00  0.00     0.029 A 
ATOM     48  N   UNL     1      -1.634  -0.229  12.245  1.00  0.00    -0.354 N 
ATOM     49  N   UNL     1      -1.424  -2.840  10.966  1.00  0.00    -0.248 NA
ATOM     50  C   UNL     1      -1.766  -5.149  10.993  1.00  0.00     0.031 C 
ATOM     51  C   UNL     1      -2.696  -0.077  14.192  1.00  0.00     0.029 A 
ATOM     52  C   UNL     1      -2.307  -0.968  13.205  1.00  0.00     0.049 A 
ATOM     53  H   UNL     1      -1.240  -0.598  11.422  1.00  0.00     0.167 HD
ATOM     54  C   UNL     1      -2.106  -3.187  12.126  1.00  0.00     0.074 A 
ATOM     55  C   UNL     1      -2.314  -4.619  12.078  1.00  0.00     0.031 C 
ATOM     56  C   UNL     1      -2.525  -2.389  13.139  1.00  0.00     0.037 A 
BRANCH  43  57
ATOM     57  C   UNL     1      -0.955   3.534  12.430  1.00  0.00     0.064 A 
ATOM     58  C   UNL     1      -1.770   4.545  11.901  1.00  0.00     0.173 A 
ATOM     59  C   UNL     1      -0.153   3.845  13.537  1.00  0.00     0.173 A 
ATOM     60  F   UNL     1      -2.546   4.299  10.835  1.00  0.00    -0.203 F 
ATOM     61  C   UNL     1      -1.765   5.826  12.448  1.00  0.00     0.198 A 
ATOM     62  C   UNL     1      -0.168   5.120  14.096  1.00  0.00     0.198 A 
ATOM     63  F   UNL     1       0.640   2.910  14.082  1.00  0.00    -0.203 F 
ATOM     64  F   UNL     1      -2.522   6.788  11.904  1.00  0.00    -0.200 F 
ATOM     65  C   UNL     1      -0.969   6.110  13.548  1.00  0.00     0.200 A 
ATOM     66  F   UNL     1       0.595   5.390  15.164  1.00  0.00    -0.200 F 
ATOM     67  F   UNL     1      -0.968   7.342  14.075  1.00  0.00    -0.200 F 
ENDBRANCH  43  57
BRANCH  44  68
ATOM     68  C   UNL     1      -0.553  -5.541   8.371  1.00  0.00     0.064 A 
ATOM     69  C   UNL     1      -1.719  -6.175   7.921  1.00  0.00     0.173 A 
ATOM     70  C   UNL     1       0.655  -6.245   8.272  1.00  0.00     0.173 A 
ATOM     71  F   UNL     1      -2.901  -5.549   8.020  1.00  0.00    -0.203 F 
ATOM     72  C   UNL     1      -1.682  -7.470   7.411  1.00  0.00     0.198 A 
ATOM     73  C   UNL     1       0.695  -7.531   7.739  1.00  0.00     0.198 A 
ATOM     74  F   UNL     1       1.798  -5.682   8.691  1.00  0.00    -0.203 F 
ATOM     75  F   UNL     1      -2.817  -8.070   7.027  1.00  0.00    -0.200 F 
ATOM     76  C   UNL     1      -0.474  -8.146   7.316  1.00  0.00     0.200 A 
ATOM     77  F   UNL     1       1.865  -8.177   7.638  1.00  0.00    -0.200 F 
ATOM     78  F   UNL     1      -0.438  -9.391   6.823  1.00  0.00    -0.200 F 
ENDBRANCH  44  68
BRANCH  56  79
ATOM     79  C   UNL     1      -3.292  -3.033  14.256  1.00  0.00     0.064 A 
ATOM     80  C   UNL     1      -2.661  -3.840  15.214  1.00  0.00     0.173 A 
ATOM     81  C   UNL     1      -4.671  -2.809  14.390  1.00  0.00     0.173 A 
ATOM     82  F   UNL     1      -1.348  -4.096  15.121  1.00  0.00    -0.203 F 
ATOM     83  C   UNL     1      -3.388  -4.419  16.252  1.00  0.00     0.198 A 
ATOM     84  C   UNL     1      -5.389  -3.369  15.444  1.00  0.00     0.198 A 
ATOM     85  F   UNL     1      -5.321  -2.040  13.504  1.00  0.00    -0.203 F 
ATOM     86  F   UNL     1      -2.772  -5.222  17.131  1.00  0.00    -0.200 F 
ATOM     87  C   UNL     1      -4.749  -4.178  16.369  1.00  0.00     0.200 A 
ATOM     88  F   UNL     1      -6.702  -3.127  15.561  1.00  0.00    -0.200 F 
ATOM     89  F   UNL     1      -5.445  -4.733  17.371  1.00  0.00    -0.200 F 
ENDBRANCH  56  79
ENDBRANCH  30  31
ENDBRANCH  23  25
ENDBRANCH  22  23
ENDBRANCH  21  22
ENDBRANCH  20  21
ENDBRANCH  19  20
ENDBRANCH  18  19
ENDBRANCH   1  18
TORSDOF 20
