REMARK SMILES COc1cccc(CSc2nc3ccccc3c(=O)n2CCC(=O)OCCOCCOCCOC(=O)c2ccc(-c3c4nc(c(-c5c(F)c(F)c(F)c(F)c5F)c5ccc([nH]5)c(-c5c(F)c(F)c(F)c(F)c5F)c5nc(c(-c6c(F)c(F)c(F)c(F)c6F)c6ccc3[nH]6)C=C5)C=C4)cc2)c1
REMARK SMILES IDX 27 1 26 2 25 3 23 4 24 5 22 6 21 7 20 8 10 9 11 10 12 11
REMARK SMILES IDX 18 12 13 13 17 14 19 15 14 16 16 17 15 18 9 19 8 20 7 21
REMARK SMILES IDX 3 22 4 23 100 24 5 25 6 26 2 27 1 28 28 29 29 30 30 31 31 32
REMARK SMILES IDX 32 33 33 34 34 35 35 36 36 37 37 38 38 39 99 40 39 41 98 42
REMARK SMILES IDX 40 43 41 44 42 45 92 46 43 47 97 48 91 49 93 50 44 51 96 52
REMARK SMILES IDX 90 53 89 54 45 56 77 57 57 58 76 59 58 60 61 61 75 62 94 63
REMARK SMILES IDX 59 64 60 65 74 67 95 68 62 69 46 70 47 71 55 72 48 73 49 74
REMARK SMILES IDX 53 75 56 76 50 77 51 78 54 79 52 80 78 81 79 82 87 83 80 84
REMARK SMILES IDX 81 85 85 86 88 87 82 88 83 89 86 90 84 91 63 92 64 93 72 94
REMARK SMILES IDX 65 95 66 96 70 97 73 98 67 99 68 100 71 101 69 102
REMARK H PARENT 93 55 61 66
REMARK Flexibility Score: inf
ROOT
ATOM      1  C   UNL     1       6.478  -0.124  -6.387  1.00  0.00     0.202 C 
ENDROOT
BRANCH   1   2
ATOM      2  C   UNL     1       7.228   0.033  -5.044  1.00  0.00     0.261 C 
BRANCH   2   3
ATOM      3  O   UNL     1       6.873  -0.958  -4.036  1.00  0.00    -0.463 OA
BRANCH   3   4
ATOM      4  C   UNL     1       6.336  -0.523  -2.857  1.00  0.00     0.307 C 
ATOM      5  O   UNL     1       5.991   0.631  -2.632  1.00  0.00    -0.252 OA
BRANCH   4   6
ATOM      6  C   UNL     1       6.233  -1.644  -1.819  1.00  0.00     0.144 C 
BRANCH   6   7
ATOM      7  C   UNL     1       4.899  -2.384  -1.543  1.00  0.00     0.140 C 
BRANCH   7   8
ATOM      8  N   UNL     1       4.413  -3.275  -2.595  1.00  0.00    -0.286 N 
ATOM      9  C   UNL     1       4.427  -2.966  -3.908  1.00  0.00     0.171 A 
ATOM     10  N   UNL     1       4.763  -3.808  -4.828  1.00  0.00    -0.224 NA
ATOM     11  C   UNL     1       4.795  -5.150  -4.448  1.00  0.00     0.079 A 
ATOM     12  C   UNL     1       3.825  -4.493  -2.308  1.00  0.00     0.262 A 
ATOM     13  C   UNL     1       5.352  -6.110  -5.287  1.00  0.00     0.029 A 
ATOM     14  C   UNL     1       4.054  -5.546  -3.333  1.00  0.00     0.066 A 
ATOM     15  O   UNL     1       3.188  -4.726  -1.286  1.00  0.00    -0.269 OA
ATOM     16  C   UNL     1       5.058  -7.456  -5.074  1.00  0.00     0.002 A 
ATOM     17  C   UNL     1       3.669  -6.872  -3.172  1.00  0.00     0.016 A 
ATOM     18  C   UNL     1       4.166  -7.827  -4.062  1.00  0.00     0.001 A 
BRANCH   9  19
ATOM     19  S   UNL     1       3.846  -1.471  -4.458  1.00  0.00    -0.083 SA
BRANCH  19  20
ATOM     20  C   UNL     1       3.091  -0.398  -3.261  1.00  0.00     0.113 C 
BRANCH  20  21
ATOM     21  C   UNL     1       1.644  -0.615  -2.931  1.00  0.00    -0.034 A 
ATOM     22  C   UNL     1      -0.098  -0.628  -1.232  1.00  0.00     0.119 A 
ATOM     23  C   UNL     1      -1.063  -0.731  -2.233  1.00  0.00     0.046 A 
ATOM     24  C   UNL     1       1.249  -0.580  -1.584  1.00  0.00     0.051 A 
ATOM     25  C   UNL     1      -0.689  -0.752  -3.576  1.00  0.00     0.004 A 
ATOM     26  C   UNL     1       0.658  -0.695  -3.925  1.00  0.00     0.005 A 
BRANCH  22  27
ATOM     27  O   UNL     1      -0.575  -0.596   0.049  1.00  0.00    -0.497 OA
ATOM     28  C   UNL     1       0.269   0.032   1.009  1.00  0.00     0.278 C 
ENDBRANCH  22  27
ENDBRANCH  20  21
ENDBRANCH  19  20
ENDBRANCH   9  19
ENDBRANCH   7   8
ENDBRANCH   6   7
ENDBRANCH   4   6
ENDBRANCH   3   4
ENDBRANCH   2   3
ENDBRANCH   1   2
BRANCH   1  29
ATOM     29  O   UNL     1       5.860   1.086  -6.839  1.00  0.00    -0.376 OA
BRANCH  29  30
ATOM     30  C   UNL     1       4.598   1.386  -6.260  1.00  0.00     0.188 C 
BRANCH  30  31
ATOM     31  C   UNL     1       3.394   0.589  -6.776  1.00  0.00     0.188 C 
BRANCH  31  32
ATOM     32  O   UNL     1       3.506  -0.145  -7.970  1.00  0.00    -0.376 OA
BRANCH  32  33
ATOM     33  C   UNL     1       3.392   0.645  -9.145  1.00  0.00     0.202 C 
BRANCH  33  34
ATOM     34  C   UNL     1       2.046   1.395  -9.292  1.00  0.00     0.261 C 
BRANCH  34  35
ATOM     35  O   UNL     1       1.871   2.476  -8.323  1.00  0.00    -0.460 OA
BRANCH  35  36
ATOM     36  C   UNL     1       0.685   2.473  -7.647  1.00  0.00     0.338 C 
ATOM     37  O   UNL     1      -0.290   1.783  -7.904  1.00  0.00    -0.246 OA
BRANCH  36  38
ATOM     38  C   UNL     1       0.687   3.343  -6.437  1.00  0.00     0.060 A 
ATOM     39  C   UNL     1       1.056   2.833  -5.182  1.00  0.00     0.016 A 
ATOM     40  C   UNL     1       0.046   4.577  -6.492  1.00  0.00     0.016 A 
ATOM     41  C   UNL     1       0.765   3.532  -3.996  1.00  0.00     0.010 A 
ATOM     42  C   UNL     1      -0.225   5.286  -5.307  1.00  0.00     0.010 A 
ATOM     43  C   UNL     1       0.099   4.763  -4.038  1.00  0.00    -0.014 A 
BRANCH  43  44
ATOM     44  C   UNL     1      -0.360   5.471  -2.796  1.00  0.00     0.031 A 
ATOM     45  C   UNL     1      -1.834   5.730  -2.579  1.00  0.00     0.074 A 
ATOM     46  C   UNL     1       0.502   5.920  -1.860  1.00  0.00     0.049 A 
ATOM     47  N   UNL     1      -2.430   6.551  -1.746  1.00  0.00    -0.248 NA
ATOM     48  C   UNL     1      -2.759   4.962  -3.425  1.00  0.00     0.031 C 
ATOM     49  C   UNL     1       1.944   5.694  -1.848  1.00  0.00     0.029 A 
ATOM     50  N   UNL     1       0.278   6.695  -0.740  1.00  0.00    -0.354 N 
ATOM     51  C   UNL     1      -3.791   6.444  -2.010  1.00  0.00     0.074 A 
ATOM     52  C   UNL     1      -3.931   5.476  -3.080  1.00  0.00     0.031 C 
ATOM     53  C   UNL     1       2.478   6.322  -0.787  1.00  0.00     0.029 A 
ATOM     54  C   UNL     1       1.431   7.061  -0.085  1.00  0.00     0.049 A 
ATOM     55  H   UNL     1      -0.621   6.960  -0.439  1.00  0.00     0.167 HD
ATOM     56  C   UNL     1      -4.830   7.093  -1.424  1.00  0.00     0.037 A 
ATOM     57  C   UNL     1       1.637   7.930   0.926  1.00  0.00     0.037 A 
ATOM     58  C   UNL     1      -4.710   8.021  -0.325  1.00  0.00     0.049 A 
ATOM     59  C   UNL     1       0.479   8.694   1.520  1.00  0.00     0.074 A 
ATOM     60  C   UNL     1      -5.712   8.716   0.333  1.00  0.00     0.029 A 
ATOM     61  N   UNL     1      -3.518   8.376   0.289  1.00  0.00    -0.354 N 
ATOM     62  N   UNL     1      -0.795   8.640   1.222  1.00  0.00    -0.248 NA
ATOM     63  C   UNL     1       0.799   9.650   2.592  1.00  0.00     0.031 C 
ATOM     64  C   UNL     1      -5.124   9.528   1.309  1.00  0.00     0.029 A 
ATOM     65  C   UNL     1      -3.760   9.292   1.304  1.00  0.00     0.049 A 
ATOM     66  H   UNL     1      -2.631   8.030   0.041  1.00  0.00     0.167 HD
ATOM     67  C   UNL     1      -1.429   9.530   2.083  1.00  0.00     0.074 A 
ATOM     68  C   UNL     1      -0.402  10.093   2.932  1.00  0.00     0.031 C 
ATOM     69  C   UNL     1      -2.744   9.852   2.158  1.00  0.00     0.037 A 
BRANCH  56  70
ATOM     70  C   UNL     1      -6.205   6.860  -1.988  1.00  0.00     0.064 A 
ATOM     71  C   UNL     1      -6.886   5.646  -1.822  1.00  0.00     0.173 A 
ATOM     72  C   UNL     1      -6.869   7.894  -2.669  1.00  0.00     0.173 A 
ATOM     73  F   UNL     1      -6.297   4.623  -1.186  1.00  0.00    -0.203 F 
ATOM     74  C   UNL     1      -8.166   5.465  -2.344  1.00  0.00     0.198 A 
ATOM     75  C   UNL     1      -8.160   7.721  -3.159  1.00  0.00     0.198 A 
ATOM     76  F   UNL     1      -6.270   9.082  -2.845  1.00  0.00    -0.203 F 
ATOM     77  F   UNL     1      -8.777   4.279  -2.217  1.00  0.00    -0.200 F 
ATOM     78  C   UNL     1      -8.804   6.504  -3.004  1.00  0.00     0.200 A 
ATOM     79  F   UNL     1      -8.782   8.734  -3.778  1.00  0.00    -0.200 F 
ATOM     80  F   UNL     1     -10.039   6.330  -3.497  1.00  0.00    -0.200 F 
ENDBRANCH  56  70
BRANCH  57  81
ATOM     81  C   UNL     1       3.018   8.177   1.427  1.00  0.00     0.064 A 
ATOM     82  C   UNL     1       3.392   7.807   2.727  1.00  0.00     0.173 A 
ATOM     83  C   UNL     1       3.978   8.824   0.634  1.00  0.00     0.173 A 
ATOM     84  F   UNL     1       2.499   7.221   3.538  1.00  0.00    -0.203 F 
ATOM     85  C   UNL     1       4.664   8.091   3.220  1.00  0.00     0.198 A 
ATOM     86  C   UNL     1       5.261   9.074   1.115  1.00  0.00     0.198 A 
ATOM     87  F   UNL     1       3.671   9.210  -0.613  1.00  0.00    -0.203 F 
ATOM     88  F   UNL     1       4.973   7.780   4.486  1.00  0.00    -0.200 F 
ATOM     89  C   UNL     1       5.600   8.717   2.411  1.00  0.00     0.200 A 
ATOM     90  F   UNL     1       6.166   9.668   0.326  1.00  0.00    -0.200 F 
ATOM     91  F   UNL     1       6.824   8.985   2.884  1.00  0.00    -0.200 F 
ENDBRANCH  57  81
BRANCH  69  92
ATOM     92  C   UNL     1      -3.159  10.822   3.232  1.00  0.00     0.064 A 
ATOM     93  C   UNL     1      -2.788  12.176   3.196  1.00  0.00     0.173 A 
ATOM     94  C   UNL     1      -3.930  10.389   4.322  1.00  0.00     0.173 A 
ATOM     95  F   UNL     1      -2.040  12.644   2.186  1.00  0.00    -0.203 F 
ATOM     96  C   UNL     1      -3.132  13.044   4.231  1.00  0.00     0.198 A 
ATOM     97  C   UNL     1      -4.302  11.267   5.338  1.00  0.00     0.198 A 
ATOM     98  F   UNL     1      -4.322   9.108   4.407  1.00  0.00    -0.203 F 
ATOM     99  F   UNL     1      -2.703  14.314   4.209  1.00  0.00    -0.200 F 
ATOM    100  C   UNL     1      -3.891  12.590   5.299  1.00  0.00     0.200 A 
ATOM    101  F   UNL     1      -5.048  10.829   6.362  1.00  0.00    -0.200 F 
ATOM    102  F   UNL     1      -4.213  13.424   6.298  1.00  0.00    -0.200 F 
ENDBRANCH  69  92
ENDBRANCH  43  44
ENDBRANCH  36  38
ENDBRANCH  35  36
ENDBRANCH  34  35
ENDBRANCH  33  34
ENDBRANCH  32  33
ENDBRANCH  31  32
ENDBRANCH  30  31
ENDBRANCH  29  30
ENDBRANCH   1  29
TORSDOF 23
