REMARK SMILES O=C(OCCOCCOCCOC(=O)c1noc(-c2ccccc2Cl)n1)c1ccc(-c2c3nc(c(-c4c(F)c(F)c(F)c(F)c4F)c4ccc([nH]4)c(-c4c(F)c(F)c(F)c(F)c4F)c4nc(c(-c5c(F)c(F)c(F)c(F)c5F)c5ccc2[nH]5)C=C4)C=C3)cc1
REMARK SMILES IDX 7 1 6 2 5 3 4 4 3 5 2 6 1 7 27 8 28 9 89 10 29 11 88 12
REMARK SMILES IDX 30 13 31 14 32 15 82 16 33 17 87 18 81 19 83 20 34 21 86 22
REMARK SMILES IDX 80 23 79 24 35 26 67 27 47 28 66 29 48 30 51 31 65 32 84 33
REMARK SMILES IDX 49 34 50 35 64 37 85 38 52 39 36 40 37 41 45 42 38 43 39 44
REMARK SMILES IDX 43 45 46 46 40 47 41 48 44 49 42 50 68 51 69 52 77 53 70 54
REMARK SMILES IDX 71 55 75 56 78 57 72 58 73 59 76 60 74 61 53 62 54 63 62 64
REMARK SMILES IDX 55 65 56 66 60 67 63 68 57 69 58 70 61 71 59 72 8 73 9 74
REMARK SMILES IDX 10 75 11 76 12 77 13 78 14 79 15 80 16 81 26 82 17 83 18 84
REMARK SMILES IDX 19 85 20 86 24 87 21 88 23 89 25 90 22 91
REMARK H PARENT 83 25 51 36
REMARK Flexibility Score: inf
ROOT
ATOM      1  C   UNL     1       2.409  -1.075  -1.820  1.00  0.00     0.188 C 
ENDROOT
BRANCH   1   2
ATOM      2  O   UNL     1       3.724  -0.565  -1.553  1.00  0.00    -0.376 OA
BRANCH   2   3
ATOM      3  C   UNL     1       4.514  -1.417  -0.718  1.00  0.00     0.202 C 
BRANCH   3   4
ATOM      4  C   UNL     1       4.317  -1.197   0.787  1.00  0.00     0.261 C 
BRANCH   4   5
ATOM      5  O   UNL     1       2.942  -0.946   1.119  1.00  0.00    -0.460 OA
BRANCH   5   6
ATOM      6  C   UNL     1       2.332   0.248   1.327  1.00  0.00     0.338 C 
ATOM      7  O   UNL     1       1.156   0.247   1.688  1.00  0.00    -0.246 OA
BRANCH   6   8
ATOM      8  C   UNL     1       3.017   1.574   1.194  1.00  0.00     0.060 A 
ATOM      9  C   UNL     1       4.152   1.828   0.423  1.00  0.00     0.016 A 
ATOM     10  C   UNL     1       2.440   2.659   1.881  1.00  0.00     0.016 A 
ATOM     11  C   UNL     1       4.784   3.068   0.450  1.00  0.00     0.010 A 
ATOM     12  C   UNL     1       3.030   3.928   1.859  1.00  0.00     0.010 A 
ATOM     13  C   UNL     1       4.240   4.121   1.184  1.00  0.00    -0.014 A 
BRANCH  13  14
ATOM     14  C   UNL     1       5.034   5.358   1.349  1.00  0.00     0.031 A 
ATOM     15  C   UNL     1       5.707   5.606   2.668  1.00  0.00     0.074 A 
ATOM     16  C   UNL     1       5.269   6.165   0.298  1.00  0.00     0.049 A 
ATOM     17  N   UNL     1       6.452   6.611   3.047  1.00  0.00    -0.248 NA
ATOM     18  C   UNL     1       5.537   4.563   3.694  1.00  0.00     0.031 C 
ATOM     19  C   UNL     1       4.787   5.937  -1.063  1.00  0.00     0.029 A 
ATOM     20  N   UNL     1       6.009   7.312   0.200  1.00  0.00    -0.354 N 
ATOM     21  C   UNL     1       6.832   6.325   4.352  1.00  0.00     0.074 A 
ATOM     22  C   UNL     1       6.217   5.067   4.712  1.00  0.00     0.031 C 
ATOM     23  C   UNL     1       5.271   6.895  -1.871  1.00  0.00     0.029 A 
ATOM     24  C   UNL     1       6.054   7.829  -1.071  1.00  0.00     0.049 A 
ATOM     25  H   UNL     1       6.465   7.728   0.968  1.00  0.00     0.167 HD
ATOM     26  C   UNL     1       7.631   7.046   5.173  1.00  0.00     0.037 A 
ATOM     27  C   UNL     1       6.653   8.943  -1.526  1.00  0.00     0.037 A 
ATOM     28  C   UNL     1       8.236   8.296   4.803  1.00  0.00     0.049 A 
ATOM     29  C   UNL     1       7.387   9.814  -0.550  1.00  0.00     0.074 A 
ATOM     30  C   UNL     1       9.020   9.142   5.565  1.00  0.00     0.029 A 
ATOM     31  N   UNL     1       8.117   8.878   3.548  1.00  0.00    -0.354 N 
ATOM     32  N   UNL     1       7.660   9.592   0.713  1.00  0.00    -0.248 NA
ATOM     33  C   UNL     1       7.869  11.105  -1.057  1.00  0.00     0.031 C 
ATOM     34  C   UNL     1       9.343  10.257   4.782  1.00  0.00     0.029 A 
ATOM     35  C   UNL     1       8.794  10.085   3.520  1.00  0.00     0.049 A 
ATOM     36  H   UNL     1       7.625   8.489   2.790  1.00  0.00     0.167 HD
ATOM     37  C   UNL     1       8.361  10.704   1.150  1.00  0.00     0.074 A 
ATOM     38  C   UNL     1       8.469  11.602   0.016  1.00  0.00     0.031 C 
ATOM     39  C   UNL     1       8.876  10.958   2.378  1.00  0.00     0.037 A 
BRANCH  26  40
ATOM     40  C   UNL     1       7.835   6.512   6.559  1.00  0.00     0.064 A 
ATOM     41  C   UNL     1       8.632   5.384   6.807  1.00  0.00     0.173 A 
ATOM     42  C   UNL     1       7.184   7.110   7.647  1.00  0.00     0.173 A 
ATOM     43  F   UNL     1       9.252   4.759   5.795  1.00  0.00    -0.203 F 
ATOM     44  C   UNL     1       8.741   4.854   8.091  1.00  0.00     0.198 A 
ATOM     45  C   UNL     1       7.315   6.591   8.933  1.00  0.00     0.198 A 
ATOM     46  F   UNL     1       6.405   8.185   7.461  1.00  0.00    -0.203 F 
ATOM     47  F   UNL     1       9.456   3.739   8.295  1.00  0.00    -0.200 F 
ATOM     48  C   UNL     1       8.084   5.459   9.152  1.00  0.00     0.200 A 
ATOM     49  F   UNL     1       6.679   7.177   9.957  1.00  0.00    -0.200 F 
ATOM     50  F   UNL     1       8.177   4.939  10.384  1.00  0.00    -0.200 F 
ENDBRANCH  26  40
BRANCH  27  51
ATOM     51  C   UNL     1       6.546   9.328  -2.953  1.00  0.00     0.064 A 
ATOM     52  C   UNL     1       7.631   9.183  -3.825  1.00  0.00     0.173 A 
ATOM     53  C   UNL     1       5.365   9.887  -3.459  1.00  0.00     0.173 A 
ATOM     54  F   UNL     1       8.793   8.688  -3.373  1.00  0.00    -0.203 F 
ATOM     55  C   UNL     1       7.539   9.587  -5.157  1.00  0.00     0.198 A 
ATOM     56  C   UNL     1       5.268  10.276  -4.793  1.00  0.00     0.198 A 
ATOM     57  F   UNL     1       4.317  10.079  -2.646  1.00  0.00    -0.203 F 
ATOM     58  F   UNL     1       8.602   9.476  -5.964  1.00  0.00    -0.200 F 
ATOM     59  C   UNL     1       6.356  10.128  -5.640  1.00  0.00     0.200 A 
ATOM     60  F   UNL     1       4.132  10.819  -5.251  1.00  0.00    -0.200 F 
ATOM     61  F   UNL     1       6.272  10.531  -6.915  1.00  0.00    -0.200 F 
ENDBRANCH  27  51
BRANCH  39  62
ATOM     62  C   UNL     1       9.629  12.241   2.537  1.00  0.00     0.064 A 
ATOM     63  C   UNL     1       8.966  13.471   2.646  1.00  0.00     0.173 A 
ATOM     64  C   UNL     1      11.029  12.233   2.600  1.00  0.00     0.173 A 
ATOM     65  F   UNL     1       7.628  13.526   2.568  1.00  0.00    -0.203 F 
ATOM     66  C   UNL     1       9.683  14.654   2.796  1.00  0.00     0.198 A 
ATOM     67  C   UNL     1      11.741  13.415   2.772  1.00  0.00     0.198 A 
ATOM     68  F   UNL     1      11.704  11.078   2.497  1.00  0.00    -0.203 F 
ATOM     69  F   UNL     1       9.034  15.825   2.857  1.00  0.00    -0.200 F 
ATOM     70  C   UNL     1      11.068  14.624   2.865  1.00  0.00     0.200 A 
ATOM     71  F   UNL     1      13.079  13.384   2.844  1.00  0.00    -0.200 F 
ATOM     72  F   UNL     1      11.757  15.764   3.011  1.00  0.00    -0.200 F 
ENDBRANCH  39  62
ENDBRANCH  13  14
ENDBRANCH   6   8
ENDBRANCH   5   6
ENDBRANCH   4   5
ENDBRANCH   3   4
ENDBRANCH   2   3
ENDBRANCH   1   2
BRANCH   1  73
ATOM     73  C   UNL     1       1.927  -0.661  -3.215  1.00  0.00     0.188 C 
BRANCH  73  74
ATOM     74  O   UNL     1       2.544  -1.359  -4.302  1.00  0.00    -0.376 OA
BRANCH  74  75
ATOM     75  C   UNL     1       3.963  -1.272  -4.404  1.00  0.00     0.202 C 
BRANCH  75  76
ATOM     76  C   UNL     1       4.504   0.054  -4.939  1.00  0.00     0.261 C 
BRANCH  76  77
ATOM     77  O   UNL     1       4.019   1.194  -4.212  1.00  0.00    -0.457 OA
BRANCH  77  78
ATOM     78  C   UNL     1       3.474   2.181  -4.988  1.00  0.00     0.380 C 
ATOM     79  O   UNL     1       3.442   2.142  -6.219  1.00  0.00    -0.242 OA
BRANCH  78  80
ATOM     80  C   UNL     1       2.966   3.333  -4.239  1.00  0.00     0.281 A 
ATOM     81  N   UNL     1       2.519   3.308  -2.968  1.00  0.00    -0.049 NA
ATOM     82  N   UNL     1       2.867   4.572  -4.831  1.00  0.00    -0.181 NA
ATOM     83  O   UNL     1       2.035   4.614  -2.768  1.00  0.00    -0.333 OA
ATOM     84  C   UNL     1       2.276   5.307  -3.924  1.00  0.00     0.259 A 
BRANCH  84  85
ATOM     85  C   UNL     1       1.904   6.717  -3.983  1.00  0.00     0.058 A 
ATOM     86  C   UNL     1       1.754   7.467  -2.802  1.00  0.00     0.015 A 
ATOM     87  C   UNL     1       1.744   7.387  -5.214  1.00  0.00     0.053 A 
ATOM     88  C   UNL     1       1.476   8.838  -2.849  1.00  0.00     0.001 A 
ATOM     89  C   UNL     1       1.467   8.758  -5.253  1.00  0.00     0.021 A 
ATOM     90  Cl  UNL     1       1.852   6.599  -6.753  1.00  0.00    -0.083 Cl
ATOM     91  C   UNL     1       1.339   9.483  -4.074  1.00  0.00     0.002 A 
ENDBRANCH  84  85
ENDBRANCH  78  80
ENDBRANCH  77  78
ENDBRANCH  76  77
ENDBRANCH  75  76
ENDBRANCH  74  75
ENDBRANCH  73  74
ENDBRANCH   1  73
TORSDOF 18
