REMARK SMILES CCNC(=O)c1cccc(-c2ccc(Cl)c(C(=O)OCCOCCOCCOC(=O)c3ccc(-c4c5nc(c(-c6c(F)c(F)c(F)c(F)c6F)c6ccc([nH]6)c(-c6c(F)c(F)c(F)c(F)c6F)c6nc(c(-c7c(F)c(F)c(F)c(F)c7F)c7ccc4[nH]7)C=C6)C=C5)cc3)c2)c1
REMARK SMILES IDX 23 1 22 2 21 3 20 4 19 5 17 6 18 7 16 8 11 9 12 10 94 11
REMARK SMILES IDX 13 12 14 13 15 14 10 15 6 16 7 17 95 18 8 19 9 20 4 21 3 22
REMARK SMILES IDX 5 24 2 25 1 26 24 27 25 28 26 29 27 30 28 31 29 32 30 33
REMARK SMILES IDX 31 34 32 35 93 36 33 37 92 38 34 39 35 40 36 41 86 42 37 43
REMARK SMILES IDX 91 44 85 45 87 46 38 47 90 48 84 49 83 50 39 52 71 53 51 54
REMARK SMILES IDX 70 55 52 56 55 57 69 58 88 59 53 60 54 61 68 63 89 64 56 65
REMARK SMILES IDX 40 66 41 67 49 68 42 69 43 70 47 71 50 72 44 73 45 74 48 75
REMARK SMILES IDX 46 76 72 77 73 78 81 79 74 80 75 81 79 82 82 83 76 84 77 85
REMARK SMILES IDX 80 86 78 87 57 88 58 89 66 90 59 91 60 92 64 93 67 94 61 95
REMARK SMILES IDX 62 96 65 97 63 98
REMARK H PARENT 3 23 87 51 55 62
REMARK Flexibility Score: inf
ROOT
ATOM      1  C   UNL     1      -5.462   7.712   3.184  1.00  0.00     0.188 C 
ENDROOT
BRANCH   1   2
ATOM      2  O   UNL     1      -4.795   8.857   3.682  1.00  0.00    -0.376 OA
BRANCH   2   3
ATOM      3  C   UNL     1      -3.403   9.027   3.455  1.00  0.00     0.202 C 
BRANCH   3   4
ATOM      4  C   UNL     1      -2.430   7.866   3.666  1.00  0.00     0.261 C 
BRANCH   4   5
ATOM      5  O   UNL     1      -2.832   6.679   2.973  1.00  0.00    -0.460 OA
BRANCH   5   6
ATOM      6  C   UNL     1      -2.817   5.537   3.711  1.00  0.00     0.339 C 
ATOM      7  O   UNL     1      -2.373   5.389   4.825  1.00  0.00    -0.246 OA
BRANCH   6   8
ATOM      8  C   UNL     1      -3.526   4.490   2.942  1.00  0.00     0.079 A 
ATOM      9  C   UNL     1      -3.776   3.275   0.826  1.00  0.00    -0.017 A 
ATOM     10  C   UNL     1      -4.814   2.539   1.420  1.00  0.00     0.010 A 
ATOM     11  C   UNL     1      -3.151   4.263   1.608  1.00  0.00     0.026 A 
ATOM     12  C   UNL     1      -5.210   2.777   2.741  1.00  0.00     0.022 A 
ATOM     13  C   UNL     1      -4.566   3.749   3.508  1.00  0.00     0.055 A 
ATOM     14  Cl  UNL     1      -5.161   4.020   5.106  1.00  0.00    -0.083 Cl
BRANCH   9  15
ATOM     15  C   UNL     1      -3.300   2.972  -0.539  1.00  0.00    -0.018 A 
ATOM     16  C   UNL     1      -1.427   2.562  -2.056  1.00  0.00     0.040 A 
ATOM     17  C   UNL     1      -2.310   2.234  -3.085  1.00  0.00     0.014 A 
ATOM     18  C   UNL     1      -1.924   2.976  -0.817  1.00  0.00     0.022 A 
ATOM     19  C   UNL     1      -3.683   2.267  -2.848  1.00  0.00     0.001 A 
ATOM     20  C   UNL     1      -4.171   2.621  -1.584  1.00  0.00     0.009 A 
BRANCH  16  21
ATOM     21  C   UNL     1       0.030   2.506  -2.301  1.00  0.00     0.251 C 
ATOM     22  N   UNL     1       0.874   1.954  -1.367  1.00  0.00    -0.352 N 
ATOM     23  H   UNL     1       1.833   2.096  -1.540  1.00  0.00     0.163 HD
ATOM     24  O   UNL     1       0.484   2.957  -3.348  1.00  0.00    -0.269 OA
BRANCH  22  25
ATOM     25  C   UNL     1       0.574   1.193  -0.164  1.00  0.00     0.112 C 
ATOM     26  C   UNL     1       1.235  -0.171  -0.200  1.00  0.00     0.027 C 
ENDBRANCH  22  25
ENDBRANCH  16  21
ENDBRANCH   9  15
ENDBRANCH   6   8
ENDBRANCH   5   6
ENDBRANCH   4   5
ENDBRANCH   3   4
ENDBRANCH   2   3
ENDBRANCH   1   2
BRANCH   1  27
ATOM     27  C   UNL     1      -5.451   7.375   1.678  1.00  0.00     0.188 C 
BRANCH  27  28
ATOM     28  O   UNL     1      -4.836   8.226   0.734  1.00  0.00    -0.376 OA
BRANCH  28  29
ATOM     29  C   UNL     1      -5.239   9.580   0.616  1.00  0.00     0.202 C 
BRANCH  29  30
ATOM     30  C   UNL     1      -6.713   9.998   0.627  1.00  0.00     0.261 C 
BRANCH  30  31
ATOM     31  O   UNL     1      -7.516   9.381   1.639  1.00  0.00    -0.460 OA
BRANCH  31  32
ATOM     32  C   UNL     1      -8.492   8.569   1.167  1.00  0.00     0.338 C 
ATOM     33  O   UNL     1      -8.759   8.322   0.004  1.00  0.00    -0.246 OA
BRANCH  32  34
ATOM     34  C   UNL     1      -9.126   7.853   2.287  1.00  0.00     0.060 A 
ATOM     35  C   UNL     1      -9.081   6.453   2.281  1.00  0.00     0.016 A 
ATOM     36  C   UNL     1      -9.827   8.541   3.277  1.00  0.00     0.016 A 
ATOM     37  C   UNL     1      -9.781   5.731   3.244  1.00  0.00     0.010 A 
ATOM     38  C   UNL     1     -10.545   7.816   4.231  1.00  0.00     0.010 A 
ATOM     39  C   UNL     1     -10.557   6.409   4.192  1.00  0.00    -0.014 A 
BRANCH  39  40
ATOM     40  C   UNL     1     -11.537   5.650   5.004  1.00  0.00     0.031 A 
ATOM     41  C   UNL     1     -12.959   5.572   4.519  1.00  0.00     0.074 A 
ATOM     42  C   UNL     1     -11.170   5.017   6.130  1.00  0.00     0.049 A 
ATOM     43  N   UNL     1     -13.997   4.994   5.068  1.00  0.00    -0.248 NA
ATOM     44  C   UNL     1     -13.249   6.237   3.238  1.00  0.00     0.031 C 
ATOM     45  C   UNL     1      -9.817   4.982   6.679  1.00  0.00     0.029 A 
ATOM     46  N   UNL     1     -11.917   4.285   7.020  1.00  0.00    -0.354 N 
ATOM     47  C   UNL     1     -15.058   5.226   4.203  1.00  0.00     0.074 A 
ATOM     48  C   UNL     1     -14.550   6.023   3.108  1.00  0.00     0.031 C 
ATOM     49  C   UNL     1      -9.832   4.276   7.824  1.00  0.00     0.029 A 
ATOM     50  C   UNL     1     -11.198   3.834   8.098  1.00  0.00     0.049 A 
ATOM     51  H   UNL     1     -12.876   4.101   6.896  1.00  0.00     0.167 HD
ATOM     52  C   UNL     1     -16.341   4.805   4.307  1.00  0.00     0.037 A 
ATOM     53  C   UNL     1     -11.608   3.158   9.190  1.00  0.00     0.037 A 
ATOM     54  C   UNL     1     -16.850   4.019   5.399  1.00  0.00     0.049 A 
ATOM     55  C   UNL     1     -13.058   2.764   9.318  1.00  0.00     0.074 A 
ATOM     56  C   UNL     1     -18.134   3.541   5.595  1.00  0.00     0.029 A 
ATOM     57  N   UNL     1     -16.096   3.600   6.486  1.00  0.00    -0.354 N 
ATOM     58  N   UNL     1     -14.051   2.965   8.485  1.00  0.00    -0.248 NA
ATOM     59  C   UNL     1     -13.442   2.040  10.539  1.00  0.00     0.031 C 
ATOM     60  C   UNL     1     -18.168   2.871   6.822  1.00  0.00     0.029 A 
ATOM     61  C   UNL     1     -16.893   2.885   7.364  1.00  0.00     0.049 A 
ATOM     62  H   UNL     1     -15.138   3.784   6.613  1.00  0.00     0.167 HD
ATOM     63  C   UNL     1     -15.163   2.362   9.061  1.00  0.00     0.074 A 
ATOM     64  C   UNL     1     -14.722   1.781  10.311  1.00  0.00     0.031 C 
ATOM     65  C   UNL     1     -16.434   2.293   8.595  1.00  0.00     0.037 A 
BRANCH  52  66
ATOM     66  C   UNL     1     -17.290   5.208   3.219  1.00  0.00     0.064 A 
ATOM     67  C   UNL     1     -17.221   4.643   1.937  1.00  0.00     0.173 A 
ATOM     68  C   UNL     1     -18.299   6.150   3.469  1.00  0.00     0.173 A 
ATOM     69  F   UNL     1     -16.264   3.750   1.643  1.00  0.00    -0.203 F 
ATOM     70  C   UNL     1     -18.115   5.022   0.938  1.00  0.00     0.198 A 
ATOM     71  C   UNL     1     -19.208   6.506   2.477  1.00  0.00     0.198 A 
ATOM     72  F   UNL     1     -18.408   6.719   4.679  1.00  0.00    -0.203 F 
ATOM     73  F   UNL     1     -18.003   4.502  -0.292  1.00  0.00    -0.200 F 
ATOM     74  C   UNL     1     -19.111   5.948   1.211  1.00  0.00     0.200 A 
ATOM     75  F   UNL     1     -20.177   7.393   2.745  1.00  0.00    -0.200 F 
ATOM     76  F   UNL     1     -19.975   6.306   0.251  1.00  0.00    -0.200 F 
ENDBRANCH  52  66
BRANCH  53  77
ATOM     77  C   UNL     1     -10.637   2.812  10.260  1.00  0.00     0.064 A 
ATOM     78  C   UNL     1     -10.277   1.480  10.507  1.00  0.00     0.173 A 
ATOM     79  C   UNL     1     -10.080   3.802  11.084  1.00  0.00     0.173 A 
ATOM     80  F   UNL     1     -10.806   0.496   9.766  1.00  0.00    -0.203 F 
ATOM     81  C   UNL     1      -9.417   1.149  11.552  1.00  0.00     0.198 A 
ATOM     82  C   UNL     1      -9.198   3.472  12.110  1.00  0.00     0.198 A 
ATOM     83  F   UNL     1     -10.397   5.091  10.893  1.00  0.00    -0.203 F 
ATOM     84  F   UNL     1      -9.134  -0.137  11.802  1.00  0.00    -0.200 F 
ATOM     85  C   UNL     1      -8.874   2.145  12.350  1.00  0.00     0.200 A 
ATOM     86  F   UNL     1      -8.672   4.439  12.875  1.00  0.00    -0.200 F 
ATOM     87  F   UNL     1      -8.052   1.826  13.359  1.00  0.00    -0.200 F 
ENDBRANCH  53  77
BRANCH  65  88
ATOM     88  C   UNL     1     -17.429   1.515   9.407  1.00  0.00     0.064 A 
ATOM     89  C   UNL     1     -17.925   1.993  10.628  1.00  0.00     0.173 A 
ATOM     90  C   UNL     1     -17.926   0.291   8.931  1.00  0.00     0.173 A 
ATOM     91  F   UNL     1     -17.473   3.152  11.133  1.00  0.00    -0.203 F 
ATOM     92  C   UNL     1     -18.860   1.262  11.356  1.00  0.00     0.198 A 
ATOM     93  C   UNL     1     -18.883  -0.422   9.647  1.00  0.00     0.198 A 
ATOM     94  F   UNL     1     -17.492  -0.207   7.763  1.00  0.00    -0.203 F 
ATOM     95  F   UNL     1     -19.285   1.716  12.544  1.00  0.00    -0.200 F 
ATOM     96  C   UNL     1     -19.344   0.060  10.862  1.00  0.00     0.200 A 
ATOM     97  F   UNL     1     -19.360  -1.576   9.160  1.00  0.00    -0.200 F 
ATOM     98  F   UNL     1     -20.249  -0.638  11.561  1.00  0.00    -0.200 F 
ENDBRANCH  65  88
ENDBRANCH  39  40
ENDBRANCH  32  34
ENDBRANCH  31  32
ENDBRANCH  30  31
ENDBRANCH  29  30
ENDBRANCH  28  29
ENDBRANCH  27  28
ENDBRANCH   1  27
TORSDOF 20
