REMARK SMILES CCOc1cc2nccc(Nc3ccc(C(=O)OCCOCCOCCOC(=O)c4ccc(-c5c6nc(c(-c7c(F)c(F)c(F)c(F)c7F)c7ccc([nH]7)c(-c7c(F)c(F)c(F)c(F)c7F)c7nc(c(-c8c(F)c(F)c(F)c(F)c8F)c8ccc5[nH]8)C=C7)C=C6)cc4)cc3)c2cc1OCC
REMARK SMILES IDX 22 1 21 2 20 3 19 4 18 5 16 6 17 7 15 8 12 9 13 10 94 11
REMARK SMILES IDX 14 12 93 13 11 14 10 16 4 17 5 18 97 19 6 20 96 21 7 22
REMARK SMILES IDX 95 23 8 24 9 25 3 26 2 27 1 28 98 29 99 30 100 31 23 32
REMARK SMILES IDX 24 33 25 34 26 35 27 36 28 37 29 38 30 39 31 40 92 41 32 42
REMARK SMILES IDX 91 43 33 44 34 45 35 46 85 47 36 48 90 49 84 50 86 51 37 52
REMARK SMILES IDX 89 53 83 54 82 55 38 57 70 58 50 59 69 60 51 61 54 62 68 63
REMARK SMILES IDX 87 64 52 65 53 66 67 68 88 69 55 70 39 71 40 72 48 73 41 74
REMARK SMILES IDX 42 75 46 76 49 77 43 78 44 79 47 80 45 81 71 82 72 83 80 84
REMARK SMILES IDX 73 85 74 86 78 87 81 88 75 89 76 90 79 91 77 92 56 93 57 94
REMARK SMILES IDX 65 95 58 96 59 97 63 98 66 99 60 100 61 101 64 102 62 103
REMARK H PARENT 11 15 86 56 54 67
REMARK Flexibility Score: inf
ROOT
ATOM      1  C   UNL     1      14.297  -1.881   1.458  1.00  0.00     0.188 C 
ENDROOT
BRANCH   1   2
ATOM      2  O   UNL     1      15.537  -2.576   1.526  1.00  0.00    -0.376 OA
BRANCH   2   3
ATOM      3  C   UNL     1      15.884  -3.526   0.525  1.00  0.00     0.202 C 
BRANCH   3   4
ATOM      4  C   UNL     1      14.912  -4.657   0.153  1.00  0.00     0.261 C 
BRANCH   4   5
ATOM      5  O   UNL     1      13.558  -4.248  -0.081  1.00  0.00    -0.460 OA
BRANCH   5   6
ATOM      6  C   UNL     1      12.672  -4.643   0.864  1.00  0.00     0.338 C 
ATOM      7  O   UNL     1      12.903  -5.331   1.845  1.00  0.00    -0.246 OA
BRANCH   6   8
ATOM      8  C   UNL     1      11.367  -3.980   0.660  1.00  0.00     0.060 A 
ATOM      9  C   UNL     1       8.780  -2.939   0.446  1.00  0.00     0.038 A 
ATOM     10  C   UNL     1       9.415  -2.998   1.692  1.00  0.00     0.027 A 
ATOM     11  C   UNL     1       9.489  -3.319  -0.701  1.00  0.00     0.027 A 
ATOM     12  C   UNL     1      10.696  -3.528   1.802  1.00  0.00     0.018 A 
ATOM     13  C   UNL     1      10.787  -3.830  -0.602  1.00  0.00     0.018 A 
BRANCH   9  14
ATOM     14  N   UNL     1       7.404  -2.653   0.411  1.00  0.00    -0.355 N 
ATOM     15  H   UNL     1       7.146  -1.761   0.737  1.00  0.00     0.167 HD
BRANCH  14  16
ATOM     16  C   UNL     1       6.335  -3.479  -0.033  1.00  0.00     0.050 A 
ATOM     17  C   UNL     1       2.299  -2.225   0.296  1.00  0.00     0.163 A 
ATOM     18  C   UNL     1       2.631  -3.480  -0.229  1.00  0.00     0.079 A 
ATOM     19  C   UNL     1       3.318  -1.345   0.654  1.00  0.00     0.161 A 
ATOM     20  C   UNL     1       3.956  -3.891  -0.371  1.00  0.00     0.076 A 
ATOM     21  C   UNL     1       4.644  -1.747   0.527  1.00  0.00     0.063 A 
ATOM     22  N   UNL     1       4.204  -5.115  -0.864  1.00  0.00    -0.256 NA
ATOM     23  C   UNL     1       4.993  -3.020   0.039  1.00  0.00     0.028 A 
ATOM     24  C   UNL     1       5.489  -5.519  -0.948  1.00  0.00     0.114 A 
ATOM     25  C   UNL     1       6.567  -4.752  -0.553  1.00  0.00     0.047 A 
BRANCH  17  26
ATOM     26  O   UNL     1       1.007  -1.898   0.602  1.00  0.00    -0.490 OA
BRANCH  26  27
ATOM     27  C   UNL     1       0.089  -1.942  -0.493  1.00  0.00     0.226 C 
ATOM     28  C   UNL     1      -0.975  -0.884  -0.228  1.00  0.00     0.049 C 
ENDBRANCH  26  27
ENDBRANCH  17  26
BRANCH  19  29
ATOM     29  O   UNL     1       3.187  -0.084   1.163  1.00  0.00    -0.490 OA
BRANCH  29  30
ATOM     30  C   UNL     1       2.190   0.755   0.583  1.00  0.00     0.226 C 
ATOM     31  C   UNL     1       2.329   0.922  -0.926  1.00  0.00     0.049 C 
ENDBRANCH  29  30
ENDBRANCH  19  29
ENDBRANCH  14  16
ENDBRANCH   9  14
ENDBRANCH   6   8
ENDBRANCH   5   6
ENDBRANCH   4   5
ENDBRANCH   3   4
ENDBRANCH   2   3
ENDBRANCH   1   2
BRANCH   1  32
ATOM     32  C   UNL     1      13.803  -1.292   0.119  1.00  0.00     0.188 C 
BRANCH  32  33
ATOM     33  O   UNL     1      14.654  -1.565  -0.969  1.00  0.00    -0.376 OA
BRANCH  33  34
ATOM     34  C   UNL     1      15.530  -0.551  -1.430  1.00  0.00     0.202 C 
BRANCH  34  35
ATOM     35  C   UNL     1      16.272   0.421  -0.489  1.00  0.00     0.261 C 
BRANCH  35  36
ATOM     36  O   UNL     1      15.699   0.687   0.797  1.00  0.00    -0.460 OA
BRANCH  36  37
ATOM     37  C   UNL     1      14.860   1.744   0.888  1.00  0.00     0.338 C 
ATOM     38  O   UNL     1      14.487   2.470  -0.012  1.00  0.00    -0.246 OA
BRANCH  37  39
ATOM     39  C   UNL     1      14.316   1.786   2.263  1.00  0.00     0.060 A 
ATOM     40  C   UNL     1      12.948   1.556   2.450  1.00  0.00     0.016 A 
ATOM     41  C   UNL     1      15.139   2.082   3.352  1.00  0.00     0.016 A 
ATOM     42  C   UNL     1      12.392   1.655   3.726  1.00  0.00     0.010 A 
ATOM     43  C   UNL     1      14.577   2.196   4.630  1.00  0.00     0.010 A 
ATOM     44  C   UNL     1      13.195   2.016   4.818  1.00  0.00    -0.014 A 
BRANCH  44  45
ATOM     45  C   UNL     1      12.555   2.361   6.113  1.00  0.00     0.031 A 
ATOM     46  C   UNL     1      12.321   3.811   6.443  1.00  0.00     0.074 A 
ATOM     47  C   UNL     1      12.149   1.404   6.967  1.00  0.00     0.049 A 
ATOM     48  N   UNL     1      11.766   4.347   7.501  1.00  0.00    -0.248 NA
ATOM     49  C   UNL     1      12.774   4.790   5.442  1.00  0.00     0.031 C 
ATOM     50  C   UNL     1      12.291  -0.034   6.754  1.00  0.00     0.029 A 
ATOM     51  N   UNL     1      11.532   1.505   8.190  1.00  0.00    -0.354 N 
ATOM     52  C   UNL     1      11.809   5.720   7.296  1.00  0.00     0.074 A 
ATOM     53  C   UNL     1      12.471   5.938   6.028  1.00  0.00     0.031 C 
ATOM     54  C   UNL     1      11.777  -0.684   7.813  1.00  0.00     0.029 A 
ATOM     55  C   UNL     1      11.295   0.292   8.790  1.00  0.00     0.049 A 
ATOM     56  H   UNL     1      11.283   2.365   8.599  1.00  0.00     0.167 HD
ATOM     57  C   UNL     1      11.332   6.710   8.088  1.00  0.00     0.037 A 
ATOM     58  C   UNL     1      10.762   0.007   9.994  1.00  0.00     0.037 A 
ATOM     59  C   UNL     1      10.669   6.494   9.348  1.00  0.00     0.049 A 
ATOM     60  C   UNL     1      10.296   1.133  10.884  1.00  0.00     0.074 A 
ATOM     61  C   UNL     1      10.119   7.431  10.205  1.00  0.00     0.029 A 
ATOM     62  N   UNL     1      10.479   5.253   9.938  1.00  0.00    -0.354 N 
ATOM     63  N   UNL     1      10.293   2.425  10.659  1.00  0.00    -0.248 NA
ATOM     64  C   UNL     1       9.750   0.756  12.197  1.00  0.00     0.031 C 
ATOM     65  C   UNL     1       9.650   6.764  11.341  1.00  0.00     0.029 A 
ATOM     66  C   UNL     1       9.849   5.404  11.163  1.00  0.00     0.049 A 
ATOM     67  H   UNL     1      10.751   4.393   9.545  1.00  0.00     0.167 HD
ATOM     68  C   UNL     1       9.716   3.009  11.781  1.00  0.00     0.074 A 
ATOM     69  C   UNL     1       9.364   1.929  12.678  1.00  0.00     0.031 C 
ATOM     70  C   UNL     1       9.495   4.321  12.044  1.00  0.00     0.037 A 
BRANCH  57  71
ATOM     71  C   UNL     1      11.533   8.125   7.630  1.00  0.00     0.064 A 
ATOM     72  C   UNL     1      10.828   8.659   6.540  1.00  0.00     0.173 A 
ATOM     73  C   UNL     1      12.413   8.973   8.320  1.00  0.00     0.173 A 
ATOM     74  F   UNL     1       9.984   7.887   5.838  1.00  0.00    -0.203 F 
ATOM     75  C   UNL     1      11.014   9.981   6.145  1.00  0.00     0.198 A 
ATOM     76  C   UNL     1      12.574  10.303   7.940  1.00  0.00     0.198 A 
ATOM     77  F   UNL     1      13.109   8.515   9.371  1.00  0.00    -0.203 F 
ATOM     78  F   UNL     1      10.363  10.457   5.074  1.00  0.00    -0.200 F 
ATOM     79  C   UNL     1      11.880  10.804   6.850  1.00  0.00     0.200 A 
ATOM     80  F   UNL     1      13.400  11.100   8.632  1.00  0.00    -0.200 F 
ATOM     81  F   UNL     1      12.050  12.079   6.474  1.00  0.00    -0.200 F 
ENDBRANCH  57  71
BRANCH  58  82
ATOM     82  C   UNL     1      10.636  -1.405  10.445  1.00  0.00     0.064 A 
ATOM     83  C   UNL     1       9.379  -1.997  10.631  1.00  0.00     0.173 A 
ATOM     84  C   UNL     1      11.769  -2.176  10.747  1.00  0.00     0.173 A 
ATOM     85  F   UNL     1       8.265  -1.292  10.385  1.00  0.00    -0.203 F 
ATOM     86  C   UNL     1       9.258  -3.294  11.128  1.00  0.00     0.198 A 
ATOM     87  C   UNL     1      11.648  -3.484  11.213  1.00  0.00     0.198 A 
ATOM     88  F   UNL     1      12.996  -1.657  10.593  1.00  0.00    -0.203 F 
ATOM     89  F   UNL     1       8.043  -3.811  11.356  1.00  0.00    -0.200 F 
ATOM     90  C   UNL     1      10.393  -4.037  11.414  1.00  0.00     0.200 A 
ATOM     91  F   UNL     1      12.747  -4.202  11.480  1.00  0.00    -0.200 F 
ATOM     92  F   UNL     1      10.277  -5.282  11.897  1.00  0.00    -0.200 F 
ENDBRANCH  58  82
BRANCH  70  93
ATOM     93  C   UNL     1       8.799   4.660  13.334  1.00  0.00     0.064 A 
ATOM     94  C   UNL     1       9.422   4.490  14.580  1.00  0.00     0.173 A 
ATOM     95  C   UNL     1       7.497   5.184  13.321  1.00  0.00     0.173 A 
ATOM     96  F   UNL     1      10.662   3.982  14.651  1.00  0.00    -0.203 F 
ATOM     97  C   UNL     1       8.754   4.795  15.763  1.00  0.00     0.198 A 
ATOM     98  C   UNL     1       6.845   5.521  14.504  1.00  0.00     0.198 A 
ATOM     99  F   UNL     1       6.857   5.378  12.157  1.00  0.00    -0.203 F 
ATOM    100  F   UNL     1       9.347   4.565  16.943  1.00  0.00    -0.200 F 
ATOM    101  C   UNL     1       7.469   5.316  15.724  1.00  0.00     0.200 A 
ATOM    102  F   UNL     1       5.611   6.041  14.463  1.00  0.00    -0.200 F 
ATOM    103  F   UNL     1       6.829   5.611  16.864  1.00  0.00    -0.200 F 
ENDBRANCH  70  93
ENDBRANCH  44  45
ENDBRANCH  37  39
ENDBRANCH  36  37
ENDBRANCH  35  36
ENDBRANCH  34  35
ENDBRANCH  33  34
ENDBRANCH  32  33
ENDBRANCH   1  32
TORSDOF 23
