REMARK SMILES O=C(OCCOCCOCCOC(=O)[C@H]1Cc2c([nH]c3ccccc23)[C@H](c2c[nH]c3ccccc23)[NH2+]1)c1ccc(-c2c3nc(c(-c4c(F)c(F)c(F)c(F)c4F)c4ccc([nH]4)c(-c4c(F)c(F)c(F)c(F)c4F)c4nc(c(-c5c(F)c(F)c(F)c(F)c5F)c5ccc2[nH]5)C=C4)C=C3)cc1
REMARK SMILES IDX 7 1 6 2 5 3 4 4 3 5 2 6 1 7 37 8 38 9 99 10 39 11 98 12
REMARK SMILES IDX 40 13 41 14 42 15 92 16 43 17 97 18 91 19 93 20 44 21 96 22
REMARK SMILES IDX 90 23 89 24 45 26 77 27 57 28 76 29 58 30 61 31 75 32 94 33
REMARK SMILES IDX 59 34 60 35 74 37 95 38 62 39 46 40 47 41 55 42 48 43 49 44
REMARK SMILES IDX 53 45 56 46 50 47 51 48 54 49 52 50 78 51 79 52 87 53 80 54
REMARK SMILES IDX 81 55 85 56 88 57 82 58 83 59 86 60 84 61 63 62 64 63 72 64
REMARK SMILES IDX 65 65 66 66 70 67 73 68 67 69 68 70 71 71 69 72 8 73 9 74
REMARK SMILES IDX 10 75 11 76 12 77 13 78 14 79 15 80 16 81 36 82 17 83 26 84
REMARK SMILES IDX 18 87 25 88 19 89 20 90 24 91 21 93 23 94 22 95 27 96 28 97
REMARK SMILES IDX 35 98 29 99 30 100 34 101 31 103 33 104 32 105
REMARK H PARENT 93 25 61 36 36 85 36 86 19 92 29 102
REMARK Flexibility Score: inf
ROOT
ATOM      1  C   UNL     1       2.567   0.235  -2.327  1.00  0.00     0.188 C 
ENDROOT
BRANCH   1   2
ATOM      2  O   UNL     1       3.878   0.565  -1.849  1.00  0.00    -0.376 OA
BRANCH   2   3
ATOM      3  C   UNL     1       4.851  -0.459  -2.083  1.00  0.00     0.202 C 
BRANCH   3   4
ATOM      4  C   UNL     1       4.839  -1.603  -1.062  1.00  0.00     0.261 C 
BRANCH   4   5
ATOM      5  O   UNL     1       3.528  -1.853  -0.541  1.00  0.00    -0.460 OA
BRANCH   5   6
ATOM      6  C   UNL     1       3.036  -1.413   0.641  1.00  0.00     0.338 C 
ATOM      7  O   UNL     1       1.918  -1.780   0.995  1.00  0.00    -0.246 OA
BRANCH   6   8
ATOM      8  C   UNL     1       3.798  -0.520   1.565  1.00  0.00     0.060 A 
ATOM      9  C   UNL     1       4.642   0.522   1.176  1.00  0.00     0.016 A 
ATOM     10  C   UNL     1       3.523  -0.661   2.929  1.00  0.00     0.016 A 
ATOM     11  C   UNL     1       5.271   1.341   2.117  1.00  0.00     0.010 A 
ATOM     12  C   UNL     1       4.043   0.244   3.859  1.00  0.00     0.010 A 
ATOM     13  C   UNL     1       4.971   1.221   3.474  1.00  0.00    -0.014 A 
BRANCH  13  14
ATOM     14  C   UNL     1       5.725   2.000   4.497  1.00  0.00     0.031 A 
ATOM     15  C   UNL     1       6.400   1.246   5.616  1.00  0.00     0.074 A 
ATOM     16  C   UNL     1       5.825   3.343   4.443  1.00  0.00     0.049 A 
ATOM     17  N   UNL     1       6.922   1.689   6.730  1.00  0.00    -0.248 NA
ATOM     18  C   UNL     1       6.406  -0.221   5.503  1.00  0.00     0.031 C 
ATOM     19  C   UNL     1       5.196   4.217   3.450  1.00  0.00     0.029 A 
ATOM     20  N   UNL     1       6.529   4.210   5.242  1.00  0.00    -0.354 N 
ATOM     21  C   UNL     1       7.183   0.556   7.491  1.00  0.00     0.074 A 
ATOM     22  C   UNL     1       6.707  -0.581   6.738  1.00  0.00     0.031 C 
ATOM     23  C   UNL     1       5.609   5.481   3.649  1.00  0.00     0.029 A 
ATOM     24  C   UNL     1       6.489   5.514   4.813  1.00  0.00     0.049 A 
ATOM     25  H   UNL     1       7.016   3.923   6.048  1.00  0.00     0.167 HD
ATOM     26  C   UNL     1       7.809   0.462   8.688  1.00  0.00     0.037 A 
ATOM     27  C   UNL     1       7.109   6.601   5.310  1.00  0.00     0.037 A 
ATOM     28  C   UNL     1       8.452   1.575   9.327  1.00  0.00     0.049 A 
ATOM     29  C   UNL     1       7.955   6.451   6.549  1.00  0.00     0.074 A 
ATOM     30  C   UNL     1       9.200   1.598  10.489  1.00  0.00     0.029 A 
ATOM     31  N   UNL     1       8.472   2.861   8.805  1.00  0.00    -0.354 N 
ATOM     32  N   UNL     1       8.178   5.383   7.277  1.00  0.00    -0.248 NA
ATOM     33  C   UNL     1       8.632   7.661   7.037  1.00  0.00     0.031 C 
ATOM     34  C   UNL     1       9.690   2.899  10.660  1.00  0.00     0.029 A 
ATOM     35  C   UNL     1       9.257   3.678   9.597  1.00  0.00     0.049 A 
ATOM     36  H   UNL     1       7.998   3.148   7.991  1.00  0.00     0.167 HD
ATOM     37  C   UNL     1       9.037   5.784   8.292  1.00  0.00     0.074 A 
ATOM     38  C   UNL     1       9.310   7.191   8.075  1.00  0.00     0.031 C 
ATOM     39  C   UNL     1       9.544   5.062   9.320  1.00  0.00     0.037 A 
BRANCH  26  40
ATOM     40  C   UNL     1       7.839  -0.892   9.338  1.00  0.00     0.064 A 
ATOM     41  C   UNL     1       8.552  -1.968   8.783  1.00  0.00     0.173 A 
ATOM     42  C   UNL     1       7.075  -1.140  10.489  1.00  0.00     0.173 A 
ATOM     43  F   UNL     1       9.286  -1.789   7.675  1.00  0.00    -0.203 F 
ATOM     44  C   UNL     1       8.428  -3.254   9.301  1.00  0.00     0.198 A 
ATOM     45  C   UNL     1       6.990  -2.421  11.031  1.00  0.00     0.198 A 
ATOM     46  F   UNL     1       6.386  -0.148  11.072  1.00  0.00    -0.203 F 
ATOM     47  F   UNL     1       9.025  -4.282   8.681  1.00  0.00    -0.200 F 
ATOM     48  C   UNL     1       7.647  -3.480  10.423  1.00  0.00     0.200 A 
ATOM     49  F   UNL     1       6.247  -2.637  12.125  1.00  0.00    -0.200 F 
ATOM     50  F   UNL     1       7.510  -4.723  10.905  1.00  0.00    -0.200 F 
ENDBRANCH  26  40
BRANCH  27  51
ATOM     51  C   UNL     1       7.009   7.914   4.622  1.00  0.00     0.064 A 
ATOM     52  C   UNL     1       8.114   8.439   3.933  1.00  0.00     0.173 A 
ATOM     53  C   UNL     1       5.847   8.694   4.682  1.00  0.00     0.173 A 
ATOM     54  F   UNL     1       9.260   7.744   3.878  1.00  0.00    -0.203 F 
ATOM     55  C   UNL     1       8.068   9.706   3.355  1.00  0.00     0.198 A 
ATOM     56  C   UNL     1       5.800   9.957   4.093  1.00  0.00     0.198 A 
ATOM     57  F   UNL     1       4.769   8.241   5.337  1.00  0.00    -0.203 F 
ATOM     58  F   UNL     1       9.158  10.206   2.756  1.00  0.00    -0.200 F 
ATOM     59  C   UNL     1       6.910  10.464   3.433  1.00  0.00     0.200 A 
ATOM     60  F   UNL     1       4.693  10.704   4.202  1.00  0.00    -0.200 F 
ATOM     61  F   UNL     1       6.875  11.692   2.897  1.00  0.00    -0.200 F 
ENDBRANCH  27  51
BRANCH  39  62
ATOM     62  C   UNL     1      10.493   5.758  10.246  1.00  0.00     0.064 A 
ATOM     63  C   UNL     1      10.041   6.670  11.209  1.00  0.00     0.173 A 
ATOM     64  C   UNL     1      11.862   5.455  10.210  1.00  0.00     0.173 A 
ATOM     65  F   UNL     1       8.742   7.000  11.269  1.00  0.00    -0.203 F 
ATOM     66  C   UNL     1      10.930   7.264  12.099  1.00  0.00     0.198 A 
ATOM     67  C   UNL     1      12.745   6.033  11.117  1.00  0.00     0.198 A 
ATOM     68  F   UNL     1      12.339   4.584   9.307  1.00  0.00    -0.203 F 
ATOM     69  F   UNL     1      10.484   8.157  12.993  1.00  0.00    -0.200 F 
ATOM     70  C   UNL     1      12.279   6.939  12.058  1.00  0.00     0.200 A 
ATOM     71  F   UNL     1      14.045   5.709  11.084  1.00  0.00    -0.200 F 
ATOM     72  F   UNL     1      13.131   7.502  12.925  1.00  0.00    -0.200 F 
ENDBRANCH  39  62
ENDBRANCH  13  14
ENDBRANCH   6   8
ENDBRANCH   5   6
ENDBRANCH   4   5
ENDBRANCH   3   4
ENDBRANCH   2   3
ENDBRANCH   1   2
BRANCH   1  73
ATOM     73  C   UNL     1       1.862   1.461  -2.909  1.00  0.00     0.188 C 
BRANCH  73  74
ATOM     74  O   UNL     1       2.411   1.977  -4.120  1.00  0.00    -0.376 OA
BRANCH  74  75
ATOM     75  C   UNL     1       3.766   2.405  -4.099  1.00  0.00     0.202 C 
BRANCH  75  76
ATOM     76  C   UNL     1       4.098   3.715  -3.370  1.00  0.00     0.261 C 
BRANCH  76  77
ATOM     77  O   UNL     1       3.652   3.839  -2.008  1.00  0.00    -0.459 OA
BRANCH  77  78
ATOM     78  C   UNL     1       2.498   4.564  -1.855  1.00  0.00     0.365 C 
ATOM     79  O   UNL     1       1.769   4.894  -2.781  1.00  0.00    -0.245 OA
BRANCH  78  80
ATOM     80  C   UNL     1       2.303   5.011  -0.391  1.00  0.00     0.298 C 
ATOM     81  C   UNL     1       2.912   6.443  -0.380  1.00  0.00     0.115 C 
ATOM     82  N   UNL     1       0.867   4.879  -0.038  1.00  0.00    -0.323 N 
ATOM     83  C   UNL     1       2.196   7.351   0.543  1.00  0.00    -0.006 A 
ATOM     84  C   UNL     1       0.331   5.648   1.082  1.00  0.00     0.264 C 
ATOM     85  H   UNL     1       0.701   3.895   0.170  1.00  0.00     0.347 HD
ATOM     86  H   UNL     1       0.383   5.266  -0.849  1.00  0.00     0.347 HD
ATOM     87  C   UNL     1       1.027   6.972   1.163  1.00  0.00     0.083 A 
ATOM     88  C   UNL     1       2.470   8.700   0.903  1.00  0.00     0.003 A 
ATOM     89  N   UNL     1       0.557   8.059   1.849  1.00  0.00    -0.353 N 
ATOM     90  C   UNL     1       1.446   9.103   1.760  1.00  0.00     0.046 A 
ATOM     91  C   UNL     1       3.476   9.629   0.575  1.00  0.00     0.010 A 
ATOM     92  H   UNL     1      -0.297   8.089   2.337  1.00  0.00     0.166 HD
ATOM     93  C   UNL     1       1.398  10.369   2.349  1.00  0.00     0.026 A 
ATOM     94  C   UNL     1       3.433  10.909   1.140  1.00  0.00     0.001 A 
ATOM     95  C   UNL     1       2.416  11.267   2.022  1.00  0.00     0.002 A 
BRANCH  84  96
ATOM     96  C   UNL     1       0.283   4.940   2.435  1.00  0.00     0.041 A 
ATOM     97  C   UNL     1      -0.186   5.564   3.591  1.00  0.00     0.093 A 
ATOM     98  C   UNL     1       0.514   3.567   2.836  1.00  0.00     0.009 A 
ATOM     99  N   UNL     1      -0.074   4.723   4.654  1.00  0.00    -0.361 N 
ATOM    100  C   UNL     1       0.306   3.485   4.221  1.00  0.00     0.046 A 
ATOM    101  C   UNL     1       0.838   2.364   2.176  1.00  0.00     0.011 A 
ATOM    102  H   UNL     1      -0.241   4.970   5.592  1.00  0.00     0.166 HD
ATOM    103  C   UNL     1       0.441   2.312   4.971  1.00  0.00     0.026 A 
ATOM    104  C   UNL     1       0.866   1.164   2.898  1.00  0.00     0.001 A 
ATOM    105  C   UNL     1       0.703   1.139   4.278  1.00  0.00     0.002 A 
ENDBRANCH  84  96
ENDBRANCH  78  80
ENDBRANCH  77  78
ENDBRANCH  76  77
ENDBRANCH  75  76
ENDBRANCH  74  75
ENDBRANCH  73  74
ENDBRANCH   1  73
TORSDOF 18
