REMARK SMILES O=C(OCCOCCOCCOC(=O)c1cccc(Oc2ncc([N+](=O)[O-])cc2Br)c1)c1ccc(-c2c3nc(c(-c4c(F)c(F)c(F)c(F)c4F)c4ccc([nH]4)c(-c4c(F)c(F)c(F)c(F)c4F)c4nc(c(-c5c(F)c(F)c(F)c(F)c5F)c5ccc2[nH]5)C=C4)C=C3)cc1
REMARK SMILES IDX 8 1 7 2 6 3 5 4 4 5 3 6 2 7 1 8 32 9 33 10 94 11 34 12 93 13
REMARK SMILES IDX 35 14 36 15 37 16 87 17 38 18 92 19 86 20 88 21 39 22 91 23
REMARK SMILES IDX 85 24 84 25 40 27 72 28 52 29 71 30 53 31 56 32 70 33 89 34
REMARK SMILES IDX 54 35 55 36 69 38 90 39 57 40 41 41 42 42 50 43 43 44 44 45
REMARK SMILES IDX 48 46 51 47 45 48 46 49 49 50 47 51 73 52 74 53 82 54 75 55
REMARK SMILES IDX 76 56 80 57 83 58 77 59 78 60 81 61 79 62 58 63 59 64 67 65
REMARK SMILES IDX 60 66 61 67 65 68 68 69 62 70 63 71 66 72 64 73 9 74 10 75
REMARK SMILES IDX 11 76 12 77 13 78 14 79 15 80 16 81 31 82 17 83 19 84 18 85
REMARK SMILES IDX 20 86 21 87 22 88 29 89 23 90 28 91 30 92 24 93 25 94 26 95
REMARK SMILES IDX 27 96
REMARK H PARENT 88 26 56 37
REMARK Flexibility Score: inf
ROOT
ATOM      1  C   UNL     1       2.061  -3.077  -1.292  1.00  0.00     0.188 C 
ENDROOT
BRANCH   1   2
ATOM      2  C   UNL     1       2.577  -2.400  -0.020  1.00  0.00     0.188 C 
BRANCH   2   3
ATOM      3  O   UNL     1       3.780  -1.666  -0.301  1.00  0.00    -0.376 OA
BRANCH   3   4
ATOM      4  C   UNL     1       4.656  -1.555   0.825  1.00  0.00     0.202 C 
BRANCH   4   5
ATOM      5  C   UNL     1       4.480  -0.250   1.605  1.00  0.00     0.261 C 
BRANCH   5   6
ATOM      6  O   UNL     1       3.092   0.100   1.725  1.00  0.00    -0.460 OA
BRANCH   6   7
ATOM      7  C   UNL     1       2.369   0.894   0.897  1.00  0.00     0.338 C 
ATOM      8  O   UNL     1       1.152   0.971   1.057  1.00  0.00    -0.246 OA
BRANCH   7   9
ATOM      9  C   UNL     1       2.989   1.779  -0.133  1.00  0.00     0.060 A 
ATOM     10  C   UNL     1       4.084   1.447  -0.936  1.00  0.00     0.016 A 
ATOM     11  C   UNL     1       2.373   3.025  -0.334  1.00  0.00     0.016 A 
ATOM     12  C   UNL     1       4.645   2.383  -1.807  1.00  0.00     0.010 A 
ATOM     13  C   UNL     1       2.891   3.942  -1.250  1.00  0.00     0.010 A 
ATOM     14  C   UNL     1       4.065   3.644  -1.952  1.00  0.00    -0.014 A 
BRANCH  14  15
ATOM     15  C   UNL     1       4.734   4.693  -2.752  1.00  0.00     0.031 A 
ATOM     16  C   UNL     1       5.386   5.840  -2.044  1.00  0.00     0.074 A 
ATOM     17  C   UNL     1       4.782   4.614  -4.092  1.00  0.00     0.049 A 
ATOM     18  N   UNL     1       5.912   6.930  -2.536  1.00  0.00    -0.248 NA
ATOM     19  C   UNL     1       5.461   5.739  -0.578  1.00  0.00     0.031 C 
ATOM     20  C   UNL     1       4.268   3.501  -4.882  1.00  0.00     0.029 A 
ATOM     21  N   UNL     1       5.283   5.489  -5.022  1.00  0.00    -0.354 N 
ATOM     22  C   UNL     1       6.364   7.653  -1.443  1.00  0.00     0.074 A 
ATOM     23  C   UNL     1       6.037   6.887  -0.259  1.00  0.00     0.031 C 
ATOM     24  C   UNL     1       4.464   3.767  -6.182  1.00  0.00     0.029 A 
ATOM     25  C   UNL     1       5.065   5.088  -6.316  1.00  0.00     0.049 A 
ATOM     26  H   UNL     1       5.751   6.322  -4.785  1.00  0.00     0.167 HD
ATOM     27  C   UNL     1       6.998   8.848  -1.430  1.00  0.00     0.037 A 
ATOM     28  C   UNL     1       5.286   5.727  -7.479  1.00  0.00     0.037 A 
ATOM     29  C   UNL     1       7.315   9.604  -2.611  1.00  0.00     0.049 A 
ATOM     30  C   UNL     1       5.909   7.092  -7.447  1.00  0.00     0.074 A 
ATOM     31  C   UNL     1       7.915  10.845  -2.712  1.00  0.00     0.029 A 
ATOM     32  N   UNL     1       7.051   9.177  -3.906  1.00  0.00    -0.354 N 
ATOM     33  N   UNL     1       6.293   7.795  -6.409  1.00  0.00    -0.248 NA
ATOM     34  C   UNL     1       6.130   7.756  -8.738  1.00  0.00     0.031 C 
ATOM     35  C   UNL     1       7.990  11.182  -4.069  1.00  0.00     0.029 A 
ATOM     36  C   UNL     1       7.466  10.136  -4.814  1.00  0.00     0.049 A 
ATOM     37  H   UNL     1       6.630   8.319  -4.143  1.00  0.00     0.167 HD
ATOM     38  C   UNL     1       6.819   8.973  -6.916  1.00  0.00     0.074 A 
ATOM     39  C   UNL     1       6.706   8.890  -8.360  1.00  0.00     0.031 C 
ATOM     40  C   UNL     1       7.351  10.024  -6.246  1.00  0.00     0.037 A 
BRANCH  27  41
ATOM     41  C   UNL     1       7.333   9.412  -0.084  1.00  0.00     0.064 A 
ATOM     42  C   UNL     1       8.379   8.889   0.692  1.00  0.00     0.173 A 
ATOM     43  C   UNL     1       6.559  10.446   0.461  1.00  0.00     0.173 A 
ATOM     44  F   UNL     1       9.126   7.878   0.224  1.00  0.00    -0.203 F 
ATOM     45  C   UNL     1       8.614   9.359   1.981  1.00  0.00     0.198 A 
ATOM     46  C   UNL     1       6.811  10.928   1.743  1.00  0.00     0.198 A 
ATOM     47  F   UNL     1       5.543  10.972  -0.239  1.00  0.00    -0.203 F 
ATOM     48  F   UNL     1       9.575   8.802   2.731  1.00  0.00    -0.200 F 
ATOM     49  C   UNL     1       7.830  10.377   2.506  1.00  0.00     0.200 A 
ATOM     50  F   UNL     1       6.052  11.909   2.249  1.00  0.00    -0.200 F 
ATOM     51  F   UNL     1       8.044  10.813   3.755  1.00  0.00    -0.200 F 
ENDBRANCH  27  41
BRANCH  28  52
ATOM     52  C   UNL     1       4.883   5.074  -8.750  1.00  0.00     0.064 A 
ATOM     53  C   UNL     1       5.835   4.535  -9.623  1.00  0.00     0.173 A 
ATOM     54  C   UNL     1       3.527   4.913  -9.079  1.00  0.00     0.173 A 
ATOM     55  F   UNL     1       7.142   4.679  -9.361  1.00  0.00    -0.203 F 
ATOM     56  C   UNL     1       5.447   3.857 -10.778  1.00  0.00     0.198 A 
ATOM     57  C   UNL     1       3.141   4.218 -10.223  1.00  0.00     0.198 A 
ATOM     58  F   UNL     1       2.577   5.409  -8.273  1.00  0.00    -0.203 F 
ATOM     59  F   UNL     1       6.377   3.362 -11.606  1.00  0.00    -0.200 F 
ATOM     60  C   UNL     1       4.101   3.691 -11.071  1.00  0.00     0.200 A 
ATOM     61  F   UNL     1       1.840   4.052 -10.498  1.00  0.00    -0.200 F 
ATOM     62  F   UNL     1       3.732   3.023 -12.174  1.00  0.00    -0.200 F 
ENDBRANCH  28  52
BRANCH  40  63
ATOM     63  C   UNL     1       7.884  11.157  -7.066  1.00  0.00     0.064 A 
ATOM     64  C   UNL     1       7.031  12.118  -7.623  1.00  0.00     0.173 A 
ATOM     65  C   UNL     1       9.267  11.319  -7.232  1.00  0.00     0.173 A 
ATOM     66  F   UNL     1       5.701  11.994  -7.498  1.00  0.00    -0.203 F 
ATOM     67  C   UNL     1       7.546  13.203  -8.327  1.00  0.00     0.198 A 
ATOM     68  C   UNL     1       9.778  12.413  -7.922  1.00  0.00     0.198 A 
ATOM     69  F   UNL     1      10.120  10.423  -6.712  1.00  0.00    -0.203 F 
ATOM     70  F   UNL     1       6.714  14.102  -8.870  1.00  0.00    -0.200 F 
ATOM     71  C   UNL     1       8.918  13.354  -8.469  1.00  0.00     0.200 A 
ATOM     72  F   UNL     1      11.104  12.562  -8.052  1.00  0.00    -0.200 F 
ATOM     73  F   UNL     1       9.412  14.405  -9.136  1.00  0.00    -0.200 F 
ENDBRANCH  40  63
ENDBRANCH  14  15
ENDBRANCH   7   9
ENDBRANCH   6   7
ENDBRANCH   5   6
ENDBRANCH   4   5
ENDBRANCH   3   4
ENDBRANCH   2   3
ENDBRANCH   1   2
BRANCH   1  74
ATOM     74  O   UNL     1       2.789  -4.247  -1.676  1.00  0.00    -0.376 OA
BRANCH  74  75
ATOM     75  C   UNL     1       4.169  -4.077  -1.988  1.00  0.00     0.202 C 
BRANCH  75  76
ATOM     76  C   UNL     1       4.474  -3.508  -3.375  1.00  0.00     0.261 C 
BRANCH  76  77
ATOM     77  O   UNL     1       3.915  -2.204  -3.617  1.00  0.00    -0.460 OA
BRANCH  77  78
ATOM     78  C   UNL     1       2.905  -2.202  -4.520  1.00  0.00     0.338 C 
ATOM     79  O   UNL     1       2.395  -3.163  -5.070  1.00  0.00    -0.246 OA
BRANCH  78  80
ATOM     80  C   UNL     1       2.562  -0.833  -4.927  1.00  0.00     0.063 A 
ATOM     81  C   UNL     1       1.631  -0.065  -4.232  1.00  0.00     0.016 A 
ATOM     82  C   UNL     1       3.017  -0.441  -6.188  1.00  0.00     0.062 A 
ATOM     83  C   UNL     1       1.130   1.095  -4.830  1.00  0.00     0.005 A 
ATOM     84  C   UNL     1       2.480   0.688  -6.809  1.00  0.00     0.130 A 
ATOM     85  C   UNL     1       1.535   1.456  -6.122  1.00  0.00     0.047 A 
BRANCH  84  86
ATOM     86  O   UNL     1       2.763   1.083  -8.107  1.00  0.00    -0.438 OA
BRANCH  86  87
ATOM     87  C   UNL     1       3.802   0.429  -8.735  1.00  0.00     0.234 A 
ATOM     88  N   UNL     1       5.010   1.044  -8.626  1.00  0.00    -0.214 NA
ATOM     89  C   UNL     1       3.617  -0.815  -9.345  1.00  0.00     0.087 A 
ATOM     90  C   UNL     1       6.091   0.343  -9.052  1.00  0.00     0.200 A 
ATOM     91  C   UNL     1       4.745  -1.525  -9.752  1.00  0.00     0.108 A 
ATOM     92  Br  UNL     1       1.912  -1.610  -9.549  1.00  0.00    -0.045 Br
ATOM     93  C   UNL     1       6.002  -0.938  -9.581  1.00  0.00     0.288 A 
BRANCH  93  94
ATOM     94  N   UNL     1       7.217  -1.670  -9.905  1.00  0.00     0.064 N 
ATOM     95  O   UNL     1       8.280  -1.036  -9.927  1.00  0.00    -0.258 OA
ATOM     96  O   UNL     1       7.112  -2.885 -10.119  1.00  0.00    -0.258 OA
ENDBRANCH  93  94
ENDBRANCH  86  87
ENDBRANCH  84  86
ENDBRANCH  78  80
ENDBRANCH  77  78
ENDBRANCH  76  77
ENDBRANCH  75  76
ENDBRANCH  74  75
ENDBRANCH   1  74
TORSDOF 20
