REMARK SMILES Cc1ccccc1OCC(=O)N1C[C@H](O)C[C@H]1C(=O)OCCOCCOCCOC(=O)c1ccc(-c2c3nc(c(-c4c(F)c(F)c(F)c(F)c4F)c4ccc([nH]4)c(-c4c(F)c(F)c(F)c(F)c4F)c4nc(c(-c5c(F)c(F)c(F)c(F)c5F)c5ccc2[nH]5)C=C4)C=C3)cc1
REMARK SMILES IDX 24 1 23 2 22 3 21 4 20 5 18 6 19 7 17 8 12 9 13 10 14 11
REMARK SMILES IDX 16 12 10 13 11 14 9 15 8 16 7 17 1 18 2 19 3 20 4 21 6 22
REMARK SMILES IDX 5 23 15 24 25 26 26 27 27 28 28 29 29 30 30 31 31 32 32 33
REMARK SMILES IDX 33 34 94 35 34 36 93 37 35 38 36 39 37 40 87 41 38 42 92 43
REMARK SMILES IDX 86 44 88 45 39 46 91 47 85 48 84 49 40 51 72 52 52 53 71 54
REMARK SMILES IDX 53 55 56 56 70 57 89 58 54 59 55 60 69 62 90 63 57 64 41 65
REMARK SMILES IDX 42 66 50 67 43 68 44 69 48 70 51 71 45 72 46 73 49 74 47 75
REMARK SMILES IDX 73 76 74 77 82 78 75 79 76 80 80 81 83 82 77 83 78 84 81 85
REMARK SMILES IDX 79 86 58 87 59 88 67 89 60 90 61 91 65 92 68 93 62 94 63 95
REMARK SMILES IDX 66 96 64 97
REMARK H PARENT 15 25 88 50 56 61
REMARK Flexibility Score: inf
ROOT
ATOM      1  C   UNL     1       6.922  -1.706   2.428  1.00  0.00     0.188 C 
ENDROOT
BRANCH   1   2
ATOM      2  O   UNL     1       6.072  -2.094   3.519  1.00  0.00    -0.376 OA
BRANCH   2   3
ATOM      3  C   UNL     1       4.697  -2.508   3.440  1.00  0.00     0.202 C 
BRANCH   3   4
ATOM      4  C   UNL     1       3.206  -1.689   3.746  1.00  0.00     0.261 C 
BRANCH   4   5
ATOM      5  O   UNL     1       2.584  -0.034   3.475  1.00  0.00    -0.462 OA
BRANCH   5   6
ATOM      6  C   UNL     1       2.659   1.342   3.956  1.00  0.00     0.329 C 
ATOM      7  O   UNL     1       3.424   1.827   4.811  1.00  0.00    -0.250 OA
BRANCH   6   8
ATOM      8  C   UNL     1       1.842   2.485   3.441  1.00  0.00     0.198 C 
ATOM      9  N   UNL     1       0.674   2.355   2.653  1.00  0.00    -0.323 N 
ATOM     10  C   UNL     1      -0.293   3.398   2.991  1.00  0.00     0.152 C 
ATOM     11  C   UNL     1       0.358   4.269   4.077  1.00  0.00     0.136 C 
ATOM     12  C   UNL     1       1.413   3.358   4.660  1.00  0.00     0.070 C 
BRANCH   9  13
ATOM     13  C   UNL     1       0.898   1.727   1.463  1.00  0.00     0.261 C 
ATOM     14  O   UNL     1       1.192   0.531   1.467  1.00  0.00    -0.271 OA
BRANCH  13  15
ATOM     15  C   UNL     1       1.032   2.589   0.193  1.00  0.00     0.329 C 
BRANCH  15  16
ATOM     16  O   UNL     1       0.388   2.222  -1.025  1.00  0.00    -0.484 OA
BRANCH  16  17
ATOM     17  C   UNL     1      -0.334   1.068  -0.868  1.00  0.00     0.122 A 
ATOM     18  C   UNL     1       1.606  -0.327  -1.742  1.00  0.00     0.048 C 
ATOM     19  C   UNL     1       0.249  -0.181  -1.125  1.00  0.00    -0.009 A 
ATOM     20  C   UNL     1      -0.452  -1.332  -0.740  1.00  0.00     0.007 A 
ATOM     21  C   UNL     1      -1.714  -1.232  -0.151  1.00  0.00     0.001 A 
ATOM     22  C   UNL     1      -1.616   1.172  -0.326  1.00  0.00     0.047 A 
ATOM     23  C   UNL     1      -2.304   0.018   0.035  1.00  0.00     0.004 A 
ENDBRANCH  16  17
ENDBRANCH  15  16
ENDBRANCH  13  15
ENDBRANCH   9  13
BRANCH  11  24
ATOM     24  O   UNL     1       0.938   5.435   3.497  1.00  0.00    -0.391 OA
ATOM     25  H   UNL     1       1.577   5.175   2.816  1.00  0.00     0.211 HD
ENDBRANCH  11  24
ENDBRANCH   6   8
ENDBRANCH   5   6
ENDBRANCH   4   5
ENDBRANCH   3   4
ENDBRANCH   2   3
ENDBRANCH   1   2
BRANCH   1  26
ATOM     26  C   UNL     1       6.650  -2.139   0.999  1.00  0.00     0.188 C 
BRANCH  26  27
ATOM     27  O   UNL     1       5.259  -2.174   0.798  1.00  0.00    -0.376 OA
BRANCH  27  28
ATOM     28  C   UNL     1       4.788  -2.493  -0.488  1.00  0.00     0.202 C 
BRANCH  28  29
ATOM     29  C   UNL     1       5.266  -1.530  -1.596  1.00  0.00     0.261 C 
BRANCH  29  30
ATOM     30  O   UNL     1       4.820  -0.157  -1.383  1.00  0.00    -0.460 OA
BRANCH  30  31
ATOM     31  C   UNL     1       5.698   0.817  -0.930  1.00  0.00     0.338 C 
ATOM     32  O   UNL     1       6.728   1.118  -1.472  1.00  0.00    -0.246 OA
BRANCH  31  33
ATOM     33  C   UNL     1       5.264   1.287   0.447  1.00  0.00     0.060 A 
ATOM     34  C   UNL     1       5.966   2.023   1.418  1.00  0.00     0.016 A 
ATOM     35  C   UNL     1       4.239   0.582   0.934  1.00  0.00     0.016 A 
ATOM     36  C   UNL     1       5.770   1.780   2.859  1.00  0.00     0.010 A 
ATOM     37  C   UNL     1       4.451   0.091   2.201  1.00  0.00     0.010 A 
ATOM     38  C   UNL     1       5.074   0.661   3.327  1.00  0.00    -0.014 A 
BRANCH  38  39
ATOM     39  C   UNL     1       4.895   0.043   4.936  1.00  0.00     0.031 A 
ATOM     40  C   UNL     1       3.454  -0.143   5.998  1.00  0.00     0.074 A 
ATOM     41  C   UNL     1       6.065  -0.298   5.504  1.00  0.00     0.049 A 
ATOM     42  N   UNL     1       3.413   0.141   7.284  1.00  0.00    -0.248 NA
ATOM     43  C   UNL     1       1.929  -0.386   5.658  1.00  0.00     0.031 C 
ATOM     44  C   UNL     1       6.302  -1.104   6.691  1.00  0.00     0.029 A 
ATOM     45  N   UNL     1       7.351   0.037   5.059  1.00  0.00    -0.354 N 
ATOM     46  C   UNL     1       2.085  -0.129   7.708  1.00  0.00     0.074 A 
ATOM     47  C   UNL     1       1.233   0.149   6.642  1.00  0.00     0.031 C 
ATOM     48  C   UNL     1       7.587  -0.939   7.061  1.00  0.00     0.029 A 
ATOM     49  C   UNL     1       8.138   0.109   6.214  1.00  0.00     0.049 A 
ATOM     50  H   UNL     1       7.639   0.191   4.130  1.00  0.00     0.167 HD
ATOM     51  C   UNL     1       1.793  -1.019   8.702  1.00  0.00     0.037 A 
ATOM     52  C   UNL     1       8.569   1.335   6.625  1.00  0.00     0.037 A 
ATOM     53  C   UNL     1       2.994  -1.154   9.472  1.00  0.00     0.049 A 
ATOM     54  C   UNL     1       7.965   1.660   7.972  1.00  0.00     0.074 A 
ATOM     55  C   UNL     1       3.994  -2.100   9.509  1.00  0.00     0.029 A 
ATOM     56  N   UNL     1       3.526   0.030   9.948  1.00  0.00    -0.354 N 
ATOM     57  N   UNL     1       6.816   1.200   8.403  1.00  0.00    -0.248 NA
ATOM     58  C   UNL     1       8.687   2.411   8.989  1.00  0.00     0.031 C 
ATOM     59  C   UNL     1       5.191  -1.406   9.874  1.00  0.00     0.029 A 
ATOM     60  C   UNL     1       4.888  -0.069  10.093  1.00  0.00     0.049 A 
ATOM     61  H   UNL     1       2.999   0.836  10.156  1.00  0.00     0.167 HD
ATOM     62  C   UNL     1       6.668   1.518   9.726  1.00  0.00     0.074 A 
ATOM     63  C   UNL     1       7.861   2.282  10.040  1.00  0.00     0.031 C 
ATOM     64  C   UNL     1       5.616   1.120  10.504  1.00  0.00     0.037 A 
BRANCH  51  65
ATOM     65  C   UNL     1       0.525  -1.890   8.853  1.00  0.00     0.064 A 
ATOM     66  C   UNL     1       0.374  -2.653  10.030  1.00  0.00     0.173 A 
ATOM     67  C   UNL     1      -0.515  -2.120   7.902  1.00  0.00     0.173 A 
ATOM     68  F   UNL     1       1.280  -2.569  11.014  1.00  0.00    -0.203 F 
ATOM     69  C   UNL     1      -0.696  -3.541  10.241  1.00  0.00     0.198 A 
ATOM     70  C   UNL     1      -1.611  -2.967   8.137  1.00  0.00     0.198 A 
ATOM     71  F   UNL     1      -0.514  -1.603   6.670  1.00  0.00    -0.203 F 
ATOM     72  F   UNL     1      -0.743  -4.268  11.366  1.00  0.00    -0.200 F 
ATOM     73  C   UNL     1      -1.697  -3.687   9.303  1.00  0.00     0.200 A 
ATOM     74  F   UNL     1      -2.565  -3.098   7.201  1.00  0.00    -0.200 F 
ATOM     75  F   UNL     1      -2.719  -4.529   9.508  1.00  0.00    -0.200 F 
ENDBRANCH  51  65
BRANCH  52  76
ATOM     76  C   UNL     1       8.886   2.260   5.479  1.00  0.00     0.064 A 
ATOM     77  C   UNL     1       9.737   1.761   4.457  1.00  0.00     0.173 A 
ATOM     78  C   UNL     1       8.154   3.411   5.168  1.00  0.00     0.173 A 
ATOM     79  F   UNL     1      10.498   0.678   4.688  1.00  0.00    -0.203 F 
ATOM     80  C   UNL     1       9.721   2.272   3.158  1.00  0.00     0.198 A 
ATOM     81  C   UNL     1       8.187   3.960   3.872  1.00  0.00     0.198 A 
ATOM     82  F   UNL     1       7.308   3.942   6.061  1.00  0.00    -0.203 F 
ATOM     83  F   UNL     1      10.397   1.647   2.183  1.00  0.00    -0.200 F 
ATOM     84  C   UNL     1       8.932   3.364   2.862  1.00  0.00     0.200 A 
ATOM     85  F   UNL     1       7.368   4.976   3.556  1.00  0.00    -0.200 F 
ATOM     86  F   UNL     1       8.825   3.791   1.595  1.00  0.00    -0.200 F 
ENDBRANCH  52  76
BRANCH  64  87
ATOM     87  C   UNL     1       5.163   1.841  11.761  1.00  0.00     0.064 A 
ATOM     88  C   UNL     1       5.515   3.167  12.060  1.00  0.00     0.173 A 
ATOM     89  C   UNL     1       4.193   1.270  12.629  1.00  0.00     0.173 A 
ATOM     90  F   UNL     1       6.277   3.899  11.238  1.00  0.00    -0.203 F 
ATOM     91  C   UNL     1       5.038   3.822  13.195  1.00  0.00     0.198 A 
ATOM     92  C   UNL     1       3.631   1.971  13.692  1.00  0.00     0.198 A 
ATOM     93  F   UNL     1       3.722   0.027  12.457  1.00  0.00    -0.203 F 
ATOM     94  F   UNL     1       5.489   5.050  13.484  1.00  0.00    -0.200 F 
ATOM     95  C   UNL     1       4.086   3.232  14.002  1.00  0.00     0.200 A 
ATOM     96  F   UNL     1       2.636   1.418  14.399  1.00  0.00    -0.200 F 
ATOM     97  F   UNL     1       3.593   3.885  15.061  1.00  0.00    -0.200 F 
ENDBRANCH  64  87
ENDBRANCH  38  39
ENDBRANCH  31  33
ENDBRANCH  30  31
ENDBRANCH  29  30
ENDBRANCH  28  29
ENDBRANCH  27  28
ENDBRANCH  26  27
ENDBRANCH   1  26
TORSDOF 22
