REMARK SMILES Cc1nccn1C1(C(=O)OCCOCCOCCOC(=O)c2ccc(-c3c4nc(c(-c5c(F)c(F)c(F)c(F)c5F)c5ccc([nH]5)c(-c5c(F)c(F)c(F)c(F)c5F)c5nc(c(-c6c(F)c(F)c(F)c(F)c6F)c6ccc3[nH]6)C=C5)C=C4)cc2)CCN(c2nccc3occc23)CC1
REMARK SMILES IDX 15 1 14 2 13 3 12 4 11 5 10 6 8 7 9 8 7 9 85 10 98 11 86 12
REMARK SMILES IDX 97 13 87 14 6 15 1 16 2 17 3 18 4 19 5 20 88 21 89 22 96 23
REMARK SMILES IDX 90 24 92 25 95 26 91 27 93 28 94 29 16 30 17 31 18 32 19 33
REMARK SMILES IDX 20 34 21 35 22 36 23 37 84 38 24 39 83 40 25 41 26 42 27 43
REMARK SMILES IDX 77 44 28 45 82 46 76 47 78 48 29 49 81 50 75 51 74 52 30 54
REMARK SMILES IDX 62 55 42 56 61 57 43 58 46 59 60 60 79 61 44 62 45 63 59 65
REMARK SMILES IDX 80 66 47 67 31 68 32 69 40 70 33 71 34 72 38 73 41 74 35 75
REMARK SMILES IDX 36 76 39 77 37 78 63 79 64 80 72 81 65 82 66 83 70 84 73 85
REMARK SMILES IDX 67 86 68 87 71 88 69 89 48 90 49 91 57 92 50 93 51 94 55 95
REMARK SMILES IDX 58 96 52 97 53 98 56 99 54 100
REMARK H PARENT 78 53 46 64
REMARK Flexibility Score: inf
ROOT
ATOM      1  C   UNL     1      -0.887   4.887   0.040  1.00  0.00     0.188 C 
ENDROOT
BRANCH   1   2
ATOM      2  C   UNL     1      -0.480   5.435   1.416  1.00  0.00     0.188 C 
BRANCH   2   3
ATOM      3  O   UNL     1      -0.037   6.769   1.374  1.00  0.00    -0.376 OA
BRANCH   3   4
ATOM      4  C   UNL     1       1.369   6.952   1.411  1.00  0.00     0.202 C 
BRANCH   4   5
ATOM      5  C   UNL     1       2.349   6.043   0.614  1.00  0.00     0.261 C 
BRANCH   5   6
ATOM      6  O   UNL     1       1.873   4.778   0.082  1.00  0.00    -0.461 OA
BRANCH   6   7
ATOM      7  C   UNL     1       2.549   3.652   0.441  1.00  0.00     0.332 C 
ATOM      8  O   UNL     1       3.459   3.689   1.272  1.00  0.00    -0.249 OA
BRANCH   7   9
ATOM      9  C   UNL     1       2.055   2.272  -0.196  1.00  0.00     0.146 C 
ATOM     10  C   UNL     1       1.212   2.452  -1.491  1.00  0.00     0.062 C 
ATOM     11  C   UNL     1       3.428   1.653  -0.563  1.00  0.00     0.062 C 
ATOM     12  C   UNL     1       1.335   1.398  -2.610  1.00  0.00     0.121 C 
ATOM     13  C   UNL     1       3.486   0.556  -1.605  1.00  0.00     0.121 C 
ATOM     14  N   UNL     1       2.664   0.801  -2.768  1.00  0.00    -0.356 N 
BRANCH   9  15
ATOM     15  N   UNL     1       1.293   1.546   0.869  1.00  0.00    -0.318 N 
ATOM     16  C   UNL     1       1.038  -0.893   0.051  1.00  0.00     0.087 C 
ATOM     17  C   UNL     1       0.717   0.279   0.892  1.00  0.00     0.106 A 
ATOM     18  N   UNL     1      -0.131   0.156   1.898  1.00  0.00    -0.242 NA
ATOM     19  C   UNL     1       0.015   1.260   2.664  1.00  0.00     0.131 A 
ATOM     20  C   UNL     1       0.927   2.101   2.089  1.00  0.00     0.108 A 
ENDBRANCH   9  15
BRANCH  14  21
ATOM     21  C   UNL     1       3.339   1.156  -3.932  1.00  0.00     0.139 A 
ATOM     22  N   UNL     1       4.197   2.207  -3.869  1.00  0.00    -0.238 NA
ATOM     23  C   UNL     1       3.054   0.694  -5.238  1.00  0.00     0.063 A 
ATOM     24  C   UNL     1       4.225   3.058  -4.907  1.00  0.00     0.117 A 
ATOM     25  C   UNL     1       2.992   1.683  -6.210  1.00  0.00     0.139 A 
ATOM     26  C   UNL     1       2.825  -0.526  -5.934  1.00  0.00     0.054 A 
ATOM     27  C   UNL     1       3.311   2.994  -5.936  1.00  0.00     0.068 A 
ATOM     28  O   UNL     1       2.622   1.163  -7.412  1.00  0.00    -0.464 OA
ATOM     29  C   UNL     1       2.651  -0.191  -7.263  1.00  0.00     0.196 A 
ENDBRANCH  14  21
ENDBRANCH   7   9
ENDBRANCH   6   7
ENDBRANCH   5   6
ENDBRANCH   4   5
ENDBRANCH   3   4
ENDBRANCH   2   3
ENDBRANCH   1   2
BRANCH   1  30
ATOM     30  O   UNL     1      -0.598   5.559  -1.187  1.00  0.00    -0.376 OA
BRANCH  30  31
ATOM     31  C   UNL     1      -0.641   6.978  -1.332  1.00  0.00     0.202 C 
BRANCH  31  32
ATOM     32  C   UNL     1      -1.906   7.770  -1.006  1.00  0.00     0.261 C 
BRANCH  32  33
ATOM     33  O   UNL     1      -2.591   7.254   0.112  1.00  0.00    -0.460 OA
BRANCH  33  34
ATOM     34  C   UNL     1      -3.426   6.260  -0.194  1.00  0.00     0.338 C 
ATOM     35  O   UNL     1      -3.700   5.827  -1.332  1.00  0.00    -0.246 OA
BRANCH  34  36
ATOM     36  C   UNL     1      -4.022   5.740   1.034  1.00  0.00     0.060 A 
ATOM     37  C   UNL     1      -4.988   4.758   0.824  1.00  0.00     0.016 A 
ATOM     38  C   UNL     1      -4.031   6.599   2.142  1.00  0.00     0.016 A 
ATOM     39  C   UNL     1      -6.195   4.970   1.421  1.00  0.00     0.010 A 
ATOM     40  C   UNL     1      -5.243   6.827   2.722  1.00  0.00     0.010 A 
ATOM     41  C   UNL     1      -6.324   6.097   2.241  1.00  0.00    -0.014 A 
BRANCH  41  42
ATOM     42  C   UNL     1      -7.656   6.490   2.605  1.00  0.00     0.031 A 
ATOM     43  C   UNL     1      -8.191   5.639   3.675  1.00  0.00     0.074 A 
ATOM     44  C   UNL     1      -8.258   7.549   2.038  1.00  0.00     0.049 A 
ATOM     45  N   UNL     1      -9.140   4.772   3.592  1.00  0.00    -0.248 NA
ATOM     46  C   UNL     1      -7.423   5.592   4.931  1.00  0.00     0.031 C 
ATOM     47  C   UNL     1      -7.675   8.581   1.174  1.00  0.00     0.029 A 
ATOM     48  N   UNL     1      -9.532   7.976   2.209  1.00  0.00    -0.354 N 
ATOM     49  C   UNL     1      -9.222   4.213   4.859  1.00  0.00     0.074 A 
ATOM     50  C   UNL     1      -8.018   4.578   5.554  1.00  0.00     0.031 C 
ATOM     51  C   UNL     1      -8.532   9.626   1.095  1.00  0.00     0.029 A 
ATOM     52  C   UNL     1      -9.759   9.277   1.791  1.00  0.00     0.049 A 
ATOM     53  H   UNL     1     -10.238   7.410   2.598  1.00  0.00     0.167 HD
ATOM     54  C   UNL     1     -10.412   3.766   5.334  1.00  0.00     0.037 A 
ATOM     55  C   UNL     1     -10.850  10.018   2.106  1.00  0.00     0.037 A 
ATOM     56  C   UNL     1     -11.333   3.501   4.258  1.00  0.00     0.049 A 
ATOM     57  C   UNL     1     -11.907   9.078   2.568  1.00  0.00     0.074 A 
ATOM     58  C   UNL     1     -11.340   2.638   3.179  1.00  0.00     0.029 A 
ATOM     59  N   UNL     1     -12.283   4.454   3.985  1.00  0.00    -0.354 N 
ATOM     60  N   UNL     1     -12.513   8.225   1.788  1.00  0.00    -0.248 NA
ATOM     61  C   UNL     1     -11.963   8.765   3.990  1.00  0.00     0.031 C 
ATOM     62  C   UNL     1     -11.981   3.354   2.126  1.00  0.00     0.029 A 
ATOM     63  C   UNL     1     -12.367   4.599   2.625  1.00  0.00     0.049 A 
ATOM     64  H   UNL     1     -12.813   4.948   4.652  1.00  0.00     0.167 HD
ATOM     65  C   UNL     1     -12.658   7.077   2.557  1.00  0.00     0.074 A 
ATOM     66  C   UNL     1     -12.389   7.500   3.927  1.00  0.00     0.031 C 
ATOM     67  C   UNL     1     -12.696   5.845   1.970  1.00  0.00     0.037 A 
BRANCH  54  68
ATOM     68  C   UNL     1     -10.860   3.994   6.756  1.00  0.00     0.064 A 
ATOM     69  C   UNL     1     -12.072   3.418   7.175  1.00  0.00     0.173 A 
ATOM     70  C   UNL     1     -10.328   4.984   7.617  1.00  0.00     0.173 A 
ATOM     71  F   UNL     1     -12.673   2.477   6.431  1.00  0.00    -0.203 F 
ATOM     72  C   UNL     1     -12.745   3.866   8.313  1.00  0.00     0.198 A 
ATOM     73  C   UNL     1     -10.973   5.387   8.781  1.00  0.00     0.198 A 
ATOM     74  F   UNL     1      -9.230   5.688   7.324  1.00  0.00    -0.203 F 
ATOM     75  F   UNL     1     -13.963   3.385   8.594  1.00  0.00    -0.200 F 
ATOM     76  C   UNL     1     -12.200   4.856   9.110  1.00  0.00     0.200 A 
ATOM     77  F   UNL     1     -10.433   6.360   9.529  1.00  0.00    -0.200 F 
ATOM     78  F   UNL     1     -12.875   5.335  10.162  1.00  0.00    -0.200 F 
ENDBRANCH  54  68
BRANCH  55  79
ATOM     79  C   UNL     1     -10.906  11.473   2.371  1.00  0.00     0.064 A 
ATOM     80  C   UNL     1     -12.121  12.172   2.330  1.00  0.00     0.173 A 
ATOM     81  C   UNL     1      -9.807  12.156   2.929  1.00  0.00     0.173 A 
ATOM     82  F   UNL     1     -13.226  11.574   1.863  1.00  0.00    -0.203 F 
ATOM     83  C   UNL     1     -12.233  13.475   2.827  1.00  0.00     0.198 A 
ATOM     84  C   UNL     1      -9.917  13.457   3.419  1.00  0.00     0.198 A 
ATOM     85  F   UNL     1      -8.627  11.540   3.098  1.00  0.00    -0.203 F 
ATOM     86  F   UNL     1     -13.422  14.094   2.821  1.00  0.00    -0.200 F 
ATOM     87  C   UNL     1     -11.133  14.114   3.378  1.00  0.00     0.200 A 
ATOM     88  F   UNL     1      -8.855  14.047   3.985  1.00  0.00    -0.200 F 
ATOM     89  F   UNL     1     -11.252  15.340   3.904  1.00  0.00    -0.200 F 
ENDBRANCH  55  79
BRANCH  67  90
ATOM     90  C   UNL     1     -12.862   5.797   0.477  1.00  0.00     0.064 A 
ATOM     91  C   UNL     1     -11.905   6.278  -0.433  1.00  0.00     0.173 A 
ATOM     92  C   UNL     1     -13.965   5.111  -0.046  1.00  0.00     0.173 A 
ATOM     93  F   UNL     1     -10.778   6.859  -0.004  1.00  0.00    -0.203 F 
ATOM     94  C   UNL     1     -12.071   6.113  -1.808  1.00  0.00     0.198 A 
ATOM     95  C   UNL     1     -14.109   4.915  -1.416  1.00  0.00     0.198 A 
ATOM     96  F   UNL     1     -14.881   4.583   0.781  1.00  0.00    -0.203 F 
ATOM     97  F   UNL     1     -11.150   6.591  -2.659  1.00  0.00    -0.200 F 
ATOM     98  C   UNL     1     -13.168   5.424  -2.297  1.00  0.00     0.200 A 
ATOM     99  F   UNL     1     -15.147   4.206  -1.881  1.00  0.00    -0.200 F 
ATOM    100  F   UNL     1     -13.307   5.227  -3.616  1.00  0.00    -0.200 F 
ENDBRANCH  67  90
ENDBRANCH  41  42
ENDBRANCH  34  36
ENDBRANCH  33  34
ENDBRANCH  32  33
ENDBRANCH  31  32
ENDBRANCH  30  31
ENDBRANCH   1  30
TORSDOF 19
