REMARK SMILES C[C@H]1C[N@H+]2CCC[C@@H]2C[N@@H+]1CCC[C@](C)([NH3+])C(=O)OCCOCCOCCOC(=O)c1ccc(-c2c3nc(c(-c4c(F)c(F)c(F)c(F)c4F)c4ccc([nH]4)c(-c4c(F)c(F)c(F)c(F)c4F)c4nc(c(-c5c(F)c(F)c(F)c(F)c5F)c5ccc2[nH]5)C=C4)C=C3)cc1
REMARK SMILES IDX 23 1 22 2 21 3 20 4 19 5 17 6 18 7 14 8 15 9 13 10 12 11
REMARK SMILES IDX 11 12 10 13 1 14 2 15 3 16 4 17 9 18 5 20 8 21 6 23 7 24
REMARK SMILES IDX 16 25 24 29 25 30 26 31 27 32 28 33 29 34 30 35 31 36 32 37
REMARK SMILES IDX 93 38 33 39 92 40 34 41 35 42 36 43 86 44 37 45 91 46 85 47
REMARK SMILES IDX 87 48 38 49 90 50 84 51 83 52 39 54 71 55 51 56 70 57 52 58
REMARK SMILES IDX 55 59 69 60 88 61 53 62 54 63 68 65 89 66 56 67 40 68 41 69
REMARK SMILES IDX 49 70 42 71 43 72 47 73 50 74 44 75 45 76 48 77 46 78 72 79
REMARK SMILES IDX 73 80 81 81 74 82 75 83 79 84 82 85 76 86 77 87 80 88 78 89
REMARK SMILES IDX 57 90 58 91 66 92 59 93 60 94 64 95 67 96 61 97 62 98 65 99
REMARK SMILES IDX 63 100
REMARK H PARENT 10 19 4 22 16 26 16 27 16 28 87 53 55 64
REMARK Flexibility Score: inf
ROOT
ATOM      1  C   UNL     1       2.116   4.635  -2.129  1.00  0.00     0.188 C 
ENDROOT
BRANCH   1   2
ATOM      2  O   UNL     1       3.441   4.442  -2.567  1.00  0.00    -0.376 OA
BRANCH   2   3
ATOM      3  C   UNL     1       3.745   4.244  -3.936  1.00  0.00     0.202 C 
BRANCH   3   4
ATOM      4  C   UNL     1       2.766   3.768  -5.024  1.00  0.00     0.261 C 
BRANCH   4   5
ATOM      5  O   UNL     1       1.387   4.101  -4.876  1.00  0.00    -0.459 OA
BRANCH   5   6
ATOM      6  C   UNL     1       0.607   3.084  -4.421  1.00  0.00     0.367 C 
ATOM      7  O   UNL     1       1.040   1.971  -4.134  1.00  0.00    -0.245 OA
BRANCH   6   8
ATOM      8  C   UNL     1      -0.888   3.472  -4.249  1.00  0.00     0.190 C 
ATOM      9  C   UNL     1      -1.199   3.356  -2.743  1.00  0.00     0.092 C 
BRANCH   8  10
ATOM     10  C   UNL     1      -1.665   2.568  -5.234  1.00  0.00     0.086 C 
BRANCH  10  11
ATOM     11  C   UNL     1      -1.886   1.111  -4.816  1.00  0.00     0.068 C 
BRANCH  11  12
ATOM     12  C   UNL     1      -2.929   0.819  -3.715  1.00  0.00     0.263 C 
BRANCH  12  13
ATOM     13  N   UNL     1      -4.313   1.295  -3.896  1.00  0.00    -0.323 N 
ATOM     14  C   UNL     1      -5.254  -0.612  -5.110  1.00  0.00     0.081 C 
ATOM     15  C   UNL     1      -4.915   0.882  -5.188  1.00  0.00     0.236 C 
ATOM     16  C   UNL     1      -6.184   1.671  -5.632  1.00  0.00     0.328 C 
ATOM     17  N   UNL     1      -5.946   3.103  -5.485  1.00  0.00    -0.323 N 
ATOM     18  C   UNL     1      -4.498   2.714  -3.534  1.00  0.00     0.328 C 
ATOM     19  H   UNL     1      -4.874   0.800  -3.203  1.00  0.00     0.348 HD
ATOM     20  C   UNL     1      -7.005   3.986  -5.946  1.00  0.00     0.263 C 
ATOM     21  C   UNL     1      -5.764   3.391  -4.060  1.00  0.00     0.240 C 
ATOM     22  H   UNL     1      -5.133   3.290  -6.073  1.00  0.00     0.348 HD
ATOM     23  C   UNL     1      -6.815   5.252  -5.102  1.00  0.00     0.068 C 
ATOM     24  C   UNL     1      -5.709   4.910  -4.104  1.00  0.00     0.077 C 
ENDBRANCH  12  13
ENDBRANCH  11  12
ENDBRANCH  10  11
ENDBRANCH   8  10
BRANCH   8  25
ATOM     25  N   UNL     1      -1.169   4.878  -4.639  1.00  0.00    -0.344 N 
ATOM     26  H   UNL     1      -0.673   5.511  -4.012  1.00  0.00     0.345 HD
ATOM     27  H   UNL     1      -2.172   5.054  -4.577  1.00  0.00     0.345 HD
ATOM     28  H   UNL     1      -0.856   5.034  -5.597  1.00  0.00     0.345 HD
ENDBRANCH   8  25
ENDBRANCH   6   8
ENDBRANCH   5   6
ENDBRANCH   4   5
ENDBRANCH   3   4
ENDBRANCH   2   3
ENDBRANCH   1   2
BRANCH   1  29
ATOM     29  C   UNL     1       1.349   5.888  -2.587  1.00  0.00     0.188 C 
BRANCH  29  30
ATOM     30  O   UNL     1       1.926   6.755  -3.529  1.00  0.00    -0.376 OA
BRANCH  30  31
ATOM     31  C   UNL     1       3.050   7.529  -3.172  1.00  0.00     0.202 C 
BRANCH  31  32
ATOM     32  C   UNL     1       3.444   7.889  -1.725  1.00  0.00     0.261 C 
BRANCH  32  33
ATOM     33  O   UNL     1       3.000   7.030  -0.665  1.00  0.00    -0.460 OA
BRANCH  33  34
ATOM     34  C   UNL     1       1.993   7.513   0.100  1.00  0.00     0.338 C 
ATOM     35  O   UNL     1       1.441   8.605  -0.008  1.00  0.00    -0.246 OA
BRANCH  34  36
ATOM     36  C   UNL     1       1.484   6.460   1.001  1.00  0.00     0.060 A 
ATOM     37  C   UNL     1       0.148   6.050   0.869  1.00  0.00     0.016 A 
ATOM     38  C   UNL     1       2.281   5.940   2.021  1.00  0.00     0.016 A 
ATOM     39  C   UNL     1      -0.413   5.169   1.794  1.00  0.00     0.010 A 
ATOM     40  C   UNL     1       1.711   5.072   2.962  1.00  0.00     0.010 A 
ATOM     41  C   UNL     1       0.349   4.724   2.883  1.00  0.00    -0.014 A 
BRANCH  41  42
ATOM     42  C   UNL     1      -0.340   4.117   4.053  1.00  0.00     0.031 A 
ATOM     43  C   UNL     1      -0.656   5.003   5.231  1.00  0.00     0.074 A 
ATOM     44  C   UNL     1      -0.722   2.828   4.068  1.00  0.00     0.049 A 
ATOM     45  N   UNL     1      -1.221   4.707   6.375  1.00  0.00    -0.248 NA
ATOM     46  C   UNL     1      -0.279   6.420   5.097  1.00  0.00     0.031 C 
ATOM     47  C   UNL     1      -0.522   1.873   2.983  1.00  0.00     0.029 A 
ATOM     48  N   UNL     1      -1.356   2.101   5.047  1.00  0.00    -0.354 N 
ATOM     49  C   UNL     1      -1.260   5.895   7.095  1.00  0.00     0.074 A 
ATOM     50  C   UNL     1      -0.626   6.907   6.278  1.00  0.00     0.031 C 
ATOM     51  C   UNL     1      -1.010   0.678   3.361  1.00  0.00     0.029 A 
ATOM     52  C   UNL     1      -1.530   0.778   4.725  1.00  0.00     0.049 A 
ATOM     53  H   UNL     1      -1.657   2.492   5.899  1.00  0.00     0.167 HD
ATOM     54  C   UNL     1      -1.788   6.130   8.320  1.00  0.00     0.037 A 
ATOM     55  C   UNL     1      -2.032  -0.238   5.456  1.00  0.00     0.037 A 
ATOM     56  C   UNL     1      -2.415   5.125   9.139  1.00  0.00     0.049 A 
ATOM     57  C   UNL     1      -2.550   0.030   6.849  1.00  0.00     0.074 A 
ATOM     58  C   UNL     1      -2.982   5.265  10.394  1.00  0.00     0.029 A 
ATOM     59  N   UNL     1      -2.549   3.791   8.787  1.00  0.00    -0.354 N 
ATOM     60  N   UNL     1      -2.601   1.159   7.515  1.00  0.00    -0.248 NA
ATOM     61  C   UNL     1      -3.092  -1.121   7.587  1.00  0.00     0.031 C 
ATOM     62  C   UNL     1      -3.407   4.004  10.825  1.00  0.00     0.029 A 
ATOM     63  C   UNL     1      -3.170   3.091   9.809  1.00  0.00     0.049 A 
ATOM     64  H   UNL     1      -2.247   3.398   7.936  1.00  0.00     0.167 HD
ATOM     65  C   UNL     1      -3.210   0.862   8.729  1.00  0.00     0.074 A 
ATOM     66  C   UNL     1      -3.524  -0.551   8.702  1.00  0.00     0.031 C 
ATOM     67  C   UNL     1      -3.489   1.686   9.770  1.00  0.00     0.037 A 
BRANCH  54  68
ATOM     68  C   UNL     1      -1.683   7.528   8.860  1.00  0.00     0.064 A 
ATOM     69  C   UNL     1      -2.410   8.592   8.304  1.00  0.00     0.173 A 
ATOM     70  C   UNL     1      -0.858   7.804   9.961  1.00  0.00     0.173 A 
ATOM     71  F   UNL     1      -3.203   8.387   7.241  1.00  0.00    -0.203 F 
ATOM     72  C   UNL     1      -2.289   9.885   8.808  1.00  0.00     0.198 A 
ATOM     73  C   UNL     1      -0.766   9.091  10.484  1.00  0.00     0.198 A 
ATOM     74  F   UNL     1      -0.144   6.824  10.534  1.00  0.00    -0.203 F 
ATOM     75  F   UNL     1      -2.948  10.895   8.224  1.00  0.00    -0.200 F 
ATOM     76  C   UNL     1      -1.473  10.132   9.902  1.00  0.00     0.200 A 
ATOM     77  F   UNL     1       0.011   9.324  11.551  1.00  0.00    -0.200 F 
ATOM     78  F   UNL     1      -1.361  11.375  10.390  1.00  0.00    -0.200 F 
ENDBRANCH  54  68
BRANCH  55  79
ATOM     79  C   UNL     1      -2.064  -1.615   4.893  1.00  0.00     0.064 A 
ATOM     80  C   UNL     1      -3.277  -2.256   4.604  1.00  0.00     0.173 A 
ATOM     81  C   UNL     1      -0.879  -2.331   4.663  1.00  0.00     0.173 A 
ATOM     82  F   UNL     1      -4.439  -1.627   4.835  1.00  0.00    -0.203 F 
ATOM     83  C   UNL     1      -3.304  -3.566   4.128  1.00  0.00     0.198 A 
ATOM     84  C   UNL     1      -0.907  -3.629   4.156  1.00  0.00     0.198 A 
ATOM     85  F   UNL     1       0.308  -1.768   4.929  1.00  0.00    -0.203 F 
ATOM     86  F   UNL     1      -4.479  -4.175   3.916  1.00  0.00    -0.200 F 
ATOM     87  C   UNL     1      -2.120  -4.249   3.898  1.00  0.00     0.200 A 
ATOM     88  F   UNL     1       0.241  -4.281   3.927  1.00  0.00    -0.200 F 
ATOM     89  F   UNL     1      -2.147  -5.508   3.441  1.00  0.00    -0.200 F 
ENDBRANCH  55  79
BRANCH  67  90
ATOM     90  C   UNL     1      -4.218   1.098  10.948  1.00  0.00     0.064 A 
ATOM     91  C   UNL     1      -3.615   0.171  11.811  1.00  0.00     0.173 A 
ATOM     92  C   UNL     1      -5.535   1.494  11.232  1.00  0.00     0.173 A 
ATOM     93  F   UNL     1      -2.362  -0.250  11.582  1.00  0.00    -0.203 F 
ATOM     94  C   UNL     1      -4.316  -0.367  12.889  1.00  0.00     0.198 A 
ATOM     95  C   UNL     1      -6.220   0.982  12.332  1.00  0.00     0.198 A 
ATOM     96  F   UNL     1      -6.158   2.386  10.448  1.00  0.00    -0.203 F 
ATOM     97  F   UNL     1      -3.740  -1.298  13.662  1.00  0.00    -0.200 F 
ATOM     98  C   UNL     1      -5.614   0.043  13.152  1.00  0.00     0.200 A 
ATOM     99  F   UNL     1      -7.467   1.395  12.594  1.00  0.00    -0.200 F 
ATOM    100  F   UNL     1      -6.285  -0.473  14.191  1.00  0.00    -0.200 F 
ENDBRANCH  67  90
ENDBRANCH  41  42
ENDBRANCH  34  36
ENDBRANCH  33  34
ENDBRANCH  32  33
ENDBRANCH  31  32
ENDBRANCH  30  31
ENDBRANCH  29  30
ENDBRANCH   1  29
TORSDOF 22
