REMARK SMILES Cc1cccc(-c2noc(C[N@@H+](C)Cc3ncccc3C(=O)OCCOCCOCCOC(=O)c3ccc(-c4c5nc(c(-c6c(F)c(F)c(F)c(F)c6F)c6ccc([nH]6)c(-c6c(F)c(F)c(F)c(F)c6F)c6nc(c(-c7c(F)c(F)c(F)c(F)c7F)c7ccc4[nH]7)C=C6)C=C5)cc3)n2)c1
REMARK SMILES IDX 26 1 25 2 24 3 23 4 21 5 22 6 20 7 15 8 16 9 17 10 19 11
REMARK SMILES IDX 18 12 14 13 12 14 13 15 11 17 10 18 7 19 8 20 98 21 9 22
REMARK SMILES IDX 6 23 1 24 2 25 3 26 99 27 4 28 5 29 27 30 28 31 29 32 30 33
REMARK SMILES IDX 31 34 32 35 33 36 34 37 35 38 36 39 97 40 37 41 96 42 38 43
REMARK SMILES IDX 39 44 40 45 90 46 41 47 95 48 89 49 91 50 42 51 94 52 88 53
REMARK SMILES IDX 87 54 43 56 75 57 55 58 74 59 56 60 59 61 73 62 92 63 57 64
REMARK SMILES IDX 58 65 72 67 93 68 60 69 44 70 45 71 53 72 46 73 47 74 51 75
REMARK SMILES IDX 54 76 48 77 49 78 52 79 50 80 76 81 77 82 85 83 78 84 79 85
REMARK SMILES IDX 83 86 86 87 80 88 81 89 84 90 82 91 61 92 62 93 70 94 63 95
REMARK SMILES IDX 64 96 68 97 71 98 65 99 66 100 69 101 67 102
REMARK H PARENT 12 16 91 55 59 66
REMARK Flexibility Score: inf
ROOT
ATOM      1  O   UNL     1      -2.942  -1.318  -2.929  1.00  0.00    -0.376 OA
ENDROOT
BRANCH   1   2
ATOM      2  C   UNL     1      -2.102  -1.440  -4.087  1.00  0.00     0.202 C 
BRANCH   2   3
ATOM      3  C   UNL     1      -2.184  -0.515  -5.514  1.00  0.00     0.261 C 
BRANCH   3   4
ATOM      4  O   UNL     1      -2.047   1.294  -5.874  1.00  0.00    -0.460 OA
BRANCH   4   5
ATOM      5  C   UNL     1      -2.751   2.627  -5.721  1.00  0.00     0.340 C 
ATOM      6  O   UNL     1      -3.959   2.867  -5.773  1.00  0.00    -0.246 OA
BRANCH   5   7
ATOM      7  C   UNL     1      -2.096   3.932  -5.415  1.00  0.00     0.087 A 
ATOM      8  C   UNL     1      -2.549   4.907  -4.418  1.00  0.00     0.109 A 
ATOM      9  N   UNL     1      -2.148   6.212  -4.502  1.00  0.00    -0.254 NA
ATOM     10  C   UNL     1      -1.456   6.601  -5.593  1.00  0.00     0.111 A 
ATOM     11  C   UNL     1      -1.353   4.395  -6.503  1.00  0.00     0.019 A 
ATOM     12  C   UNL     1      -1.059   5.749  -6.608  1.00  0.00     0.021 A 
BRANCH   8  13
ATOM     13  C   UNL     1      -3.719   4.738  -3.395  1.00  0.00     0.320 C 
BRANCH  13  14
ATOM     14  N   UNL     1      -3.785   5.455  -2.042  1.00  0.00    -0.325 N 
ATOM     15  C   UNL     1      -4.269   6.835  -2.193  1.00  0.00     0.333 C 
ATOM     16  H   UNL     1      -4.445   4.855  -1.548  1.00  0.00     0.348 HD
BRANCH  14  17
ATOM     17  C   UNL     1      -2.600   5.447  -1.147  1.00  0.00     0.364 C 
BRANCH  17  18
ATOM     18  C   UNL     1      -2.651   4.707   0.220  1.00  0.00     0.282 A 
ATOM     19  C   UNL     1      -1.833   3.301   1.611  1.00  0.00     0.202 A 
ATOM     20  N   UNL     1      -1.545   4.490   2.158  1.00  0.00    -0.057 NA
ATOM     21  N   UNL     1      -2.689   3.411   0.512  1.00  0.00    -0.186 NA
ATOM     22  O   UNL     1      -2.099   5.417   1.265  1.00  0.00    -0.333 OA
BRANCH  19  23
ATOM     23  C   UNL     1      -1.069   2.063   1.902  1.00  0.00     0.023 A 
ATOM     24  C   UNL     1       2.584   0.796   1.740  1.00  0.00     0.044 C 
ATOM     25  C   UNL     1       1.088   0.842   1.936  1.00  0.00    -0.050 A 
ATOM     26  C   UNL     1       0.410  -0.329   2.280  1.00  0.00     0.003 A 
ATOM     27  C   UNL     1       0.343   2.032   1.766  1.00  0.00     0.015 A 
ATOM     28  C   UNL     1      -0.978  -0.313   2.439  1.00  0.00     0.001 A 
ATOM     29  C   UNL     1      -1.713   0.869   2.239  1.00  0.00     0.012 A 
ENDBRANCH  19  23
ENDBRANCH  17  18
ENDBRANCH  14  17
ENDBRANCH  13  14
ENDBRANCH   8  13
ENDBRANCH   5   7
ENDBRANCH   4   5
ENDBRANCH   3   4
ENDBRANCH   2   3
ENDBRANCH   1   2
BRANCH   1  30
ATOM     30  C   UNL     1      -2.475  -1.056  -1.592  1.00  0.00     0.188 C 
BRANCH  30  31
ATOM     31  C   UNL     1      -0.992  -1.086  -1.219  1.00  0.00     0.188 C 
BRANCH  31  32
ATOM     32  O   UNL     1      -0.204  -0.708  -2.322  1.00  0.00    -0.376 OA
BRANCH  32  33
ATOM     33  C   UNL     1       1.173  -1.009  -2.294  1.00  0.00     0.202 C 
BRANCH  33  34
ATOM     34  C   UNL     1       1.944   0.013  -1.470  1.00  0.00     0.261 C 
BRANCH  34  35
ATOM     35  O   UNL     1       2.119   1.309  -2.090  1.00  0.00    -0.460 OA
BRANCH  35  36
ATOM     36  C   UNL     1       1.315   2.324  -1.637  1.00  0.00     0.338 C 
ATOM     37  O   UNL     1       1.685   3.213  -0.882  1.00  0.00    -0.246 OA
BRANCH  36  38
ATOM     38  C   UNL     1      -0.000   2.298  -2.308  1.00  0.00     0.060 A 
ATOM     39  C   UNL     1      -1.255   2.464  -1.726  1.00  0.00     0.016 A 
ATOM     40  C   UNL     1      -0.004   1.819  -3.546  1.00  0.00     0.016 A 
ATOM     41  C   UNL     1      -2.556   2.054  -2.301  1.00  0.00     0.010 A 
ATOM     42  C   UNL     1      -1.201   1.221  -3.905  1.00  0.00     0.010 A 
ATOM     43  C   UNL     1      -2.624   1.356  -3.498  1.00  0.00    -0.014 A 
BRANCH  43  44
ATOM     44  C   UNL     1      -4.085   0.745  -4.373  1.00  0.00     0.031 A 
ATOM     45  C   UNL     1      -4.508   0.680  -6.159  1.00  0.00     0.074 A 
ATOM     46  C   UNL     1      -5.142   0.190  -3.730  1.00  0.00     0.049 A 
ATOM     47  N   UNL     1      -5.689   0.945  -6.708  1.00  0.00    -0.248 NA
ATOM     48  C   UNL     1      -3.572   0.465  -7.362  1.00  0.00     0.031 C 
ATOM     49  C   UNL     1      -6.062  -0.754  -4.384  1.00  0.00     0.029 A 
ATOM     50  N   UNL     1      -5.567   0.202  -2.396  1.00  0.00    -0.354 N 
ATOM     51  C   UNL     1      -5.551   0.872  -8.120  1.00  0.00     0.074 A 
ATOM     52  C   UNL     1      -4.182   0.896  -8.433  1.00  0.00     0.031 C 
ATOM     53  C   UNL     1      -7.044  -1.083  -3.542  1.00  0.00     0.029 A 
ATOM     54  C   UNL     1      -6.912  -0.241  -2.381  1.00  0.00     0.049 A 
ATOM     55  H   UNL     1      -5.030   0.468  -1.614  1.00  0.00     0.167 HD
ATOM     56  C   UNL     1      -6.474   0.424  -9.020  1.00  0.00     0.037 A 
ATOM     57  C   UNL     1      -7.932   0.469  -1.827  1.00  0.00     0.037 A 
ATOM     58  C   UNL     1      -7.648   0.015  -8.319  1.00  0.00     0.049 A 
ATOM     59  C   UNL     1      -9.043   0.844  -2.785  1.00  0.00     0.074 A 
ATOM     60  C   UNL     1      -8.050  -1.202  -7.804  1.00  0.00     0.029 A 
ATOM     61  N   UNL     1      -8.373   0.990  -7.678  1.00  0.00    -0.354 N 
ATOM     62  N   UNL     1      -9.087   0.491  -4.041  1.00  0.00    -0.248 NA
ATOM     63  C   UNL     1     -10.158   1.724  -2.429  1.00  0.00     0.031 C 
ATOM     64  C   UNL     1      -9.035  -0.944  -6.821  1.00  0.00     0.029 A 
ATOM     65  C   UNL     1      -9.241   0.422  -6.774  1.00  0.00     0.049 A 
ATOM     66  H   UNL     1      -8.285   1.956  -7.842  1.00  0.00     0.167 HD
ATOM     67  C   UNL     1     -10.049   1.229  -4.682  1.00  0.00     0.074 A 
ATOM     68  C   UNL     1     -10.755   1.907  -3.619  1.00  0.00     0.031 C 
ATOM     69  C   UNL     1     -10.120   1.305  -6.041  1.00  0.00     0.037 A 
BRANCH  56  70
ATOM     70  C   UNL     1      -6.047  -0.029 -10.423  1.00  0.00     0.064 A 
ATOM     71  C   UNL     1      -6.451  -1.269 -10.947  1.00  0.00     0.173 A 
ATOM     72  C   UNL     1      -5.101   0.665 -11.219  1.00  0.00     0.173 A 
ATOM     73  F   UNL     1      -7.424  -1.982 -10.368  1.00  0.00    -0.203 F 
ATOM     74  C   UNL     1      -5.843  -1.842 -12.072  1.00  0.00     0.198 A 
ATOM     75  C   UNL     1      -4.432   0.058 -12.291  1.00  0.00     0.198 A 
ATOM     76  F   UNL     1      -4.733   1.920 -10.910  1.00  0.00    -0.203 F 
ATOM     77  F   UNL     1      -6.250  -3.042 -12.509  1.00  0.00    -0.200 F 
ATOM     78  C   UNL     1      -4.795  -1.205 -12.709  1.00  0.00     0.200 A 
ATOM     79  F   UNL     1      -3.396   0.679 -12.876  1.00  0.00    -0.200 F 
ATOM     80  F   UNL     1      -4.145  -1.804 -13.717  1.00  0.00    -0.200 F 
ENDBRANCH  56  70
BRANCH  57  81
ATOM     81  C   UNL     1      -7.506   1.219  -0.627  1.00  0.00     0.064 A 
ATOM     82  C   UNL     1      -7.203   0.471   0.526  1.00  0.00     0.173 A 
ATOM     83  C   UNL     1      -7.019   2.527  -0.708  1.00  0.00     0.173 A 
ATOM     84  F   UNL     1      -7.651  -0.789   0.646  1.00  0.00    -0.203 F 
ATOM     85  C   UNL     1      -6.352   0.971   1.504  1.00  0.00     0.198 A 
ATOM     86  C   UNL     1      -6.184   3.033   0.288  1.00  0.00     0.198 A 
ATOM     87  F   UNL     1      -7.278   3.277  -1.789  1.00  0.00    -0.203 F 
ATOM     88  F   UNL     1      -5.988   0.195   2.536  1.00  0.00    -0.200 F 
ATOM     89  C   UNL     1      -5.824   2.243   1.373  1.00  0.00     0.200 A 
ATOM     90  F   UNL     1      -5.691   4.273   0.177  1.00  0.00    -0.200 F 
ATOM     91  F   UNL     1      -4.955   2.695   2.288  1.00  0.00    -0.200 F 
ENDBRANCH  57  81
BRANCH  69  92
ATOM     92  C   UNL     1     -10.958   2.263  -6.853  1.00  0.00     0.064 A 
ATOM     93  C   UNL     1     -11.242   3.578  -6.462  1.00  0.00     0.173 A 
ATOM     94  C   UNL     1     -11.317   1.922  -8.183  1.00  0.00     0.173 A 
ATOM     95  F   UNL     1     -10.849   4.049  -5.271  1.00  0.00    -0.203 F 
ATOM     96  C   UNL     1     -11.883   4.474  -7.321  1.00  0.00     0.198 A 
ATOM     97  C   UNL     1     -11.889   2.841  -9.059  1.00  0.00     0.198 A 
ATOM     98  F   UNL     1     -11.072   0.699  -8.680  1.00  0.00    -0.203 F 
ATOM     99  F   UNL     1     -12.172   5.711  -6.892  1.00  0.00    -0.200 F 
ATOM    100  C   UNL     1     -12.190   4.113  -8.621  1.00  0.00     0.200 A 
ATOM    101  F   UNL     1     -12.117   2.495 -10.335  1.00  0.00    -0.200 F 
ATOM    102  F   UNL     1     -12.755   4.995  -9.456  1.00  0.00    -0.200 F 
ENDBRANCH  69  92
ENDBRANCH  43  44
ENDBRANCH  36  38
ENDBRANCH  35  36
ENDBRANCH  34  35
ENDBRANCH  33  34
ENDBRANCH  32  33
ENDBRANCH  31  32
ENDBRANCH  30  31
ENDBRANCH   1  30
TORSDOF 22
