REMARK SMILES Cc1cccc(C[NH2+]Cc2c(C(=O)OCCOCCOCCOC(=O)c3ccc(-c4c5nc(c(-c6c(F)c(F)c(F)c(F)c6F)c6ccc([nH]6)c(-c6c(F)c(F)c(F)c(F)c6F)c6nc(c(-c7c(F)c(F)c(F)c(F)c7F)c7ccc4[nH]7)C=C6)C=C5)cc3)c(C)n(Cc3cccc(F)c3)c2C)c1
REMARK SMILES IDX 18 1 17 2 16 3 15 4 14 5 12 6 13 7 11 8 10 9 100 10 89 11
REMARK SMILES IDX 91 12 101 13 90 14 9 15 8 16 7 19 6 20 1 21 2 22 3 23 102 24
REMARK SMILES IDX 4 25 5 26 92 27 93 28 94 29 99 30 95 31 97 32 96 33 98 34
REMARK SMILES IDX 19 35 20 36 21 37 22 38 23 39 24 40 25 41 26 42 27 43 88 44
REMARK SMILES IDX 28 45 87 46 29 47 30 48 31 49 81 50 32 51 86 52 80 53 82 54
REMARK SMILES IDX 33 55 85 56 79 57 78 58 34 60 66 61 46 62 65 63 47 64 50 65
REMARK SMILES IDX 64 66 83 67 48 68 49 69 63 71 84 72 51 73 35 74 36 75 44 76
REMARK SMILES IDX 37 77 38 78 42 79 45 80 39 81 40 82 43 83 41 84 67 85 68 86
REMARK SMILES IDX 76 87 69 88 70 89 74 90 77 91 71 92 72 93 75 94 73 95 52 96
REMARK SMILES IDX 53 97 61 98 54 99 55 100 59 101 62 102 56 103 57 104 60 105
REMARK SMILES IDX 58 106
REMARK H PARENT 8 17 8 18 82 59 50 70
REMARK Flexibility Score: inf
ROOT
ATOM      1  C   UNL     1      -7.148   9.254   0.880  1.00  0.00     0.188 C 
ENDROOT
BRANCH   1   2
ATOM      2  O   UNL     1      -7.481   8.177  -0.027  1.00  0.00    -0.376 OA
BRANCH   2   3
ATOM      3  C   UNL     1      -7.512   6.782   0.315  1.00  0.00     0.202 C 
BRANCH   3   4
ATOM      4  C   UNL     1      -6.527   5.567  -0.346  1.00  0.00     0.261 C 
BRANCH   4   5
ATOM      5  O   UNL     1      -4.806   5.341  -0.344  1.00  0.00    -0.460 OA
BRANCH   5   6
ATOM      6  C   UNL     1      -3.610   5.749  -1.122  1.00  0.00     0.340 C 
ATOM      7  O   UNL     1      -3.589   6.286  -2.218  1.00  0.00    -0.246 OA
BRANCH   6   8
ATOM      8  C   UNL     1      -2.243   5.449  -0.702  1.00  0.00     0.089 A 
ATOM      9  C   UNL     1      -1.802   4.139  -0.397  1.00  0.00     0.042 A 
ATOM     10  C   UNL     1      -0.433   4.119  -0.686  1.00  0.00     0.025 A 
ATOM     11  C   UNL     1      -1.127   6.229  -1.056  1.00  0.00     0.030 A 
ATOM     12  N   UNL     1      -0.022   5.412  -0.985  1.00  0.00    -0.343 N 
ATOM     13  C   UNL     1       0.544   3.005  -0.807  1.00  0.00     0.065 C 
ATOM     14  C   UNL     1      -1.016   7.620  -1.627  1.00  0.00     0.065 C 
BRANCH   9  15
ATOM     15  C   UNL     1      -2.877   3.130  -0.103  1.00  0.00     0.300 C 
BRANCH  15  16
ATOM     16  N   UNL     1      -2.453   1.767  -0.076  1.00  0.00    -0.339 N 
ATOM     17  H   UNL     1      -3.266   1.167  -0.221  1.00  0.00     0.346 HD
ATOM     18  H   UNL     1      -1.761   1.641  -0.816  1.00  0.00     0.346 HD
BRANCH  16  19
ATOM     19  C   UNL     1      -1.826   1.408   1.184  1.00  0.00     0.297 C 
BRANCH  19  20
ATOM     20  C   UNL     1      -1.017   0.165   0.932  1.00  0.00     0.006 A 
ATOM     21  C   UNL     1       2.630  -0.615   0.274  1.00  0.00     0.044 C 
ATOM     22  C   UNL     1       1.146  -0.781   0.387  1.00  0.00    -0.051 A 
ATOM     23  C   UNL     1       0.505  -1.928  -0.095  1.00  0.00     0.003 A 
ATOM     24  C   UNL     1       0.379   0.232   0.961  1.00  0.00     0.013 A 
ATOM     25  C   UNL     1      -0.886  -2.037  -0.052  1.00  0.00     0.001 A 
ATOM     26  C   UNL     1      -1.647  -0.988   0.448  1.00  0.00     0.009 A 
ENDBRANCH  19  20
ENDBRANCH  16  19
ENDBRANCH  15  16
ENDBRANCH   9  15
BRANCH  12  27
ATOM     27  C   UNL     1       1.360   5.843  -1.287  1.00  0.00     0.157 C 
BRANCH  27  28
ATOM     28  C   UNL     1       1.905   5.417  -2.641  1.00  0.00    -0.025 A 
ATOM     29  C   UNL     1       3.295   5.234  -2.783  1.00  0.00     0.006 A 
ATOM     30  C   UNL     1       1.094   5.196  -3.765  1.00  0.00     0.044 A 
ATOM     31  C   UNL     1       3.848   4.772  -3.983  1.00  0.00     0.003 A 
ATOM     32  C   UNL     1       1.654   4.731  -4.955  1.00  0.00     0.123 A 
ATOM     33  C   UNL     1       3.020   4.504  -5.069  1.00  0.00     0.039 A 
ATOM     34  F   UNL     1       0.861   4.481  -6.005  1.00  0.00    -0.207 F 
ENDBRANCH  27  28
ENDBRANCH  12  27
ENDBRANCH   6   8
ENDBRANCH   5   6
ENDBRANCH   4   5
ENDBRANCH   3   4
ENDBRANCH   2   3
ENDBRANCH   1   2
BRANCH   1  35
ATOM     35  C   UNL     1      -7.262   9.160   2.407  1.00  0.00     0.188 C 
BRANCH  35  36
ATOM     36  O   UNL     1      -6.748   7.927   2.873  1.00  0.00    -0.376 OA
BRANCH  36  37
ATOM     37  C   UNL     1      -6.773   7.737   4.279  1.00  0.00     0.202 C 
BRANCH  37  38
ATOM     38  C   UNL     1      -5.571   8.383   4.999  1.00  0.00     0.261 C 
BRANCH  38  39
ATOM     39  O   UNL     1      -4.317   7.962   4.407  1.00  0.00    -0.460 OA
BRANCH  39  40
ATOM     40  C   UNL     1      -3.574   8.907   3.739  1.00  0.00     0.338 C 
ATOM     41  O   UNL     1      -3.252   9.991   4.202  1.00  0.00    -0.246 OA
BRANCH  40  42
ATOM     42  C   UNL     1      -3.438   8.524   2.291  1.00  0.00     0.060 A 
ATOM     43  C   UNL     1      -3.125   9.365   1.212  1.00  0.00     0.016 A 
ATOM     44  C   UNL     1      -4.034   7.365   1.956  1.00  0.00     0.016 A 
ATOM     45  C   UNL     1      -3.618   9.104  -0.149  1.00  0.00     0.010 A 
ATOM     46  C   UNL     1      -4.725   7.381   0.750  1.00  0.00     0.010 A 
ATOM     47  C   UNL     1      -4.555   8.108  -0.451  1.00  0.00    -0.014 A 
BRANCH  47  48
ATOM     48  C   UNL     1      -5.430   7.910  -1.902  1.00  0.00     0.031 A 
ATOM     49  C   UNL     1      -5.699   6.593  -3.037  1.00  0.00     0.074 A 
ATOM     50  C   UNL     1      -5.979   9.053  -2.371  1.00  0.00     0.049 A 
ATOM     51  N   UNL     1      -5.955   6.739  -4.330  1.00  0.00    -0.248 NA
ATOM     52  C   UNL     1      -5.611   5.093  -2.838  1.00  0.00     0.031 C 
ATOM     53  C   UNL     1      -6.886   9.220  -3.501  1.00  0.00     0.029 A 
ATOM     54  N   UNL     1      -5.686  10.368  -1.981  1.00  0.00    -0.354 N 
ATOM     55  C   UNL     1      -6.152   5.482  -4.940  1.00  0.00     0.074 A 
ATOM     56  C   UNL     1      -5.922   4.498  -3.967  1.00  0.00     0.031 C 
ATOM     57  C   UNL     1      -6.788  10.482  -3.940  1.00  0.00     0.029 A 
ATOM     58  C   UNL     1      -5.756  11.136  -3.159  1.00  0.00     0.049 A 
ATOM     59  H   UNL     1      -5.476  10.688  -1.074  1.00  0.00     0.167 HD
ATOM     60  C   UNL     1      -6.545   5.249  -6.220  1.00  0.00     0.037 A 
ATOM     61  C   UNL     1      -4.656  11.789  -3.624  1.00  0.00     0.037 A 
ATOM     62  C   UNL     1      -6.645   6.475  -6.943  1.00  0.00     0.049 A 
ATOM     63  C   UNL     1      -4.232  11.349  -5.011  1.00  0.00     0.074 A 
ATOM     64  C   UNL     1      -7.626   7.438  -7.053  1.00  0.00     0.029 A 
ATOM     65  N   UNL     1      -5.460   7.057  -7.315  1.00  0.00    -0.354 N 
ATOM     66  N   UNL     1      -4.872  10.476  -5.742  1.00  0.00    -0.248 NA
ATOM     67  C   UNL     1      -2.987  11.792  -5.642  1.00  0.00     0.031 C 
ATOM     68  C   UNL     1      -6.972   8.662  -7.376  1.00  0.00     0.029 A 
ATOM     69  C   UNL     1      -5.617   8.410  -7.516  1.00  0.00     0.049 A 
ATOM     70  H   UNL     1      -4.611   6.572  -7.424  1.00  0.00     0.167 HD
ATOM     71  C   UNL     1      -4.111  10.170  -6.836  1.00  0.00     0.074 A 
ATOM     72  C   UNL     1      -2.950  11.030  -6.745  1.00  0.00     0.031 C 
ATOM     73  C   UNL     1      -4.424   9.196  -7.732  1.00  0.00     0.037 A 
BRANCH  60  74
ATOM     74  C   UNL     1      -7.027   3.886  -6.681  1.00  0.00     0.064 A 
ATOM     75  C   UNL     1      -8.248   3.778  -7.368  1.00  0.00     0.173 A 
ATOM     76  C   UNL     1      -6.414   2.656  -6.352  1.00  0.00     0.173 A 
ATOM     77  F   UNL     1      -8.876   4.871  -7.822  1.00  0.00    -0.203 F 
ATOM     78  C   UNL     1      -8.880   2.545  -7.570  1.00  0.00     0.198 A 
ATOM     79  C   UNL     1      -7.082   1.431  -6.480  1.00  0.00     0.198 A 
ATOM     80  F   UNL     1      -5.163   2.618  -5.864  1.00  0.00    -0.203 F 
ATOM     81  F   UNL     1     -10.055   2.498  -8.214  1.00  0.00    -0.200 F 
ATOM     82  C   UNL     1      -8.326   1.379  -7.075  1.00  0.00     0.200 A 
ATOM     83  F   UNL     1      -6.532   0.309  -5.990  1.00  0.00    -0.200 F 
ATOM     84  F   UNL     1      -8.983   0.215  -7.179  1.00  0.00    -0.200 F 
ENDBRANCH  60  74
BRANCH  61  85
ATOM     85  C   UNL     1      -3.765  12.291  -2.532  1.00  0.00     0.064 A 
ATOM     86  C   UNL     1      -4.350  13.080  -1.512  1.00  0.00     0.173 A 
ATOM     87  C   UNL     1      -2.483  11.789  -2.284  1.00  0.00     0.173 A 
ATOM     88  F   UNL     1      -5.578  13.598  -1.683  1.00  0.00    -0.203 F 
ATOM     89  C   UNL     1      -3.745  13.239  -0.268  1.00  0.00     0.198 A 
ATOM     90  C   UNL     1      -1.859  11.987  -1.046  1.00  0.00     0.198 A 
ATOM     91  F   UNL     1      -1.880  10.980  -3.166  1.00  0.00    -0.203 F 
ATOM     92  F   UNL     1      -4.404  13.857   0.723  1.00  0.00    -0.200 F 
ATOM     93  C   UNL     1      -2.505  12.679  -0.031  1.00  0.00     0.200 A 
ATOM     94  F   UNL     1      -0.690  11.382  -0.789  1.00  0.00    -0.200 F 
ATOM     95  F   UNL     1      -1.966  12.734   1.196  1.00  0.00    -0.200 F 
ENDBRANCH  61  85
BRANCH  73  96
ATOM     96  C   UNL     1      -3.573   8.926  -8.926  1.00  0.00     0.064 A 
ATOM     97  C   UNL     1      -3.373   9.927  -9.884  1.00  0.00     0.173 A 
ATOM     98  C   UNL     1      -3.084   7.641  -9.224  1.00  0.00     0.173 A 
ATOM     99  F   UNL     1      -3.818  11.174  -9.664  1.00  0.00    -0.203 F 
ATOM    100  C   UNL     1      -2.730   9.653 -11.087  1.00  0.00     0.198 A 
ATOM    101  C   UNL     1      -2.484   7.359 -10.447  1.00  0.00     0.198 A 
ATOM    102  F   UNL     1      -3.186   6.638  -8.338  1.00  0.00    -0.203 F 
ATOM    103  F   UNL     1      -2.534  10.638 -11.974  1.00  0.00    -0.200 F 
ATOM    104  C   UNL     1      -2.307   8.366 -11.378  1.00  0.00     0.200 A 
ATOM    105  F   UNL     1      -2.095   6.106 -10.725  1.00  0.00    -0.200 F 
ATOM    106  F   UNL     1      -1.727   8.096 -12.555  1.00  0.00    -0.200 F 
ENDBRANCH  73  96
ENDBRANCH  47  48
ENDBRANCH  40  42
ENDBRANCH  39  40
ENDBRANCH  38  39
ENDBRANCH  37  38
ENDBRANCH  36  37
ENDBRANCH  35  36
ENDBRANCH   1  35
TORSDOF 23
