REMARK SMILES COC(=O)c1ccccc1N1C(=O)/C(=C\c2ccc(-c3ccc(Cl)c(C(=O)OCCOCCOCCOC(=O)c4ccc(-c5c6nc(c(-c7c(F)c(F)c(F)c(F)c7F)c7ccc([nH]7)c(-c7c(F)c(F)c(F)c(F)c7F)c7nc(c(-c8c(F)c(F)c(F)c(F)c8F)c8ccc5[nH]8)C=C7)C=C6)cc4)c3)o2)SC1=S
REMARK SMILES IDX 31 1 30 2 29 3 28 4 26 5 27 6 25 7 20 8 21 9 103 10 22 11
REMARK SMILES IDX 23 12 24 13 19 14 16 15 17 16 104 17 18 18 15 19 11 20 12 21
REMARK SMILES IDX 106 22 13 23 14 24 105 25 107 26 10 27 5 28 6 29 7 30 9 31
REMARK SMILES IDX 8 32 3 33 4 34 2 35 1 36 32 37 33 38 34 39 35 40 36 41 37 42
REMARK SMILES IDX 38 43 39 44 40 45 41 46 102 47 42 48 101 49 43 50 44 51
REMARK SMILES IDX 45 52 95 53 46 54 100 55 94 56 96 57 47 58 99 59 93 60 92 61
REMARK SMILES IDX 48 63 80 64 60 65 79 66 61 67 64 68 78 69 97 70 62 71 63 72
REMARK SMILES IDX 77 74 98 75 65 76 49 77 50 78 58 79 51 80 52 81 56 82 59 83
REMARK SMILES IDX 53 84 54 85 57 86 55 87 81 88 82 89 90 90 83 91 84 92 88 93
REMARK SMILES IDX 91 94 85 95 86 96 89 97 87 98 66 99 67 100 75 101 68 102
REMARK SMILES IDX 69 103 73 104 76 105 70 106 71 107 74 108 72 109
REMARK H PARENT 96 62 64 73
REMARK Flexibility Score: inf
ROOT
ATOM      1  O   UNL     1      -8.460  11.256   5.178  1.00  0.00    -0.376 OA
ENDROOT
BRANCH   1   2
ATOM      2  C   UNL     1      -7.189  11.838   4.936  1.00  0.00     0.202 C 
BRANCH   2   3
ATOM      3  C   UNL     1      -5.836  11.169   5.243  1.00  0.00     0.261 C 
BRANCH   3   4
ATOM      4  O   UNL     1      -5.811   9.740   5.228  1.00  0.00    -0.460 OA
BRANCH   4   5
ATOM      5  C   UNL     1      -5.508   9.130   6.408  1.00  0.00     0.339 C 
ATOM      6  O   UNL     1      -5.205   9.661   7.451  1.00  0.00    -0.246 OA
BRANCH   5   7
ATOM      7  C   UNL     1      -5.707   7.675   6.225  1.00  0.00     0.079 A 
ATOM      8  C   UNL     1      -5.217   5.676   4.917  1.00  0.00     0.018 A 
ATOM      9  C   UNL     1      -6.091   4.949   5.733  1.00  0.00     0.013 A 
ATOM     10  C   UNL     1      -5.048   7.046   5.160  1.00  0.00     0.029 A 
ATOM     11  C   UNL     1      -6.753   5.573   6.797  1.00  0.00     0.022 A 
ATOM     12  C   UNL     1      -6.554   6.934   7.055  1.00  0.00     0.055 A 
ATOM     13  Cl  UNL     1      -7.439   7.627   8.366  1.00  0.00    -0.083 Cl
BRANCH   8  14
ATOM     14  C   UNL     1      -4.413   5.034   3.889  1.00  0.00     0.134 A 
ATOM     15  C   UNL     1      -3.992   3.477   2.367  1.00  0.00     0.128 A 
ATOM     16  C   UNL     1      -2.873   4.297   2.459  1.00  0.00     0.051 A 
ATOM     17  O   UNL     1      -4.949   3.966   3.231  1.00  0.00    -0.457 OA
ATOM     18  C   UNL     1      -3.137   5.276   3.435  1.00  0.00     0.051 A 
BRANCH  15  19
ATOM     19  C   UNL     1      -4.162   2.320   1.562  1.00  0.00     0.068 C 
ATOM     20  N   UNL     1      -1.945  -0.333   2.758  1.00  0.00    -0.260 N 
ATOM     21  C   UNL     1      -2.524   0.922   2.903  1.00  0.00     0.270 C 
ATOM     22  C   UNL     1      -2.375  -1.099   1.689  1.00  0.00     0.152 C 
ATOM     23  O   UNL     1      -2.316   1.702   3.823  1.00  0.00    -0.268 OA
ATOM     24  C   UNL     1      -3.462   1.196   1.775  1.00  0.00     0.084 C 
ATOM     25  S   UNL     1      -3.532  -0.173   0.729  1.00  0.00    -0.054 SA
ATOM     26  S   UNL     1      -2.022  -2.691   1.320  1.00  0.00    -0.051 S 
BRANCH  20  27
ATOM     27  C   UNL     1      -1.007  -0.759   3.746  1.00  0.00     0.065 A 
ATOM     28  C   UNL     1       0.334  -1.097   3.473  1.00  0.00     0.084 A 
ATOM     29  C   UNL     1       1.178  -1.482   4.532  1.00  0.00     0.018 A 
ATOM     30  C   UNL     1       0.714  -1.511   5.848  1.00  0.00     0.001 A 
ATOM     31  C   UNL     1      -1.452  -0.787   5.083  1.00  0.00     0.028 A 
ATOM     32  C   UNL     1      -0.602  -1.161   6.124  1.00  0.00     0.002 A 
BRANCH  28  33
ATOM     33  C   UNL     1       0.985  -1.013   2.139  1.00  0.00     0.339 C 
ATOM     34  O   UNL     1       1.939  -1.704   1.819  1.00  0.00    -0.246 OA
BRANCH  33  35
ATOM     35  O   UNL     1       0.426  -0.036   1.382  1.00  0.00    -0.465 OA
ATOM     36  C   UNL     1       0.998   0.075   0.076  1.00  0.00     0.282 C 
ENDBRANCH  33  35
ENDBRANCH  28  33
ENDBRANCH  20  27
ENDBRANCH  15  19
ENDBRANCH   8  14
ENDBRANCH   5   7
ENDBRANCH   4   5
ENDBRANCH   3   4
ENDBRANCH   2   3
ENDBRANCH   1   2
BRANCH   1  37
ATOM     37  C   UNL     1      -8.593   9.866   5.368  1.00  0.00     0.188 C 
BRANCH  37  38
ATOM     38  C   UNL     1      -8.403   8.925   4.161  1.00  0.00     0.188 C 
BRANCH  38  39
ATOM     39  O   UNL     1      -7.982   9.440   2.917  1.00  0.00    -0.376 OA
BRANCH  39  40
ATOM     40  C   UNL     1      -8.775  10.400   2.240  1.00  0.00     0.202 C 
BRANCH  40  41
ATOM     41  C   UNL     1     -10.312  10.461   2.313  1.00  0.00     0.261 C 
BRANCH  41  42
ATOM     42  O   UNL     1     -10.928  10.071   3.545  1.00  0.00    -0.460 OA
BRANCH  42  43
ATOM     43  C   UNL     1     -11.603   8.896   3.511  1.00  0.00     0.338 C 
ATOM     44  O   UNL     1     -11.734   8.139   2.565  1.00  0.00    -0.246 OA
BRANCH  43  45
ATOM     45  C   UNL     1     -12.040   8.555   4.877  1.00  0.00     0.060 A 
ATOM     46  C   UNL     1     -11.468   7.443   5.511  1.00  0.00     0.016 A 
ATOM     47  C   UNL     1     -13.039   9.297   5.506  1.00  0.00     0.016 A 
ATOM     48  C   UNL     1     -11.905   7.060   6.778  1.00  0.00     0.010 A 
ATOM     49  C   UNL     1     -13.493   8.897   6.765  1.00  0.00     0.010 A 
ATOM     50  C   UNL     1     -12.948   7.762   7.394  1.00  0.00    -0.014 A 
BRANCH  50  51
ATOM     51  C   UNL     1     -13.589   7.218   8.615  1.00  0.00     0.031 A 
ATOM     52  C   UNL     1     -14.876   6.456   8.474  1.00  0.00     0.074 A 
ATOM     53  C   UNL     1     -13.046   7.407   9.829  1.00  0.00     0.049 A 
ATOM     54  N   UNL     1     -15.663   5.969   9.399  1.00  0.00    -0.248 NA
ATOM     55  C   UNL     1     -15.342   6.220   7.099  1.00  0.00     0.031 C 
ATOM     56  C   UNL     1     -11.786   8.096  10.092  1.00  0.00     0.029 A 
ATOM     57  N   UNL     1     -13.507   7.053  11.073  1.00  0.00    -0.354 N 
ATOM     58  C   UNL     1     -16.725   5.388   8.721  1.00  0.00     0.074 A 
ATOM     59  C   UNL     1     -16.495   5.603   7.308  1.00  0.00     0.031 C 
ATOM     60  C   UNL     1     -11.587   8.143  11.420  1.00  0.00     0.029 A 
ATOM     61  C   UNL     1     -12.724   7.519  12.098  1.00  0.00     0.049 A 
ATOM     62  H   UNL     1     -14.321   6.517  11.215  1.00  0.00     0.167 HD
ATOM     63  C   UNL     1     -17.796   4.734   9.231  1.00  0.00     0.037 A 
ATOM     64  C   UNL     1     -12.921   7.478  13.431  1.00  0.00     0.037 A 
ATOM     65  C   UNL     1     -18.020   4.524  10.637  1.00  0.00     0.049 A 
ATOM     66  C   UNL     1     -14.150   6.798  13.980  1.00  0.00     0.074 A 
ATOM     67  C   UNL     1     -19.049   3.834  11.253  1.00  0.00     0.029 A 
ATOM     68  N   UNL     1     -17.210   5.022  11.649  1.00  0.00    -0.354 N 
ATOM     69  N   UNL     1     -15.130   6.212  13.336  1.00  0.00    -0.248 NA
ATOM     70  C   UNL     1     -14.296   6.771  15.443  1.00  0.00     0.031 C 
ATOM     71  C   UNL     1     -18.901   3.974  12.637  1.00  0.00     0.029 A 
ATOM     72  C   UNL     1     -17.740   4.688  12.886  1.00  0.00     0.049 A 
ATOM     73  H   UNL     1     -16.383   5.535  11.509  1.00  0.00     0.167 HD
ATOM     74  C   UNL     1     -15.993   5.724  14.311  1.00  0.00     0.074 A 
ATOM     75  C   UNL     1     -15.415   6.075  15.591  1.00  0.00     0.031 C 
ATOM     76  C   UNL     1     -17.157   5.043  14.157  1.00  0.00     0.037 A 
BRANCH  63  77
ATOM     77  C   UNL     1     -18.831   4.242   8.260  1.00  0.00     0.064 A 
ATOM     78  C   UNL     1     -18.574   3.195   7.362  1.00  0.00     0.173 A 
ATOM     79  C   UNL     1     -20.108   4.825   8.237  1.00  0.00     0.173 A 
ATOM     80  F   UNL     1     -17.367   2.610   7.334  1.00  0.00    -0.203 F 
ATOM     81  C   UNL     1     -19.541   2.779   6.450  1.00  0.00     0.198 A 
ATOM     82  C   UNL     1     -21.084   4.383   7.348  1.00  0.00     0.198 A 
ATOM     83  F   UNL     1     -20.410   5.826   9.077  1.00  0.00    -0.203 F 
ATOM     84  F   UNL     1     -19.251   1.821   5.559  1.00  0.00    -0.200 F 
ATOM     85  C   UNL     1     -20.796   3.369   6.448  1.00  0.00     0.200 A 
ATOM     86  F   UNL     1     -22.300   4.944   7.359  1.00  0.00    -0.200 F 
ATOM     87  F   UNL     1     -21.726   2.967   5.571  1.00  0.00    -0.200 F 
ENDBRANCH  63  77
BRANCH  64  88
ATOM     88  C   UNL     1     -11.935   8.124  14.336  1.00  0.00     0.064 A 
ATOM     89  C   UNL     1     -11.112   7.363  15.176  1.00  0.00     0.173 A 
ATOM     90  C   UNL     1     -11.793   9.520  14.372  1.00  0.00     0.173 A 
ATOM     91  F   UNL     1     -11.231   6.028  15.199  1.00  0.00    -0.203 F 
ATOM     92  C   UNL     1     -10.188   7.973  16.023  1.00  0.00     0.198 A 
ATOM     93  C   UNL     1     -10.849  10.127  15.197  1.00  0.00     0.198 A 
ATOM     94  F   UNL     1     -12.562  10.294  13.592  1.00  0.00    -0.203 F 
ATOM     95  F   UNL     1      -9.441   7.225  16.845  1.00  0.00    -0.200 F 
ATOM     96  C   UNL     1     -10.051   9.354  16.026  1.00  0.00     0.200 A 
ATOM     97  F   UNL     1     -10.714  11.460  15.190  1.00  0.00    -0.200 F 
ATOM     98  F   UNL     1      -9.156   9.938  16.834  1.00  0.00    -0.200 F 
ENDBRANCH  64  88
BRANCH  76  99
ATOM     99  C   UNL     1     -17.873   4.596  15.401  1.00  0.00     0.064 A 
ATOM    100  C   UNL     1     -18.523   5.504  16.249  1.00  0.00     0.173 A 
ATOM    101  C   UNL     1     -17.960   3.230  15.716  1.00  0.00     0.173 A 
ATOM    102  F   UNL     1     -18.462   6.822  16.002  1.00  0.00    -0.203 F 
ATOM    103  C   UNL     1     -19.213   5.064  17.377  1.00  0.00     0.198 A 
ATOM    104  C   UNL     1     -18.678   2.792  16.825  1.00  0.00     0.198 A 
ATOM    105  F   UNL     1     -17.364   2.317  14.934  1.00  0.00    -0.203 F 
ATOM    106  F   UNL     1     -19.788   5.954  18.198  1.00  0.00    -0.200 F 
ATOM    107  C   UNL     1     -19.297   3.709  17.659  1.00  0.00     0.200 A 
ATOM    108  F   UNL     1     -18.773   1.480  17.084  1.00  0.00    -0.200 F 
ATOM    109  F   UNL     1     -19.973   3.287  18.737  1.00  0.00    -0.200 F 
ENDBRANCH  76  99
ENDBRANCH  50  51
ENDBRANCH  43  45
ENDBRANCH  42  43
ENDBRANCH  41  42
ENDBRANCH  40  41
ENDBRANCH  39  40
ENDBRANCH  38  39
ENDBRANCH  37  38
ENDBRANCH   1  37
TORSDOF 22
