REMARK SMILES O=C(OCCOCCOCCOC(=O)[C@H](NC(=O)[C@H]1CC(=O)N(CC2CC2)C1)c1ccccc1C(F)(F)F)c1ccc(-c2c3nc(c(-c4c(F)c(F)c(F)c(F)c4F)c4ccc([nH]4)c(-c4c(F)c(F)c(F)c(F)c4F)c4nc(c(-c5c(F)c(F)c(F)c(F)c5F)c5ccc2[nH]5)C=C4)C=C3)cc1
REMARK SMILES IDX 8 1 7 2 6 3 5 4 4 5 3 6 2 7 1 8 39 9 40 10 101 11 41 12
REMARK SMILES IDX 100 13 42 14 43 15 44 16 94 17 45 18 99 19 93 20 95 21 46 22
REMARK SMILES IDX 98 23 92 24 91 25 47 27 79 28 59 29 78 30 60 31 63 32 77 33
REMARK SMILES IDX 96 34 61 35 62 36 76 38 97 39 64 40 48 41 49 42 57 43 50 44
REMARK SMILES IDX 51 45 55 46 58 47 52 48 53 49 56 50 54 51 80 52 81 53 89 54
REMARK SMILES IDX 82 55 83 56 87 57 90 58 84 59 85 60 88 61 86 62 65 63 66 64
REMARK SMILES IDX 74 65 67 66 68 67 72 68 75 69 69 70 70 71 73 72 71 73 9 74
REMARK SMILES IDX 10 75 11 76 12 77 13 78 14 79 15 80 29 81 30 82 34 83 31 84
REMARK SMILES IDX 33 85 32 86 35 87 36 88 37 89 38 90 16 91 17 92 18 94 19 95
REMARK SMILES IDX 20 96 28 97 21 98 23 99 22 100 24 101 25 102 26 103 27 104
REMARK H PARENT 95 26 63 37 16 93
REMARK Flexibility Score: inf
ROOT
ATOM      1  C   UNL     1       5.706   7.777   5.213  1.00  0.00     0.188 C 
ENDROOT
BRANCH   1   2
ATOM      2  C   UNL     1       5.870   8.548   3.899  1.00  0.00     0.188 C 
BRANCH   2   3
ATOM      3  O   UNL     1       7.180   8.891   3.445  1.00  0.00    -0.376 OA
BRANCH   3   4
ATOM      4  C   UNL     1       7.221  10.242   2.943  1.00  0.00     0.202 C 
BRANCH   4   5
ATOM      5  C   UNL     1       6.395  10.544   1.664  1.00  0.00     0.261 C 
BRANCH   5   6
ATOM      6  O   UNL     1       5.300   9.637   1.447  1.00  0.00    -0.460 OA
BRANCH   6   7
ATOM      7  C   UNL     1       5.192   8.834   0.359  1.00  0.00     0.338 C 
ATOM      8  O   UNL     1       4.120   8.741  -0.230  1.00  0.00    -0.246 OA
BRANCH   7   9
ATOM      9  C   UNL     1       6.292   7.867   0.047  1.00  0.00     0.060 A 
ATOM     10  C   UNL     1       7.593   7.963   0.540  1.00  0.00     0.016 A 
ATOM     11  C   UNL     1       5.984   6.774  -0.781  1.00  0.00     0.016 A 
ATOM     12  C   UNL     1       8.571   7.033   0.223  1.00  0.00     0.010 A 
ATOM     13  C   UNL     1       6.960   5.819  -1.095  1.00  0.00     0.010 A 
ATOM     14  C   UNL     1       8.268   5.964  -0.612  1.00  0.00    -0.014 A 
BRANCH  14  15
ATOM     15  C   UNL     1       9.403   5.209  -1.180  1.00  0.00     0.031 A 
ATOM     16  C   UNL     1       9.763   5.509  -2.604  1.00  0.00     0.074 A 
ATOM     17  C   UNL     1      10.184   4.430  -0.408  1.00  0.00     0.049 A 
ATOM     18  N   UNL     1      10.720   5.022  -3.344  1.00  0.00    -0.248 NA
ATOM     19  C   UNL     1       8.928   6.515  -3.287  1.00  0.00     0.031 C 
ATOM     20  C   UNL     1       9.977   4.178   1.016  1.00  0.00     0.029 A 
ATOM     21  N   UNL     1      11.325   3.731  -0.704  1.00  0.00    -0.354 N 
ATOM     22  C   UNL     1      10.585   5.648  -4.575  1.00  0.00     0.074 A 
ATOM     23  C   UNL     1       9.423   6.499  -4.510  1.00  0.00     0.031 C 
ATOM     24  C   UNL     1      10.958   3.381   1.474  1.00  0.00     0.029 A 
ATOM     25  C   UNL     1      11.839   3.035   0.364  1.00  0.00     0.049 A 
ATOM     26  H   UNL     1      11.738   3.727  -1.598  1.00  0.00     0.167 HD
ATOM     27  C   UNL     1      11.386   5.547  -5.658  1.00  0.00     0.037 A 
ATOM     28  C   UNL     1      12.893   2.198   0.418  1.00  0.00     0.037 A 
ATOM     29  C   UNL     1      12.547   4.708  -5.694  1.00  0.00     0.049 A 
ATOM     30  C   UNL     1      13.701   2.005  -0.842  1.00  0.00     0.074 A 
ATOM     31  C   UNL     1      13.416   4.478  -6.741  1.00  0.00     0.029 A 
ATOM     32  N   UNL     1      12.997   3.956  -4.615  1.00  0.00    -0.354 N 
ATOM     33  N   UNL     1      13.556   2.579  -2.014  1.00  0.00    -0.248 NA
ATOM     34  C   UNL     1      14.823   1.061  -0.773  1.00  0.00     0.031 C 
ATOM     35  C   UNL     1      14.366   3.546  -6.310  1.00  0.00     0.029 A 
ATOM     36  C   UNL     1      14.125   3.244  -4.976  1.00  0.00     0.049 A 
ATOM     37  H   UNL     1      12.575   3.934  -3.726  1.00  0.00     0.167 HD
ATOM     38  C   UNL     1      14.585   2.097  -2.809  1.00  0.00     0.074 A 
ATOM     39  C   UNL     1      15.357   1.193  -1.978  1.00  0.00     0.031 C 
ATOM     40  C   UNL     1      14.873   2.372  -4.106  1.00  0.00     0.037 A 
BRANCH  27  41
ATOM     41  C   UNL     1      10.979   6.330  -6.870  1.00  0.00     0.064 A 
ATOM     42  C   UNL     1      11.021   7.735  -6.894  1.00  0.00     0.173 A 
ATOM     43  C   UNL     1      10.460   5.670  -7.992  1.00  0.00     0.173 A 
ATOM     44  F   UNL     1      11.471   8.416  -5.829  1.00  0.00    -0.203 F 
ATOM     45  C   UNL     1      10.513   8.447  -7.977  1.00  0.00     0.198 A 
ATOM     46  C   UNL     1       9.986   6.386  -9.088  1.00  0.00     0.198 A 
ATOM     47  F   UNL     1      10.386   4.331  -8.015  1.00  0.00    -0.203 F 
ATOM     48  F   UNL     1      10.480   9.787  -7.939  1.00  0.00    -0.200 F 
ATOM     49  C   UNL     1       9.999   7.773  -9.074  1.00  0.00     0.200 A 
ATOM     50  F   UNL     1       9.492   5.733 -10.149  1.00  0.00    -0.200 F 
ATOM     51  F   UNL     1       9.496   8.460 -10.109  1.00  0.00    -0.200 F 
ENDBRANCH  27  41
BRANCH  28  52
ATOM     52  C   UNL     1      13.237   1.477   1.676  1.00  0.00     0.064 A 
ATOM     53  C   UNL     1      14.451   1.704   2.341  1.00  0.00     0.173 A 
ATOM     54  C   UNL     1      12.376   0.510   2.220  1.00  0.00     0.173 A 
ATOM     55  F   UNL     1      15.321   2.603   1.858  1.00  0.00    -0.203 F 
ATOM     56  C   UNL     1      14.803   0.974   3.477  1.00  0.00     0.198 A 
ATOM     57  C   UNL     1      12.715  -0.198   3.373  1.00  0.00     0.198 A 
ATOM     58  F   UNL     1      11.202   0.247   1.629  1.00  0.00    -0.203 F 
ATOM     59  F   UNL     1      15.995   1.173   4.056  1.00  0.00    -0.200 F 
ATOM     60  C   UNL     1      13.933   0.026   3.994  1.00  0.00     0.200 A 
ATOM     61  F   UNL     1      11.865  -1.105   3.875  1.00  0.00    -0.200 F 
ATOM     62  F   UNL     1      14.275  -0.680   5.081  1.00  0.00    -0.200 F 
ENDBRANCH  28  52
BRANCH  40  63
ATOM     63  C   UNL     1      16.099   1.730  -4.684  1.00  0.00     0.064 A 
ATOM     64  C   UNL     1      16.150   0.359  -4.969  1.00  0.00     0.173 A 
ATOM     65  C   UNL     1      17.212   2.518  -5.016  1.00  0.00     0.173 A 
ATOM     66  F   UNL     1      15.114  -0.435  -4.657  1.00  0.00    -0.203 F 
ATOM     67  C   UNL     1      17.283  -0.206  -5.545  1.00  0.00     0.198 A 
ATOM     68  C   UNL     1      18.327   1.956  -5.626  1.00  0.00     0.198 A 
ATOM     69  F   UNL     1      17.206   3.837  -4.771  1.00  0.00    -0.203 F 
ATOM     70  F   UNL     1      17.331  -1.527  -5.765  1.00  0.00    -0.200 F 
ATOM     71  C   UNL     1      18.365   0.594  -5.883  1.00  0.00     0.200 A 
ATOM     72  F   UNL     1      19.363   2.733  -5.971  1.00  0.00    -0.200 F 
ATOM     73  F   UNL     1      19.448   0.049  -6.453  1.00  0.00    -0.200 F 
ENDBRANCH  40  63
ENDBRANCH  14  15
ENDBRANCH   7   9
ENDBRANCH   6   7
ENDBRANCH   5   6
ENDBRANCH   4   5
ENDBRANCH   3   4
ENDBRANCH   2   3
ENDBRANCH   1   2
BRANCH   1  74
ATOM     74  O   UNL     1       6.321   8.329   6.365  1.00  0.00    -0.376 OA
BRANCH  74  75
ATOM     75  C   UNL     1       7.717   8.576   6.261  1.00  0.00     0.202 C 
BRANCH  75  76
ATOM     76  C   UNL     1       8.627   7.356   6.008  1.00  0.00     0.261 C 
BRANCH  76  77
ATOM     77  O   UNL     1       8.161   6.464   4.968  1.00  0.00    -0.461 OA
BRANCH  77  78
ATOM     78  C   UNL     1       8.001   5.144   5.311  1.00  0.00     0.333 C 
ATOM     79  O   UNL     1       8.467   4.651   6.332  1.00  0.00    -0.249 OA
BRANCH  78  80
ATOM     80  C   UNL     1       7.247   4.325   4.198  1.00  0.00     0.224 C 
BRANCH  80  81
ATOM     81  C   UNL     1       6.386   3.163   4.718  1.00  0.00    -0.002 A 
ATOM     82  C   UNL     1       5.740   3.283   5.972  1.00  0.00     0.007 A 
ATOM     83  C   UNL     1       6.066   2.032   3.912  1.00  0.00     0.061 A 
ATOM     84  C   UNL     1       4.722   2.405   6.360  1.00  0.00     0.000 A 
ATOM     85  C   UNL     1       5.021   1.171   4.323  1.00  0.00     0.013 A 
ATOM     86  C   UNL     1       4.339   1.370   5.520  1.00  0.00     0.001 A 
BRANCH  83  87
ATOM     87  C   UNL     1       6.722   1.668   2.589  1.00  0.00     0.416 C 
ATOM     88  F   UNL     1       7.119   0.363   2.571  1.00  0.00    -0.166 F 
ATOM     89  F   UNL     1       5.869   1.802   1.539  1.00  0.00    -0.166 F 
ATOM     90  F   UNL     1       7.834   2.381   2.287  1.00  0.00    -0.166 F 
ENDBRANCH  83  87
ENDBRANCH  80  81
BRANCH  80  91
ATOM     91  N   UNL     1       6.508   5.219   3.243  1.00  0.00    -0.339 N 
ATOM     92  C   UNL     1       5.593   4.815   2.310  1.00  0.00     0.226 C 
ATOM     93  H   UNL     1       6.699   6.183   3.293  1.00  0.00     0.164 HD
ATOM     94  O   UNL     1       6.005   4.491   1.200  1.00  0.00    -0.275 OA
BRANCH  92  95
ATOM     95  C   UNL     1       4.086   4.836   2.593  1.00  0.00     0.107 C 
ATOM     96  C   UNL     1       3.700   4.634   4.041  1.00  0.00     0.115 C 
ATOM     97  C   UNL     1       3.328   6.105   2.188  1.00  0.00     0.133 C 
ATOM     98  C   UNL     1       2.455   5.416   4.271  1.00  0.00     0.223 C 
ATOM     99  N   UNL     1       2.285   6.251   3.192  1.00  0.00    -0.342 N 
ATOM    100  O   UNL     1       1.761   5.330   5.265  1.00  0.00    -0.275 OA
BRANCH  99 101
ATOM    101  C   UNL     1       1.134   7.130   3.083  1.00  0.00     0.123 C 
BRANCH 101 102
ATOM    102  C   UNL     1       1.275   8.416   3.849  1.00  0.00     0.008 C 
ATOM    103  C   UNL     1       2.595   9.095   4.060  1.00  0.00     0.006 C 
ATOM    104  C   UNL     1       1.617   9.691   3.105  1.00  0.00     0.006 C 
ENDBRANCH 101 102
ENDBRANCH  99 101
ENDBRANCH  92  95
ENDBRANCH  80  91
ENDBRANCH  78  80
ENDBRANCH  77  78
ENDBRANCH  76  77
ENDBRANCH  75  76
ENDBRANCH  74  75
ENDBRANCH   1  74
TORSDOF 23
