REMARK SMILES CC[C@@H](C)[C@@H](NC(N)=O)C(=O)N1CCC[C@H](C(=O)OCCOCCOCCOC(=O)c2ccc(-c3c4nc(c(-c5c(F)c(F)c(F)c(F)c5F)c5ccc([nH]5)c(-c5c(F)c(F)c(F)c(F)c5F)c5nc(c(-c6c(F)c(F)c(F)c(F)c6F)c6ccc3[nH]6)C=C5)C=C4)cc2)C1
REMARK SMILES IDX 23 1 22 2 21 3 20 4 19 5 17 6 18 7 16 8 12 9 13 10 94 11
REMARK SMILES IDX 14 12 15 13 10 14 11 15 5 16 3 17 4 18 2 19 1 20 6 21 7 22
REMARK SMILES IDX 8 24 9 25 24 28 25 29 26 30 27 31 28 32 29 33 30 34 31 35
REMARK SMILES IDX 32 36 93 37 33 38 92 39 34 40 35 41 36 42 86 43 37 44 91 45
REMARK SMILES IDX 85 46 87 47 38 48 90 49 84 50 83 51 39 53 71 54 51 55 70 56
REMARK SMILES IDX 52 57 55 58 69 59 88 60 53 61 54 62 68 64 89 65 56 66 40 67
REMARK SMILES IDX 41 68 49 69 42 70 43 71 47 72 50 73 44 74 45 75 48 76 46 77
REMARK SMILES IDX 72 78 73 79 81 80 74 81 75 82 79 83 82 84 76 85 77 86 80 87
REMARK SMILES IDX 78 88 57 89 58 90 66 91 59 92 60 93 64 94 67 95 61 96 62 97
REMARK SMILES IDX 65 98 63 99
REMARK H PARENT 6 23 8 26 8 27 87 52 55 63
REMARK Flexibility Score: inf
ROOT
ATOM      1  C   UNL     1       3.408   6.143   4.146  1.00  0.00     0.188 C 
ENDROOT
BRANCH   1   2
ATOM      2  O   UNL     1       2.068   6.606   4.151  1.00  0.00    -0.376 OA
BRANCH   2   3
ATOM      3  C   UNL     1       1.062   5.753   4.697  1.00  0.00     0.202 C 
BRANCH   3   4
ATOM      4  C   UNL     1       1.044   4.267   4.298  1.00  0.00     0.261 C 
BRANCH   4   5
ATOM      5  O   UNL     1       2.157   3.460   4.764  1.00  0.00    -0.463 OA
BRANCH   5   6
ATOM      6  C   UNL     1       2.909   2.801   3.847  1.00  0.00     0.310 C 
ATOM      7  O   UNL     1       2.758   2.910   2.632  1.00  0.00    -0.252 OA
BRANCH   6   8
ATOM      8  C   UNL     1       3.968   1.847   4.422  1.00  0.00     0.119 C 
ATOM      9  N   UNL     1       2.353   0.274   5.295  1.00  0.00    -0.340 N 
ATOM     10  C   UNL     1       2.751   0.428   6.688  1.00  0.00     0.119 C 
ATOM     11  C   UNL     1       3.425   0.422   4.323  1.00  0.00     0.134 C 
ATOM     12  C   UNL     1       3.490   1.738   6.939  1.00  0.00     0.022 C 
ATOM     13  C   UNL     1       4.521   2.025   5.848  1.00  0.00     0.019 C 
BRANCH   9  14
ATOM     14  C   UNL     1       0.998   0.314   4.969  1.00  0.00     0.245 C 
ATOM     15  O   UNL     1       0.218   1.050   5.582  1.00  0.00    -0.272 OA
BRANCH  14  16
ATOM     16  C   UNL     1       0.496  -0.557   3.767  1.00  0.00     0.176 C 
BRANCH  16  17
ATOM     17  C   UNL     1       0.589   0.159   2.384  1.00  0.00     0.018 C 
ATOM     18  C   UNL     1      -0.199   1.474   2.363  1.00  0.00     0.010 C 
BRANCH  17  19
ATOM     19  C   UNL     1       0.131  -0.723   1.198  1.00  0.00     0.002 C 
ATOM     20  C   UNL     1       0.633  -0.188  -0.142  1.00  0.00     0.004 C 
ENDBRANCH  17  19
ENDBRANCH  16  17
BRANCH  16  21
ATOM     21  N   UNL     1       1.243  -1.827   3.801  1.00  0.00    -0.326 N 
ATOM     22  C   UNL     1       1.263  -2.601   4.927  1.00  0.00     0.312 C 
ATOM     23  H   UNL     1       1.734  -2.123   3.001  1.00  0.00     0.166 HD
ATOM     24  N   UNL     1       2.010  -3.719   4.787  1.00  0.00    -0.352 N 
ATOM     25  O   UNL     1       0.737  -2.330   5.995  1.00  0.00    -0.249 OA
ATOM     26  H   UNL     1       2.429  -3.926   3.920  1.00  0.00     0.161 HD
ATOM     27  H   UNL     1       2.136  -4.326   5.552  1.00  0.00     0.161 HD
ENDBRANCH  16  21
ENDBRANCH  14  16
ENDBRANCH   9  14
ENDBRANCH   6   8
ENDBRANCH   5   6
ENDBRANCH   4   5
ENDBRANCH   3   4
ENDBRANCH   2   3
ENDBRANCH   1   2
BRANCH   1  28
ATOM     28  C   UNL     1       3.953   5.512   5.426  1.00  0.00     0.188 C 
BRANCH  28  29
ATOM     29  O   UNL     1       3.069   5.456   6.514  1.00  0.00    -0.376 OA
BRANCH  29  30
ATOM     30  C   UNL     1       3.229   6.323   7.621  1.00  0.00     0.202 C 
BRANCH  30  31
ATOM     31  C   UNL     1       3.778   7.755   7.482  1.00  0.00     0.261 C 
BRANCH  31  32
ATOM     32  O   UNL     1       4.810   7.983   6.511  1.00  0.00    -0.460 OA
BRANCH  32  33
ATOM     33  C   UNL     1       6.051   7.516   6.785  1.00  0.00     0.338 C 
ATOM     34  O   UNL     1       6.418   6.956   7.805  1.00  0.00    -0.246 OA
BRANCH  33  35
ATOM     35  C   UNL     1       6.809   7.541   5.508  1.00  0.00     0.060 A 
ATOM     36  C   UNL     1       7.348   6.340   5.014  1.00  0.00     0.016 A 
ATOM     37  C   UNL     1       6.909   8.714   4.758  1.00  0.00     0.016 A 
ATOM     38  C   UNL     1       8.004   6.315   3.782  1.00  0.00     0.010 A 
ATOM     39  C   UNL     1       7.595   8.695   3.540  1.00  0.00     0.010 A 
ATOM     40  C   UNL     1       8.171   7.503   3.061  1.00  0.00    -0.014 A 
BRANCH  40  41
ATOM     41  C   UNL     1       9.139   7.563   1.937  1.00  0.00     0.031 A 
ATOM     42  C   UNL     1      10.520   8.079   2.232  1.00  0.00     0.074 A 
ATOM     43  C   UNL     1       8.816   7.182   0.689  1.00  0.00     0.049 A 
ATOM     44  N   UNL     1      11.511   8.330   1.416  1.00  0.00    -0.248 NA
ATOM     45  C   UNL     1      10.817   8.356   3.647  1.00  0.00     0.031 C 
ATOM     46  C   UNL     1       7.533   6.619   0.278  1.00  0.00     0.029 A 
ATOM     47  N   UNL     1       9.551   7.236  -0.471  1.00  0.00    -0.354 N 
ATOM     48  C   UNL     1      12.539   8.813   2.216  1.00  0.00     0.074 A 
ATOM     49  C   UNL     1      12.044   8.845   3.574  1.00  0.00     0.031 C 
ATOM     50  C   UNL     1       7.562   6.399  -1.049  1.00  0.00     0.029 A 
ATOM     51  C   UNL     1       8.849   6.844  -1.585  1.00  0.00     0.049 A 
ATOM     52  H   UNL     1      10.491   7.527  -0.501  1.00  0.00     0.167 HD
ATOM     53  C   UNL     1      13.786   9.193   1.851  1.00  0.00     0.037 A 
ATOM     54  C   UNL     1       9.197   6.874  -2.887  1.00  0.00     0.037 A 
ATOM     55  C   UNL     1      14.276   9.165   0.499  1.00  0.00     0.049 A 
ATOM     56  C   UNL     1      10.564   7.378  -3.283  1.00  0.00     0.074 A 
ATOM     57  C   UNL     1      15.532   9.507   0.030  1.00  0.00     0.029 A 
ATOM     58  N   UNL     1      13.526   8.787  -0.606  1.00  0.00    -0.354 N 
ATOM     59  N   UNL     1      11.542   7.810  -2.523  1.00  0.00    -0.248 NA
ATOM     60  C   UNL     1      10.874   7.399  -4.720  1.00  0.00     0.031 C 
ATOM     61  C   UNL     1      15.522   9.400  -1.364  1.00  0.00     0.029 A 
ATOM     62  C   UNL     1      14.283   8.920  -1.758  1.00  0.00     0.049 A 
ATOM     63  H   UNL     1      12.594   8.470  -0.575  1.00  0.00     0.167 HD
ATOM     64  C   UNL     1      12.590   8.121  -3.383  1.00  0.00     0.074 A 
ATOM     65  C   UNL     1      12.132   7.818  -4.722  1.00  0.00     0.031 C 
ATOM     66  C   UNL     1      13.821   8.609  -3.088  1.00  0.00     0.037 A 
BRANCH  53  67
ATOM     67  C   UNL     1      14.691   9.714   2.929  1.00  0.00     0.064 A 
ATOM     68  C   UNL     1      15.201   8.884   3.939  1.00  0.00     0.173 A 
ATOM     69  C   UNL     1      15.064  11.067   2.944  1.00  0.00     0.173 A 
ATOM     70  F   UNL     1      14.862   7.586   3.981  1.00  0.00    -0.203 F 
ATOM     71  C   UNL     1      16.020   9.395   4.942  1.00  0.00     0.198 A 
ATOM     72  C   UNL     1      15.913  11.567   3.927  1.00  0.00     0.198 A 
ATOM     73  F   UNL     1      14.607  11.905   2.001  1.00  0.00    -0.203 F 
ATOM     74  F   UNL     1      16.445   8.596   5.930  1.00  0.00    -0.200 F 
ATOM     75  C   UNL     1      16.382  10.734   4.931  1.00  0.00     0.200 A 
ATOM     76  F   UNL     1      16.272  12.858   3.905  1.00  0.00    -0.200 F 
ATOM     77  F   UNL     1      17.175  11.224   5.893  1.00  0.00    -0.200 F 
ENDBRANCH  53  67
BRANCH  54  78
ATOM     78  C   UNL     1       8.226   6.431  -3.925  1.00  0.00     0.064 A 
ATOM     79  C   UNL     1       8.455   5.277  -4.686  1.00  0.00     0.173 A 
ATOM     80  C   UNL     1       7.060   7.165  -4.190  1.00  0.00     0.173 A 
ATOM     81  F   UNL     1       9.571   4.559  -4.494  1.00  0.00    -0.203 F 
ATOM     82  C   UNL     1       7.563   4.881  -5.682  1.00  0.00     0.198 A 
ATOM     83  C   UNL     1       6.153   6.751  -5.163  1.00  0.00     0.198 A 
ATOM     84  F   UNL     1       6.797   8.282  -3.496  1.00  0.00    -0.203 F 
ATOM     85  F   UNL     1       7.832   3.801  -6.428  1.00  0.00    -0.200 F 
ATOM     86  C   UNL     1       6.409   5.614  -5.914  1.00  0.00     0.200 A 
ATOM     87  F   UNL     1       5.034   7.457  -5.378  1.00  0.00    -0.200 F 
ATOM     88  F   UNL     1       5.549   5.229  -6.867  1.00  0.00    -0.200 F 
ENDBRANCH  54  78
BRANCH  66  89
ATOM     89  C   UNL     1      14.787   8.806  -4.224  1.00  0.00     0.064 A 
ATOM     90  C   UNL     1      14.614   9.818  -5.180  1.00  0.00     0.173 A 
ATOM     91  C   UNL     1      15.935   8.002  -4.324  1.00  0.00     0.173 A 
ATOM     92  F   UNL     1      13.530  10.607  -5.139  1.00  0.00    -0.203 F 
ATOM     93  C   UNL     1      15.539  10.001  -6.206  1.00  0.00     0.198 A 
ATOM     94  C   UNL     1      16.875   8.211  -5.329  1.00  0.00     0.198 A 
ATOM     95  F   UNL     1      16.156   7.026  -3.431  1.00  0.00    -0.203 F 
ATOM     96  F   UNL     1      15.327  10.943  -7.136  1.00  0.00    -0.200 F 
ATOM     97  C   UNL     1      16.672   9.204  -6.274  1.00  0.00     0.200 A 
ATOM     98  F   UNL     1      17.978   7.452  -5.381  1.00  0.00    -0.200 F 
ATOM     99  F   UNL     1      17.567   9.390  -7.255  1.00  0.00    -0.200 F 
ENDBRANCH  66  89
ENDBRANCH  40  41
ENDBRANCH  33  35
ENDBRANCH  32  33
ENDBRANCH  31  32
ENDBRANCH  30  31
ENDBRANCH  29  30
ENDBRANCH  28  29
ENDBRANCH   1  28
TORSDOF 22
