REMARK SMILES CC[N@@H+](C)Cc1cc2c(cc1Cl)C=C(C(=O)OCCOCCOCCOC(=O)c1ccc(-c3c4nc(c(-c5c(F)c(F)c(F)c(F)c5F)c5ccc([nH]5)c(-c5c(F)c(F)c(F)c(F)c5F)c5nc(c(-c6c(F)c(F)c(F)c(F)c6F)c6ccc3[nH]6)C=C5)C=C4)cc1)[C@@H](C(F)(F)F)O2
REMARK SMILES IDX 21 1 20 2 19 3 18 4 17 5 15 6 16 7 14 8 6 9 7 10 11 11 8 12
REMARK SMILES IDX 10 13 12 14 9 15 97 16 13 17 92 18 5 19 3 20 4 21 2 23 1 24
REMARK SMILES IDX 93 25 94 26 95 27 96 28 22 29 23 30 24 31 25 32 26 33 27 34
REMARK SMILES IDX 28 35 29 36 30 37 91 38 31 39 90 40 32 41 33 42 34 43 84 44
REMARK SMILES IDX 35 45 89 46 83 47 85 48 36 49 88 50 82 51 81 52 37 54 69 55
REMARK SMILES IDX 49 56 68 57 50 58 53 59 67 60 86 61 51 62 52 63 66 65 87 66
REMARK SMILES IDX 54 67 38 68 39 69 47 70 40 71 41 72 45 73 48 74 42 75 43 76
REMARK SMILES IDX 46 77 44 78 70 79 71 80 79 81 72 82 73 83 77 84 80 85 74 86
REMARK SMILES IDX 75 87 78 88 76 89 55 90 56 91 64 92 57 93 58 94 62 95 65 96
REMARK SMILES IDX 59 97 60 98 63 99 61 100
REMARK H PARENT 3 22 85 53 53 64
REMARK Flexibility Score: inf
ROOT
ATOM      1  C   UNL     1       4.117   2.076   9.315  1.00  0.00     0.188 C 
ENDROOT
BRANCH   1   2
ATOM      2  O   UNL     1       4.790   2.244  10.539  1.00  0.00    -0.376 OA
BRANCH   2   3
ATOM      3  C   UNL     1       5.920   3.086  10.676  1.00  0.00     0.202 C 
BRANCH   3   4
ATOM      4  C   UNL     1       6.715   3.724   9.524  1.00  0.00     0.261 C 
BRANCH   4   5
ATOM      5  O   UNL     1       6.042   3.872   8.274  1.00  0.00    -0.460 OA
BRANCH   5   6
ATOM      6  C   UNL     1       6.515   3.087   7.277  1.00  0.00     0.338 C 
ATOM      7  O   UNL     1       7.434   2.287   7.348  1.00  0.00    -0.246 OA
BRANCH   6   8
ATOM      8  C   UNL     1       5.642   3.211   6.097  1.00  0.00     0.087 C 
ATOM      9  C   UNL     1       3.138   2.275   1.836  1.00  0.00     0.029 A 
ATOM     10  C   UNL     1       3.405   3.436   2.595  1.00  0.00     0.058 A 
ATOM     11  C   UNL     1       3.542   1.039   2.368  1.00  0.00     0.050 A 
ATOM     12  C   UNL     1       4.084   3.368   3.816  1.00  0.00     0.128 A 
ATOM     13  C   UNL     1       4.190   0.970   3.605  1.00  0.00     0.033 A 
ATOM     14  Cl  UNL     1       3.353  -0.460   1.534  1.00  0.00    -0.084 Cl
ATOM     15  C   UNL     1       4.486   2.133   4.314  1.00  0.00     0.019 A 
ATOM     16  O   UNL     1       4.324   4.553   4.452  1.00  0.00    -0.475 OA
ATOM     17  C   UNL     1       5.271   2.058   5.529  1.00  0.00     0.027 C 
ATOM     18  C   UNL     1       5.233   4.568   5.593  1.00  0.00     0.316 C 
BRANCH   9  19
ATOM     19  C   UNL     1       2.509   2.424   0.460  1.00  0.00     0.300 C 
BRANCH  19  20
ATOM     20  N   UNL     1       1.040   2.483   0.370  1.00  0.00    -0.334 N 
ATOM     21  C   UNL     1       0.464   3.633   1.056  1.00  0.00     0.333 C 
ATOM     22  H   UNL     1       0.875   2.611  -0.628  1.00  0.00     0.348 HD
BRANCH  20  23
ATOM     23  C   UNL     1       0.344   1.241   0.717  1.00  0.00     0.258 C 
ATOM     24  C   UNL     1       0.486   0.171  -0.361  1.00  0.00     0.071 C 
ENDBRANCH  20  23
ENDBRANCH  19  20
ENDBRANCH   9  19
BRANCH  18  25
ATOM     25  C   UNL     1       6.449   5.442   5.254  1.00  0.00     0.430 C 
ATOM     26  F   UNL     1       6.072   6.655   4.786  1.00  0.00    -0.167 F 
ATOM     27  F   UNL     1       7.218   5.667   6.346  1.00  0.00    -0.167 F 
ATOM     28  F   UNL     1       7.238   4.870   4.316  1.00  0.00    -0.167 F 
ENDBRANCH  18  25
ENDBRANCH   6   8
ENDBRANCH   5   6
ENDBRANCH   4   5
ENDBRANCH   3   4
ENDBRANCH   2   3
ENDBRANCH   1   2
BRANCH   1  29
ATOM     29  C   UNL     1       3.197   3.204   8.800  1.00  0.00     0.188 C 
BRANCH  29  30
ATOM     30  O   UNL     1       3.065   4.409   9.531  1.00  0.00    -0.376 OA
BRANCH  30  31
ATOM     31  C   UNL     1       2.673   4.343  10.898  1.00  0.00     0.202 C 
BRANCH  31  32
ATOM     32  C   UNL     1       1.402   3.576  11.285  1.00  0.00     0.261 C 
BRANCH  32  33
ATOM     33  O   UNL     1       1.437   2.188  10.915  1.00  0.00    -0.460 OA
BRANCH  33  34
ATOM     34  C   UNL     1       0.469   1.787  10.054  1.00  0.00     0.338 C 
ATOM     35  O   UNL     1      -0.440   2.455   9.590  1.00  0.00    -0.246 OA
BRANCH  34  36
ATOM     36  C   UNL     1       0.794   0.431   9.573  1.00  0.00     0.060 A 
ATOM     37  C   UNL     1       0.933  -0.634  10.464  1.00  0.00     0.016 A 
ATOM     38  C   UNL     1       0.959   0.234   8.195  1.00  0.00     0.016 A 
ATOM     39  C   UNL     1       1.216  -1.909   9.967  1.00  0.00     0.010 A 
ATOM     40  C   UNL     1       1.264  -1.034   7.702  1.00  0.00     0.010 A 
ATOM     41  C   UNL     1       1.373  -2.118   8.585  1.00  0.00    -0.014 A 
BRANCH  41  42
ATOM     42  C   UNL     1       1.485  -3.498   8.055  1.00  0.00     0.031 A 
ATOM     43  C   UNL     1       2.806  -4.111   7.714  1.00  0.00     0.074 A 
ATOM     44  C   UNL     1       0.348  -4.198   7.884  1.00  0.00     0.049 A 
ATOM     45  N   UNL     1       3.067  -5.335   7.327  1.00  0.00    -0.248 NA
ATOM     46  C   UNL     1       3.988  -3.244   7.814  1.00  0.00     0.031 C 
ATOM     47  C   UNL     1      -0.996  -3.688   8.157  1.00  0.00     0.029 A 
ATOM     48  N   UNL     1       0.140  -5.481   7.450  1.00  0.00    -0.354 N 
ATOM     49  C   UNL     1       4.443  -5.398   7.167  1.00  0.00     0.074 A 
ATOM     50  C   UNL     1       4.959  -4.073   7.449  1.00  0.00     0.031 C 
ATOM     51  C   UNL     1      -1.889  -4.656   7.905  1.00  0.00     0.029 A 
ATOM     52  C   UNL     1      -1.183  -5.846   7.439  1.00  0.00     0.049 A 
ATOM     53  H   UNL     1       0.869  -6.083   7.173  1.00  0.00     0.167 HD
ATOM     54  C   UNL     1       5.200  -6.472   6.835  1.00  0.00     0.037 A 
ATOM     55  C   UNL     1      -1.763  -7.013   7.103  1.00  0.00     0.037 A 
ATOM     56  C   UNL     1       4.674  -7.782   6.535  1.00  0.00     0.049 A 
ATOM     57  C   UNL     1      -0.901  -8.172   6.692  1.00  0.00     0.074 A 
ATOM     58  C   UNL     1       5.369  -8.939   6.224  1.00  0.00     0.029 A 
ATOM     59  N   UNL     1       3.326  -8.107   6.494  1.00  0.00    -0.354 N 
ATOM     60  N   UNL     1       0.406  -8.245   6.620  1.00  0.00    -0.248 NA
ATOM     61  C   UNL     1      -1.594  -9.415   6.328  1.00  0.00     0.031 C 
ATOM     62  C   UNL     1       4.442  -9.948   5.945  1.00  0.00     0.029 A 
ATOM     63  C   UNL     1       3.168  -9.438   6.134  1.00  0.00     0.049 A 
ATOM     64  H   UNL     1       2.589  -7.484   6.691  1.00  0.00     0.167 HD
ATOM     65  C   UNL     1       0.694  -9.543   6.224  1.00  0.00     0.074 A 
ATOM     66  C   UNL     1      -0.575 -10.229   6.088  1.00  0.00     0.031 C 
ATOM     67  C   UNL     1       1.902 -10.112   5.994  1.00  0.00     0.037 A 
BRANCH  54  68
ATOM     68  C   UNL     1       6.690  -6.296   6.791  1.00  0.00     0.064 A 
ATOM     69  C   UNL     1       7.440  -6.160   7.969  1.00  0.00     0.173 A 
ATOM     70  C   UNL     1       7.386  -6.367   5.575  1.00  0.00     0.173 A 
ATOM     71  F   UNL     1       6.822  -6.085   9.158  1.00  0.00    -0.203 F 
ATOM     72  C   UNL     1       8.830  -6.094   7.931  1.00  0.00     0.198 A 
ATOM     73  C   UNL     1       8.778  -6.324   5.542  1.00  0.00     0.198 A 
ATOM     74  F   UNL     1       6.717  -6.507   4.421  1.00  0.00    -0.203 F 
ATOM     75  F   UNL     1       9.524  -5.945   9.067  1.00  0.00    -0.200 F 
ATOM     76  C   UNL     1       9.498  -6.187   6.719  1.00  0.00     0.200 A 
ATOM     77  F   UNL     1       9.423  -6.432   4.372  1.00  0.00    -0.200 F 
ATOM     78  F   UNL     1      10.838  -6.146   6.686  1.00  0.00    -0.200 F 
ENDBRANCH  54  68
BRANCH  55  79
ATOM     79  C   UNL     1      -3.238  -7.144   7.193  1.00  0.00     0.064 A 
ATOM     80  C   UNL     1      -3.828  -7.924   8.196  1.00  0.00     0.173 A 
ATOM     81  C   UNL     1      -4.085  -6.466   6.306  1.00  0.00     0.173 A 
ATOM     82  F   UNL     1      -3.055  -8.604   9.057  1.00  0.00    -0.203 F 
ATOM     83  C   UNL     1      -5.212  -8.028   8.304  1.00  0.00     0.198 A 
ATOM     84  C   UNL     1      -5.470  -6.549   6.430  1.00  0.00     0.198 A 
ATOM     85  F   UNL     1      -3.567  -5.702   5.333  1.00  0.00    -0.203 F 
ATOM     86  F   UNL     1      -5.752  -8.803   9.254  1.00  0.00    -0.200 F 
ATOM     87  C   UNL     1      -6.032  -7.333   7.426  1.00  0.00     0.200 A 
ATOM     88  F   UNL     1      -6.258  -5.864   5.591  1.00  0.00    -0.200 F 
ATOM     89  F   UNL     1      -7.364  -7.422   7.540  1.00  0.00    -0.200 F 
ENDBRANCH  55  79
BRANCH  67  90
ATOM     90  C   UNL     1       1.918 -11.556   5.580  1.00  0.00     0.064 A 
ATOM     91  C   UNL     1       1.494 -11.957   4.305  1.00  0.00     0.173 A 
ATOM     92  C   UNL     1       2.405 -12.542   6.451  1.00  0.00     0.173 A 
ATOM     93  F   UNL     1       1.005 -11.055   3.441  1.00  0.00    -0.203 F 
ATOM     94  C   UNL     1       1.538 -13.296   3.924  1.00  0.00     0.198 A 
ATOM     95  C   UNL     1       2.475 -13.876   6.057  1.00  0.00     0.198 A 
ATOM     96  F   UNL     1       2.828 -12.211   7.680  1.00  0.00    -0.203 F 
ATOM     97  F   UNL     1       1.088 -13.662   2.716  1.00  0.00    -0.200 F 
ATOM     98  C   UNL     1       2.036 -14.253   4.796  1.00  0.00     0.200 A 
ATOM     99  F   UNL     1       2.969 -14.797   6.896  1.00  0.00    -0.200 F 
ATOM    100  F   UNL     1       2.088 -15.539   4.424  1.00  0.00    -0.200 F 
ENDBRANCH  67  90
ENDBRANCH  41  42
ENDBRANCH  34  36
ENDBRANCH  33  34
ENDBRANCH  32  33
ENDBRANCH  31  32
ENDBRANCH  30  31
ENDBRANCH  29  30
ENDBRANCH   1  29
TORSDOF 21
