REMARK SMILES CCc1ccc2c(c1)C=C(C(=O)OCCOCCOCCOC(=O)c1ccc(-c3c4nc(c(-c5c(F)c(F)c(F)c(F)c5F)c5ccc([nH]5)c(-c5c(F)c(F)c(F)c(F)c5F)c5nc(c(-c6c(F)c(F)c(F)c(F)c6F)c6ccc3[nH]6)C=C5)C=C4)cc1)[C@H](C(F)(F)F)O2
REMARK SMILES IDX 18 1 17 2 16 3 15 4 14 5 13 6 11 7 12 8 10 9 3 10 4 11 8 12
REMARK SMILES IDX 5 13 7 14 6 15 9 16 93 17 88 18 2 19 1 20 89 21 90 22 91 23
REMARK SMILES IDX 92 24 19 25 20 26 21 27 22 28 23 29 24 30 25 31 26 32 87 33
REMARK SMILES IDX 27 34 86 35 28 36 29 37 30 38 80 39 31 40 85 41 79 42 81 43
REMARK SMILES IDX 32 44 84 45 78 46 77 47 33 49 65 50 45 51 64 52 46 53 49 54
REMARK SMILES IDX 63 55 82 56 47 57 48 58 62 60 83 61 50 62 34 63 35 64 43 65
REMARK SMILES IDX 36 66 37 67 41 68 44 69 38 70 39 71 42 72 40 73 66 74 67 75
REMARK SMILES IDX 75 76 68 77 69 78 73 79 76 80 70 81 71 82 74 83 72 84 51 85
REMARK SMILES IDX 52 86 60 87 53 88 54 89 58 90 61 91 55 92 56 93 59 94 57 95
REMARK H PARENT 81 48 49 59
REMARK Flexibility Score: inf
ROOT
ATOM      1  C   UNL     1       6.629   5.078  -0.956  1.00  0.00     0.188 C 
ENDROOT
BRANCH   1   2
ATOM      2  C   UNL     1       7.181   6.390  -0.361  1.00  0.00     0.188 C 
BRANCH   2   3
ATOM      3  O   UNL     1       8.556   6.402  -0.072  1.00  0.00    -0.376 OA
BRANCH   3   4
ATOM      4  C   UNL     1       9.038   5.934   1.176  1.00  0.00     0.202 C 
BRANCH   4   5
ATOM      5  C   UNL     1       8.214   5.191   2.248  1.00  0.00     0.261 C 
BRANCH   5   6
ATOM      6  O   UNL     1       6.861   4.846   1.940  1.00  0.00    -0.460 OA
BRANCH   6   7
ATOM      7  C   UNL     1       5.899   5.594   2.535  1.00  0.00     0.338 C 
ATOM      8  O   UNL     1       6.081   6.534   3.287  1.00  0.00    -0.246 OA
BRANCH   7   9
ATOM      9  C   UNL     1       4.567   5.212   2.025  1.00  0.00     0.087 C 
ATOM     10  C   UNL     1       1.044   2.008   1.190  1.00  0.00    -0.047 A 
ATOM     11  C   UNL     1       0.129   3.069   1.132  1.00  0.00     0.007 A 
ATOM     12  C   UNL     1       2.405   2.289   1.409  1.00  0.00     0.015 A 
ATOM     13  C   UNL     1       0.558   4.385   1.293  1.00  0.00     0.047 A 
ATOM     14  C   UNL     1       2.838   3.607   1.595  1.00  0.00     0.018 A 
ATOM     15  C   UNL     1       1.906   4.649   1.516  1.00  0.00     0.128 A 
ATOM     16  C   UNL     1       4.207   3.917   2.006  1.00  0.00     0.027 C 
ATOM     17  O   UNL     1       2.244   5.959   1.736  1.00  0.00    -0.475 OA
ATOM     18  C   UNL     1       3.637   6.275   1.480  1.00  0.00     0.316 C 
BRANCH  10  19
ATOM     19  C   UNL     1       0.552   0.583   1.097  1.00  0.00     0.032 C 
ATOM     20  C   UNL     1       0.998  -0.129  -0.170  1.00  0.00     0.009 C 
ENDBRANCH  10  19
BRANCH  18  21
ATOM     21  C   UNL     1       3.873   7.744   1.871  1.00  0.00     0.430 C 
ATOM     22  F   UNL     1       5.069   8.190   1.417  1.00  0.00    -0.167 F 
ATOM     23  F   UNL     1       2.943   8.540   1.277  1.00  0.00    -0.167 F 
ATOM     24  F   UNL     1       3.798   7.968   3.196  1.00  0.00    -0.167 F 
ENDBRANCH  18  21
ENDBRANCH   7   9
ENDBRANCH   6   7
ENDBRANCH   5   6
ENDBRANCH   4   5
ENDBRANCH   3   4
ENDBRANCH   2   3
ENDBRANCH   1   2
BRANCH   1  25
ATOM     25  O   UNL     1       7.468   3.946  -1.076  1.00  0.00    -0.376 OA
BRANCH  25  26
ATOM     26  C   UNL     1       8.713   4.069  -1.747  1.00  0.00     0.202 C 
BRANCH  26  27
ATOM     27  C   UNL     1       8.881   4.894  -3.040  1.00  0.00     0.261 C 
BRANCH  27  28
ATOM     28  O   UNL     1       8.164   6.136  -3.120  1.00  0.00    -0.460 OA
BRANCH  28  29
ATOM     29  C   UNL     1       7.127   6.159  -3.996  1.00  0.00     0.338 C 
ATOM     30  O   UNL     1       6.740   5.254  -4.710  1.00  0.00    -0.246 OA
BRANCH  29  31
ATOM     31  C   UNL     1       6.383   7.427  -3.842  1.00  0.00     0.060 A 
ATOM     32  C   UNL     1       5.078   7.385  -3.330  1.00  0.00     0.016 A 
ATOM     33  C   UNL     1       6.940   8.636  -4.258  1.00  0.00     0.016 A 
ATOM     34  C   UNL     1       4.321   8.554  -3.239  1.00  0.00     0.010 A 
ATOM     35  C   UNL     1       6.170   9.802  -4.192  1.00  0.00     0.010 A 
ATOM     36  C   UNL     1       4.849   9.764  -3.705  1.00  0.00    -0.014 A 
BRANCH  36  37
ATOM     37  C   UNL     1       3.975  10.958  -3.823  1.00  0.00     0.031 A 
ATOM     38  C   UNL     1       3.398  11.306  -5.168  1.00  0.00     0.074 A 
ATOM     39  C   UNL     1       3.691  11.720  -2.752  1.00  0.00     0.049 A 
ATOM     40  N   UNL     1       2.676  12.338  -5.524  1.00  0.00    -0.248 NA
ATOM     41  C   UNL     1       3.672  10.359  -6.261  1.00  0.00     0.031 C 
ATOM     42  C   UNL     1       4.144  11.463  -1.387  1.00  0.00     0.029 A 
ATOM     43  N   UNL     1       2.957  12.877  -2.652  1.00  0.00    -0.354 N 
ATOM     44  C   UNL     1       2.421  12.172  -6.879  1.00  0.00     0.074 A 
ATOM     45  C   UNL     1       3.084  10.953  -7.289  1.00  0.00     0.031 C 
ATOM     46  C   UNL     1       3.695  12.446  -0.587  1.00  0.00     0.029 A 
ATOM     47  C   UNL     1       2.956  13.420  -1.390  1.00  0.00     0.049 A 
ATOM     48  H   UNL     1       2.478  13.280  -3.412  1.00  0.00     0.167 HD
ATOM     49  C   UNL     1       1.696  12.964  -7.705  1.00  0.00     0.037 A 
ATOM     50  C   UNL     1       2.444  14.585  -0.944  1.00  0.00     0.037 A 
ATOM     51  C   UNL     1       1.035  14.175  -7.295  1.00  0.00     0.049 A 
ATOM     52  C   UNL     1       1.714  15.490  -1.907  1.00  0.00     0.074 A 
ATOM     53  C   UNL     1       0.256  15.031  -8.054  1.00  0.00     0.029 A 
ATOM     54  N   UNL     1       1.083  14.709  -6.016  1.00  0.00    -0.354 N 
ATOM     55  N   UNL     1       1.451  15.313  -3.179  1.00  0.00    -0.248 NA
ATOM     56  C   UNL     1       1.207  16.761  -1.367  1.00  0.00     0.031 C 
ATOM     57  C   UNL     1      -0.113  16.115  -7.253  1.00  0.00     0.029 A 
ATOM     58  C   UNL     1       0.376  15.901  -5.975  1.00  0.00     0.049 A 
ATOM     59  H   UNL     1       1.551  14.303  -5.251  1.00  0.00     0.167 HD
ATOM     60  C   UNL     1       0.718  16.425  -3.579  1.00  0.00     0.074 A 
ATOM     61  C   UNL     1       0.566  17.265  -2.411  1.00  0.00     0.031 C 
ATOM     62  C   UNL     1       0.216  16.723  -4.803  1.00  0.00     0.037 A 
BRANCH  49  63
ATOM     63  C   UNL     1       1.598  12.566  -9.149  1.00  0.00     0.064 A 
ATOM     64  C   UNL     1       0.841  11.460  -9.563  1.00  0.00     0.173 A 
ATOM     65  C   UNL     1       2.219  13.344 -10.139  1.00  0.00     0.173 A 
ATOM     66  F   UNL     1       0.237  10.677  -8.656  1.00  0.00    -0.203 F 
ATOM     67  C   UNL     1       0.724  11.138 -10.913  1.00  0.00     0.198 A 
ATOM     68  C   UNL     1       2.074  13.037 -11.489  1.00  0.00     0.198 A 
ATOM     69  F   UNL     1       2.951  14.415  -9.798  1.00  0.00    -0.203 F 
ATOM     70  F   UNL     1       0.026  10.055 -11.283  1.00  0.00    -0.200 F 
ATOM     71  C   UNL     1       1.331  11.932 -11.875  1.00  0.00     0.200 A 
ATOM     72  F   UNL     1       2.648  13.815 -12.417  1.00  0.00    -0.200 F 
ATOM     73  F   UNL     1       1.202  11.630 -13.174  1.00  0.00    -0.200 F 
ENDBRANCH  49  63
BRANCH  50  74
ATOM     74  C   UNL     1       2.622  14.989   0.477  1.00  0.00     0.064 A 
ATOM     75  C   UNL     1       1.521  15.120   1.337  1.00  0.00     0.173 A 
ATOM     76  C   UNL     1       3.888  15.309   0.990  1.00  0.00     0.173 A 
ATOM     77  F   UNL     1       0.285  14.858   0.886  1.00  0.00    -0.203 F 
ATOM     78  C   UNL     1       1.676  15.586   2.641  1.00  0.00     0.198 A 
ATOM     79  C   UNL     1       4.046  15.740   2.306  1.00  0.00     0.198 A 
ATOM     80  F   UNL     1       4.974  15.210   0.210  1.00  0.00    -0.203 F 
ATOM     81  F   UNL     1       0.598  15.770   3.416  1.00  0.00    -0.200 F 
ATOM     82  C   UNL     1       2.938  15.891   3.126  1.00  0.00     0.200 A 
ATOM     83  F   UNL     1       5.269  16.027   2.772  1.00  0.00    -0.200 F 
ATOM     84  F   UNL     1       3.086  16.348   4.377  1.00  0.00    -0.200 F 
ENDBRANCH  50  74
BRANCH  62  85
ATOM     85  C   UNL     1      -0.592  17.984  -4.936  1.00  0.00     0.064 A 
ATOM     86  C   UNL     1      -0.004  19.255  -4.854  1.00  0.00     0.173 A 
ATOM     87  C   UNL     1      -1.971  17.917  -5.194  1.00  0.00     0.173 A 
ATOM     88  F   UNL     1       1.307  19.377  -4.599  1.00  0.00    -0.203 F 
ATOM     89  C   UNL     1      -0.771  20.410  -4.993  1.00  0.00     0.198 A 
ATOM     90  C   UNL     1      -2.727  19.072  -5.368  1.00  0.00     0.198 A 
ATOM     91  F   UNL     1      -2.584  16.727  -5.293  1.00  0.00    -0.203 F 
ATOM     92  F   UNL     1      -0.196  21.613  -4.856  1.00  0.00    -0.200 F 
ATOM     93  C   UNL     1      -2.129  20.318  -5.258  1.00  0.00     0.200 A 
ATOM     94  F   UNL     1      -4.036  18.980  -5.643  1.00  0.00    -0.200 F 
ATOM     95  F   UNL     1      -2.862  21.430  -5.401  1.00  0.00    -0.200 F 
ENDBRANCH  62  85
ENDBRANCH  36  37
ENDBRANCH  29  31
ENDBRANCH  28  29
ENDBRANCH  27  28
ENDBRANCH  26  27
ENDBRANCH  25  26
ENDBRANCH   1  25
TORSDOF 19
