REMARK SMILES CC(=O)Nc1cnc(N2CC=C(c3ccccc3C)CC2)c(C(=O)OCCOCCOCCOC(=O)c2ccc(-c3c4nc(c(-c5c(F)c(F)c(F)c(F)c5F)c5ccc([nH]5)c(-c5c(F)c(F)c(F)c(F)c5F)c5nc(c(-c6c(F)c(F)c(F)c(F)c6F)c6ccc3[nH]6)C=C5)C=C4)cc2)c1
REMARK SMILES IDX 29 1 28 2 27 3 26 4 25 5 23 6 24 7 22 8 5 9 6 10 100 11 7 12
REMARK SMILES IDX 8 13 4 14 1 15 2 16 3 17 9 19 10 20 21 21 11 22 20 23 12 24
REMARK SMILES IDX 13 25 14 26 18 27 15 28 17 29 19 30 16 31 30 32 31 33 32 34
REMARK SMILES IDX 33 35 34 36 35 37 36 38 37 39 38 40 99 41 39 42 98 43 40 44
REMARK SMILES IDX 41 45 42 46 92 47 43 48 97 49 91 50 93 51 44 52 96 53 90 54
REMARK SMILES IDX 89 55 45 57 77 58 57 59 76 60 58 61 61 62 75 63 94 64 59 65
REMARK SMILES IDX 60 66 74 68 95 69 62 70 46 71 47 72 55 73 48 74 49 75 53 76
REMARK SMILES IDX 56 77 50 78 51 79 54 80 52 81 78 82 79 83 87 84 80 85 81 86
REMARK SMILES IDX 85 87 88 88 82 89 83 90 86 91 84 92 63 93 64 94 72 95 65 96
REMARK SMILES IDX 66 97 70 98 73 99 67 100 68 101 71 102 69 103
REMARK H PARENT 4 18 93 56 61 67
REMARK Flexibility Score: inf
ROOT
ATOM      1  C   UNL     1       8.943  -0.041   0.936  1.00  0.00     0.188 C 
ENDROOT
BRANCH   1   2
ATOM      2  O   UNL     1       7.534  -0.067   0.770  1.00  0.00    -0.376 OA
BRANCH   2   3
ATOM      3  C   UNL     1       6.809   0.091  -0.429  1.00  0.00     0.202 C 
BRANCH   3   4
ATOM      4  C   UNL     1       5.142   0.554  -0.359  1.00  0.00     0.261 C 
BRANCH   4   5
ATOM      5  O   UNL     1       3.807   0.142   0.650  1.00  0.00    -0.460 OA
BRANCH   5   6
ATOM      6  C   UNL     1       3.390   0.023   2.042  1.00  0.00     0.342 C 
ATOM      7  O   UNL     1       3.488  -0.964   2.764  1.00  0.00    -0.246 OA
BRANCH   6   8
ATOM      8  C   UNL     1       2.504   1.000   2.706  1.00  0.00     0.104 A 
ATOM      9  C   UNL     1       0.443   2.132   2.286  1.00  0.00     0.060 A 
ATOM     10  C   UNL     1       0.342   2.328   3.656  1.00  0.00     0.139 A 
ATOM     11  C   UNL     1       1.583   1.524   1.814  1.00  0.00     0.047 A 
ATOM     12  N   UNL     1       1.243   1.874   4.566  1.00  0.00    -0.236 NA
ATOM     13  C   UNL     1       2.317   1.164   4.130  1.00  0.00     0.143 A 
BRANCH   9  14
ATOM     14  N   UNL     1      -0.555   2.551   1.399  1.00  0.00    -0.325 N 
ATOM     15  C   UNL     1      -0.487   0.593  -0.157  1.00  0.00     0.114 C 
ATOM     16  C   UNL     1      -0.868   2.026   0.169  1.00  0.00     0.221 C 
ATOM     17  O   UNL     1      -1.511   2.706  -0.631  1.00  0.00    -0.275 OA
ATOM     18  H   UNL     1      -1.101   3.316   1.693  1.00  0.00     0.169 HD
ENDBRANCH   9  14
BRANCH  13  19
ATOM     19  N   UNL     1       3.174   0.749   5.151  1.00  0.00    -0.352 N 
ATOM     20  C   UNL     1       2.748  -0.280   6.118  1.00  0.00     0.146 C 
ATOM     21  C   UNL     1       4.228   1.663   5.575  1.00  0.00     0.123 C 
ATOM     22  C   UNL     1       3.402  -0.164   7.506  1.00  0.00    -0.002 C 
ATOM     23  C   UNL     1       4.132   2.094   7.051  1.00  0.00     0.057 C 
ATOM     24  C   UNL     1       4.062   0.914   7.990  1.00  0.00    -0.041 C 
BRANCH  24  25
ATOM     25  C   UNL     1       4.774   0.972   9.329  1.00  0.00    -0.020 A 
ATOM     26  C   UNL     1       5.419  -0.192   9.814  1.00  0.00     0.008 A 
ATOM     27  C   UNL     1       4.932   2.142  10.120  1.00  0.00    -0.044 A 
ATOM     28  C   UNL     1       6.208  -0.198  10.979  1.00  0.00     0.001 A 
ATOM     29  C   UNL     1       5.752   2.127  11.279  1.00  0.00     0.004 A 
ATOM     30  C   UNL     1       4.274   3.460   9.810  1.00  0.00     0.045 C 
ATOM     31  C   UNL     1       6.388   0.968  11.705  1.00  0.00     0.000 A 
ENDBRANCH  24  25
ENDBRANCH  13  19
ENDBRANCH   6   8
ENDBRANCH   5   6
ENDBRANCH   4   5
ENDBRANCH   3   4
ENDBRANCH   2   3
ENDBRANCH   1   2
BRANCH   1  32
ATOM     32  C   UNL     1       9.486   1.371   1.052  1.00  0.00     0.188 C 
BRANCH  32  33
ATOM     33  O   UNL     1       9.079   2.151  -0.056  1.00  0.00    -0.376 OA
BRANCH  33  34
ATOM     34  C   UNL     1       9.656   3.453  -0.094  1.00  0.00     0.202 C 
BRANCH  34  35
ATOM     35  C   UNL     1       9.519   4.308   1.183  1.00  0.00     0.261 C 
BRANCH  35  36
ATOM     36  O   UNL     1       8.175   4.257   1.694  1.00  0.00    -0.460 OA
BRANCH  36  37
ATOM     37  C   UNL     1       8.072   4.037   3.042  1.00  0.00     0.338 C 
ATOM     38  O   UNL     1       8.822   4.465   3.903  1.00  0.00    -0.246 OA
BRANCH  37  39
ATOM     39  C   UNL     1       7.138   2.896   3.218  1.00  0.00     0.060 A 
ATOM     40  C   UNL     1       7.453   1.787   4.000  1.00  0.00     0.016 A 
ATOM     41  C   UNL     1       6.098   2.756   2.359  1.00  0.00     0.016 A 
ATOM     42  C   UNL     1       6.926   0.477   3.701  1.00  0.00     0.010 A 
ATOM     43  C   UNL     1       5.594   1.462   2.144  1.00  0.00     0.010 A 
ATOM     44  C   UNL     1       6.051   0.190   2.649  1.00  0.00    -0.014 A 
BRANCH  44  45
ATOM     45  C   UNL     1       5.885  -1.437   2.032  1.00  0.00     0.031 A 
ATOM     46  C   UNL     1       4.817  -2.177   1.025  1.00  0.00     0.074 A 
ATOM     47  C   UNL     1       6.739  -2.409   2.435  1.00  0.00     0.049 A 
ATOM     48  N   UNL     1       3.841  -2.985   1.396  1.00  0.00    -0.248 NA
ATOM     49  C   UNL     1       4.827  -2.160  -0.465  1.00  0.00     0.031 C 
ATOM     50  C   UNL     1       6.691  -3.834   2.088  1.00  0.00     0.029 A 
ATOM     51  N   UNL     1       7.737  -2.348   3.407  1.00  0.00    -0.354 N 
ATOM     52  C   UNL     1       3.125  -3.382   0.272  1.00  0.00     0.074 A 
ATOM     53  C   UNL     1       3.640  -2.645  -0.834  1.00  0.00     0.031 C 
ATOM     54  C   UNL     1       7.292  -4.523   3.071  1.00  0.00     0.029 A 
ATOM     55  C   UNL     1       7.703  -3.574   4.085  1.00  0.00     0.049 A 
ATOM     56  H   UNL     1       8.346  -1.593   3.582  1.00  0.00     0.167 HD
ATOM     57  C   UNL     1       2.413  -4.539   0.145  1.00  0.00     0.037 A 
ATOM     58  C   UNL     1       7.431  -3.604   5.418  1.00  0.00     0.037 A 
ATOM     59  C   UNL     1       2.830  -5.473   1.156  1.00  0.00     0.049 A 
ATOM     60  C   UNL     1       6.160  -4.359   5.737  1.00  0.00     0.074 A 
ATOM     61  C   UNL     1       3.857  -6.403   1.137  1.00  0.00     0.029 A 
ATOM     62  N   UNL     1       2.526  -5.234   2.483  1.00  0.00    -0.354 N 
ATOM     63  N   UNL     1       5.347  -4.837   4.835  1.00  0.00    -0.248 NA
ATOM     64  C   UNL     1       5.686  -4.620   7.093  1.00  0.00     0.031 C 
ATOM     65  C   UNL     1       4.223  -6.674   2.473  1.00  0.00     0.029 A 
ATOM     66  C   UNL     1       3.376  -5.958   3.297  1.00  0.00     0.049 A 
ATOM     67  H   UNL     1       1.810  -4.638   2.800  1.00  0.00     0.167 HD
ATOM     68  C   UNL     1       4.256  -5.400   5.444  1.00  0.00     0.074 A 
ATOM     69  C   UNL     1       4.537  -5.279   6.860  1.00  0.00     0.031 C 
ATOM     70  C   UNL     1       3.208  -5.907   4.733  1.00  0.00     0.037 A 
BRANCH  57  71
ATOM     71  C   UNL     1       1.773  -4.889  -1.182  1.00  0.00     0.064 A 
ATOM     72  C   UNL     1       2.087  -6.052  -1.908  1.00  0.00     0.173 A 
ATOM     73  C   UNL     1       0.888  -3.990  -1.819  1.00  0.00     0.173 A 
ATOM     74  F   UNL     1       2.883  -6.997  -1.396  1.00  0.00    -0.203 F 
ATOM     75  C   UNL     1       1.633  -6.255  -3.216  1.00  0.00     0.198 A 
ATOM     76  C   UNL     1       0.445  -4.189  -3.134  1.00  0.00     0.198 A 
ATOM     77  F   UNL     1       0.496  -2.868  -1.193  1.00  0.00    -0.203 F 
ATOM     78  F   UNL     1       2.013  -7.352  -3.889  1.00  0.00    -0.200 F 
ATOM     79  C   UNL     1       0.835  -5.313  -3.838  1.00  0.00     0.200 A 
ATOM     80  F   UNL     1      -0.319  -3.264  -3.733  1.00  0.00    -0.200 F 
ATOM     81  F   UNL     1       0.464  -5.479  -5.116  1.00  0.00    -0.200 F 
ENDBRANCH  57  71
BRANCH  58  82
ATOM     82  C   UNL     1       8.033  -2.449   6.156  1.00  0.00     0.064 A 
ATOM     83  C   UNL     1       9.419  -2.222   5.979  1.00  0.00     0.173 A 
ATOM     84  C   UNL     1       7.286  -1.393   6.689  1.00  0.00     0.173 A 
ATOM     85  F   UNL     1      10.196  -3.193   5.470  1.00  0.00    -0.203 F 
ATOM     86  C   UNL     1       9.994  -0.968   6.173  1.00  0.00     0.198 A 
ATOM     87  C   UNL     1       7.878  -0.141   6.923  1.00  0.00     0.198 A 
ATOM     88  F   UNL     1       5.962  -1.520   6.835  1.00  0.00    -0.203 F 
ATOM     89  F   UNL     1      11.268  -0.752   5.815  1.00  0.00    -0.200 F 
ATOM     90  C   UNL     1       9.217   0.078   6.628  1.00  0.00     0.200 A 
ATOM     91  F   UNL     1       7.123   0.909   7.273  1.00  0.00    -0.200 F 
ATOM     92  F   UNL     1       9.730   1.316   6.684  1.00  0.00    -0.200 F 
ENDBRANCH  58  82
BRANCH  70  93
ATOM     93  C   UNL     1       1.925  -6.470   5.284  1.00  0.00     0.064 A 
ATOM     94  C   UNL     1       1.286  -5.984   6.429  1.00  0.00     0.173 A 
ATOM     95  C   UNL     1       1.211  -7.447   4.541  1.00  0.00     0.173 A 
ATOM     96  F   UNL     1       1.818  -4.989   7.152  1.00  0.00    -0.203 F 
ATOM     97  C   UNL     1       0.041  -6.474   6.832  1.00  0.00     0.198 A 
ATOM     98  C   UNL     1      -0.057  -7.883   4.910  1.00  0.00     0.198 A 
ATOM     99  F   UNL     1       1.716  -7.986   3.420  1.00  0.00    -0.203 F 
ATOM    100  F   UNL     1      -0.517  -6.013   7.960  1.00  0.00    -0.200 F 
ATOM    101  C   UNL     1      -0.636  -7.409   6.067  1.00  0.00     0.200 A 
ATOM    102  F   UNL     1      -0.718  -8.750   4.129  1.00  0.00    -0.200 F 
ATOM    103  F   UNL     1      -1.850  -7.839   6.436  1.00  0.00    -0.200 F 
ENDBRANCH  70  93
ENDBRANCH  44  45
ENDBRANCH  37  39
ENDBRANCH  36  37
ENDBRANCH  35  36
ENDBRANCH  34  35
ENDBRANCH  33  34
ENDBRANCH  32  33
ENDBRANCH   1  32
TORSDOF 20
