REMARK SMILES Cc1ccccc1NC(=O)c1ccccc1NC(=O)CCC(=O)OCCOCCOCCOC(=O)c1ccc(-c2c3nc(c(-c4c(F)c(F)c(F)c(F)c4F)c4ccc([nH]4)c(-c4c(F)c(F)c(F)c(F)c4F)c4nc(c(-c5c(F)c(F)c(F)c(F)c5F)c5ccc2[nH]5)C=C4)C=C3)cc1
REMARK SMILES IDX 27 1 26 2 25 3 24 4 22 5 23 6 21 7 20 8 18 9 17 10 19 12
REMARK SMILES IDX 16 13 11 14 12 15 13 16 15 17 14 18 9 19 8 20 10 22 7 23
REMARK SMILES IDX 1 24 2 25 3 26 4 27 6 28 5 29 28 30 29 31 30 32 31 33 32 34
REMARK SMILES IDX 33 35 34 36 35 37 36 38 37 39 98 40 38 41 97 42 39 43 40 44
REMARK SMILES IDX 41 45 91 46 42 47 96 48 90 49 92 50 43 51 95 52 89 53 88 54
REMARK SMILES IDX 44 56 76 57 56 58 75 59 57 60 60 61 74 62 93 63 58 64 59 65
REMARK SMILES IDX 73 67 94 68 61 69 45 70 46 71 54 72 47 73 48 74 52 75 55 76
REMARK SMILES IDX 49 77 50 78 53 79 51 80 77 81 78 82 86 83 79 84 80 85 84 86
REMARK SMILES IDX 87 87 81 88 82 89 85 90 83 91 62 92 63 93 71 94 64 95 65 96
REMARK SMILES IDX 69 97 72 98 66 99 67 100 70 101 68 102
REMARK H PARENT 17 11 8 21 92 55 60 66
REMARK Flexibility Score: inf
ROOT
ATOM      1  O   UNL     1      -2.349   5.988   0.232  1.00  0.00    -0.376 OA
ENDROOT
BRANCH   1   2
ATOM      2  C   UNL     1      -1.118   5.001  -0.013  1.00  0.00     0.202 C 
BRANCH   2   3
ATOM      3  C   UNL     1       0.872   4.942   0.938  1.00  0.00     0.261 C 
BRANCH   3   4
ATOM      4  O   UNL     1       1.597   3.671   1.561  1.00  0.00    -0.463 OA
BRANCH   4   5
ATOM      5  C   UNL     1       1.742   3.589   2.889  1.00  0.00     0.306 C 
ATOM      6  O   UNL     1       2.211   4.502   3.553  1.00  0.00    -0.252 OA
BRANCH   5   7
ATOM      7  C   UNL     1       1.117   2.375   3.538  1.00  0.00     0.132 C 
BRANCH   7   8
ATOM      8  C   UNL     1       0.624   1.086   2.959  1.00  0.00     0.112 C 
BRANCH   8   9
ATOM      9  C   UNL     1       0.792   1.001   1.526  1.00  0.00     0.224 C 
ATOM     10  N   UNL     1       0.188   1.796   0.626  1.00  0.00    -0.325 N 
ATOM     11  H   UNL     1      -0.049   1.292  -0.186  1.00  0.00     0.169 HD
ATOM     12  O   UNL     1       1.582   0.139   1.137  1.00  0.00    -0.275 OA
BRANCH  10  13
ATOM     13  C   UNL     1      -0.202   3.144   0.514  1.00  0.00     0.054 A 
ATOM     14  C   UNL     1       0.514   3.950  -0.937  1.00  0.00     0.063 A 
ATOM     15  C   UNL     1       0.612   5.766  -1.011  1.00  0.00     0.016 A 
ATOM     16  C   UNL     1       0.003   6.769   0.347  1.00  0.00     0.001 A 
ATOM     17  C   UNL     1      -0.830   4.179   1.868  1.00  0.00     0.027 A 
ATOM     18  C   UNL     1      -0.720   5.984   1.802  1.00  0.00     0.002 A 
BRANCH  14  19
ATOM     19  C   UNL     1       1.373   3.269  -1.968  1.00  0.00     0.257 C 
ATOM     20  N   UNL     1       1.607   1.910  -2.091  1.00  0.00    -0.322 N 
ATOM     21  H   UNL     1       2.553   1.713  -2.285  1.00  0.00     0.170 HD
ATOM     22  O   UNL     1       2.083   4.025  -2.639  1.00  0.00    -0.269 OA
BRANCH  20  23
ATOM     23  C   UNL     1       0.826   0.733  -2.009  1.00  0.00     0.044 A 
ATOM     24  C   UNL     1       2.930  -0.558  -1.236  1.00  0.00     0.046 C 
ATOM     25  C   UNL     1       1.454  -0.463  -1.568  1.00  0.00    -0.027 A 
ATOM     26  C   UNL     1       0.650  -1.560  -1.193  1.00  0.00     0.005 A 
ATOM     27  C   UNL     1      -0.739  -1.471  -1.226  1.00  0.00     0.000 A 
ATOM     28  C   UNL     1      -0.571   0.784  -2.101  1.00  0.00     0.026 A 
ATOM     29  C   UNL     1      -1.347  -0.307  -1.690  1.00  0.00     0.002 A 
ENDBRANCH  20  23
ENDBRANCH  14  19
ENDBRANCH  10  13
ENDBRANCH   8   9
ENDBRANCH   7   8
ENDBRANCH   5   7
ENDBRANCH   4   5
ENDBRANCH   3   4
ENDBRANCH   2   3
ENDBRANCH   1   2
BRANCH   1  30
ATOM     30  C   UNL     1      -3.473   5.513   1.011  1.00  0.00     0.188 C 
BRANCH  30  31
ATOM     31  C   UNL     1      -4.430   4.539   0.317  1.00  0.00     0.188 C 
BRANCH  31  32
ATOM     32  O   UNL     1      -3.732   3.361  -0.059  1.00  0.00    -0.376 OA
BRANCH  32  33
ATOM     33  C   UNL     1      -4.249   2.705  -1.213  1.00  0.00     0.202 C 
BRANCH  33  34
ATOM     34  C   UNL     1      -5.403   1.764  -0.857  1.00  0.00     0.261 C 
BRANCH  34  35
ATOM     35  O   UNL     1      -4.982   0.936   0.250  1.00  0.00    -0.460 OA
BRANCH  35  36
ATOM     36  C   UNL     1      -5.696   1.050   1.405  1.00  0.00     0.338 C 
ATOM     37  O   UNL     1      -6.895   1.258   1.480  1.00  0.00    -0.246 OA
BRANCH  36  38
ATOM     38  C   UNL     1      -4.769   1.081   2.584  1.00  0.00     0.060 A 
ATOM     39  C   UNL     1      -5.215   1.157   3.918  1.00  0.00     0.016 A 
ATOM     40  C   UNL     1      -3.423   1.275   2.357  1.00  0.00     0.016 A 
ATOM     41  C   UNL     1      -4.328   1.494   4.995  1.00  0.00     0.010 A 
ATOM     42  C   UNL     1      -2.603   1.650   3.415  1.00  0.00     0.010 A 
ATOM     43  C   UNL     1      -2.984   1.789   4.753  1.00  0.00    -0.014 A 
BRANCH  43  44
ATOM     44  C   UNL     1      -2.045   2.631   5.586  1.00  0.00     0.031 A 
ATOM     45  C   UNL     1      -0.681   2.256   6.184  1.00  0.00     0.074 A 
ATOM     46  C   UNL     1      -2.205   3.951   5.294  1.00  0.00     0.049 A 
ATOM     47  N   UNL     1       0.159   3.130   6.676  1.00  0.00    -0.248 NA
ATOM     48  C   UNL     1      -0.079   0.919   6.218  1.00  0.00     0.031 C 
ATOM     49  C   UNL     1      -1.185   4.998   5.213  1.00  0.00     0.029 A 
ATOM     50  N   UNL     1      -3.383   4.635   4.952  1.00  0.00    -0.354 N 
ATOM     51  C   UNL     1       1.450   2.607   6.635  1.00  0.00     0.074 A 
ATOM     52  C   UNL     1       1.215   1.185   6.504  1.00  0.00     0.031 C 
ATOM     53  C   UNL     1      -1.774   6.194   5.112  1.00  0.00     0.029 A 
ATOM     54  C   UNL     1      -3.180   5.983   5.325  1.00  0.00     0.049 A 
ATOM     55  H   UNL     1      -4.188   4.252   4.535  1.00  0.00     0.167 HD
ATOM     56  C   UNL     1       2.540   3.456   6.518  1.00  0.00     0.037 A 
ATOM     57  C   UNL     1      -3.884   6.513   6.371  1.00  0.00     0.037 A 
ATOM     58  C   UNL     1       2.159   4.842   6.793  1.00  0.00     0.049 A 
ATOM     59  C   UNL     1      -3.026   6.891   7.567  1.00  0.00     0.074 A 
ATOM     60  C   UNL     1       2.212   6.072   6.153  1.00  0.00     0.029 A 
ATOM     61  N   UNL     1       1.480   5.059   7.969  1.00  0.00    -0.354 N 
ATOM     62  N   UNL     1      -1.724   6.771   7.570  1.00  0.00    -0.248 NA
ATOM     63  C   UNL     1      -3.503   7.397   8.853  1.00  0.00     0.031 C 
ATOM     64  C   UNL     1       1.399   6.981   6.899  1.00  0.00     0.029 A 
ATOM     65  C   UNL     1       0.924   6.311   8.012  1.00  0.00     0.049 A 
ATOM     66  H   UNL     1       1.403   4.396   8.692  1.00  0.00     0.167 HD
ATOM     67  C   UNL     1      -1.224   6.964   8.825  1.00  0.00     0.074 A 
ATOM     68  C   UNL     1      -2.366   7.434   9.577  1.00  0.00     0.031 C 
ATOM     69  C   UNL     1       0.058   6.612   9.139  1.00  0.00     0.037 A 
BRANCH  56  70
ATOM     70  C   UNL     1       3.977   3.163   6.035  1.00  0.00     0.064 A 
ATOM     71  C   UNL     1       5.008   4.130   6.204  1.00  0.00     0.173 A 
ATOM     72  C   UNL     1       4.372   2.042   5.278  1.00  0.00     0.173 A 
ATOM     73  F   UNL     1       4.809   5.235   6.938  1.00  0.00    -0.203 F 
ATOM     74  C   UNL     1       6.291   3.998   5.645  1.00  0.00     0.198 A 
ATOM     75  C   UNL     1       5.657   1.910   4.719  1.00  0.00     0.198 A 
ATOM     76  F   UNL     1       3.529   1.031   5.035  1.00  0.00    -0.203 F 
ATOM     77  F   UNL     1       7.211   4.955   5.837  1.00  0.00    -0.200 F 
ATOM     78  C   UNL     1       6.615   2.886   4.899  1.00  0.00     0.200 A 
ATOM     79  F   UNL     1       5.957   0.820   3.996  1.00  0.00    -0.200 F 
ATOM     80  F   UNL     1       7.841   2.747   4.374  1.00  0.00    -0.200 F 
ENDBRANCH  56  70
BRANCH  57  81
ATOM     81  C   UNL     1      -5.317   6.101   6.258  1.00  0.00     0.064 A 
ATOM     82  C   UNL     1      -5.977   6.655   5.136  1.00  0.00     0.173 A 
ATOM     83  C   UNL     1      -5.750   4.835   6.691  1.00  0.00     0.173 A 
ATOM     84  F   UNL     1      -5.593   7.854   4.669  1.00  0.00    -0.203 F 
ATOM     85  C   UNL     1      -6.852   5.898   4.359  1.00  0.00     0.198 A 
ATOM     86  C   UNL     1      -6.665   4.096   5.926  1.00  0.00     0.198 A 
ATOM     87  F   UNL     1      -5.150   4.232   7.728  1.00  0.00    -0.203 F 
ATOM     88  F   UNL     1      -7.279   6.376   3.181  1.00  0.00    -0.200 F 
ATOM     89  C   UNL     1      -7.165   4.604   4.734  1.00  0.00     0.200 A 
ATOM     90  F   UNL     1      -6.965   2.835   6.274  1.00  0.00    -0.200 F 
ATOM     91  F   UNL     1      -7.892   3.828   3.918  1.00  0.00    -0.200 F 
ENDBRANCH  57  81
BRANCH  69  92
ATOM     92  C   UNL     1       0.597   6.337  10.528  1.00  0.00     0.064 A 
ATOM     93  C   UNL     1      -0.203   5.850  11.573  1.00  0.00     0.173 A 
ATOM     94  C   UNL     1       1.998   6.290  10.757  1.00  0.00     0.173 A 
ATOM     95  F   UNL     1      -1.530   5.734  11.438  1.00  0.00    -0.203 F 
ATOM     96  C   UNL     1       0.350   5.379  12.767  1.00  0.00     0.198 A 
ATOM     97  C   UNL     1       2.547   5.753  11.922  1.00  0.00     0.198 A 
ATOM     98  F   UNL     1       2.870   6.695   9.820  1.00  0.00    -0.203 F 
ATOM     99  F   UNL     1      -0.460   4.939  13.740  1.00  0.00    -0.200 F 
ATOM    100  C   UNL     1       1.721   5.311  12.934  1.00  0.00     0.200 A 
ATOM    101  F   UNL     1       3.877   5.623  12.039  1.00  0.00    -0.200 F 
ATOM    102  F   UNL     1       2.241   4.793  14.054  1.00  0.00    -0.200 F 
ENDBRANCH  69  92
ENDBRANCH  43  44
ENDBRANCH  36  38
ENDBRANCH  35  36
ENDBRANCH  34  35
ENDBRANCH  33  34
ENDBRANCH  32  33
ENDBRANCH  31  32
ENDBRANCH  30  31
ENDBRANCH   1  30
TORSDOF 22
