REMARK SMILES O=C(OCCOCCOCCOC(=O)c1ccc(-c2c3nc(c(-c4c(F)c(F)c(F)c(F)c4F)c4ccc([nH]4)c(-c4c(F)c(F)c(F)c(F)c4F)c4nc(c(-c5c(F)c(F)c(F)c(F)c5F)c5ccc2[nH]5)C=C4)C=C3)cc1)C1=Cc2c(Cl)ccc(Cl)c2O[C@@H]1C(F)(F)F
REMARK SMILES IDX 8 1 7 2 6 3 5 4 4 5 3 6 2 7 1 8 78 9 79 10 89 11 80 12 88 13
REMARK SMILES IDX 81 14 87 15 82 16 83 17 85 18 84 19 86 20 90 21 91 22 92 23
REMARK SMILES IDX 93 24 9 25 10 26 11 27 12 28 13 29 14 30 15 31 16 32 77 33
REMARK SMILES IDX 17 34 76 35 18 36 19 37 20 38 70 39 21 40 75 41 69 42 71 43
REMARK SMILES IDX 22 44 74 45 68 46 67 47 23 49 55 50 35 51 54 52 36 53 39 54
REMARK SMILES IDX 53 55 72 56 37 57 38 58 52 60 73 61 40 62 24 63 25 64 33 65
REMARK SMILES IDX 26 66 27 67 31 68 34 69 28 70 29 71 32 72 30 73 56 74 57 75
REMARK SMILES IDX 65 76 58 77 59 78 63 79 66 80 60 81 61 82 64 83 62 84 41 85
REMARK SMILES IDX 42 86 50 87 43 88 44 89 48 90 51 91 45 92 46 93 49 94 47 95
REMARK H PARENT 71 48 39 59
REMARK Flexibility Score: inf
ROOT
ATOM      1  C   UNL     1       2.157  -3.475  -0.572  1.00  0.00     0.188 C 
ENDROOT
BRANCH   1   2
ATOM      2  C   UNL     1       2.464  -2.040  -1.028  1.00  0.00     0.188 C 
BRANCH   2   3
ATOM      3  O   UNL     1       3.861  -1.574  -1.296  1.00  0.00    -0.376 OA
BRANCH   3   4
ATOM      4  C   UNL     1       4.603  -0.085  -0.805  1.00  0.00     0.202 C 
BRANCH   4   5
ATOM      5  C   UNL     1       3.948   1.095   0.898  1.00  0.00     0.261 C 
BRANCH   5   6
ATOM      6  O   UNL     1       2.950   2.239   0.868  1.00  0.00    -0.460 OA
BRANCH   6   7
ATOM      7  C   UNL     1       3.069   2.972  -0.248  1.00  0.00     0.338 C 
ATOM      8  O   UNL     1       2.309   3.811  -0.669  1.00  0.00    -0.246 OA
BRANCH   7   9
ATOM      9  C   UNL     1       3.965   2.069  -0.957  1.00  0.00     0.087 C 
ATOM     10  C   UNL     1       5.365   2.081  -0.557  1.00  0.00     0.029 C 
ATOM     11  C   UNL     1       2.780   0.584  -0.729  1.00  0.00     0.316 C 
ATOM     12  C   UNL     1       6.140   0.837   0.497  1.00  0.00     0.037 A 
ATOM     13  O   UNL     1       3.510  -0.690   0.560  1.00  0.00    -0.474 OA
ATOM     14  C   UNL     1       7.443   0.972   0.911  1.00  0.00     0.052 A 
ATOM     15  C   UNL     1       5.244  -0.508   1.124  1.00  0.00     0.148 A 
ATOM     16  Cl  UNL     1       8.445   2.287   0.462  1.00  0.00    -0.084 Cl
ATOM     17  C   UNL     1       7.927  -0.031   1.771  1.00  0.00     0.023 A 
ATOM     18  C   UNL     1       5.790  -1.425   1.985  1.00  0.00     0.083 A 
ATOM     19  C   UNL     1       7.151  -1.159   2.272  1.00  0.00     0.026 A 
ATOM     20  Cl  UNL     1       4.975  -2.716   2.723  1.00  0.00    -0.080 Cl
BRANCH  11  21
ATOM     21  C   UNL     1       2.494   0.472  -2.399  1.00  0.00     0.430 C 
ATOM     22  F   UNL     1       2.756  -0.646  -3.082  1.00  0.00    -0.167 F 
ATOM     23  F   UNL     1       1.206   0.806  -2.658  1.00  0.00    -0.167 F 
ATOM     24  F   UNL     1       3.234   1.407  -3.082  1.00  0.00    -0.167 F 
ENDBRANCH  11  21
ENDBRANCH   7   9
ENDBRANCH   6   7
ENDBRANCH   5   6
ENDBRANCH   4   5
ENDBRANCH   3   4
ENDBRANCH   2   3
ENDBRANCH   1   2
BRANCH   1  25
ATOM     25  O   UNL     1       3.088  -4.142   0.240  1.00  0.00    -0.376 OA
BRANCH  25  26
ATOM     26  C   UNL     1       4.402  -4.242  -0.290  1.00  0.00     0.202 C 
BRANCH  26  27
ATOM     27  C   UNL     1       4.560  -4.858  -1.689  1.00  0.00     0.261 C 
BRANCH  27  28
ATOM     28  O   UNL     1       4.059  -4.033  -2.765  1.00  0.00    -0.460 OA
BRANCH  28  29
ATOM     29  C   UNL     1       3.017  -4.513  -3.490  1.00  0.00     0.338 C 
ATOM     30  O   UNL     1       2.422  -5.564  -3.335  1.00  0.00    -0.246 OA
BRANCH  29  31
ATOM     31  C   UNL     1       2.600  -3.492  -4.473  1.00  0.00     0.060 A 
ATOM     32  C   UNL     1       1.346  -2.871  -4.367  1.00  0.00     0.016 A 
ATOM     33  C   UNL     1       3.450  -3.185  -5.533  1.00  0.00     0.016 A 
ATOM     34  C   UNL     1       0.965  -1.894  -5.296  1.00  0.00     0.010 A 
ATOM     35  C   UNL     1       3.047  -2.250  -6.488  1.00  0.00     0.010 A 
ATOM     36  C   UNL     1       1.805  -1.600  -6.378  1.00  0.00    -0.014 A 
BRANCH  36  37
ATOM     37  C   UNL     1       1.330  -0.772  -7.514  1.00  0.00     0.031 A 
ATOM     38  C   UNL     1       0.693  -1.480  -8.675  1.00  0.00     0.074 A 
ATOM     39  C   UNL     1       1.532   0.557  -7.555  1.00  0.00     0.049 A 
ATOM     40  N   UNL     1       0.353  -1.015  -9.849  1.00  0.00    -0.248 NA
ATOM     41  C   UNL     1       0.420  -2.914  -8.491  1.00  0.00     0.031 C 
ATOM     42  C   UNL     1       2.110   1.355  -6.478  1.00  0.00     0.029 A 
ATOM     43  N   UNL     1       1.297   1.467  -8.560  1.00  0.00    -0.354 N 
ATOM     44  C   UNL     1      -0.149  -2.103 -10.550  1.00  0.00     0.074 A 
ATOM     45  C   UNL     1      -0.065  -3.252  -9.676  1.00  0.00     0.031 C 
ATOM     46  C   UNL     1       2.211   2.633  -6.888  1.00  0.00     0.029 A 
ATOM     47  C   UNL     1       1.753   2.733  -8.274  1.00  0.00     0.049 A 
ATOM     48  H   UNL     1       0.847   1.234  -9.404  1.00  0.00     0.167 HD
ATOM     49  C   UNL     1      -0.623  -2.137 -11.816  1.00  0.00     0.037 A 
ATOM     50  C   UNL     1       1.832   3.828  -9.058  1.00  0.00     0.037 A 
ATOM     51  C   UNL     1      -0.693  -0.990 -12.680  1.00  0.00     0.049 A 
ATOM     52  C   UNL     1       1.356   3.742 -10.492  1.00  0.00     0.074 A 
ATOM     53  C   UNL     1      -1.202  -0.913 -13.964  1.00  0.00     0.029 A 
ATOM     54  N   UNL     1      -0.217   0.272 -12.359  1.00  0.00    -0.354 N 
ATOM     55  N   UNL     1       0.828   2.726 -11.132  1.00  0.00    -0.248 NA
ATOM     56  C   UNL     1       1.498   4.952 -11.318  1.00  0.00     0.031 C 
ATOM     57  C   UNL     1      -0.954   0.371 -14.452  1.00  0.00     0.029 A 
ATOM     58  C   UNL     1      -0.372   1.121 -13.442  1.00  0.00     0.049 A 
ATOM     59  H   UNL     1       0.172   0.526 -11.491  1.00  0.00     0.167 HD
ATOM     60  C   UNL     1       0.551   3.180 -12.416  1.00  0.00     0.074 A 
ATOM     61  C   UNL     1       0.948   4.570 -12.462  1.00  0.00     0.031 C 
ATOM     62  C   UNL     1       0.021   2.506 -13.467  1.00  0.00     0.037 A 
BRANCH  49  63
ATOM     63  C   UNL     1      -1.055  -3.463 -12.369  1.00  0.00     0.064 A 
ATOM     64  C   UNL     1      -2.207  -4.121 -11.917  1.00  0.00     0.173 A 
ATOM     65  C   UNL     1      -0.330  -4.053 -13.417  1.00  0.00     0.173 A 
ATOM     66  F   UNL     1      -2.927  -3.608 -10.908  1.00  0.00    -0.203 F 
ATOM     67  C   UNL     1      -2.609  -5.329 -12.482  1.00  0.00     0.198 A 
ATOM     68  C   UNL     1      -0.754  -5.240 -14.004  1.00  0.00     0.198 A 
ATOM     69  F   UNL     1       0.780  -3.464 -13.888  1.00  0.00    -0.203 F 
ATOM     70  F   UNL     1      -3.690  -5.962 -12.008  1.00  0.00    -0.200 F 
ATOM     71  C   UNL     1      -1.890  -5.880 -13.533  1.00  0.00     0.200 A 
ATOM     72  F   UNL     1      -0.068  -5.761 -15.030  1.00  0.00    -0.200 F 
ATOM     73  F   UNL     1      -2.291  -7.031 -14.090  1.00  0.00    -0.200 F 
ENDBRANCH  49  63
BRANCH  50  74
ATOM     74  C   UNL     1       2.436   5.092  -8.543  1.00  0.00     0.064 A 
ATOM     75  C   UNL     1       1.689   6.277  -8.461  1.00  0.00     0.173 A 
ATOM     76  C   UNL     1       3.792   5.159  -8.186  1.00  0.00     0.173 A 
ATOM     77  F   UNL     1       0.396   6.280  -8.819  1.00  0.00    -0.203 F 
ATOM     78  C   UNL     1       2.281   7.482  -8.081  1.00  0.00     0.198 A 
ATOM     79  C   UNL     1       4.373   6.354  -7.765  1.00  0.00     0.198 A 
ATOM     80  F   UNL     1       4.562   4.063  -8.254  1.00  0.00    -0.203 F 
ATOM     81  F   UNL     1       1.562   8.612  -8.093  1.00  0.00    -0.200 F 
ATOM     82  C   UNL     1       3.621   7.518  -7.728  1.00  0.00     0.200 A 
ATOM     83  F   UNL     1       5.665   6.381  -7.413  1.00  0.00    -0.200 F 
ATOM     84  F   UNL     1       4.192   8.677  -7.371  1.00  0.00    -0.200 F 
ENDBRANCH  50  74
BRANCH  62  85
ATOM     85  C   UNL     1      -0.198   3.262 -14.748  1.00  0.00     0.064 A 
ATOM     86  C   UNL     1       0.873   3.678 -15.553  1.00  0.00     0.173 A 
ATOM     87  C   UNL     1      -1.500   3.500 -15.216  1.00  0.00     0.173 A 
ATOM     88  F   UNL     1       2.138   3.485 -15.149  1.00  0.00    -0.203 F 
ATOM     89  C   UNL     1       0.648   4.323 -16.767  1.00  0.00     0.198 A 
ATOM     90  C   UNL     1      -1.721   4.109 -16.448  1.00  0.00     0.198 A 
ATOM     91  F   UNL     1      -2.561   3.112 -14.492  1.00  0.00    -0.203 F 
ATOM     92  F   UNL     1       1.686   4.751 -17.498  1.00  0.00    -0.200 F 
ATOM     93  C   UNL     1      -0.648   4.526 -17.219  1.00  0.00     0.200 A 
ATOM     94  F   UNL     1      -2.973   4.282 -16.893  1.00  0.00    -0.200 F 
ATOM     95  F   UNL     1      -0.861   5.126 -18.398  1.00  0.00    -0.200 F 
ENDBRANCH  62  85
ENDBRANCH  36  37
ENDBRANCH  29  31
ENDBRANCH  28  29
ENDBRANCH  27  28
ENDBRANCH  26  27
ENDBRANCH  25  26
ENDBRANCH   1  25
TORSDOF 18
