REMARK SMILES CCc1ccnc(C(=O)c2[nH]c3ccc(OC(F)(F)F)cc3c2CC(=O)OCCOCCOCCOC(=O)c2ccc(-c3c4nc(c(-c5c(F)c(F)c(F)c(F)c5F)c5ccc([nH]5)c(-c5c(F)c(F)c(F)c(F)c5F)c5nc(c(-c6c(F)c(F)c(F)c(F)c6F)c6ccc3[nH]6)C=C5)C=C4)cc2)c1
REMARK SMILES IDX 31 1 30 2 29 3 28 4 27 5 25 6 26 7 24 8 23 9 10 10 11 11
REMARK SMILES IDX 12 12 22 14 13 15 21 16 14 17 15 18 8 19 9 20 7 21 3 22 4 23
REMARK SMILES IDX 102 24 5 25 6 26 2 27 1 28 16 29 17 30 18 31 19 32 20 33
REMARK SMILES IDX 32 34 33 35 34 36 35 37 36 38 37 39 38 40 39 41 40 42 101 43
REMARK SMILES IDX 41 44 100 45 42 46 43 47 44 48 94 49 45 50 99 51 93 52 95 53
REMARK SMILES IDX 46 54 98 55 92 56 91 57 47 59 79 60 59 61 78 62 60 63 63 64
REMARK SMILES IDX 77 65 96 66 61 67 62 68 76 70 97 71 64 72 48 73 49 74 57 75
REMARK SMILES IDX 50 76 51 77 55 78 58 79 52 80 53 81 56 82 54 83 80 84 81 85
REMARK SMILES IDX 89 86 82 87 83 88 87 89 90 90 84 91 85 92 88 93 86 94 65 95
REMARK SMILES IDX 66 96 74 97 67 98 68 99 72 100 75 101 69 102 70 103 73 104
REMARK SMILES IDX 71 105
REMARK H PARENT 11 13 95 58 63 69
REMARK Flexibility Score: inf
ROOT
ATOM      1  C   UNL     1       1.941   5.688  -6.814  1.00  0.00     0.188 C 
ENDROOT
BRANCH   1   2
ATOM      2  O   UNL     1       2.189   6.554  -7.916  1.00  0.00    -0.376 OA
BRANCH   2   3
ATOM      3  C   UNL     1       2.145   7.955  -7.673  1.00  0.00     0.202 C 
BRANCH   3   4
ATOM      4  C   UNL     1       0.776   8.498  -7.263  1.00  0.00     0.261 C 
BRANCH   4   5
ATOM      5  O   UNL     1       0.365   8.016  -5.962  1.00  0.00    -0.463 OA
BRANCH   5   6
ATOM      6  C   UNL     1      -0.951   7.711  -5.840  1.00  0.00     0.310 C 
ATOM      7  O   UNL     1      -1.773   7.898  -6.737  1.00  0.00    -0.252 OA
BRANCH   6   8
ATOM      8  C   UNL     1      -1.371   7.058  -4.538  1.00  0.00     0.161 C 
BRANCH   8   9
ATOM      9  C   UNL     1      -0.440   7.047  -3.347  1.00  0.00     0.000 A 
ATOM     10  C   UNL     1       0.231   5.950  -2.786  1.00  0.00     0.093 A 
ATOM     11  N   UNL     1       0.970   6.434  -1.728  1.00  0.00    -0.352 N 
ATOM     12  C   UNL     1       0.540   7.691  -1.385  1.00  0.00     0.046 A 
ATOM     13  H   UNL     1       1.701   5.948  -1.282  1.00  0.00     0.167 HD
ATOM     14  C   UNL     1      -0.314   8.118  -2.397  1.00  0.00     0.008 A 
ATOM     15  C   UNL     1       0.824   8.460  -0.252  1.00  0.00     0.030 A 
ATOM     16  C   UNL     1      -0.924   9.382  -2.261  1.00  0.00     0.057 A 
ATOM     17  C   UNL     1       0.154   9.682  -0.113  1.00  0.00     0.049 A 
ATOM     18  C   UNL     1      -0.729  10.134  -1.092  1.00  0.00     0.130 A 
BRANCH  10  19
ATOM     19  C   UNL     1       0.188   4.550  -3.178  1.00  0.00     0.227 C 
ATOM     20  O   UNL     1      -0.390   4.151  -4.188  1.00  0.00    -0.285 OA
BRANCH  19  21
ATOM     21  C   UNL     1       0.845   3.516  -2.327  1.00  0.00     0.113 A 
ATOM     22  C   UNL     1       0.700   1.775  -0.673  1.00  0.00    -0.044 A 
ATOM     23  C   UNL     1       1.910   1.285  -1.176  1.00  0.00     0.024 A 
ATOM     24  C   UNL     1       0.151   2.918  -1.279  1.00  0.00     0.036 A 
ATOM     25  C   UNL     1       2.547   1.978  -2.193  1.00  0.00     0.112 A 
ATOM     26  N   UNL     1       2.058   3.100  -2.760  1.00  0.00    -0.253 NA
BRANCH  22  27
ATOM     27  C   UNL     1      -0.025   1.137   0.492  1.00  0.00     0.032 C 
ATOM     28  C   UNL     1       0.477  -0.229   0.951  1.00  0.00     0.009 C 
ENDBRANCH  22  27
ENDBRANCH  19  21
ENDBRANCH  10  19
BRANCH  18  29
ATOM     29  O   UNL     1      -1.474  11.280  -1.032  1.00  0.00    -0.406 OA
BRANCH  29  30
ATOM     30  C   UNL     1      -1.647  11.875   0.244  1.00  0.00     0.573 C 
ATOM     31  F   UNL     1      -2.070  10.976   1.161  1.00  0.00    -0.132 F 
ATOM     32  F   UNL     1      -0.499  12.444   0.668  1.00  0.00    -0.132 F 
ATOM     33  F   UNL     1      -2.585  12.843   0.147  1.00  0.00    -0.132 F 
ENDBRANCH  29  30
ENDBRANCH  18  29
ENDBRANCH   8   9
ENDBRANCH   6   8
ENDBRANCH   5   6
ENDBRANCH   4   5
ENDBRANCH   3   4
ENDBRANCH   2   3
ENDBRANCH   1   2
BRANCH   1  34
ATOM     34  C   UNL     1       2.599   6.022  -5.458  1.00  0.00     0.188 C 
BRANCH  34  35
ATOM     35  O   UNL     1       3.865   6.672  -5.457  1.00  0.00    -0.376 OA
BRANCH  35  36
ATOM     36  C   UNL     1       4.898   6.077  -6.233  1.00  0.00     0.202 C 
BRANCH  36  37
ATOM     37  C   UNL     1       5.274   4.672  -5.775  1.00  0.00     0.261 C 
BRANCH  37  38
ATOM     38  O   UNL     1       4.246   3.742  -6.154  1.00  0.00    -0.460 OA
BRANCH  38  39
ATOM     39  C   UNL     1       4.380   2.522  -5.592  1.00  0.00     0.338 C 
ATOM     40  O   UNL     1       5.318   2.130  -4.920  1.00  0.00    -0.246 OA
BRANCH  39  41
ATOM     41  C   UNL     1       3.200   1.675  -5.867  1.00  0.00     0.060 A 
ATOM     42  C   UNL     1       1.908   2.129  -5.599  1.00  0.00     0.016 A 
ATOM     43  C   UNL     1       3.409   0.333  -6.176  1.00  0.00     0.016 A 
ATOM     44  C   UNL     1       0.854   1.221  -5.485  1.00  0.00     0.010 A 
ATOM     45  C   UNL     1       2.337  -0.561  -6.151  1.00  0.00     0.010 A 
ATOM     46  C   UNL     1       1.061  -0.139  -5.739  1.00  0.00    -0.014 A 
BRANCH  46  47
ATOM     47  C   UNL     1      -0.006  -1.148  -5.498  1.00  0.00     0.031 A 
ATOM     48  C   UNL     1       0.210  -2.239  -4.482  1.00  0.00     0.074 A 
ATOM     49  C   UNL     1      -1.166  -1.104  -6.178  1.00  0.00     0.049 A 
ATOM     50  N   UNL     1      -0.473  -3.338  -4.279  1.00  0.00    -0.248 NA
ATOM     51  C   UNL     1       1.349  -2.065  -3.565  1.00  0.00     0.031 C 
ATOM     52  C   UNL     1      -1.568  -0.048  -7.104  1.00  0.00     0.029 A 
ATOM     53  N   UNL     1      -2.215  -1.991  -6.204  1.00  0.00    -0.354 N 
ATOM     54  C   UNL     1       0.164  -3.996  -3.235  1.00  0.00     0.074 A 
ATOM     55  C   UNL     1       1.299  -3.182  -2.853  1.00  0.00     0.031 C 
ATOM     56  C   UNL     1      -2.772  -0.348  -7.613  1.00  0.00     0.029 A 
ATOM     57  C   UNL     1      -3.179  -1.661  -7.123  1.00  0.00     0.049 A 
ATOM     58  H   UNL     1      -2.270  -2.783  -5.621  1.00  0.00     0.167 HD
ATOM     59  C   UNL     1      -0.166  -5.175  -2.652  1.00  0.00     0.037 A 
ATOM     60  C   UNL     1      -4.233  -2.366  -7.579  1.00  0.00     0.037 A 
ATOM     61  C   UNL     1      -1.289  -5.987  -3.044  1.00  0.00     0.049 A 
ATOM     62  C   UNL     1      -4.479  -3.750  -7.050  1.00  0.00     0.074 A 
ATOM     63  C   UNL     1      -1.694  -7.209  -2.535  1.00  0.00     0.029 A 
ATOM     64  N   UNL     1      -2.183  -5.662  -4.054  1.00  0.00    -0.354 N 
ATOM     65  N   UNL     1      -3.841  -4.402  -6.109  1.00  0.00    -0.248 NA
ATOM     66  C   UNL     1      -5.576  -4.507  -7.668  1.00  0.00     0.031 C 
ATOM     67  C   UNL     1      -2.797  -7.650  -3.277  1.00  0.00     0.029 A 
ATOM     68  C   UNL     1      -3.114  -6.678  -4.211  1.00  0.00     0.049 A 
ATOM     69  H   UNL     1      -2.161  -4.830  -4.581  1.00  0.00     0.167 HD
ATOM     70  C   UNL     1      -4.467  -5.637  -6.009  1.00  0.00     0.074 A 
ATOM     71  C   UNL     1      -5.544  -5.639  -6.978  1.00  0.00     0.031 C 
ATOM     72  C   UNL     1      -4.175  -6.675  -5.186  1.00  0.00     0.037 A 
BRANCH  59  73
ATOM     73  C   UNL     1       0.734  -5.683  -1.563  1.00  0.00     0.064 A 
ATOM     74  C   UNL     1       0.763  -5.096  -0.290  1.00  0.00     0.173 A 
ATOM     75  C   UNL     1       1.564  -6.791  -1.793  1.00  0.00     0.173 A 
ATOM     76  F   UNL     1       0.004  -4.022  -0.023  1.00  0.00    -0.203 F 
ATOM     77  C   UNL     1       1.607  -5.585   0.705  1.00  0.00     0.198 A 
ATOM     78  C   UNL     1       2.388  -7.293  -0.789  1.00  0.00     0.198 A 
ATOM     79  F   UNL     1       1.574  -7.391  -2.993  1.00  0.00    -0.203 F 
ATOM     80  F   UNL     1       1.653  -4.979   1.899  1.00  0.00    -0.200 F 
ATOM     81  C   UNL     1       2.414  -6.685   0.456  1.00  0.00     0.200 A 
ATOM     82  F   UNL     1       3.162  -8.361  -1.030  1.00  0.00    -0.200 F 
ATOM     83  F   UNL     1       3.226  -7.153   1.415  1.00  0.00    -0.200 F 
ENDBRANCH  59  73
BRANCH  60  84
ATOM     84  C   UNL     1      -5.087  -1.788  -8.648  1.00  0.00     0.064 A 
ATOM     85  C   UNL     1      -6.410  -1.411  -8.389  1.00  0.00     0.173 A 
ATOM     86  C   UNL     1      -4.588  -1.577  -9.943  1.00  0.00     0.173 A 
ATOM     87  F   UNL     1      -6.942  -1.625  -7.176  1.00  0.00    -0.203 F 
ATOM     88  C   UNL     1      -7.200  -0.837  -9.383  1.00  0.00     0.198 A 
ATOM     89  C   UNL     1      -5.368  -0.975 -10.926  1.00  0.00     0.198 A 
ATOM     90  F   UNL     1      -3.330  -1.932 -10.245  1.00  0.00    -0.203 F 
ATOM     91  F   UNL     1      -8.473  -0.513  -9.119  1.00  0.00    -0.200 F 
ATOM     92  C   UNL     1      -6.675  -0.608 -10.646  1.00  0.00     0.200 A 
ATOM     93  F   UNL     1      -4.851  -0.746 -12.141  1.00  0.00    -0.200 F 
ATOM     94  F   UNL     1      -7.431  -0.041 -11.596  1.00  0.00    -0.200 F 
ENDBRANCH  60  84
BRANCH  72  95
ATOM     95  C   UNL     1      -5.051  -7.890  -5.280  1.00  0.00     0.064 A 
ATOM     96  C   UNL     1      -4.978  -8.765  -6.374  1.00  0.00     0.173 A 
ATOM     97  C   UNL     1      -5.959  -8.194  -4.255  1.00  0.00     0.173 A 
ATOM     98  F   UNL     1      -4.138  -8.509  -7.388  1.00  0.00    -0.203 F 
ATOM     99  C   UNL     1      -5.801  -9.886  -6.450  1.00  0.00     0.198 A 
ATOM    100  C   UNL     1      -6.760  -9.330  -4.320  1.00  0.00     0.198 A 
ATOM    101  F   UNL     1      -6.064  -7.392  -3.184  1.00  0.00    -0.203 F 
ATOM    102  F   UNL     1      -5.750 -10.681  -7.527  1.00  0.00    -0.200 F 
ATOM    103  C   UNL     1      -6.687 -10.170  -5.421  1.00  0.00     0.200 A 
ATOM    104  F   UNL     1      -7.607  -9.610  -3.320  1.00  0.00    -0.200 F 
ATOM    105  F   UNL     1      -7.477 -11.251  -5.495  1.00  0.00    -0.200 F 
ENDBRANCH  72  95
ENDBRANCH  46  47
ENDBRANCH  39  41
ENDBRANCH  38  39
ENDBRANCH  37  38
ENDBRANCH  36  37
ENDBRANCH  35  36
ENDBRANCH  34  35
ENDBRANCH   1  34
TORSDOF 23
