REMARK SMILES Cn1cc(C[C@@H](NC(=O)OCC2c3ccccc3-c3ccccc32)C(=O)OCCOCCOCCOC(=O)c2ccc(-c3c4nc(c(-c5c(F)c(F)c(F)c(F)c5F)c5ccc([nH]5)c(-c5c(F)c(F)c(F)c(F)c5F)c5nc(c(-c6c(F)c(F)c(F)c(F)c6F)c6ccc3[nH]6)C=C5)C=C4)cc2)c2ccccc21
REMARK SMILES IDX 31 1 30 2 29 3 28 4 27 5 25 6 26 7 6 8 5 9 4 10 1 11 2 12
REMARK SMILES IDX 3 13 107 14 102 15 106 16 103 17 105 18 104 19 7 20 8 21
REMARK SMILES IDX 9 23 10 24 11 25 12 26 13 27 24 28 14 29 18 30 19 31 23 32
REMARK SMILES IDX 15 33 17 34 20 35 22 36 16 37 21 38 32 39 33 40 34 41 35 42
REMARK SMILES IDX 36 43 37 44 38 45 39 46 40 47 101 48 41 49 100 50 42 51
REMARK SMILES IDX 43 52 44 53 94 54 45 55 99 56 93 57 95 58 46 59 98 60 92 61
REMARK SMILES IDX 91 62 47 64 79 65 59 66 78 67 60 68 63 69 77 70 96 71 61 72
REMARK SMILES IDX 62 73 76 75 97 76 64 77 48 78 49 79 57 80 50 81 51 82 55 83
REMARK SMILES IDX 58 84 52 85 53 86 56 87 54 88 80 89 81 90 89 91 82 92 83 93
REMARK SMILES IDX 87 94 90 95 84 96 85 97 88 98 86 99 65 100 66 101 74 102
REMARK SMILES IDX 67 103 68 104 72 105 75 106 69 107 70 108 73 109 71 110
REMARK H PARENT 7 22 95 63 63 74
REMARK Flexibility Score: inf
ROOT
ATOM      1  C   UNL     1       2.508  -7.105   1.502  1.00  0.00     0.188 C 
ENDROOT
BRANCH   1   2
ATOM      2  O   UNL     1       1.918  -8.383   1.303  1.00  0.00    -0.376 OA
BRANCH   2   3
ATOM      3  C   UNL     1       0.627  -8.450   0.696  1.00  0.00     0.202 C 
BRANCH   3   4
ATOM      4  C   UNL     1      -0.459  -7.504   1.219  1.00  0.00     0.261 C 
BRANCH   4   5
ATOM      5  O   UNL     1      -0.326  -6.139   0.758  1.00  0.00    -0.462 OA
BRANCH   5   6
ATOM      6  C   UNL     1      -0.315  -5.176   1.726  1.00  0.00     0.329 C 
ATOM      7  O   UNL     1      -0.190  -5.404   2.926  1.00  0.00    -0.250 OA
BRANCH   6   8
ATOM      8  C   UNL     1      -0.604  -3.764   1.181  1.00  0.00     0.200 C 
BRANCH   8   9
ATOM      9  C   UNL     1       0.033  -3.317  -0.157  1.00  0.00     0.075 C 
BRANCH   9  10
ATOM     10  C   UNL     1       0.285  -1.815  -0.181  1.00  0.00    -0.020 A 
ATOM     11  C   UNL     1       2.332   1.184   0.087  1.00  0.00     0.149 C 
ATOM     12  N   UNL     1       1.298   0.176  -0.003  1.00  0.00    -0.350 N 
ATOM     13  C   UNL     1       1.506  -1.180  -0.012  1.00  0.00     0.090 A 
ATOM     14  C   UNL     1      -0.048   0.450  -0.105  1.00  0.00     0.048 A 
ATOM     15  C   UNL     1      -0.693  -0.771  -0.322  1.00  0.00     0.003 A 
ATOM     16  C   UNL     1      -0.748   1.667  -0.037  1.00  0.00     0.027 A 
ATOM     17  C   UNL     1      -2.081  -0.753  -0.570  1.00  0.00     0.010 A 
ATOM     18  C   UNL     1      -2.135   1.639  -0.208  1.00  0.00     0.002 A 
ATOM     19  C   UNL     1      -2.792   0.448  -0.488  1.00  0.00     0.001 A 
ENDBRANCH   9  10
ENDBRANCH   8   9
BRANCH   8  20
ATOM     20  N   UNL     1      -2.025  -3.432   1.230  1.00  0.00    -0.308 N 
ATOM     21  C   UNL     1      -3.049  -4.189   0.749  1.00  0.00     0.407 C 
ATOM     22  H   UNL     1      -2.266  -2.577   1.653  1.00  0.00     0.168 HD
ATOM     23  O   UNL     1      -4.055  -3.681   0.276  1.00  0.00    -0.225 OA
BRANCH  21  24
ATOM     24  O   UNL     1      -2.896  -5.507   1.024  1.00  0.00    -0.449 OA
BRANCH  24  25
ATOM     25  C   UNL     1      -4.112  -6.257   1.199  1.00  0.00     0.248 C 
BRANCH  25  26
ATOM     26  C   UNL     1      -4.566  -6.312   2.677  1.00  0.00     0.088 C 
ATOM     27  C   UNL     1      -3.817  -7.332   3.539  1.00  0.00    -0.029 A 
ATOM     28  C   UNL     1      -4.350  -5.026   3.474  1.00  0.00    -0.029 A 
ATOM     29  C   UNL     1      -3.751  -8.710   3.394  1.00  0.00     0.005 A 
ATOM     30  C   UNL     1      -3.249  -6.693   4.663  1.00  0.00    -0.014 A 
ATOM     31  C   UNL     1      -3.516  -5.275   4.585  1.00  0.00    -0.014 A 
ATOM     32  C   UNL     1      -4.814  -3.747   3.207  1.00  0.00     0.005 A 
ATOM     33  C   UNL     1      -3.123  -9.453   4.400  1.00  0.00     0.000 A 
ATOM     34  C   UNL     1      -2.627  -7.430   5.660  1.00  0.00     0.009 A 
ATOM     35  C   UNL     1      -3.074  -4.233   5.385  1.00  0.00     0.009 A 
ATOM     36  C   UNL     1      -4.347  -2.693   3.995  1.00  0.00     0.000 A 
ATOM     37  C   UNL     1      -2.573  -8.820   5.526  1.00  0.00     0.001 A 
ATOM     38  C   UNL     1      -3.478  -2.933   5.069  1.00  0.00     0.001 A 
ENDBRANCH  25  26
ENDBRANCH  24  25
ENDBRANCH  21  24
ENDBRANCH   8  20
ENDBRANCH   6   8
ENDBRANCH   5   6
ENDBRANCH   4   5
ENDBRANCH   3   4
ENDBRANCH   2   3
ENDBRANCH   1   2
BRANCH   1  39
ATOM     39  C   UNL     1       2.523  -6.138   0.313  1.00  0.00     0.188 C 
BRANCH  39  40
ATOM     40  O   UNL     1       2.096  -6.699  -0.910  1.00  0.00    -0.376 OA
BRANCH  40  41
ATOM     41  C   UNL     1       3.093  -6.992  -1.880  1.00  0.00     0.202 C 
BRANCH  41  42
ATOM     42  C   UNL     1       4.301  -7.837  -1.443  1.00  0.00     0.261 C 
BRANCH  42  43
ATOM     43  O   UNL     1       5.042  -7.338  -0.313  1.00  0.00    -0.460 OA
BRANCH  43  44
ATOM     44  C   UNL     1       5.659  -6.140  -0.443  1.00  0.00     0.338 C 
ATOM     45  O   UNL     1       5.753  -5.467  -1.451  1.00  0.00    -0.246 OA
BRANCH  44  46
ATOM     46  C   UNL     1       5.963  -5.652   0.928  1.00  0.00     0.060 A 
ATOM     47  C   UNL     1       5.539  -4.364   1.290  1.00  0.00     0.016 A 
ATOM     48  C   UNL     1       6.596  -6.471   1.866  1.00  0.00     0.016 A 
ATOM     49  C   UNL     1       5.786  -3.877   2.575  1.00  0.00     0.010 A 
ATOM     50  C   UNL     1       6.868  -5.974   3.145  1.00  0.00     0.010 A 
ATOM     51  C   UNL     1       6.501  -4.661   3.491  1.00  0.00    -0.014 A 
BRANCH  51  52
ATOM     52  C   UNL     1       7.109  -4.014   4.680  1.00  0.00     0.031 A 
ATOM     53  C   UNL     1       8.513  -3.489   4.540  1.00  0.00     0.074 A 
ATOM     54  C   UNL     1       6.446  -3.863   5.840  1.00  0.00     0.049 A 
ATOM     55  N   UNL     1       9.282  -2.908   5.424  1.00  0.00    -0.248 NA
ATOM     56  C   UNL     1       9.134  -3.645   3.213  1.00  0.00     0.031 C 
ATOM     57  C   UNL     1       5.072  -4.286   6.096  1.00  0.00     0.029 A 
ATOM     58  N   UNL     1       6.856  -3.308   7.028  1.00  0.00    -0.354 N 
ATOM     59  C   UNL     1      10.472  -2.633   4.762  1.00  0.00     0.074 A 
ATOM     60  C   UNL     1      10.338  -3.137   3.414  1.00  0.00     0.031 C 
ATOM     61  C   UNL     1       4.756  -3.987   7.370  1.00  0.00     0.029 A 
ATOM     62  C   UNL     1       5.913  -3.374   8.023  1.00  0.00     0.049 A 
ATOM     63  H   UNL     1       7.744  -2.902   7.154  1.00  0.00     0.167 HD
ATOM     64  C   UNL     1      11.576  -2.007   5.229  1.00  0.00     0.037 A 
ATOM     65  C   UNL     1       5.987  -2.997   9.316  1.00  0.00     0.037 A 
ATOM     66  C   UNL     1      11.720  -1.513   6.571  1.00  0.00     0.049 A 
ATOM     67  C   UNL     1       7.256  -2.362   9.834  1.00  0.00     0.074 A 
ATOM     68  C   UNL     1      12.801  -0.867   7.142  1.00  0.00     0.029 A 
ATOM     69  N   UNL     1      10.749  -1.619   7.555  1.00  0.00    -0.354 N 
ATOM     70  N   UNL     1       8.368  -2.084   9.196  1.00  0.00    -0.248 NA
ATOM     71  C   UNL     1       7.274  -1.982  11.255  1.00  0.00     0.031 C 
ATOM     72  C   UNL     1      12.502  -0.622   8.486  1.00  0.00     0.029 A 
ATOM     73  C   UNL     1      11.213  -1.063   8.736  1.00  0.00     0.049 A 
ATOM     74  H   UNL     1       9.862  -2.027   7.433  1.00  0.00     0.167 HD
ATOM     75  C   UNL     1       9.198  -1.464  10.123  1.00  0.00     0.074 A 
ATOM     76  C   UNL     1       8.459  -1.399  11.366  1.00  0.00     0.031 C 
ATOM     77  C   UNL     1      10.457  -0.987   9.960  1.00  0.00     0.037 A 
BRANCH  64  78
ATOM     78  C   UNL     1      12.728  -1.851   4.282  1.00  0.00     0.064 A 
ATOM     79  C   UNL     1      12.677  -0.957   3.201  1.00  0.00     0.173 A 
ATOM     80  C   UNL     1      13.901  -2.599   4.463  1.00  0.00     0.173 A 
ATOM     81  F   UNL     1      11.568  -0.237   2.972  1.00  0.00    -0.203 F 
ATOM     82  C   UNL     1      13.750  -0.836   2.322  1.00  0.00     0.198 A 
ATOM     83  C   UNL     1      14.982  -2.453   3.599  1.00  0.00     0.198 A 
ATOM     84  F   UNL     1      13.998  -3.470   5.478  1.00  0.00    -0.203 F 
ATOM     85  F   UNL     1      13.660  -0.014   1.268  1.00  0.00    -0.200 F 
ATOM     86  C   UNL     1      14.904  -1.578   2.526  1.00  0.00     0.200 A 
ATOM     87  F   UNL     1      16.100  -3.165   3.802  1.00  0.00    -0.200 F 
ATOM     88  F   UNL     1      15.937  -1.457   1.682  1.00  0.00    -0.200 F 
ENDBRANCH  64  78
BRANCH  65  89
ATOM     89  C   UNL     1       4.830  -3.208  10.226  1.00  0.00     0.064 A 
ATOM     90  C   UNL     1       4.112  -2.123  10.749  1.00  0.00     0.173 A 
ATOM     91  C   UNL     1       4.448  -4.496  10.629  1.00  0.00     0.173 A 
ATOM     92  F   UNL     1       4.459  -0.870  10.421  1.00  0.00    -0.203 F 
ATOM     93  C   UNL     1       3.072  -2.317  11.657  1.00  0.00     0.198 A 
ATOM     94  C   UNL     1       3.390  -4.690  11.514  1.00  0.00     0.198 A 
ATOM     95  F   UNL     1       5.109  -5.567  10.166  1.00  0.00    -0.203 F 
ATOM     96  F   UNL     1       2.440  -1.260  12.185  1.00  0.00    -0.200 F 
ATOM     97  C   UNL     1       2.709  -3.601  12.035  1.00  0.00     0.200 A 
ATOM     98  F   UNL     1       3.039  -5.933  11.874  1.00  0.00    -0.200 F 
ATOM     99  F   UNL     1       1.712  -3.787  12.912  1.00  0.00    -0.200 F 
ENDBRANCH  65  89
BRANCH  77 100
ATOM    100  C   UNL     1      11.098  -0.299  11.132  1.00  0.00     0.064 A 
ATOM    101  C   UNL     1      11.524  -1.005  12.266  1.00  0.00     0.173 A 
ATOM    102  C   UNL     1      11.324   1.086  11.098  1.00  0.00     0.173 A 
ATOM    103  F   UNL     1      11.322  -2.329  12.352  1.00  0.00    -0.203 F 
ATOM    104  C   UNL     1      12.123  -0.346  13.336  1.00  0.00     0.198 A 
ATOM    105  C   UNL     1      11.952   1.737  12.156  1.00  0.00     0.198 A 
ATOM    106  F   UNL     1      10.947   1.808  10.032  1.00  0.00    -0.203 F 
ATOM    107  F   UNL     1      12.475  -1.033  14.432  1.00  0.00    -0.200 F 
ATOM    108  C   UNL     1      12.342   1.023  13.278  1.00  0.00     0.200 A 
ATOM    109  F   UNL     1      12.178   3.057  12.090  1.00  0.00    -0.200 F 
ATOM    110  F   UNL     1      12.924   1.654  14.307  1.00  0.00    -0.200 F 
ENDBRANCH  77 100
ENDBRANCH  51  52
ENDBRANCH  44  46
ENDBRANCH  43  44
ENDBRANCH  42  43
ENDBRANCH  41  42
ENDBRANCH  40  41
ENDBRANCH  39  40
ENDBRANCH   1  39
TORSDOF 23
