REMARK SMILES C[C@@H]1CN(C(=O)Nc2ccc(O)c(C(=O)OCCOCCOCCOC(=O)c3ccc(-c4c5nc(c(-c6c(F)c(F)c(F)c(F)c6F)c6ccc([nH]6)c(-c6c(F)c(F)c(F)c(F)c6F)c6nc(c(-c7c(F)c(F)c(F)c(F)c7F)c7ccc4[nH]7)C=C6)C=C5)cc3)c2)C[C@H]1C
REMARK SMILES IDX 21 1 20 2 19 3 18 4 17 5 16 6 14 7 15 8 13 9 8 10 9 11 91 12
REMARK SMILES IDX 10 13 11 14 7 15 1 16 2 17 3 18 93 19 4 20 92 21 94 22 5 23
REMARK SMILES IDX 6 24 12 26 22 28 23 29 24 30 25 31 26 32 27 33 28 34 29 35
REMARK SMILES IDX 90 36 30 37 89 38 31 39 32 40 33 41 83 42 34 43 88 44 82 45
REMARK SMILES IDX 84 46 35 47 87 48 81 49 80 50 36 52 68 53 48 54 67 55 49 56
REMARK SMILES IDX 52 57 66 58 85 59 50 60 51 61 65 63 86 64 53 65 37 66 38 67
REMARK SMILES IDX 46 68 39 69 40 70 44 71 47 72 41 73 42 74 45 75 43 76 69 77
REMARK SMILES IDX 70 78 78 79 71 80 72 81 76 82 79 83 73 84 74 85 77 86 75 87
REMARK SMILES IDX 54 88 55 89 63 90 56 91 57 92 61 93 64 94 58 95 59 96 62 97
REMARK SMILES IDX 60 98
REMARK H PARENT 7 25 12 27 84 51 52 62
REMARK Flexibility Score: inf
ROOT
ATOM      1  C   UNL     1       8.022   4.566   0.631  1.00  0.00     0.188 C 
ENDROOT
BRANCH   1   2
ATOM      2  C   UNL     1       7.761   4.880   2.119  1.00  0.00     0.188 C 
BRANCH   2   3
ATOM      3  O   UNL     1       8.654   4.425   3.119  1.00  0.00    -0.376 OA
BRANCH   3   4
ATOM      4  C   UNL     1       8.909   3.029   3.240  1.00  0.00     0.202 C 
BRANCH   4   5
ATOM      5  C   UNL     1       7.732   2.054   3.289  1.00  0.00     0.261 C 
BRANCH   5   6
ATOM      6  O   UNL     1       6.956   2.121   2.087  1.00  0.00    -0.460 OA
BRANCH   6   7
ATOM      7  C   UNL     1       5.611   2.168   2.254  1.00  0.00     0.342 C 
ATOM      8  O   UNL     1       4.999   2.059   3.296  1.00  0.00    -0.246 OA
BRANCH   7   9
ATOM      9  C   UNL     1       4.987   2.654   1.003  1.00  0.00     0.103 A 
ATOM     10  C   UNL     1       3.390   4.160   0.008  1.00  0.00     0.044 A 
ATOM     11  C   UNL     1       3.777   3.737  -1.266  1.00  0.00     0.030 A 
ATOM     12  C   UNL     1       4.048   3.686   1.138  1.00  0.00     0.045 A 
ATOM     13  C   UNL     1       4.733   2.728  -1.405  1.00  0.00     0.049 A 
ATOM     14  C   UNL     1       5.305   2.158  -0.267  1.00  0.00     0.130 A 
BRANCH  10  15
ATOM     15  N   UNL     1       2.283   4.987   0.183  1.00  0.00    -0.308 N 
ATOM     16  C   UNL     1       0.617  -0.172   0.039  1.00  0.00     0.010 C 
ATOM     17  C   UNL     1       0.198   1.136  -0.615  1.00  0.00     0.010 C 
ATOM     18  C   UNL     1       1.234   2.228  -0.388  1.00  0.00     0.125 C 
ATOM     19  C   UNL     1      -1.074   1.767  -0.045  1.00  0.00     0.010 C 
ATOM     20  N   UNL     1       0.510   3.491  -0.378  1.00  0.00    -0.324 N 
ATOM     21  C   UNL     1      -0.923   3.236  -0.456  1.00  0.00     0.125 C 
ATOM     22  C   UNL     1      -2.342   1.121  -0.574  1.00  0.00     0.010 C 
ATOM     23  C   UNL     1       0.967   4.757  -0.110  1.00  0.00     0.321 C 
ATOM     24  O   UNL     1       0.195   5.714  -0.000  1.00  0.00    -0.248 OA
ATOM     25  H   UNL     1       2.476   5.869   0.576  1.00  0.00     0.171 HD
ENDBRANCH  10  15
BRANCH  14  26
ATOM     26  O   UNL     1       6.160   1.103  -0.401  1.00  0.00    -0.507 OA
ATOM     27  H   UNL     1       6.370   0.775  -1.253  1.00  0.00     0.293 HD
ENDBRANCH  14  26
ENDBRANCH   7   9
ENDBRANCH   6   7
ENDBRANCH   5   6
ENDBRANCH   4   5
ENDBRANCH   3   4
ENDBRANCH   2   3
ENDBRANCH   1   2
BRANCH   1  28
ATOM     28  O   UNL     1       9.135   3.807   0.219  1.00  0.00    -0.376 OA
BRANCH  28  29
ATOM     29  C   UNL     1      10.455   4.277   0.422  1.00  0.00     0.202 C 
BRANCH  29  30
ATOM     30  C   UNL     1      10.851   5.761   0.392  1.00  0.00     0.261 C 
BRANCH  30  31
ATOM     31  O   UNL     1       9.886   6.696   0.882  1.00  0.00    -0.460 OA
BRANCH  31  32
ATOM     32  C   UNL     1       9.340   7.499  -0.064  1.00  0.00     0.338 C 
ATOM     33  O   UNL     1       9.562   7.497  -1.262  1.00  0.00    -0.246 OA
BRANCH  32  34
ATOM     34  C   UNL     1       8.267   8.303   0.546  1.00  0.00     0.060 A 
ATOM     35  C   UNL     1       6.956   8.123   0.087  1.00  0.00     0.016 A 
ATOM     36  C   UNL     1       8.559   9.263   1.516  1.00  0.00     0.016 A 
ATOM     37  C   UNL     1       5.929   8.922   0.586  1.00  0.00     0.010 A 
ATOM     38  C   UNL     1       7.531  10.076   2.000  1.00  0.00     0.010 A 
ATOM     39  C   UNL     1       6.217   9.927   1.519  1.00  0.00    -0.014 A 
BRANCH  39  40
ATOM     40  C   UNL     1       5.174  10.915   1.882  1.00  0.00     0.031 A 
ATOM     41  C   UNL     1       5.152  12.240   1.171  1.00  0.00     0.074 A 
ATOM     42  C   UNL     1       4.258  10.638   2.827  1.00  0.00     0.049 A 
ATOM     43  N   UNL     1       4.369  13.271   1.360  1.00  0.00    -0.248 NA
ATOM     44  C   UNL     1       6.150  12.429   0.106  1.00  0.00     0.031 C 
ATOM     45  C   UNL     1       4.162   9.382   3.568  1.00  0.00     0.029 A 
ATOM     46  N   UNL     1       3.242  11.409   3.335  1.00  0.00    -0.354 N 
ATOM     47  C   UNL     1       4.784  14.232   0.448  1.00  0.00     0.074 A 
ATOM     48  C   UNL     1       5.900  13.672  -0.283  1.00  0.00     0.031 C 
ATOM     49  C   UNL     1       3.155   9.476   4.455  1.00  0.00     0.029 A 
ATOM     50  C   UNL     1       2.557  10.808   4.362  1.00  0.00     0.049 A 
ATOM     51  H   UNL     1       3.025  12.307   2.995  1.00  0.00     0.167 HD
ATOM     52  C   UNL     1       4.277  15.469   0.239  1.00  0.00     0.037 A 
ATOM     53  C   UNL     1       1.580  11.292   5.155  1.00  0.00     0.037 A 
ATOM     54  C   UNL     1       3.158  16.021   0.956  1.00  0.00     0.049 A 
ATOM     55  C   UNL     1       1.069  12.694   4.929  1.00  0.00     0.074 A 
ATOM     56  C   UNL     1       2.542  17.248   0.777  1.00  0.00     0.029 A 
ATOM     57  N   UNL     1       2.495  15.387   1.994  1.00  0.00    -0.354 N 
ATOM     58  N   UNL     1       1.432  13.576   4.030  1.00  0.00    -0.248 NA
ATOM     59  C   UNL     1       0.006  13.166   5.830  1.00  0.00     0.031 C 
ATOM     60  C   UNL     1       1.542  17.379   1.745  1.00  0.00     0.029 A 
ATOM     61  C   UNL     1       1.498  16.212   2.489  1.00  0.00     0.049 A 
ATOM     62  H   UNL     1       2.701  14.484   2.330  1.00  0.00     0.167 HD
ATOM     63  C   UNL     1       0.625  14.688   4.236  1.00  0.00     0.074 A 
ATOM     64  C   UNL     1      -0.259  14.366   5.335  1.00  0.00     0.031 C 
ATOM     65  C   UNL     1       0.617  15.872   3.576  1.00  0.00     0.037 A 
BRANCH  52  66
ATOM     66  C   UNL     1       4.935  16.332  -0.795  1.00  0.00     0.064 A 
ATOM     67  C   UNL     1       4.769  16.097  -2.167  1.00  0.00     0.173 A 
ATOM     68  C   UNL     1       5.676  17.458  -0.403  1.00  0.00     0.173 A 
ATOM     69  F   UNL     1       4.080  15.026  -2.590  1.00  0.00    -0.203 F 
ATOM     70  C   UNL     1       5.327  16.956  -3.111  1.00  0.00     0.198 A 
ATOM     71  C   UNL     1       6.210  18.327  -1.349  1.00  0.00     0.198 A 
ATOM     72  F   UNL     1       5.860  17.727   0.898  1.00  0.00    -0.203 F 
ATOM     73  F   UNL     1       5.177  16.700  -4.418  1.00  0.00    -0.200 F 
ATOM     74  C   UNL     1       6.037  18.075  -2.702  1.00  0.00     0.200 A 
ATOM     75  F   UNL     1       6.886  19.415  -0.952  1.00  0.00    -0.200 F 
ATOM     76  F   UNL     1       6.556  18.911  -3.612  1.00  0.00    -0.200 F 
ENDBRANCH  52  66
BRANCH  53  77
ATOM     77  C   UNL     1       1.035  10.466   6.266  1.00  0.00     0.064 A 
ATOM     78  C   UNL     1      -0.296  10.026   6.261  1.00  0.00     0.173 A 
ATOM     79  C   UNL     1       1.819  10.156   7.387  1.00  0.00     0.173 A 
ATOM     80  F   UNL     1      -1.095  10.325   5.226  1.00  0.00    -0.203 F 
ATOM     81  C   UNL     1      -0.831   9.338   7.348  1.00  0.00     0.198 A 
ATOM     82  C   UNL     1       1.292   9.440   8.460  1.00  0.00     0.198 A 
ATOM     83  F   UNL     1       3.097  10.558   7.446  1.00  0.00    -0.203 F 
ATOM     84  F   UNL     1      -2.126   8.992   7.348  1.00  0.00    -0.200 F 
ATOM     85  C   UNL     1      -0.036   9.043   8.445  1.00  0.00     0.200 A 
ATOM     86  F   UNL     1       2.066   9.151   9.515  1.00  0.00    -0.200 F 
ATOM     87  F   UNL     1      -0.554   8.393   9.496  1.00  0.00    -0.200 F 
ENDBRANCH  53  77
BRANCH  65  88
ATOM     88  C   UNL     1      -0.402  16.893   3.995  1.00  0.00     0.064 A 
ATOM     89  C   UNL     1      -0.299  17.581   5.213  1.00  0.00     0.173 A 
ATOM     90  C   UNL     1      -1.473  17.216   3.147  1.00  0.00     0.173 A 
ATOM     91  F   UNL     1       0.699  17.300   6.064  1.00  0.00    -0.203 F 
ATOM     92  C   UNL     1      -1.246  18.535   5.579  1.00  0.00     0.198 A 
ATOM     93  C   UNL     1      -2.400  18.193   3.502  1.00  0.00     0.198 A 
ATOM     94  F   UNL     1      -1.613  16.596   1.966  1.00  0.00    -0.203 F 
ATOM     95  F   UNL     1      -1.154  19.144   6.769  1.00  0.00    -0.200 F 
ATOM     96  C   UNL     1      -2.290  18.845   4.721  1.00  0.00     0.200 A 
ATOM     97  F   UNL     1      -3.398  18.504   2.664  1.00  0.00    -0.200 F 
ATOM     98  F   UNL     1      -3.195  19.769   5.071  1.00  0.00    -0.200 F 
ENDBRANCH  65  88
ENDBRANCH  39  40
ENDBRANCH  32  34
ENDBRANCH  31  32
ENDBRANCH  30  31
ENDBRANCH  29  30
ENDBRANCH  28  29
ENDBRANCH   1  28
TORSDOF 19
