REMARK SMILES C[N@H+]1CCO[C@H](CNC(=O)c2ccc(/C=C/C(=O)OCCOCCOCCOC(=O)c3ccc(-c4c5nc(c(-c6c(F)c(F)c(F)c(F)c6F)c6ccc([nH]6)c(-c6c(F)c(F)c(F)c(F)c6F)c6nc(c(-c7c(F)c(F)c(F)c(F)c7F)c7ccc4[nH]7)C=C6)C=C5)cc3)s2)C1
REMARK SMILES IDX 23 1 22 2 21 3 20 4 19 5 17 6 18 7 16 8 15 9 14 10 11 11
REMARK SMILES IDX 12 12 94 13 13 14 9 15 8 16 10 18 7 19 6 20 1 21 2 22 3 23
REMARK SMILES IDX 95 24 4 26 5 27 24 28 25 29 26 30 27 31 28 32 29 33 30 34
REMARK SMILES IDX 31 35 32 36 93 37 33 38 92 39 34 40 35 41 36 42 86 43 37 44
REMARK SMILES IDX 91 45 85 46 87 47 38 48 90 49 84 50 83 51 39 53 71 54 51 55
REMARK SMILES IDX 70 56 52 57 55 58 69 59 88 60 53 61 54 62 68 64 89 65 56 66
REMARK SMILES IDX 40 67 41 68 49 69 42 70 43 71 47 72 50 73 44 74 45 75 48 76
REMARK SMILES IDX 46 77 72 78 73 79 81 80 74 81 75 82 79 83 82 84 76 85 77 86
REMARK SMILES IDX 80 87 78 88 57 89 58 90 66 91 59 92 60 93 64 94 67 95 61 96
REMARK SMILES IDX 62 97 65 98 63 99
REMARK H PARENT 8 17 2 25 87 52 55 63
REMARK Flexibility Score: inf
ROOT
ATOM      1  C   UNL     1       6.261  12.407  -0.681  1.00  0.00     0.188 C 
ENDROOT
BRANCH   1   2
ATOM      2  O   UNL     1       6.706  13.286   0.338  1.00  0.00    -0.376 OA
BRANCH   2   3
ATOM      3  C   UNL     1       7.450  12.787   1.439  1.00  0.00     0.202 C 
BRANCH   3   4
ATOM      4  C   UNL     1       7.058  11.490   2.166  1.00  0.00     0.261 C 
BRANCH   4   5
ATOM      5  O   UNL     1       6.697  10.384   1.327  1.00  0.00    -0.460 OA
BRANCH   5   6
ATOM      6  C   UNL     1       5.399   9.998   1.397  1.00  0.00     0.330 C 
ATOM      7  O   UNL     1       4.534  10.491   2.106  1.00  0.00    -0.247 OA
BRANCH   6   8
ATOM      8  C   UNL     1       5.066   8.963   0.396  1.00  0.00     0.095 C 
ATOM      9  C   UNL     1       5.955   8.133  -0.171  1.00  0.00     0.026 C 
BRANCH   9  10
ATOM     10  C   UNL     1       5.599   7.134  -1.132  1.00  0.00     0.028 A 
ATOM     11  C   UNL     1       4.437   5.634  -2.753  1.00  0.00     0.092 A 
ATOM     12  C   UNL     1       5.723   5.215  -2.481  1.00  0.00     0.026 A 
ATOM     13  S   UNL     1       4.100   7.122  -1.990  1.00  0.00    -0.131 S 
ATOM     14  C   UNL     1       6.381   6.067  -1.547  1.00  0.00     0.021 A 
BRANCH  11  15
ATOM     15  C   UNL     1       3.421   5.010  -3.580  1.00  0.00     0.261 C 
ATOM     16  N   UNL     1       3.138   3.675  -3.384  1.00  0.00    -0.348 N 
ATOM     17  H   UNL     1       2.603   3.241  -4.087  1.00  0.00     0.163 HD
ATOM     18  O   UNL     1       2.806   5.602  -4.467  1.00  0.00    -0.268 OA
BRANCH  16  19
ATOM     19  C   UNL     1       3.529   2.824  -2.265  1.00  0.00     0.154 C 
BRANCH  19  20
ATOM     20  C   UNL     1       2.351   2.322  -1.410  1.00  0.00     0.192 C 
ATOM     21  C   UNL     1       0.897  -0.091  -0.110  1.00  0.00     0.332 C 
ATOM     22  N   UNL     1       0.463   0.658  -1.291  1.00  0.00    -0.333 N 
ATOM     23  C   UNL     1      -0.399   1.805  -0.931  1.00  0.00     0.290 C 
ATOM     24  C   UNL     1       1.596   1.164  -2.094  1.00  0.00     0.296 C 
ATOM     25  H   UNL     1      -0.067  -0.011  -1.850  1.00  0.00     0.348 HD
ATOM     26  C   UNL     1       0.366   2.987  -0.303  1.00  0.00     0.222 C 
ATOM     27  O   UNL     1       1.463   3.415  -1.121  1.00  0.00    -0.365 OA
ENDBRANCH  19  20
ENDBRANCH  16  19
ENDBRANCH  11  15
ENDBRANCH   9  10
ENDBRANCH   6   8
ENDBRANCH   5   6
ENDBRANCH   4   5
ENDBRANCH   3   4
ENDBRANCH   2   3
ENDBRANCH   1   2
BRANCH   1  28
ATOM     28  C   UNL     1       7.255  11.462  -1.386  1.00  0.00     0.188 C 
BRANCH  28  29
ATOM     29  O   UNL     1       8.550  11.399  -0.844  1.00  0.00    -0.376 OA
BRANCH  29  30
ATOM     30  C   UNL     1       9.553  12.308  -1.270  1.00  0.00     0.202 C 
BRANCH  30  31
ATOM     31  C   UNL     1       9.348  13.534  -2.185  1.00  0.00     0.261 C 
BRANCH  31  32
ATOM     32  O   UNL     1       8.026  13.851  -2.623  1.00  0.00    -0.460 OA
BRANCH  32  33
ATOM     33  C   UNL     1       7.726  13.521  -3.905  1.00  0.00     0.338 C 
ATOM     34  O   UNL     1       8.426  12.943  -4.708  1.00  0.00    -0.246 OA
BRANCH  33  35
ATOM     35  C   UNL     1       6.307  13.855  -4.133  1.00  0.00     0.060 A 
ATOM     36  C   UNL     1       5.364  12.821  -4.215  1.00  0.00     0.016 A 
ATOM     37  C   UNL     1       5.915  15.188  -4.259  1.00  0.00     0.016 A 
ATOM     38  C   UNL     1       4.015  13.122  -4.405  1.00  0.00     0.010 A 
ATOM     39  C   UNL     1       4.569  15.485  -4.475  1.00  0.00     0.010 A 
ATOM     40  C   UNL     1       3.613  14.456  -4.557  1.00  0.00    -0.014 A 
BRANCH  40  41
ATOM     41  C   UNL     1       2.216  14.789  -4.921  1.00  0.00     0.031 A 
ATOM     42  C   UNL     1       1.892  15.081  -6.357  1.00  0.00     0.074 A 
ATOM     43  C   UNL     1       1.257  14.865  -3.983  1.00  0.00     0.049 A 
ATOM     44  N   UNL     1       0.777  15.510  -6.890  1.00  0.00    -0.248 NA
ATOM     45  C   UNL     1       2.982  14.867  -7.321  1.00  0.00     0.031 C 
ATOM     46  C   UNL     1       1.433  14.552  -2.567  1.00  0.00     0.029 A 
ATOM     47  N   UNL     1      -0.057  15.249  -4.085  1.00  0.00    -0.354 N 
ATOM     48  C   UNL     1       1.033  15.630  -8.249  1.00  0.00     0.074 A 
ATOM     49  C   UNL     1       2.417  15.256  -8.453  1.00  0.00     0.031 C 
ATOM     50  C   UNL     1       0.271  14.766  -1.928  1.00  0.00     0.029 A 
ATOM     51  C   UNL     1      -0.715  15.274  -2.881  1.00  0.00     0.049 A 
ATOM     52  H   UNL     1      -0.486  15.483  -4.939  1.00  0.00     0.167 HD
ATOM     53  C   UNL     1       0.188  16.015  -9.236  1.00  0.00     0.037 A 
ATOM     54  C   UNL     1      -1.962  15.690  -2.582  1.00  0.00     0.037 A 
ATOM     55  C   UNL     1      -1.184  16.398  -9.021  1.00  0.00     0.049 A 
ATOM     56  C   UNL     1      -2.846  16.226  -3.680  1.00  0.00     0.074 A 
ATOM     57  C   UNL     1      -2.130  16.778  -9.956  1.00  0.00     0.029 A 
ATOM     58  N   UNL     1      -1.800  16.465  -7.779  1.00  0.00    -0.354 N 
ATOM     59  N   UNL     1      -2.614  16.312  -4.967  1.00  0.00    -0.248 NA
ATOM     60  C   UNL     1      -4.167  16.733  -3.277  1.00  0.00     0.031 C 
ATOM     61  C   UNL     1      -3.295  17.146  -9.274  1.00  0.00     0.029 A 
ATOM     62  C   UNL     1      -3.100  16.927  -7.920  1.00  0.00     0.049 A 
ATOM     63  H   UNL     1      -1.376  16.222  -6.925  1.00  0.00     0.167 HD
ATOM     64  C   UNL     1      -3.765  16.847  -5.532  1.00  0.00     0.074 A 
ATOM     65  C   UNL     1      -4.700  17.060  -4.446  1.00  0.00     0.031 C 
ATOM     66  C   UNL     1      -4.025  17.132  -6.832  1.00  0.00     0.037 A 
BRANCH  53  67
ATOM     67  C   UNL     1       0.747  16.092 -10.628  1.00  0.00     0.064 A 
ATOM     68  C   UNL     1       1.135  14.945 -11.338  1.00  0.00     0.173 A 
ATOM     69  C   UNL     1       0.900  17.335 -11.261  1.00  0.00     0.173 A 
ATOM     70  F   UNL     1       1.021  13.732 -10.777  1.00  0.00    -0.203 F 
ATOM     71  C   UNL     1       1.696  15.043 -12.609  1.00  0.00     0.198 A 
ATOM     72  C   UNL     1       1.427  17.427 -12.546  1.00  0.00     0.198 A 
ATOM     73  F   UNL     1       0.540  18.464 -10.633  1.00  0.00    -0.203 F 
ATOM     74  F   UNL     1       2.122  13.940 -13.239  1.00  0.00    -0.200 F 
ATOM     75  C   UNL     1       1.837  16.283 -13.214  1.00  0.00     0.200 A 
ATOM     76  F   UNL     1       1.547  18.625 -13.135  1.00  0.00    -0.200 F 
ATOM     77  F   UNL     1       2.379  16.377 -14.436  1.00  0.00    -0.200 F 
ENDBRANCH  53  67
BRANCH  54  78
ATOM     78  C   UNL     1      -2.453  15.621  -1.181  1.00  0.00     0.064 A 
ATOM     79  C   UNL     1      -3.482  14.736  -0.827  1.00  0.00     0.173 A 
ATOM     80  C   UNL     1      -1.920  16.437  -0.172  1.00  0.00     0.173 A 
ATOM     81  F   UNL     1      -4.046  13.958  -1.762  1.00  0.00    -0.203 F 
ATOM     82  C   UNL     1      -3.966  14.679   0.478  1.00  0.00     0.198 A 
ATOM     83  C   UNL     1      -2.385  16.358   1.139  1.00  0.00     0.198 A 
ATOM     84  F   UNL     1      -0.942  17.308  -0.459  1.00  0.00    -0.203 F 
ATOM     85  F   UNL     1      -4.981  13.857   0.778  1.00  0.00    -0.200 F 
ATOM     86  C   UNL     1      -3.411  15.484   1.462  1.00  0.00     0.200 A 
ATOM     87  F   UNL     1      -1.842  17.133   2.088  1.00  0.00    -0.200 F 
ATOM     88  F   UNL     1      -3.875  15.426   2.718  1.00  0.00    -0.200 F 
ENDBRANCH  54  78
BRANCH  66  89
ATOM     89  C   UNL     1      -5.388  17.670  -7.169  1.00  0.00     0.064 A 
ATOM     90  C   UNL     1      -5.780  18.969  -6.811  1.00  0.00     0.173 A 
ATOM     91  C   UNL     1      -6.294  16.894  -7.910  1.00  0.00     0.173 A 
ATOM     92  F   UNL     1      -4.960  19.747  -6.089  1.00  0.00    -0.203 F 
ATOM     93  C   UNL     1      -7.034  19.462  -7.164  1.00  0.00     0.198 A 
ATOM     94  C   UNL     1      -7.533  17.403  -8.290  1.00  0.00     0.198 A 
ATOM     95  F   UNL     1      -5.969  15.648  -8.284  1.00  0.00    -0.203 F 
ATOM     96  F   UNL     1      -7.404  20.689  -6.772  1.00  0.00    -0.200 F 
ATOM     97  C   UNL     1      -7.905  18.683  -7.912  1.00  0.00     0.200 A 
ATOM     98  F   UNL     1      -8.365  16.655  -9.028  1.00  0.00    -0.200 F 
ATOM     99  F   UNL     1      -9.105  19.166  -8.264  1.00  0.00    -0.200 F 
ENDBRANCH  66  89
ENDBRANCH  40  41
ENDBRANCH  33  35
ENDBRANCH  32  33
ENDBRANCH  31  32
ENDBRANCH  30  31
ENDBRANCH  29  30
ENDBRANCH  28  29
ENDBRANCH   1  28
TORSDOF 21
