REMARK SMILES COc1cc(C[N@@H+]2CCO[C@@H](CC(=O)OCCOCCOCCOC(=O)c3ccc(-c4c5nc(c(-c6c(F)c(F)c(F)c(F)c6F)c6ccc([nH]6)c(-c6c(F)c(F)c(F)c(F)c6F)c6nc(c(-c7c(F)c(F)c(F)c(F)c7F)c7ccc4[nH]7)C=C6)C=C5)cc3)C2)ccc1O
REMARK SMILES IDX 19 1 18 2 17 3 16 4 15 5 13 6 14 7 12 8 11 9 7 10 8 11 90 12
REMARK SMILES IDX 9 14 10 15 6 16 5 17 3 18 4 19 93 20 92 21 91 22 2 23 1 24
REMARK SMILES IDX 94 25 20 27 21 28 22 29 23 30 24 31 25 32 26 33 27 34 28 35
REMARK SMILES IDX 89 36 29 37 88 38 30 39 31 40 32 41 82 42 33 43 87 44 81 45
REMARK SMILES IDX 83 46 34 47 86 48 80 49 79 50 35 52 67 53 47 54 66 55 48 56
REMARK SMILES IDX 51 57 65 58 84 59 49 60 50 61 64 63 85 64 52 65 36 66 37 67
REMARK SMILES IDX 45 68 38 69 39 70 43 71 46 72 40 73 41 74 44 75 42 76 68 77
REMARK SMILES IDX 69 78 77 79 70 80 71 81 75 82 78 83 72 84 73 85 76 86 74 87
REMARK SMILES IDX 53 88 54 89 62 90 55 91 56 92 60 93 63 94 57 95 58 96 61 97
REMARK SMILES IDX 59 98
REMARK H PARENT 7 13 94 26 83 51 51 62
REMARK Flexibility Score: inf
ROOT
ATOM      1  C   UNL     1      -6.554   1.548   1.216  1.00  0.00     0.188 C 
ENDROOT
BRANCH   1   2
ATOM      2  O   UNL     1      -7.831   1.977   1.666  1.00  0.00    -0.376 OA
BRANCH   2   3
ATOM      3  C   UNL     1      -7.986   3.291   2.185  1.00  0.00     0.202 C 
BRANCH   3   4
ATOM      4  C   UNL     1      -7.212   3.637   3.456  1.00  0.00     0.261 C 
BRANCH   4   5
ATOM      5  O   UNL     1      -5.802   3.870   3.255  1.00  0.00    -0.463 OA
BRANCH   5   6
ATOM      6  C   UNL     1      -4.967   2.984   3.858  1.00  0.00     0.308 C 
ATOM      7  O   UNL     1      -5.312   1.909   4.334  1.00  0.00    -0.252 OA
BRANCH   6   8
ATOM      8  C   UNL     1      -3.578   3.529   4.022  1.00  0.00     0.160 C 
BRANCH   8   9
ATOM      9  C   UNL     1      -2.679   3.745   2.805  1.00  0.00     0.184 C 
ATOM     10  N   UNL     1      -2.053   5.343   0.926  1.00  0.00    -0.327 N 
ATOM     11  C   UNL     1      -0.753   5.496   1.570  1.00  0.00     0.291 C 
ATOM     12  C   UNL     1      -3.091   4.914   1.872  1.00  0.00     0.295 C 
ATOM     13  H   UNL     1      -2.356   6.283   0.671  1.00  0.00     0.348 HD
ATOM     14  C   UNL     1      -0.378   4.318   2.481  1.00  0.00     0.222 C 
ATOM     15  O   UNL     1      -1.403   4.043   3.429  1.00  0.00    -0.366 OA
BRANCH  10  16
ATOM     16  C   UNL     1      -2.091   4.904  -0.470  1.00  0.00     0.299 C 
BRANCH  16  17
ATOM     17  C   UNL     1      -1.611   3.512  -0.838  1.00  0.00     0.010 A 
ATOM     18  C   UNL     1       0.094   1.732  -0.787  1.00  0.00     0.160 A 
ATOM     19  C   UNL     1      -0.320   3.054  -0.549  1.00  0.00     0.060 A 
ATOM     20  C   UNL     1      -0.772   0.890  -1.474  1.00  0.00     0.157 A 
ATOM     21  C   UNL     1      -1.972   1.390  -1.968  1.00  0.00     0.051 A 
ATOM     22  C   UNL     1      -2.403   2.675  -1.626  1.00  0.00     0.013 A 
BRANCH  18  23
ATOM     23  O   UNL     1       1.346   1.488  -0.303  1.00  0.00    -0.493 OA
ATOM     24  C   UNL     1       1.841   0.162  -0.271  1.00  0.00     0.278 C 
ENDBRANCH  18  23
BRANCH  20  25
ATOM     25  O   UNL     1      -0.546  -0.431  -1.724  1.00  0.00    -0.504 OA
ATOM     26  H   UNL     1       0.242  -0.837  -1.421  1.00  0.00     0.293 HD
ENDBRANCH  20  25
ENDBRANCH  16  17
ENDBRANCH  10  16
ENDBRANCH   8   9
ENDBRANCH   6   8
ENDBRANCH   5   6
ENDBRANCH   4   5
ENDBRANCH   3   4
ENDBRANCH   2   3
ENDBRANCH   1   2
BRANCH   1  27
ATOM     27  C   UNL     1      -5.668   2.532   0.441  1.00  0.00     0.188 C 
BRANCH  27  28
ATOM     28  O   UNL     1      -6.346   3.610  -0.180  1.00  0.00    -0.376 OA
BRANCH  28  29
ATOM     29  C   UNL     1      -6.429   3.554  -1.601  1.00  0.00     0.202 C 
BRANCH  29  30
ATOM     30  C   UNL     1      -7.349   2.447  -2.119  1.00  0.00     0.261 C 
BRANCH  30  31
ATOM     31  O   UNL     1      -6.840   1.128  -1.844  1.00  0.00    -0.460 OA
BRANCH  31  32
ATOM     32  C   UNL     1      -5.832   0.702  -2.634  1.00  0.00     0.338 C 
ATOM     33  O   UNL     1      -5.323   1.291  -3.569  1.00  0.00    -0.246 OA
BRANCH  32  34
ATOM     34  C   UNL     1      -5.370  -0.603  -2.133  1.00  0.00     0.060 A 
ATOM     35  C   UNL     1      -4.451  -0.656  -1.080  1.00  0.00     0.016 A 
ATOM     36  C   UNL     1      -5.766  -1.770  -2.782  1.00  0.00     0.016 A 
ATOM     37  C   UNL     1      -3.878  -1.866  -0.706  1.00  0.00     0.010 A 
ATOM     38  C   UNL     1      -5.219  -2.991  -2.379  1.00  0.00     0.010 A 
ATOM     39  C   UNL     1      -4.250  -3.042  -1.361  1.00  0.00    -0.014 A 
BRANCH  39  40
ATOM     40  C   UNL     1      -3.550  -4.312  -1.060  1.00  0.00     0.031 A 
ATOM     41  C   UNL     1      -2.651  -4.912  -2.101  1.00  0.00     0.074 A 
ATOM     42  C   UNL     1      -3.697  -4.915   0.133  1.00  0.00     0.049 A 
ATOM     43  N   UNL     1      -2.136  -6.112  -2.161  1.00  0.00    -0.248 NA
ATOM     44  C   UNL     1      -2.284  -4.039  -3.228  1.00  0.00     0.031 C 
ATOM     45  C   UNL     1      -4.457  -4.385   1.263  1.00  0.00     0.029 A 
ATOM     46  N   UNL     1      -3.216  -6.119   0.585  1.00  0.00    -0.354 N 
ATOM     47  C   UNL     1      -1.438  -6.160  -3.359  1.00  0.00     0.074 A 
ATOM     48  C   UNL     1      -1.577  -4.863  -3.987  1.00  0.00     0.031 C 
ATOM     49  C   UNL     1      -4.397  -5.261   2.279  1.00  0.00     0.029 A 
ATOM     50  C   UNL     1      -3.662  -6.444   1.842  1.00  0.00     0.049 A 
ATOM     51  H   UNL     1      -2.612  -6.691   0.060  1.00  0.00     0.167 HD
ATOM     52  C   UNL     1      -0.754  -7.202  -3.887  1.00  0.00     0.037 A 
ATOM     53  C   UNL     1      -3.539  -7.591   2.536  1.00  0.00     0.037 A 
ATOM     54  C   UNL     1      -0.585  -8.471  -3.231  1.00  0.00     0.049 A 
ATOM     55  C   UNL     1      -2.822  -8.755   1.908  1.00  0.00     0.074 A 
ATOM     56  C   UNL     1       0.081  -9.597  -3.681  1.00  0.00     0.029 A 
ATOM     57  N   UNL     1      -1.077  -8.774  -1.969  1.00  0.00    -0.354 N 
ATOM     58  N   UNL     1      -2.240  -8.833   0.736  1.00  0.00    -0.248 NA
ATOM     59  C   UNL     1      -2.765  -9.998   2.691  1.00  0.00     0.031 C 
ATOM     60  C   UNL     1      -0.030 -10.591  -2.701  1.00  0.00     0.029 A 
ATOM     61  C   UNL     1      -0.734 -10.071  -1.627  1.00  0.00     0.049 A 
ATOM     62  H   UNL     1      -1.594  -8.157  -1.401  1.00  0.00     0.167 HD
ATOM     63  C   UNL     1      -1.741 -10.124   0.643  1.00  0.00     0.074 A 
ATOM     64  C   UNL     1      -2.073 -10.791   1.885  1.00  0.00     0.031 C 
ATOM     65  C   UNL     1      -1.073 -10.709  -0.381  1.00  0.00     0.037 A 
BRANCH  52  66
ATOM     66  C   UNL     1      -0.181  -7.029  -5.261  1.00  0.00     0.064 A 
ATOM     67  C   UNL     1       0.961  -6.253  -5.497  1.00  0.00     0.173 A 
ATOM     68  C   UNL     1      -0.775  -7.677  -6.355  1.00  0.00     0.173 A 
ATOM     69  F   UNL     1       1.554  -5.599  -4.486  1.00  0.00    -0.203 F 
ATOM     70  C   UNL     1       1.479  -6.117  -6.783  1.00  0.00     0.198 A 
ATOM     71  C   UNL     1      -0.242  -7.559  -7.635  1.00  0.00     0.198 A 
ATOM     72  F   UNL     1      -1.871  -8.432  -6.180  1.00  0.00    -0.203 F 
ATOM     73  F   UNL     1       2.551  -5.340  -6.994  1.00  0.00    -0.200 F 
ATOM     74  C   UNL     1       0.882  -6.775  -7.849  1.00  0.00     0.200 A 
ATOM     75  F   UNL     1      -0.816  -8.202  -8.661  1.00  0.00    -0.200 F 
ATOM     76  F   UNL     1       1.385  -6.648  -9.084  1.00  0.00    -0.200 F 
ENDBRANCH  52  66
BRANCH  53  77
ATOM     77  C   UNL     1      -4.163  -7.711   3.878  1.00  0.00     0.064 A 
ATOM     78  C   UNL     1      -3.377  -7.791   5.035  1.00  0.00     0.173 A 
ATOM     79  C   UNL     1      -5.557  -7.745   4.031  1.00  0.00     0.173 A 
ATOM     80  F   UNL     1      -2.039  -7.792   4.936  1.00  0.00    -0.203 F 
ATOM     81  C   UNL     1      -3.962  -7.905   6.295  1.00  0.00     0.198 A 
ATOM     82  C   UNL     1      -6.141  -7.832   5.292  1.00  0.00     0.198 A 
ATOM     83  F   UNL     1      -6.353  -7.678   2.954  1.00  0.00    -0.203 F 
ATOM     84  F   UNL     1      -3.188  -8.017   7.382  1.00  0.00    -0.200 F 
ATOM     85  C   UNL     1      -5.343  -7.917   6.423  1.00  0.00     0.200 A 
ATOM     86  F   UNL     1      -7.476  -7.833   5.412  1.00  0.00    -0.200 F 
ATOM     87  F   UNL     1      -5.905  -8.019   7.635  1.00  0.00    -0.200 F 
ENDBRANCH  53  77
BRANCH  65  88
ATOM     88  C   UNL     1      -0.633 -12.128  -0.187  1.00  0.00     0.064 A 
ATOM     89  C   UNL     1      -1.540 -13.194  -0.271  1.00  0.00     0.173 A 
ATOM     90  C   UNL     1       0.718 -12.426   0.047  1.00  0.00     0.173 A 
ATOM     91  F   UNL     1      -2.844 -12.955  -0.477  1.00  0.00    -0.203 F 
ATOM     92  C   UNL     1      -1.113 -14.508  -0.108  1.00  0.00     0.198 A 
ATOM     93  C   UNL     1       1.145 -13.743   0.187  1.00  0.00     0.198 A 
ATOM     94  F   UNL     1       1.623 -11.440   0.131  1.00  0.00    -0.203 F 
ATOM     95  F   UNL     1      -2.002 -15.510  -0.155  1.00  0.00    -0.200 F 
ATOM     96  C   UNL     1       0.229 -14.782   0.114  1.00  0.00     0.200 A 
ATOM     97  F   UNL     1       2.442 -14.007   0.394  1.00  0.00    -0.200 F 
ATOM     98  F   UNL     1       0.639 -16.049   0.267  1.00  0.00    -0.200 F 
ENDBRANCH  65  88
ENDBRANCH  39  40
ENDBRANCH  32  34
ENDBRANCH  31  32
ENDBRANCH  30  31
ENDBRANCH  29  30
ENDBRANCH  28  29
ENDBRANCH  27  28
ENDBRANCH   1  27
TORSDOF 22
