REMARK SMILES O=C(OCCOCCOCCOC(=O)[C@H]1C[C@@H](O)C[N@H+]1Cc1ccccc1)c1ccc(-c2c3nc(c(-c4c(F)c(F)c(F)c(F)c4F)c4ccc([nH]4)c(-c4c(F)c(F)c(F)c(F)c4F)c4nc(c(-c5c(F)c(F)c(F)c(F)c5F)c5ccc2[nH]5)C=C4)C=C3)cc1
REMARK SMILES IDX 7 1 6 2 5 3 4 4 3 5 2 6 1 7 28 8 29 9 90 10 30 11 89 12
REMARK SMILES IDX 31 13 32 14 33 15 83 16 34 17 88 18 82 19 84 20 35 21 87 22
REMARK SMILES IDX 81 23 80 24 36 26 68 27 48 28 67 29 49 30 52 31 66 32 85 33
REMARK SMILES IDX 50 34 51 35 65 37 86 38 53 39 37 40 38 41 46 42 39 43 40 44
REMARK SMILES IDX 44 45 47 46 41 47 42 48 45 49 43 50 69 51 70 52 78 53 71 54
REMARK SMILES IDX 72 55 76 56 79 57 73 58 74 59 77 60 75 61 54 62 55 63 63 64
REMARK SMILES IDX 56 65 57 66 61 67 64 68 58 69 59 70 62 71 60 72 8 73 9 74
REMARK SMILES IDX 10 75 11 76 12 77 13 78 14 79 15 80 16 81 20 82 17 83 19 84
REMARK SMILES IDX 21 86 22 87 23 88 27 89 24 90 26 91 25 92 18 93
REMARK H PARENT 84 25 52 36 20 85 18 94
REMARK Flexibility Score: inf
ROOT
ATOM      1  C   UNL     1       4.267  -1.449  -0.453  1.00  0.00     0.188 C 
ENDROOT
BRANCH   1   2
ATOM      2  O   UNL     1       5.509  -0.817  -0.192  1.00  0.00    -0.376 OA
BRANCH   2   3
ATOM      3  C   UNL     1       6.149  -1.147   1.031  1.00  0.00     0.202 C 
BRANCH   3   4
ATOM      4  C   UNL     1       5.353  -0.710   2.272  1.00  0.00     0.261 C 
BRANCH   4   5
ATOM      5  O   UNL     1       5.025   0.687   2.152  1.00  0.00    -0.460 OA
BRANCH   5   6
ATOM      6  C   UNL     1       3.780   0.972   1.697  1.00  0.00     0.338 C 
ATOM      7  O   UNL     1       2.735   0.421   2.020  1.00  0.00    -0.246 OA
BRANCH   6   8
ATOM      8  C   UNL     1       3.883   2.000   0.637  1.00  0.00     0.060 A 
ATOM      9  C   UNL     1       5.061   2.065  -0.116  1.00  0.00     0.016 A 
ATOM     10  C   UNL     1       2.820   2.863   0.342  1.00  0.00     0.016 A 
ATOM     11  C   UNL     1       5.211   2.984  -1.128  1.00  0.00     0.010 A 
ATOM     12  C   UNL     1       2.995   3.858  -0.628  1.00  0.00     0.010 A 
ATOM     13  C   UNL     1       4.218   3.943  -1.315  1.00  0.00    -0.014 A 
BRANCH  13  14
ATOM     14  C   UNL     1       4.723   5.194  -1.906  1.00  0.00     0.031 A 
ATOM     15  C   UNL     1       5.394   6.150  -0.956  1.00  0.00     0.074 A 
ATOM     16  C   UNL     1       4.850   5.314  -3.236  1.00  0.00     0.049 A 
ATOM     17  N   UNL     1       6.088   7.228  -1.202  1.00  0.00    -0.248 NA
ATOM     18  C   UNL     1       5.322   5.802   0.477  1.00  0.00     0.031 C 
ATOM     19  C   UNL     1       4.401   4.329  -4.218  1.00  0.00     0.029 A 
ATOM     20  N   UNL     1       5.442   6.296  -3.981  1.00  0.00    -0.354 N 
ATOM     21  C   UNL     1       6.537   7.671   0.036  1.00  0.00     0.074 A 
ATOM     22  C   UNL     1       6.043   6.757   1.034  1.00  0.00     0.031 C 
ATOM     23  C   UNL     1       4.725   4.767  -5.447  1.00  0.00     0.029 A 
ATOM     24  C   UNL     1       5.364   6.077  -5.332  1.00  0.00     0.049 A 
ATOM     25  H   UNL     1       5.880   7.084  -3.586  1.00  0.00     0.167 HD
ATOM     26  C   UNL     1       7.289   8.760   0.313  1.00  0.00     0.037 A 
ATOM     27  C   UNL     1       5.742   6.876  -6.346  1.00  0.00     0.037 A 
ATOM     28  C   UNL     1       7.720   9.684  -0.695  1.00  0.00     0.049 A 
ATOM     29  C   UNL     1       6.418   8.181  -6.008  1.00  0.00     0.074 A 
ATOM     30  C   UNL     1       8.385  10.884  -0.546  1.00  0.00     0.029 A 
ATOM     31  N   UNL     1       7.497   9.506  -2.056  1.00  0.00    -0.354 N 
ATOM     32  N   UNL     1       6.779   8.646  -4.833  1.00  0.00    -0.248 NA
ATOM     33  C   UNL     1       6.736   9.074  -7.127  1.00  0.00     0.031 C 
ATOM     34  C   UNL     1       8.501  11.467  -1.812  1.00  0.00     0.029 A 
ATOM     35  C   UNL     1       7.981  10.593  -2.758  1.00  0.00     0.049 A 
ATOM     36  H   UNL     1       7.060   8.722  -2.459  1.00  0.00     0.167 HD
ATOM     37  C   UNL     1       7.391   9.868  -5.072  1.00  0.00     0.074 A 
ATOM     38  C   UNL     1       7.356  10.070  -6.508  1.00  0.00     0.031 C 
ATOM     39  C   UNL     1       7.937  10.745  -4.192  1.00  0.00     0.037 A 
BRANCH  26  40
ATOM     40  C   UNL     1       7.558   9.046   1.762  1.00  0.00     0.064 A 
ATOM     41  C   UNL     1       8.412   8.247   2.539  1.00  0.00     0.173 A 
ATOM     42  C   UNL     1       6.881  10.095   2.403  1.00  0.00     0.173 A 
ATOM     43  F   UNL     1       9.055   7.208   1.985  1.00  0.00    -0.203 F 
ATOM     44  C   UNL     1       8.544   8.463   3.910  1.00  0.00     0.198 A 
ATOM     45  C   UNL     1       7.039  10.327   3.766  1.00  0.00     0.198 A 
ATOM     46  F   UNL     1       6.042  10.880   1.711  1.00  0.00    -0.203 F 
ATOM     47  F   UNL     1       9.302   7.639   4.647  1.00  0.00    -0.200 F 
ATOM     48  C   UNL     1       7.859   9.503   4.521  1.00  0.00     0.200 A 
ATOM     49  F   UNL     1       6.377  11.333   4.353  1.00  0.00    -0.200 F 
ATOM     50  F   UNL     1       7.973   9.698   5.842  1.00  0.00    -0.200 F 
ENDBRANCH  26  40
BRANCH  27  51
ATOM     51  C   UNL     1       5.429   6.493  -7.748  1.00  0.00     0.064 A 
ATOM     52  C   UNL     1       6.435   6.234  -8.688  1.00  0.00     0.173 A 
ATOM     53  C   UNL     1       4.096   6.386  -8.180  1.00  0.00     0.173 A 
ATOM     54  F   UNL     1       7.724   6.345  -8.337  1.00  0.00    -0.203 F 
ATOM     55  C   UNL     1       6.121   5.894 -10.005  1.00  0.00     0.198 A 
ATOM     56  C   UNL     1       3.783   6.017  -9.486  1.00  0.00     0.198 A 
ATOM     57  F   UNL     1       3.091   6.630  -7.326  1.00  0.00    -0.203 F 
ATOM     58  F   UNL     1       7.103   5.693 -10.894  1.00  0.00    -0.200 F 
ATOM     59  C   UNL     1       4.796   5.779 -10.400  1.00  0.00     0.200 A 
ATOM     60  F   UNL     1       2.501   5.895  -9.857  1.00  0.00    -0.200 F 
ATOM     61  F   UNL     1       4.497   5.447 -11.663  1.00  0.00    -0.200 F 
ENDBRANCH  27  51
BRANCH  39  62
ATOM     62  C   UNL     1       8.588  11.973  -4.755  1.00  0.00     0.064 A 
ATOM     63  C   UNL     1       7.837  13.029  -5.289  1.00  0.00     0.173 A 
ATOM     64  C   UNL     1       9.980  12.127  -4.671  1.00  0.00     0.173 A 
ATOM     65  F   UNL     1       6.504  12.923  -5.398  1.00  0.00    -0.203 F 
ATOM     66  C   UNL     1       8.460  14.190  -5.736  1.00  0.00     0.198 A 
ATOM     67  C   UNL     1      10.595  13.303  -5.086  1.00  0.00     0.198 A 
ATOM     68  F   UNL     1      10.739  11.149  -4.155  1.00  0.00    -0.203 F 
ATOM     69  F   UNL     1       7.729  15.173  -6.279  1.00  0.00    -0.200 F 
ATOM     70  C   UNL     1       9.836  14.331  -5.623  1.00  0.00     0.200 A 
ATOM     71  F   UNL     1      11.921  13.445  -4.955  1.00  0.00    -0.200 F 
ATOM     72  F   UNL     1      10.431  15.459  -6.034  1.00  0.00    -0.200 F 
ENDBRANCH  39  62
ENDBRANCH  13  14
ENDBRANCH   6   8
ENDBRANCH   5   6
ENDBRANCH   4   5
ENDBRANCH   3   4
ENDBRANCH   2   3
ENDBRANCH   1   2
BRANCH   1  73
ATOM     73  C   UNL     1       4.397  -2.790  -1.149  1.00  0.00     0.188 C 
BRANCH  73  74
ATOM     74  O   UNL     1       5.575  -2.836  -1.944  1.00  0.00    -0.376 OA
BRANCH  74  75
ATOM     75  C   UNL     1       5.352  -3.009  -3.339  1.00  0.00     0.202 C 
BRANCH  75  76
ATOM     76  C   UNL     1       5.297  -1.692  -4.132  1.00  0.00     0.261 C 
BRANCH  76  77
ATOM     77  O   UNL     1       4.036  -0.974  -4.059  1.00  0.00    -0.459 OA
BRANCH  77  78
ATOM     78  C   UNL     1       3.478  -0.588  -5.242  1.00  0.00     0.365 C 
ATOM     79  O   UNL     1       3.878  -1.003  -6.331  1.00  0.00    -0.245 OA
BRANCH  78  80
ATOM     80  C   UNL     1       2.311   0.423  -5.192  1.00  0.00     0.298 C 
ATOM     81  C   UNL     1       1.046  -0.062  -5.907  1.00  0.00     0.115 C 
ATOM     82  N   UNL     1       1.841   1.054  -3.950  1.00  0.00    -0.317 N 
ATOM     83  C   UNL     1      -0.124   0.657  -5.238  1.00  0.00     0.175 C 
ATOM     84  C   UNL     1       0.494   1.576  -4.190  1.00  0.00     0.295 C 
ATOM     85  H   UNL     1       2.550   1.770  -3.796  1.00  0.00     0.349 HD
BRANCH  82  86
ATOM     86  C   UNL     1       2.037   0.482  -2.639  1.00  0.00     0.299 C 
BRANCH  86  87
ATOM     87  C   UNL     1       1.342  -0.810  -2.239  1.00  0.00     0.006 A 
ATOM     88  C   UNL     1       0.821  -0.908  -0.937  1.00  0.00     0.009 A 
ATOM     89  C   UNL     1       1.337  -1.976  -3.018  1.00  0.00     0.009 A 
ATOM     90  C   UNL     1       0.357  -2.126  -0.429  1.00  0.00     0.001 A 
ATOM     91  C   UNL     1       0.860  -3.192  -2.521  1.00  0.00     0.001 A 
ATOM     92  C   UNL     1       0.388  -3.271  -1.218  1.00  0.00     0.000 A 
ENDBRANCH  86  87
ENDBRANCH  82  86
BRANCH  83  93
ATOM     93  O   UNL     1      -1.027  -0.281  -4.662  1.00  0.00    -0.387 OA
ATOM     94  H   UNL     1      -0.557  -0.826  -4.013  1.00  0.00     0.211 HD
ENDBRANCH  83  93
ENDBRANCH  78  80
ENDBRANCH  77  78
ENDBRANCH  76  77
ENDBRANCH  75  76
ENDBRANCH  74  75
ENDBRANCH  73  74
ENDBRANCH   1  73
TORSDOF 20
