REMARK SMILES CC[C@H](C)[C@H](NC(=O)[C@H](C)Oc1ccc2c(C)c(C)c(=O)oc2c1C)C(=O)OCCOCCOCCOC(=O)c1ccc(-c2c3nc(c(-c4c(F)c(F)c(F)c(F)c4F)c4ccc([nH]4)c(-c4c(F)c(F)c(F)c(F)c4F)c4nc(c(-c5c(F)c(F)c(F)c(F)c5F)c5ccc2[nH]5)C=C4)C=C3)cc1
REMARK SMILES IDX 32 1 31 2 30 3 29 4 28 5 26 6 27 7 5 8 3 9 4 10 2 11 1 12
REMARK SMILES IDX 6 13 7 14 8 16 9 17 10 18 11 19 12 20 13 21 24 22 14 23
REMARK SMILES IDX 23 24 25 25 15 26 22 27 16 28 20 29 17 30 18 31 21 32 19 33
REMARK SMILES IDX 33 34 34 35 35 36 36 37 37 38 38 39 39 40 40 41 41 42 102 43
REMARK SMILES IDX 42 44 101 45 43 46 44 47 45 48 95 49 46 50 100 51 94 52
REMARK SMILES IDX 96 53 47 54 99 55 93 56 92 57 48 59 80 60 60 61 79 62 61 63
REMARK SMILES IDX 64 64 78 65 97 66 62 67 63 68 77 70 98 71 65 72 49 73 50 74
REMARK SMILES IDX 58 75 51 76 52 77 56 78 59 79 53 80 54 81 57 82 55 83 81 84
REMARK SMILES IDX 82 85 90 86 83 87 84 88 88 89 91 90 85 91 86 92 89 93 87 94
REMARK SMILES IDX 66 95 67 96 75 97 68 98 69 99 73 100 76 101 70 102 71 103
REMARK SMILES IDX 74 104 72 105
REMARK H PARENT 6 15 96 58 64 69
REMARK Flexibility Score: inf
ROOT
ATOM      1  C   UNL     1       1.386  -6.875   6.360  1.00  0.00     0.188 C 
ENDROOT
BRANCH   1   2
ATOM      2  O   UNL     1      -0.011  -6.762   6.149  1.00  0.00    -0.376 OA
BRANCH   2   3
ATOM      3  C   UNL     1      -0.540  -6.059   5.030  1.00  0.00     0.202 C 
BRANCH   3   4
ATOM      4  C   UNL     1      -0.148  -4.598   4.763  1.00  0.00     0.261 C 
BRANCH   4   5
ATOM      5  O   UNL     1       1.258  -4.365   4.622  1.00  0.00    -0.462 OA
BRANCH   5   6
ATOM      6  C   UNL     1       1.861  -3.847   5.721  1.00  0.00     0.328 C 
ATOM      7  O   UNL     1       1.280  -3.558   6.761  1.00  0.00    -0.250 OA
BRANCH   6   8
ATOM      8  C   UNL     1       3.384  -3.721   5.555  1.00  0.00     0.195 C 
BRANCH   8   9
ATOM      9  C   UNL     1       3.862  -2.290   6.000  1.00  0.00     0.019 C 
ATOM     10  C   UNL     1       2.781  -1.232   6.260  1.00  0.00     0.010 C 
BRANCH   9  11
ATOM     11  C   UNL     1       4.889  -2.308   7.172  1.00  0.00     0.002 C 
ATOM     12  C   UNL     1       5.907  -3.450   7.240  1.00  0.00     0.004 C 
ENDBRANCH   9  11
ENDBRANCH   8   9
BRANCH   8  13
ATOM     13  N   UNL     1       3.871  -4.354   4.269  1.00  0.00    -0.339 N 
ATOM     14  C   UNL     1       5.072  -4.283   3.584  1.00  0.00     0.261 C 
ATOM     15  H   UNL     1       3.201  -4.930   3.833  1.00  0.00     0.164 HD
ATOM     16  O   UNL     1       5.500  -5.232   2.936  1.00  0.00    -0.271 OA
BRANCH  14  17
ATOM     17  C   UNL     1       5.658  -2.883   3.549  1.00  0.00     0.258 C 
ATOM     18  C   UNL     1       4.665  -2.095   2.681  1.00  0.00     0.064 C 
BRANCH  17  19
ATOM     19  O   UNL     1       7.015  -2.582   3.611  1.00  0.00    -0.480 OA
BRANCH  19  20
ATOM     20  C   UNL     1       7.687  -1.824   2.733  1.00  0.00     0.127 A 
ATOM     21  C   UNL     1       7.173  -0.802   1.948  1.00  0.00     0.047 A 
ATOM     22  C   UNL     1       9.036  -2.154   2.655  1.00  0.00     0.035 A 
ATOM     23  C   UNL     1       7.899  -0.318   0.874  1.00  0.00     0.016 A 
ATOM     24  C   UNL     1       9.749  -1.663   1.565  1.00  0.00     0.145 A 
ATOM     25  C   UNL     1       9.688  -3.015   3.704  1.00  0.00     0.052 C 
ATOM     26  C   UNL     1       9.182  -0.799   0.629  1.00  0.00     0.021 A 
ATOM     27  O   UNL     1      11.067  -2.115   1.428  1.00  0.00    -0.422 OA
ATOM     28  C   UNL     1       9.940  -0.438  -0.571  1.00  0.00    -0.030 A 
ATOM     29  C   UNL     1      11.816  -1.806   0.313  1.00  0.00     0.339 A 
ATOM     30  C   UNL     1       9.245   0.429  -1.590  1.00  0.00     0.045 C 
ATOM     31  C   UNL     1      11.186  -0.931  -0.714  1.00  0.00     0.038 A 
ATOM     32  O   UNL     1      12.956  -2.242   0.190  1.00  0.00    -0.246 OA
ATOM     33  C   UNL     1      12.029  -0.641  -1.918  1.00  0.00     0.052 C 
ENDBRANCH  19  20
ENDBRANCH  17  19
ENDBRANCH  14  17
ENDBRANCH   8  13
ENDBRANCH   6   8
ENDBRANCH   5   6
ENDBRANCH   4   5
ENDBRANCH   3   4
ENDBRANCH   2   3
ENDBRANCH   1   2
BRANCH   1  34
ATOM     34  C   UNL     1       2.348  -7.100   5.191  1.00  0.00     0.188 C 
BRANCH  34  35
ATOM     35  O   UNL     1       1.806  -6.935   3.905  1.00  0.00    -0.376 OA
BRANCH  35  36
ATOM     36  C   UNL     1       1.679  -8.096   3.083  1.00  0.00     0.202 C 
BRANCH  36  37
ATOM     37  C   UNL     1       1.250  -9.472   3.656  1.00  0.00     0.261 C 
BRANCH  37  38
ATOM     38  O   UNL     1       1.767  -9.863   4.943  1.00  0.00    -0.460 OA
BRANCH  38  39
ATOM     39  C   UNL     1       3.060 -10.262   5.016  1.00  0.00     0.338 C 
ATOM     40  O   UNL     1       3.837 -10.409   4.082  1.00  0.00    -0.246 OA
BRANCH  39  41
ATOM     41  C   UNL     1       3.459 -10.190   6.445  1.00  0.00     0.060 A 
ATOM     42  C   UNL     1       4.412  -9.233   6.841  1.00  0.00     0.016 A 
ATOM     43  C   UNL     1       2.847 -11.002   7.400  1.00  0.00     0.016 A 
ATOM     44  C   UNL     1       4.745  -9.080   8.188  1.00  0.00     0.010 A 
ATOM     45  C   UNL     1       3.226 -10.889   8.742  1.00  0.00     0.010 A 
ATOM     46  C   UNL     1       4.191  -9.945   9.139  1.00  0.00    -0.014 A 
BRANCH  46  47
ATOM     47  C   UNL     1       4.815 -10.055  10.481  1.00  0.00     0.031 A 
ATOM     48  C   UNL     1       5.954 -11.024  10.636  1.00  0.00     0.074 A 
ATOM     49  C   UNL     1       4.398  -9.331  11.535  1.00  0.00     0.049 A 
ATOM     50  N   UNL     1       6.612 -11.375  11.711  1.00  0.00    -0.248 NA
ATOM     51  C   UNL     1       6.412 -11.689   9.405  1.00  0.00     0.031 C 
ATOM     52  C   UNL     1       3.354  -8.312  11.505  1.00  0.00     0.029 A 
ATOM     53  N   UNL     1       4.808  -9.358  12.847  1.00  0.00    -0.354 N 
ATOM     54  C   UNL     1       7.559 -12.295  11.283  1.00  0.00     0.074 A 
ATOM     55  C   UNL     1       7.374 -12.474   9.861  1.00  0.00     0.031 C 
ATOM     56  C   UNL     1       3.191  -7.820  12.747  1.00  0.00     0.029 A 
ATOM     57  C   UNL     1       4.095  -8.516  13.665  1.00  0.00     0.049 A 
ATOM     58  H   UNL     1       5.543  -9.927  13.169  1.00  0.00     0.167 HD
ATOM     59  C   UNL     1       8.506 -12.931  12.011  1.00  0.00     0.037 A 
ATOM     60  C   UNL     1       4.151  -8.350  15.002  1.00  0.00     0.037 A 
ATOM     61  C   UNL     1       8.677 -12.771  13.429  1.00  0.00     0.049 A 
ATOM     62  C   UNL     1       5.136  -9.158  15.813  1.00  0.00     0.074 A 
ATOM     63  C   UNL     1       9.604 -13.378  14.256  1.00  0.00     0.029 A 
ATOM     64  N   UNL     1       7.896 -11.952  14.231  1.00  0.00    -0.354 N 
ATOM     65  N   UNL     1       6.037 -10.019  15.405  1.00  0.00    -0.248 NA
ATOM     66  C   UNL     1       5.111  -8.972  17.273  1.00  0.00     0.031 C 
ATOM     67  C   UNL     1       9.346 -12.974  15.568  1.00  0.00     0.029 A 
ATOM     68  C   UNL     1       8.301 -12.063  15.551  1.00  0.00     0.049 A 
ATOM     69  H   UNL     1       7.163 -11.379  13.910  1.00  0.00     0.167 HD
ATOM     70  C   UNL     1       6.701 -10.454  16.547  1.00  0.00     0.074 A 
ATOM     71  C   UNL     1       6.109  -9.752  17.666  1.00  0.00     0.031 C 
ATOM     72  C   UNL     1       7.710 -11.353  16.657  1.00  0.00     0.037 A 
BRANCH  59  73
ATOM     73  C   UNL     1       9.416 -13.878  11.288  1.00  0.00     0.064 A 
ATOM     74  C   UNL     1      10.399 -13.418  10.399  1.00  0.00     0.173 A 
ATOM     75  C   UNL     1       9.337 -15.259  11.524  1.00  0.00     0.173 A 
ATOM     76  F   UNL     1      10.502 -12.109  10.124  1.00  0.00    -0.203 F 
ATOM     77  C   UNL     1      11.260 -14.307   9.763  1.00  0.00     0.198 A 
ATOM     78  C   UNL     1      10.220 -16.142  10.910  1.00  0.00     0.198 A 
ATOM     79  F   UNL     1       8.412 -15.750  12.363  1.00  0.00    -0.203 F 
ATOM     80  F   UNL     1      12.166 -13.850   8.887  1.00  0.00    -0.200 F 
ATOM     81  C   UNL     1      11.178 -15.666  10.027  1.00  0.00     0.200 A 
ATOM     82  F   UNL     1      10.148 -17.453  11.178  1.00  0.00    -0.200 F 
ATOM     83  F   UNL     1      12.020 -16.519   9.428  1.00  0.00    -0.200 F 
ENDBRANCH  59  73
BRANCH  60  84
ATOM     84  C   UNL     1       3.245  -7.374  15.667  1.00  0.00     0.064 A 
ATOM     85  C   UNL     1       3.752  -6.210  16.262  1.00  0.00     0.173 A 
ATOM     86  C   UNL     1       1.859  -7.582  15.725  1.00  0.00     0.173 A 
ATOM     87  F   UNL     1       5.074  -5.982  16.264  1.00  0.00    -0.203 F 
ATOM     88  C   UNL     1       2.910  -5.294  16.889  1.00  0.00     0.198 A 
ATOM     89  C   UNL     1       1.014  -6.651  16.327  1.00  0.00     0.198 A 
ATOM     90  F   UNL     1       1.321  -8.685  15.183  1.00  0.00    -0.203 F 
ATOM     91  F   UNL     1       3.427  -4.209  17.482  1.00  0.00    -0.200 F 
ATOM     92  C   UNL     1       1.541  -5.510  16.913  1.00  0.00     0.200 A 
ATOM     93  F   UNL     1      -0.310  -6.860  16.340  1.00  0.00    -0.200 F 
ATOM     94  F   UNL     1       0.730  -4.622  17.505  1.00  0.00    -0.200 F 
ENDBRANCH  60  84
BRANCH  72  95
ATOM     95  C   UNL     1       8.271 -11.625  18.025  1.00  0.00     0.064 A 
ATOM     96  C   UNL     1       7.550 -12.347  18.986  1.00  0.00     0.173 A 
ATOM     97  C   UNL     1       9.585 -11.242  18.343  1.00  0.00     0.173 A 
ATOM     98  F   UNL     1       6.289 -12.730  18.737  1.00  0.00    -0.203 F 
ATOM     99  C   UNL     1       8.117 -12.664  20.219  1.00  0.00     0.198 A 
ATOM    100  C   UNL     1      10.159 -11.589  19.562  1.00  0.00     0.198 A 
ATOM    101  F   UNL     1      10.324 -10.560  17.455  1.00  0.00    -0.203 F 
ATOM    102  F   UNL     1       7.396 -13.326  21.134  1.00  0.00    -0.200 F 
ATOM    103  C   UNL     1       9.424 -12.296  20.501  1.00  0.00     0.200 A 
ATOM    104  F   UNL     1      11.430 -11.251  19.824  1.00  0.00    -0.200 F 
ATOM    105  F   UNL     1       9.975 -12.623  21.678  1.00  0.00    -0.200 F 
ENDBRANCH  72  95
ENDBRANCH  46  47
ENDBRANCH  39  41
ENDBRANCH  38  39
ENDBRANCH  37  38
ENDBRANCH  36  37
ENDBRANCH  35  36
ENDBRANCH  34  35
ENDBRANCH   1  34
TORSDOF 23
