REMARK SMILES [NH3+][C@@]1(C(=O)OCCOCCOCCOC(=O)c2ccc(-c3c4nc(c(-c5c(F)c(F)c(F)c(F)c5F)c5ccc([nH]5)c(-c5c(F)c(F)c(F)c(F)c5F)c5nc(c(-c6c(F)c(F)c(F)c(F)c6F)c6ccc3[nH]6)C=C5)C=C4)cc2)CC[C@@H]([N@H+]2CC[C@H]([NH+]3CCOCC3)C2)C1
REMARK SMILES IDX 9 1 8 2 7 3 6 4 5 5 3 6 4 7 2 8 80 9 94 10 81 11 82 12 1 13
REMARK SMILES IDX 83 17 84 18 93 19 85 21 86 22 87 23 88 24 92 25 89 27 91 28
REMARK SMILES IDX 90 29 10 30 11 31 12 32 13 33 14 34 15 35 16 36 17 37 18 38
REMARK SMILES IDX 79 39 19 40 78 41 20 42 21 43 22 44 72 45 23 46 77 47 71 48
REMARK SMILES IDX 73 49 24 50 76 51 70 52 69 53 25 55 57 56 37 57 56 58 38 59
REMARK SMILES IDX 41 60 55 61 74 62 39 63 40 64 54 66 75 67 42 68 26 69 27 70
REMARK SMILES IDX 35 71 28 72 29 73 33 74 36 75 30 76 31 77 34 78 32 79 58 80
REMARK SMILES IDX 59 81 67 82 60 83 61 84 65 85 68 86 62 87 63 88 66 89 64 90
REMARK SMILES IDX 43 91 44 92 52 93 45 94 46 95 50 96 53 97 47 98 48 99 51 100
REMARK SMILES IDX 49 101
REMARK H PARENT 1 14 1 15 1 16 83 20 87 26 73 54 41 65
REMARK Flexibility Score: inf
ROOT
ATOM      1  C   UNL     1       3.856  -0.195  -2.112  1.00  0.00     0.188 C 
ENDROOT
BRANCH   1   2
ATOM      2  O   UNL     1       4.381  -0.986  -3.165  1.00  0.00    -0.376 OA
BRANCH   2   3
ATOM      3  C   UNL     1       3.632  -1.124  -4.370  1.00  0.00     0.202 C 
BRANCH   3   4
ATOM      4  C   UNL     1       2.154  -1.552  -4.302  1.00  0.00     0.261 C 
BRANCH   4   5
ATOM      5  O   UNL     1       1.285  -0.679  -3.548  1.00  0.00    -0.459 OA
BRANCH   5   6
ATOM      6  C   UNL     1       0.701  -1.214  -2.447  1.00  0.00     0.368 C 
ATOM      7  O   UNL     1       0.865  -2.374  -2.073  1.00  0.00    -0.245 OA
BRANCH   6   8
ATOM      8  C   UNL     1      -0.154  -0.211  -1.609  1.00  0.00     0.198 C 
ATOM      9  C   UNL     1      -1.626  -0.629  -1.733  1.00  0.00     0.087 C 
ATOM     10  C   UNL     1      -0.126   1.280  -2.014  1.00  0.00     0.145 C 
ATOM     11  C   UNL     1      -2.208   0.345  -2.748  1.00  0.00     0.072 C 
ATOM     12  C   UNL     1      -1.536   1.690  -2.453  1.00  0.00     0.191 C 
BRANCH   8  13
ATOM     13  N   UNL     1       0.280  -0.360  -0.189  1.00  0.00    -0.343 N 
ATOM     14  H   UNL     1       0.259  -1.346   0.072  1.00  0.00     0.345 HD
ATOM     15  H   UNL     1      -0.350   0.165   0.417  1.00  0.00     0.345 HD
ATOM     16  H   UNL     1       1.229  -0.002  -0.084  1.00  0.00     0.345 HD
ENDBRANCH   8  13
BRANCH  12  17
ATOM     17  N   UNL     1      -2.287   2.549  -1.536  1.00  0.00    -0.327 N 
ATOM     18  C   UNL     1      -2.499   2.070  -0.175  1.00  0.00     0.269 C 
ATOM     19  C   UNL     1      -1.747   3.912  -1.394  1.00  0.00     0.328 C 
ATOM     20  H   UNL     1      -3.181   2.537  -2.026  1.00  0.00     0.348 HD
ATOM     21  C   UNL     1      -3.160   3.270   0.476  1.00  0.00     0.132 C 
ATOM     22  C   UNL     1      -2.442   4.482  -0.127  1.00  0.00     0.245 C 
BRANCH  22  23
ATOM     23  N   UNL     1      -3.179   5.749  -0.255  1.00  0.00    -0.324 N 
ATOM     24  C   UNL     1      -3.866   6.184   0.978  1.00  0.00     0.291 C 
ATOM     25  C   UNL     1      -4.109   5.874  -1.391  1.00  0.00     0.291 C 
ATOM     26  H   UNL     1      -2.401   6.379  -0.453  1.00  0.00     0.348 HD
ATOM     27  C   UNL     1      -5.297   5.641   1.169  1.00  0.00     0.221 C 
ATOM     28  C   UNL     1      -5.504   5.282  -1.161  1.00  0.00     0.221 C 
ATOM     29  O   UNL     1      -6.115   5.836   0.009  1.00  0.00    -0.370 OA
ENDBRANCH  22  23
ENDBRANCH  12  17
ENDBRANCH   6   8
ENDBRANCH   5   6
ENDBRANCH   4   5
ENDBRANCH   3   4
ENDBRANCH   2   3
ENDBRANCH   1   2
BRANCH   1  30
ATOM     30  C   UNL     1       3.261   1.178  -2.434  1.00  0.00     0.188 C 
BRANCH  30  31
ATOM     31  O   UNL     1       3.147   1.476  -3.805  1.00  0.00    -0.376 OA
BRANCH  31  32
ATOM     32  C   UNL     1       3.799   2.639  -4.297  1.00  0.00     0.202 C 
BRANCH  32  33
ATOM     33  C   UNL     1       5.306   2.816  -4.017  1.00  0.00     0.261 C 
BRANCH  33  34
ATOM     34  O   UNL     1       5.734   2.655  -2.650  1.00  0.00    -0.460 OA
BRANCH  34  35
ATOM     35  C   UNL     1       5.342   3.596  -1.759  1.00  0.00     0.338 C 
ATOM     36  O   UNL     1       4.721   4.620  -2.004  1.00  0.00    -0.246 OA
BRANCH  35  37
ATOM     37  C   UNL     1       5.531   3.035  -0.396  1.00  0.00     0.060 A 
ATOM     38  C   UNL     1       4.418   2.934   0.455  1.00  0.00     0.016 A 
ATOM     39  C   UNL     1       6.775   2.564   0.025  1.00  0.00     0.016 A 
ATOM     40  C   UNL     1       4.553   2.394   1.736  1.00  0.00     0.010 A 
ATOM     41  C   UNL     1       6.916   2.049   1.319  1.00  0.00     0.010 A 
ATOM     42  C   UNL     1       5.814   1.992   2.194  1.00  0.00    -0.014 A 
BRANCH  42  43
ATOM     43  C   UNL     1       6.029   1.721   3.639  1.00  0.00     0.031 A 
ATOM     44  C   UNL     1       6.603   2.824   4.488  1.00  0.00     0.074 A 
ATOM     45  C   UNL     1       5.718   0.539   4.202  1.00  0.00     0.049 A 
ATOM     46  N   UNL     1       6.952   2.816   5.750  1.00  0.00    -0.248 NA
ATOM     47  C   UNL     1       6.816   4.115   3.814  1.00  0.00     0.031 C 
ATOM     48  C   UNL     1       5.111  -0.595   3.512  1.00  0.00     0.029 A 
ATOM     49  N   UNL     1       5.884   0.099   5.494  1.00  0.00    -0.354 N 
ATOM     50  C   UNL     1       7.433   4.091   6.016  1.00  0.00     0.074 A 
ATOM     51  C   UNL     1       7.364   4.838   4.779  1.00  0.00     0.031 C 
ATOM     52  C   UNL     1       4.968  -1.609   4.384  1.00  0.00     0.029 A 
ATOM     53  C   UNL     1       5.507  -1.208   5.684  1.00  0.00     0.049 A 
ATOM     54  H   UNL     1       6.240   0.667   6.215  1.00  0.00     0.167 HD
ATOM     55  C   UNL     1       7.883   4.600   7.188  1.00  0.00     0.037 A 
ATOM     56  C   UNL     1       5.611  -1.995   6.774  1.00  0.00     0.037 A 
ATOM     57  C   UNL     1       7.957   3.858   8.419  1.00  0.00     0.049 A 
ATOM     58  C   UNL     1       6.200  -1.432   8.046  1.00  0.00     0.074 A 
ATOM     59  C   UNL     1       8.390   4.290   9.660  1.00  0.00     0.029 A 
ATOM     60  N   UNL     1       7.599   2.526   8.561  1.00  0.00    -0.354 N 
ATOM     61  N   UNL     1       6.635  -0.221   8.297  1.00  0.00    -0.248 NA
ATOM     62  C   UNL     1       6.310  -2.351   9.190  1.00  0.00     0.031 C 
ATOM     63  C   UNL     1       8.354   3.202  10.539  1.00  0.00     0.029 A 
ATOM     64  C   UNL     1       7.829   2.112   9.864  1.00  0.00     0.049 A 
ATOM     65  H   UNL     1       7.236   1.958   7.843  1.00  0.00     0.167 HD
ATOM     66  C   UNL     1       7.031  -0.222   9.630  1.00  0.00     0.074 A 
ATOM     67  C   UNL     1       6.773  -1.551  10.140  1.00  0.00     0.031 C 
ATOM     68  C   UNL     1       7.558   0.788  10.366  1.00  0.00     0.037 A 
BRANCH  55  69
ATOM     69  C   UNL     1       8.364   6.023   7.185  1.00  0.00     0.064 A 
ATOM     70  C   UNL     1       7.481   7.103   7.025  1.00  0.00     0.173 A 
ATOM     71  C   UNL     1       9.724   6.312   7.375  1.00  0.00     0.173 A 
ATOM     72  F   UNL     1       6.173   6.882   6.824  1.00  0.00    -0.203 F 
ATOM     73  C   UNL     1       7.947   8.415   7.026  1.00  0.00     0.198 A 
ATOM     74  C   UNL     1      10.181   7.626   7.411  1.00  0.00     0.198 A 
ATOM     75  F   UNL     1      10.610   5.318   7.536  1.00  0.00    -0.203 F 
ATOM     76  F   UNL     1       7.094   9.427   6.817  1.00  0.00    -0.200 F 
ATOM     77  C   UNL     1       9.294   8.676   7.227  1.00  0.00     0.200 A 
ATOM     78  F   UNL     1      11.480   7.876   7.620  1.00  0.00    -0.200 F 
ATOM     79  F   UNL     1       9.739   9.940   7.237  1.00  0.00    -0.200 F 
ENDBRANCH  55  69
BRANCH  56  80
ATOM     80  C   UNL     1       5.162  -3.414   6.721  1.00  0.00     0.064 A 
ATOM     81  C   UNL     1       4.074  -3.859   7.485  1.00  0.00     0.173 A 
ATOM     82  C   UNL     1       5.836  -4.362   5.937  1.00  0.00     0.173 A 
ATOM     83  F   UNL     1       3.416  -2.999   8.276  1.00  0.00    -0.203 F 
ATOM     84  C   UNL     1       3.693  -5.200   7.486  1.00  0.00     0.198 A 
ATOM     85  C   UNL     1       5.433  -5.696   5.912  1.00  0.00     0.198 A 
ATOM     86  F   UNL     1       6.889  -3.994   5.193  1.00  0.00    -0.203 F 
ATOM     87  F   UNL     1       2.687  -5.607   8.272  1.00  0.00    -0.200 F 
ATOM     88  C   UNL     1       4.368  -6.116   6.694  1.00  0.00     0.200 A 
ATOM     89  F   UNL     1       6.083  -6.576   5.139  1.00  0.00    -0.200 F 
ATOM     90  F   UNL     1       4.002  -7.405   6.696  1.00  0.00    -0.200 F 
ENDBRANCH  56  80
BRANCH  68  91
ATOM     91  C   UNL     1       7.844   0.518  11.819  1.00  0.00     0.064 A 
ATOM     92  C   UNL     1       8.874  -0.343  12.227  1.00  0.00     0.173 A 
ATOM     93  C   UNL     1       7.098   1.163  12.818  1.00  0.00     0.173 A 
ATOM     94  F   UNL     1       9.612  -0.993  11.315  1.00  0.00    -0.203 F 
ATOM     95  C   UNL     1       9.122  -0.575  13.578  1.00  0.00     0.198 A 
ATOM     96  C   UNL     1       7.372   0.957  14.168  1.00  0.00     0.198 A 
ATOM     97  F   UNL     1       6.108   2.006  12.487  1.00  0.00    -0.203 F 
ATOM     98  F   UNL     1      10.072  -1.446  13.943  1.00  0.00    -0.200 F 
ATOM     99  C   UNL     1       8.377   0.081  14.547  1.00  0.00     0.200 A 
ATOM    100  F   UNL     1       6.664   1.608  15.101  1.00  0.00    -0.200 F 
ATOM    101  F   UNL     1       8.622  -0.138  15.846  1.00  0.00    -0.200 F 
ENDBRANCH  68  91
ENDBRANCH  42  43
ENDBRANCH  35  37
ENDBRANCH  34  35
ENDBRANCH  33  34
ENDBRANCH  32  33
ENDBRANCH  31  32
ENDBRANCH  30  31
ENDBRANCH   1  30
TORSDOF 20
