REMARK SMILES O=C(OCCOCCOCCOC(=O)[C@@H]1CCCCC[C@H]1NC(=O)N1CCS(=O)(=O)CC1)c1ccc(-c2c3nc(c(-c4c(F)c(F)c(F)c(F)c4F)c4ccc([nH]4)c(-c4c(F)c(F)c(F)c(F)c4F)c4nc(c(-c5c(F)c(F)c(F)c(F)c5F)c5ccc2[nH]5)C=C4)C=C3)cc1
REMARK SMILES IDX 8 1 7 2 6 3 5 4 4 5 3 6 2 7 1 8 33 9 34 10 95 11 35 12 94 13
REMARK SMILES IDX 36 14 37 15 38 16 88 17 39 18 93 19 87 20 89 21 40 22 92 23
REMARK SMILES IDX 86 24 85 25 41 27 73 28 53 29 72 30 54 31 57 32 71 33 90 34
REMARK SMILES IDX 55 35 56 36 70 38 91 39 58 40 42 41 43 42 51 43 44 44 45 45
REMARK SMILES IDX 49 46 52 47 46 48 47 49 50 50 48 51 74 52 75 53 83 54 76 55
REMARK SMILES IDX 77 56 81 57 84 58 78 59 79 60 82 61 80 62 59 63 60 64 68 65
REMARK SMILES IDX 61 66 62 67 66 68 69 69 63 70 64 71 67 72 65 73 9 74 10 75
REMARK SMILES IDX 11 76 12 77 13 78 14 79 15 80 16 81 17 82 18 83 21 85 20 86
REMARK SMILES IDX 19 87 22 89 23 90 24 92 25 93 26 94 32 95 27 96 31 97 28 98
REMARK SMILES IDX 29 99 30 100
REMARK H PARENT 89 26 57 37 22 91
REMARK Flexibility Score: 90.00
ROOT
ATOM      1  C   UNL     1       2.219   0.259  -3.891  1.00  0.00     0.188 C 
ENDROOT
BRANCH   1   2
ATOM      2  C   UNL     1       2.843  -0.123  -2.549  1.00  0.00     0.188 C 
BRANCH   2   3
ATOM      3  O   UNL     1       4.246  -0.021  -2.373  1.00  0.00    -0.376 OA
BRANCH   3   4
ATOM      4  C   UNL     1       4.878  -0.891  -1.430  1.00  0.00     0.202 C 
BRANCH   4   5
ATOM      5  C   UNL     1       4.111  -1.521  -0.239  1.00  0.00     0.261 C 
BRANCH   5   6
ATOM      6  O   UNL     1       2.711  -1.186  -0.074  1.00  0.00    -0.460 OA
BRANCH   6   7
ATOM      7  C   UNL     1       2.042  -0.074   0.303  1.00  0.00     0.338 C 
ATOM      8  O   UNL     1       0.917   0.097  -0.144  1.00  0.00    -0.246 OA
BRANCH   7   9
ATOM      9  C   UNL     1       2.699   0.894   1.282  1.00  0.00     0.060 A 
ATOM     10  C   UNL     1       4.258   1.364   0.590  1.00  0.00     0.016 A 
ATOM     11  C   UNL     1       2.250   1.701   2.997  1.00  0.00     0.016 A 
ATOM     12  C   UNL     1       5.324   2.375   1.494  1.00  0.00     0.010 A 
ATOM     13  C   UNL     1       3.409   2.745   3.823  1.00  0.00     0.010 A 
ATOM     14  C   UNL     1       4.911   3.061   3.024  1.00  0.00    -0.014 A 
BRANCH  14  15
ATOM     15  C   UNL     1       5.853   4.010   3.648  1.00  0.00     0.031 A 
ATOM     16  C   UNL     1       6.367   3.719   5.002  1.00  0.00     0.074 A 
ATOM     17  C   UNL     1       6.205   5.131   2.997  1.00  0.00     0.049 A 
ATOM     18  N   UNL     1       6.984   4.519   5.821  1.00  0.00    -0.248 NA
ATOM     19  C   UNL     1       6.114   2.376   5.533  1.00  0.00     0.031 C 
ATOM     20  C   UNL     1       5.743   5.456   1.664  1.00  0.00     0.029 A 
ATOM     21  N   UNL     1       7.003   6.195   3.313  1.00  0.00    -0.354 N 
ATOM     22  C   UNL     1       7.160   3.780   6.974  1.00  0.00     0.074 A 
ATOM     23  C   UNL     1       6.488   2.517   6.791  1.00  0.00     0.031 C 
ATOM     24  C   UNL     1       6.321   6.576   1.222  1.00  0.00     0.029 A 
ATOM     25  C   UNL     1       7.031   7.161   2.329  1.00  0.00     0.049 A 
ATOM     26  H   UNL     1       7.505   6.265   4.157  1.00  0.00     0.167 HD
ATOM     27  C   UNL     1       7.881   4.119   8.063  1.00  0.00     0.037 A 
ATOM     28  C   UNL     1       7.493   8.422   2.341  1.00  0.00     0.037 A 
ATOM     29  C   UNL     1       8.556   5.381   8.169  1.00  0.00     0.049 A 
ATOM     30  C   UNL     1       8.154   8.844   3.608  1.00  0.00     0.074 A 
ATOM     31  C   UNL     1       9.329   5.870   9.200  1.00  0.00     0.029 A 
ATOM     32  N   UNL     1       8.530   6.364   7.178  1.00  0.00    -0.354 N 
ATOM     33  N   UNL     1       8.293   8.153   4.715  1.00  0.00    -0.248 NA
ATOM     34  C   UNL     1       8.736  10.183   3.638  1.00  0.00     0.031 C 
ATOM     35  C   UNL     1       9.737   7.163   8.850  1.00  0.00     0.029 A 
ATOM     36  C   UNL     1       9.273   7.460   7.574  1.00  0.00     0.049 A 
ATOM     37  H   UNL     1       8.051   6.287   6.321  1.00  0.00     0.167 HD
ATOM     38  C   UNL     1       9.045   8.941   5.558  1.00  0.00     0.074 A 
ATOM     39  C   UNL     1       9.303  10.179   4.837  1.00  0.00     0.031 C 
ATOM     40  C   UNL     1       9.510   8.655   6.798  1.00  0.00     0.037 A 
BRANCH  27  41
ATOM     41  C   UNL     1       7.903   3.105   9.166  1.00  0.00     0.064 A 
ATOM     42  C   UNL     1       8.487   1.836   8.990  1.00  0.00     0.173 A 
ATOM     43  C   UNL     1       7.177   3.333  10.342  1.00  0.00     0.173 A 
ATOM     44  F   UNL     1       9.150   1.550   7.858  1.00  0.00    -0.203 F 
ATOM     45  C   UNL     1       8.271   0.814   9.910  1.00  0.00     0.198 A 
ATOM     46  C   UNL     1       7.001   2.319  11.281  1.00  0.00     0.198 A 
ATOM     47  F   UNL     1       6.585   4.518  10.552  1.00  0.00    -0.203 F 
ATOM     48  F   UNL     1       8.724  -0.422   9.654  1.00  0.00    -0.200 F 
ATOM     49  C   UNL     1       7.527   1.056  11.054  1.00  0.00     0.200 A 
ATOM     50  F   UNL     1       6.277   2.552  12.385  1.00  0.00    -0.200 F 
ATOM     51  F   UNL     1       7.287   0.062  11.921  1.00  0.00    -0.200 F 
ENDBRANCH  27  41
BRANCH  28  52
ATOM     52  C   UNL     1       7.305   9.338   1.180  1.00  0.00     0.064 A 
ATOM     53  C   UNL     1       8.393   9.764   0.406  1.00  0.00     0.173 A 
ATOM     54  C   UNL     1       6.032   9.809   0.811  1.00  0.00     0.173 A 
ATOM     55  F   UNL     1       9.630   9.341   0.707  1.00  0.00    -0.203 F 
ATOM     56  C   UNL     1       8.225  10.646  -0.662  1.00  0.00     0.198 A 
ATOM     57  C   UNL     1       5.861  10.673  -0.272  1.00  0.00     0.198 A 
ATOM     58  F   UNL     1       4.947   9.415   1.494  1.00  0.00    -0.203 F 
ATOM     59  F   UNL     1       9.292  11.066  -1.356  1.00  0.00    -0.200 F 
ATOM     60  C   UNL     1       6.959  11.102  -1.000  1.00  0.00     0.200 A 
ATOM     61  F   UNL     1       4.632  11.090  -0.608  1.00  0.00    -0.200 F 
ATOM     62  F   UNL     1       6.800  11.953  -2.022  1.00  0.00    -0.200 F 
ENDBRANCH  28  52
BRANCH  40  63
ATOM     63  C   UNL     1      10.448   9.661   7.375  1.00  0.00     0.064 A 
ATOM     64  C   UNL     1      10.014  10.909   7.836  1.00  0.00     0.173 A 
ATOM     65  C   UNL     1      11.812   9.347   7.465  1.00  0.00     0.173 A 
ATOM     66  F   UNL     1       8.723  11.257   7.731  1.00  0.00    -0.203 F 
ATOM     67  C   UNL     1      10.925  11.825   8.347  1.00  0.00     0.198 A 
ATOM     68  C   UNL     1      12.711  10.249   8.015  1.00  0.00     0.198 A 
ATOM     69  F   UNL     1      12.266   8.164   7.024  1.00  0.00    -0.203 F 
ATOM     70  F   UNL     1      10.506  13.042   8.720  1.00  0.00    -0.200 F 
ATOM     71  C   UNL     1      12.268  11.490   8.446  1.00  0.00     0.200 A 
ATOM     72  F   UNL     1      14.005   9.919   8.122  1.00  0.00    -0.200 F 
ATOM     73  F   UNL     1      13.142  12.372   8.949  1.00  0.00    -0.200 F 
ENDBRANCH  40  63
ENDBRANCH  14  15
ENDBRANCH   7   9
ENDBRANCH   6   7
ENDBRANCH   5   6
ENDBRANCH   4   5
ENDBRANCH   3   4
ENDBRANCH   2   3
ENDBRANCH   1   2
BRANCH   1  74
ATOM     74  O   UNL     1       2.983   0.128  -5.070  1.00  0.00    -0.376 OA
BRANCH  74  75
ATOM     75  C   UNL     1       4.313   0.615  -5.043  1.00  0.00     0.202 C 
BRANCH  75  76
ATOM     76  C   UNL     1       4.578   2.098  -4.703  1.00  0.00     0.261 C 
BRANCH  76  77
ATOM     77  O   UNL     1       3.828   2.714  -3.626  1.00  0.00    -0.463 OA
BRANCH  77  78
ATOM     78  C   UNL     1       2.756   3.446  -4.037  1.00  0.00     0.311 C 
ATOM     79  O   UNL     1       2.357   3.454  -5.199  1.00  0.00    -0.252 OA
BRANCH  78  80
ATOM     80  C   UNL     1       2.094   4.334  -2.972  1.00  0.00     0.121 C 
BRANCH  80  81
ATOM     81  C   UNL     1       2.198   5.760  -3.585  1.00  0.00     0.017 C 
BRANCH  81  82
ATOM     82  C   UNL     1       1.807   6.952  -2.723  1.00  0.00     0.001 C 
BRANCH  82  83
ATOM     83  C   UNL     1       2.954   7.477  -1.875  1.00  0.00     0.000 CG0
ATOM     84  G   UNL     1       3.420   6.524  -0.789  1.00  0.00     0.000 G0
ENDBRANCH  82  83
ENDBRANCH  81  82
ENDBRANCH  80  81
BRANCH  80  85
ATOM     85  C   UNL     1       2.605   4.168  -1.512  1.00  0.00     0.098 C 
BRANCH  85  86
ATOM     86  C   UNL     1       3.793   5.121  -1.285  1.00  0.00     0.026 C 
BRANCH  86  87
ATOM     87  C   UNL     1       3.420   6.524  -0.789  1.00  0.00     0.002 CG0
ATOM     88  G   UNL     1       2.954   7.477  -1.875  1.00  0.00     0.000 G0
ENDBRANCH  86  87
ENDBRANCH  85  86
BRANCH  85  89
ATOM     89  N   UNL     1       1.514   4.410  -0.517  1.00  0.00    -0.334 N 
ATOM     90  C   UNL     1       0.844   3.712   0.429  1.00  0.00     0.317 C 
ATOM     91  H   UNL     1       1.192   5.340  -0.564  1.00  0.00     0.165 HD
ATOM     92  O   UNL     1      -0.303   4.090   0.679  1.00  0.00    -0.249 OA
ATOM     93  N   UNL     1       1.399   2.658   1.115  1.00  0.00    -0.323 N 
ATOM     94  C   UNL     1       3.107   2.765   1.682  1.00  0.00     0.137 C 
ATOM     95  C   UNL     1       0.259   1.613   1.818  1.00  0.00     0.137 C 
ATOM     96  C   UNL     1       4.010   1.024   2.692  1.00  0.00     0.158 C 
ATOM     97  C   UNL     1       0.591  -0.018   2.560  1.00  0.00     0.158 C 
ATOM     98  S   UNL     1       2.520  -0.562   3.292  1.00  0.00     0.153 S 
ATOM     99  O   UNL     1       2.918  -1.808   2.663  1.00  0.00    -0.229 OA
ATOM    100  O   UNL     1       2.444  -0.546   4.745  1.00  0.00    -0.229 OA
ENDBRANCH  85  89
ENDBRANCH  80  85
ENDBRANCH  78  80
ENDBRANCH  77  78
ENDBRANCH  76  77
ENDBRANCH  75  76
ENDBRANCH  74  75
ENDBRANCH   1  74
TORSDOF 18
