REMARK SMILES O=C(OCCOCCOCCOC(=O)c1cn(C2C[NH+](CCC[C@@H]3CCCO3)C2)nn1)c1ccc(-c2c3nc(c(-c4c(F)c(F)c(F)c(F)c4F)c4ccc([nH]4)c(-c4c(F)c(F)c(F)c(F)c4F)c4nc(c(-c5c(F)c(F)c(F)c(F)c5F)c5ccc2[nH]5)C=C4)C=C3)cc1
REMARK SMILES IDX 9 1 8 2 7 3 6 4 5 5 4 6 3 7 2 8 1 9 32 10 33 11 94 12 34 13
REMARK SMILES IDX 93 14 35 15 36 16 37 17 87 18 38 19 92 20 86 21 88 22 39 23
REMARK SMILES IDX 91 24 85 25 84 26 40 28 72 29 52 30 71 31 53 32 56 33 70 34
REMARK SMILES IDX 89 35 54 36 55 37 69 39 90 40 57 41 41 42 42 43 50 44 43 45
REMARK SMILES IDX 44 46 48 47 51 48 45 49 46 50 49 51 47 52 73 53 74 54 82 55
REMARK SMILES IDX 75 56 76 57 80 58 83 59 77 60 78 61 81 62 79 63 58 64 59 65
REMARK SMILES IDX 67 66 60 67 61 68 65 69 68 70 62 71 63 72 66 73 64 74 10 75
REMARK SMILES IDX 11 76 12 77 13 78 14 79 15 80 16 81 31 82 17 83 30 84 18 85
REMARK SMILES IDX 19 86 29 87 20 88 21 90 22 91 23 92 24 93 25 94 28 95 26 96
REMARK SMILES IDX 27 97
REMARK H PARENT 88 27 56 38 20 89
REMARK Flexibility Score: inf
ROOT
ATOM      1  O   UNL     1       2.697   0.179  -3.485  1.00  0.00    -0.376 OA
ENDROOT
BRANCH   1   2
ATOM      2  C   UNL     1       2.275   0.780  -2.264  1.00  0.00     0.188 C 
BRANCH   2   3
ATOM      3  C   UNL     1       3.251   1.298  -1.174  1.00  0.00     0.188 C 
BRANCH   3   4
ATOM      4  O   UNL     1       4.608   0.950  -1.369  1.00  0.00    -0.376 OA
BRANCH   4   5
ATOM      5  C   UNL     1       5.230   0.027  -0.496  1.00  0.00     0.202 C 
BRANCH   5   6
ATOM      6  C   UNL     1       4.612  -1.357  -0.264  1.00  0.00     0.261 C 
BRANCH   6   7
ATOM      7  O   UNL     1       3.207  -1.479  -0.499  1.00  0.00    -0.460 OA
BRANCH   7   8
ATOM      8  C   UNL     1       2.148  -1.360   0.317  1.00  0.00     0.338 C 
ATOM      9  O   UNL     1       1.060  -1.796  -0.058  1.00  0.00    -0.246 OA
BRANCH   8  10
ATOM     10  C   UNL     1       2.167  -0.632   1.610  1.00  0.00     0.060 A 
ATOM     11  C   UNL     1       3.256  -0.527   2.473  1.00  0.00     0.016 A 
ATOM     12  C   UNL     1       0.910  -0.139   2.019  1.00  0.00     0.016 A 
ATOM     13  C   UNL     1       3.040  -0.168   3.793  1.00  0.00     0.010 A 
ATOM     14  C   UNL     1       0.693   0.231   3.329  1.00  0.00     0.010 A 
ATOM     15  C   UNL     1       1.742   0.104   4.225  1.00  0.00    -0.014 A 
BRANCH  15  16
ATOM     16  C   UNL     1       1.521   0.305   5.644  1.00  0.00     0.031 A 
ATOM     17  C   UNL     1       2.147   1.544   6.155  1.00  0.00     0.074 A 
ATOM     18  C   UNL     1       0.768  -0.551   6.366  1.00  0.00     0.049 A 
ATOM     19  N   UNL     1       3.132   1.640   6.984  1.00  0.00    -0.248 NA
ATOM     20  C   UNL     1       1.768   2.819   5.524  1.00  0.00     0.031 C 
ATOM     21  C   UNL     1      -0.042  -1.669   5.872  1.00  0.00     0.029 A 
ATOM     22  N   UNL     1       0.492  -0.547   7.701  1.00  0.00    -0.354 N 
ATOM     23  C   UNL     1       3.343   3.005   7.157  1.00  0.00     0.074 A 
ATOM     24  C   UNL     1       2.636   3.659   6.090  1.00  0.00     0.031 C 
ATOM     25  C   UNL     1      -0.891  -2.075   6.843  1.00  0.00     0.029 A 
ATOM     26  C   UNL     1      -0.596  -1.343   8.060  1.00  0.00     0.049 A 
ATOM     27  H   UNL     1       1.015  -0.029   8.355  1.00  0.00     0.167 HD
ATOM     28  C   UNL     1       3.807   3.471   8.349  1.00  0.00     0.037 A 
ATOM     29  C   UNL     1      -1.244  -1.316   9.254  1.00  0.00     0.037 A 
ATOM     30  C   UNL     1       4.491   2.418   9.067  1.00  0.00     0.049 A 
ATOM     31  C   UNL     1      -0.319  -0.697  10.239  1.00  0.00     0.074 A 
ATOM     32  C   UNL     1       5.586   1.613   8.816  1.00  0.00     0.029 A 
ATOM     33  N   UNL     1       3.813   1.808  10.094  1.00  0.00    -0.354 N 
ATOM     34  N   UNL     1       0.782  -1.267  10.646  1.00  0.00    -0.248 NA
ATOM     35  C   UNL     1      -0.365   0.750  10.382  1.00  0.00     0.031 C 
ATOM     36  C   UNL     1       5.254   0.343   9.377  1.00  0.00     0.029 A 
ATOM     37  C   UNL     1       4.014   0.459  10.004  1.00  0.00     0.049 A 
ATOM     38  H   UNL     1       3.274   2.266  10.779  1.00  0.00     0.167 HD
ATOM     39  C   UNL     1       1.718  -0.243  10.662  1.00  0.00     0.074 A 
ATOM     40  C   UNL     1       0.938   0.989  10.557  1.00  0.00     0.031 C 
ATOM     41  C   UNL     1       3.042  -0.507  10.452  1.00  0.00     0.037 A 
BRANCH  28  42
ATOM     42  C   UNL     1       3.192   4.662   9.070  1.00  0.00     0.064 A 
ATOM     43  C   UNL     1       3.668   4.966  10.363  1.00  0.00     0.173 A 
ATOM     44  C   UNL     1       1.960   5.264   8.730  1.00  0.00     0.173 A 
ATOM     45  F   UNL     1       4.846   4.485  10.790  1.00  0.00    -0.203 F 
ATOM     46  C   UNL     1       2.890   5.660  11.294  1.00  0.00     0.198 A 
ATOM     47  C   UNL     1       1.205   5.991   9.650  1.00  0.00     0.198 A 
ATOM     48  F   UNL     1       1.375   5.111   7.540  1.00  0.00    -0.203 F 
ATOM     49  F   UNL     1       3.315   5.772  12.559  1.00  0.00    -0.200 F 
ATOM     50  C   UNL     1       1.648   6.149  10.943  1.00  0.00     0.200 A 
ATOM     51  F   UNL     1       0.003   6.459   9.287  1.00  0.00    -0.200 F 
ATOM     52  F   UNL     1       0.862   6.734  11.855  1.00  0.00    -0.200 F 
ENDBRANCH  28  42
BRANCH  29  53
ATOM     53  C   UNL     1      -2.703  -1.438   9.508  1.00  0.00     0.064 A 
ATOM     54  C   UNL     1      -3.203  -1.621  10.809  1.00  0.00     0.173 A 
ATOM     55  C   UNL     1      -3.651  -1.093   8.523  1.00  0.00     0.173 A 
ATOM     56  F   UNL     1      -2.366  -1.899  11.820  1.00  0.00    -0.203 F 
ATOM     57  C   UNL     1      -4.560  -1.447  11.109  1.00  0.00     0.198 A 
ATOM     58  C   UNL     1      -5.004  -0.927   8.821  1.00  0.00     0.198 A 
ATOM     59  F   UNL     1      -3.270  -0.813   7.269  1.00  0.00    -0.203 F 
ATOM     60  F   UNL     1      -4.988  -1.567  12.374  1.00  0.00    -0.200 F 
ATOM     61  C   UNL     1      -5.458  -1.090  10.116  1.00  0.00     0.200 A 
ATOM     62  F   UNL     1      -5.853  -0.542   7.858  1.00  0.00    -0.200 F 
ATOM     63  F   UNL     1      -6.745  -0.862  10.412  1.00  0.00    -0.200 F 
ENDBRANCH  29  53
BRANCH  41  64
ATOM     64  C   UNL     1       3.482  -1.942  10.493  1.00  0.00     0.064 A 
ATOM     65  C   UNL     1       3.059  -2.926   9.583  1.00  0.00     0.173 A 
ATOM     66  C   UNL     1       4.478  -2.295  11.413  1.00  0.00     0.173 A 
ATOM     67  F   UNL     1       2.186  -2.635   8.610  1.00  0.00    -0.203 F 
ATOM     68  C   UNL     1       3.582  -4.218   9.626  1.00  0.00     0.198 A 
ATOM     69  C   UNL     1       5.024  -3.574  11.429  1.00  0.00     0.198 A 
ATOM     70  F   UNL     1       4.958  -1.378  12.267  1.00  0.00    -0.203 F 
ATOM     71  F   UNL     1       3.157  -5.145   8.755  1.00  0.00    -0.200 F 
ATOM     72  C   UNL     1       4.568  -4.538  10.545  1.00  0.00     0.200 A 
ATOM     73  F   UNL     1       6.014  -3.862  12.284  1.00  0.00    -0.200 F 
ATOM     74  F   UNL     1       5.101  -5.768  10.560  1.00  0.00    -0.200 F 
ENDBRANCH  41  64
ENDBRANCH  15  16
ENDBRANCH   8  10
ENDBRANCH   7   8
ENDBRANCH   6   7
ENDBRANCH   5   6
ENDBRANCH   4   5
ENDBRANCH   3   4
ENDBRANCH   2   3
ENDBRANCH   1   2
BRANCH   1  75
ATOM     75  C   UNL     1       4.053   0.190  -3.885  1.00  0.00     0.202 C 
BRANCH  75  76
ATOM     76  C   UNL     1       4.625   1.532  -4.368  1.00  0.00     0.261 C 
BRANCH  76  77
ATOM     77  O   UNL     1       4.201   2.671  -3.610  1.00  0.00    -0.458 OA
BRANCH  77  78
ATOM     78  C   UNL     1       3.096   3.308  -4.083  1.00  0.00     0.360 C 
ATOM     79  O   UNL     1       2.562   3.095  -5.171  1.00  0.00    -0.244 OA
BRANCH  78  80
ATOM     80  C   UNL     1       2.567   4.246  -3.123  1.00  0.00     0.190 A 
ATOM     81  C   UNL     1       3.088   5.463  -2.738  1.00  0.00     0.147 A 
ATOM     82  N   UNL     1       1.409   4.013  -2.421  1.00  0.00    -0.123 NA
ATOM     83  N   UNL     1       2.149   5.950  -1.876  1.00  0.00    -0.237 N 
ATOM     84  N   UNL     1       1.200   5.037  -1.614  1.00  0.00    -0.066 NA
BRANCH  83  85
ATOM     85  C   UNL     1       2.038   7.263  -1.342  1.00  0.00     0.218 C 
ATOM     86  C   UNL     1       3.370   7.984  -1.059  1.00  0.00     0.295 C 
ATOM     87  C   UNL     1       1.850   8.339  -2.436  1.00  0.00     0.295 C 
ATOM     88  N   UNL     1       2.868   9.165  -1.767  1.00  0.00    -0.331 N 
ATOM     89  H   UNL     1       3.503   9.743  -2.318  1.00  0.00     0.348 HD
BRANCH  88  90
ATOM     90  C   UNL     1       2.322  10.205  -0.889  1.00  0.00     0.262 C 
BRANCH  90  91
ATOM     91  C   UNL     1       1.231   9.971   0.182  1.00  0.00     0.064 C 
BRANCH  91  92
ATOM     92  C   UNL     1       1.526   9.196   1.480  1.00  0.00     0.038 C 
BRANCH  92  93
ATOM     93  C   UNL     1       2.672   9.628   2.405  1.00  0.00     0.118 C 
ATOM     94  C   UNL     1       3.149  11.068   2.360  1.00  0.00     0.034 C 
ATOM     95  O   UNL     1       3.811   8.778   2.186  1.00  0.00    -0.378 OA
ATOM     96  C   UNL     1       4.641  10.952   2.570  1.00  0.00     0.031 C 
ATOM     97  C   UNL     1       4.977   9.585   2.027  1.00  0.00     0.160 C 
ENDBRANCH  92  93
ENDBRANCH  91  92
ENDBRANCH  90  91
ENDBRANCH  88  90
ENDBRANCH  83  85
ENDBRANCH  78  80
ENDBRANCH  77  78
ENDBRANCH  76  77
ENDBRANCH  75  76
ENDBRANCH   1  75
TORSDOF 22
