REMARK SMILES O=C(OCCOCCOCCOC(=O)[C@H]1C[NH2+]CCN1c1ncc(C(F)(F)F)cc1Cl)c1ccc(-c2c3nc(c(-c4c(F)c(F)c(F)c(F)c4F)c4ccc([nH]4)c(-c4c(F)c(F)c(F)c(F)c4F)c4nc(c(-c5c(F)c(F)c(F)c(F)c5F)c5ccc2[nH]5)C=C4)C=C3)cc1
REMARK SMILES IDX 7 1 6 2 5 3 4 4 3 5 2 6 1 7 32 8 33 9 94 10 34 11 93 12
REMARK SMILES IDX 35 13 36 14 37 15 87 16 38 17 92 18 86 19 88 20 39 21 91 22
REMARK SMILES IDX 85 23 84 24 40 26 72 27 52 28 71 29 53 30 56 31 70 32 89 33
REMARK SMILES IDX 54 34 55 35 69 37 90 38 57 39 41 40 42 41 50 42 43 43 44 44
REMARK SMILES IDX 48 45 51 46 45 47 46 48 49 49 47 50 73 51 74 52 82 53 75 54
REMARK SMILES IDX 76 55 80 56 83 57 77 58 78 59 81 60 79 61 58 62 59 63 67 64
REMARK SMILES IDX 60 65 61 66 65 67 68 68 62 69 63 70 66 71 64 72 8 73 9 74
REMARK SMILES IDX 10 75 11 76 12 77 13 78 14 79 15 80 16 81 20 82 17 83 19 84
REMARK SMILES IDX 18 85 21 88 22 89 30 90 23 91 29 92 31 93 24 94 25 95 26 96
REMARK SMILES IDX 27 97 28 98
REMARK H PARENT 88 25 56 36 17 86 17 87
REMARK Flexibility Score: inf
ROOT
ATOM      1  C   UNL     1      -1.121  -0.741  -2.477  1.00  0.00     0.188 C 
ENDROOT
BRANCH   1   2
ATOM      2  O   UNL     1      -1.056  -2.147  -2.741  1.00  0.00    -0.376 OA
BRANCH   2   3
ATOM      3  C   UNL     1      -2.161  -2.881  -2.202  1.00  0.00     0.202 C 
BRANCH   3   4
ATOM      4  C   UNL     1      -2.136  -3.109  -0.682  1.00  0.00     0.261 C 
BRANCH   4   5
ATOM      5  O   UNL     1      -1.615  -1.995   0.059  1.00  0.00    -0.460 OA
BRANCH   5   6
ATOM      6  C   UNL     1      -0.352  -1.771   0.491  1.00  0.00     0.338 C 
ATOM      7  O   UNL     1      -0.172  -0.841   1.278  1.00  0.00    -0.246 OA
BRANCH   6   8
ATOM      8  C   UNL     1       0.858  -2.548   0.051  1.00  0.00     0.060 A 
ATOM      9  C   UNL     1       0.894  -3.539  -0.934  1.00  0.00     0.016 A 
ATOM     10  C   UNL     1       2.074  -2.221   0.683  1.00  0.00     0.016 A 
ATOM     11  C   UNL     1       2.064  -4.224  -1.246  1.00  0.00     0.010 A 
ATOM     12  C   UNL     1       3.258  -2.897   0.377  1.00  0.00     0.010 A 
ATOM     13  C   UNL     1       3.239  -3.930  -0.564  1.00  0.00    -0.014 A 
BRANCH  13  14
ATOM     14  C   UNL     1       4.368  -4.868  -0.674  1.00  0.00     0.031 A 
ATOM     15  C   UNL     1       4.509  -5.904   0.395  1.00  0.00     0.074 A 
ATOM     16  C   UNL     1       5.188  -4.841  -1.735  1.00  0.00     0.049 A 
ATOM     17  N   UNL     1       5.465  -6.768   0.596  1.00  0.00    -0.248 NA
ATOM     18  C   UNL     1       3.402  -5.986   1.363  1.00  0.00     0.031 C 
ATOM     19  C   UNL     1       5.033  -3.963  -2.890  1.00  0.00     0.029 A 
ATOM     20  N   UNL     1       6.321  -5.561  -2.005  1.00  0.00    -0.354 N 
ATOM     21  C   UNL     1       5.084  -7.483   1.722  1.00  0.00     0.074 A 
ATOM     22  C   UNL     1       3.818  -6.949   2.168  1.00  0.00     0.031 C 
ATOM     23  C   UNL     1       6.067  -4.156  -3.726  1.00  0.00     0.029 A 
ATOM     24  C   UNL     1       6.975  -5.130  -3.132  1.00  0.00     0.049 A 
ATOM     25  H   UNL     1       6.634  -6.310  -1.448  1.00  0.00     0.167 HD
ATOM     26  C   UNL     1       5.748  -8.493   2.328  1.00  0.00     0.037 A 
ATOM     27  C   UNL     1       8.201  -5.450  -3.587  1.00  0.00     0.037 A 
ATOM     28  C   UNL     1       7.020  -8.978   1.870  1.00  0.00     0.049 A 
ATOM     29  C   UNL     1       8.992  -6.480  -2.829  1.00  0.00     0.074 A 
ATOM     30  C   UNL     1       7.822  -9.961   2.416  1.00  0.00     0.029 A 
ATOM     31  N   UNL     1       7.682  -8.490   0.749  1.00  0.00    -0.354 N 
ATOM     32  N   UNL     1       8.659  -7.133  -1.740  1.00  0.00    -0.248 NA
ATOM     33  C   UNL     1      10.318  -6.824  -3.354  1.00  0.00     0.031 C 
ATOM     34  C   UNL     1       8.996 -10.027   1.657  1.00  0.00     0.029 A 
ATOM     35  C   UNL     1       8.898  -9.132   0.600  1.00  0.00     0.049 A 
ATOM     36  H   UNL     1       7.336  -7.791   0.149  1.00  0.00     0.167 HD
ATOM     37  C   UNL     1       9.715  -7.989  -1.466  1.00  0.00     0.074 A 
ATOM     38  C   UNL     1      10.705  -7.765  -2.502  1.00  0.00     0.031 C 
ATOM     39  C   UNL     1       9.848  -8.888  -0.459  1.00  0.00     0.037 A 
BRANCH  26  40
ATOM     40  C   UNL     1       5.137  -9.045   3.582  1.00  0.00     0.064 A 
ATOM     41  C   UNL     1       3.942  -9.781   3.568  1.00  0.00     0.173 A 
ATOM     42  C   UNL     1       5.716  -8.760   4.828  1.00  0.00     0.173 A 
ATOM     43  F   UNL     1       3.330 -10.054   2.405  1.00  0.00    -0.203 F 
ATOM     44  C   UNL     1       3.324 -10.167   4.756  1.00  0.00     0.198 A 
ATOM     45  C   UNL     1       5.112  -9.175   6.012  1.00  0.00     0.198 A 
ATOM     46  F   UNL     1       6.853  -8.053   4.899  1.00  0.00    -0.203 F 
ATOM     47  F   UNL     1       2.139 -10.794   4.720  1.00  0.00    -0.200 F 
ATOM     48  C   UNL     1       3.909  -9.863   5.976  1.00  0.00     0.200 A 
ATOM     49  F   UNL     1       5.680  -8.882   7.189  1.00  0.00    -0.200 F 
ATOM     50  F   UNL     1       3.302 -10.215   7.118  1.00  0.00    -0.200 F 
ENDBRANCH  26  40
BRANCH  27  51
ATOM     51  C   UNL     1       8.745  -4.743  -4.775  1.00  0.00     0.064 A 
ATOM     52  C   UNL     1       8.907  -5.392  -6.005  1.00  0.00     0.173 A 
ATOM     53  C   UNL     1       9.071  -3.377  -4.711  1.00  0.00     0.173 A 
ATOM     54  F   UNL     1       8.628  -6.699  -6.113  1.00  0.00    -0.203 F 
ATOM     55  C   UNL     1       9.372  -4.704  -7.126  1.00  0.00     0.198 A 
ATOM     56  C   UNL     1       9.513  -2.686  -5.837  1.00  0.00     0.198 A 
ATOM     57  F   UNL     1       8.939  -2.710  -3.555  1.00  0.00    -0.203 F 
ATOM     58  F   UNL     1       9.539  -5.354  -8.285  1.00  0.00    -0.200 F 
ATOM     59  C   UNL     1       9.665  -3.350  -7.044  1.00  0.00     0.200 A 
ATOM     60  F   UNL     1       9.787  -1.377  -5.753  1.00  0.00    -0.200 F 
ATOM     61  F   UNL     1      10.099  -2.689  -8.125  1.00  0.00    -0.200 F 
ENDBRANCH  27  51
BRANCH  39  62
ATOM     62  C   UNL     1      11.082  -9.737  -0.455  1.00  0.00     0.064 A 
ATOM     63  C   UNL     1      12.323  -9.232  -0.047  1.00  0.00     0.173 A 
ATOM     64  C   UNL     1      10.990 -11.103  -0.763  1.00  0.00     0.173 A 
ATOM     65  F   UNL     1      12.460  -7.930   0.244  1.00  0.00    -0.203 F 
ATOM     66  C   UNL     1      13.433 -10.067   0.050  1.00  0.00     0.198 A 
ATOM     67  C   UNL     1      12.093 -11.939  -0.638  1.00  0.00     0.198 A 
ATOM     68  F   UNL     1       9.818 -11.630  -1.151  1.00  0.00    -0.203 F 
ATOM     69  F   UNL     1      14.617  -9.562   0.422  1.00  0.00    -0.200 F 
ATOM     70  C   UNL     1      13.314 -11.420  -0.233  1.00  0.00     0.200 A 
ATOM     71  F   UNL     1      11.972 -13.249  -0.895  1.00  0.00    -0.200 F 
ATOM     72  F   UNL     1      14.377 -12.227  -0.112  1.00  0.00    -0.200 F 
ENDBRANCH  39  62
ENDBRANCH  13  14
ENDBRANCH   6   8
ENDBRANCH   5   6
ENDBRANCH   4   5
ENDBRANCH   3   4
ENDBRANCH   2   3
ENDBRANCH   1   2
BRANCH   1  73
ATOM     73  C   UNL     1      -0.965   0.154  -3.708  1.00  0.00     0.188 C 
BRANCH  73  74
ATOM     74  O   UNL     1      -1.851  -0.035  -4.805  1.00  0.00    -0.376 OA
BRANCH  74  75
ATOM     75  C   UNL     1      -2.022  -1.342  -5.332  1.00  0.00     0.202 C 
BRANCH  75  76
ATOM     76  C   UNL     1      -0.820  -2.099  -5.923  1.00  0.00     0.261 C 
BRANCH  76  77
ATOM     77  O   UNL     1       0.418  -2.003  -5.202  1.00  0.00    -0.462 OA
BRANCH  77  78
ATOM     78  C   UNL     1       1.273  -1.059  -5.687  1.00  0.00     0.334 C 
ATOM     79  O   UNL     1       1.006  -0.326  -6.642  1.00  0.00    -0.250 OA
BRANCH  78  80
ATOM     80  C   UNL     1       2.632  -1.051  -4.951  1.00  0.00     0.249 C 
ATOM     81  C   UNL     1       3.665  -1.296  -6.085  1.00  0.00     0.298 C 
ATOM     82  N   UNL     1       2.892   0.247  -4.285  1.00  0.00    -0.331 N 
ATOM     83  N   UNL     1       3.828  -0.164  -7.034  1.00  0.00    -0.343 N 
ATOM     84  C   UNL     1       3.044   1.410  -5.163  1.00  0.00     0.180 C 
ATOM     85  C   UNL     1       4.053   1.103  -6.298  1.00  0.00     0.282 C 
ATOM     86  H   UNL     1       2.984  -0.078  -7.601  1.00  0.00     0.346 HD
ATOM     87  H   UNL     1       4.635  -0.347  -7.630  1.00  0.00     0.346 HD
BRANCH  82  88
ATOM     88  C   UNL     1       3.365   0.399  -3.000  1.00  0.00     0.148 A 
ATOM     89  N   UNL     1       2.534   1.068  -2.159  1.00  0.00    -0.237 NA
ATOM     90  C   UNL     1       4.661   0.066  -2.567  1.00  0.00     0.084 A 
ATOM     91  C   UNL     1       2.976   1.418  -0.920  1.00  0.00     0.126 A 
ATOM     92  C   UNL     1       5.081   0.409  -1.276  1.00  0.00     0.039 A 
ATOM     93  Cl  UNL     1       5.877  -0.618  -3.575  1.00  0.00    -0.080 Cl
ATOM     94  C   UNL     1       4.234   1.119  -0.430  1.00  0.00     0.075 A 
BRANCH  94  95
ATOM     95  C   UNL     1       4.676   1.608   0.914  1.00  0.00     0.417 C 
ATOM     96  F   UNL     1       4.845   2.958   0.946  1.00  0.00    -0.166 F 
ATOM     97  F   UNL     1       3.791   1.313   1.902  1.00  0.00    -0.166 F 
ATOM     98  F   UNL     1       5.867   1.077   1.312  1.00  0.00    -0.166 F 
ENDBRANCH  94  95
ENDBRANCH  82  88
ENDBRANCH  78  80
ENDBRANCH  77  78
ENDBRANCH  76  77
ENDBRANCH  75  76
ENDBRANCH  74  75
ENDBRANCH  73  74
ENDBRANCH   1  73
TORSDOF 19
