REMARK SMILES CN(CC(F)(F)F)C(=O)N[C@@H]1CCCCC[C@@H]1C(=O)OCCOCCOCCOC(=O)c1ccc(-c2c3nc(c(-c4c(F)c(F)c(F)c(F)c4F)c4ccc([nH]4)c(-c4c(F)c(F)c(F)c(F)c4F)c4nc(c(-c5c(F)c(F)c(F)c(F)c5F)c5ccc2[nH]5)C=C4)C=C3)cc1
REMARK SMILES IDX 23 1 22 2 21 3 20 4 18 5 19 6 17 7 11 8 10 9 8 10 9 11 2 13
REMARK SMILES IDX 1 14 3 15 4 16 5 17 6 18 7 19 12 20 13 21 14 22 16 24 15 25
REMARK SMILES IDX 24 27 25 28 26 29 27 30 28 31 29 32 30 33 31 34 32 35 33 36
REMARK SMILES IDX 94 37 34 38 93 39 35 40 36 41 37 42 87 43 38 44 92 45 86 46
REMARK SMILES IDX 88 47 39 48 91 49 85 50 84 51 40 53 72 54 52 55 71 56 53 57
REMARK SMILES IDX 56 58 70 59 89 60 54 61 55 62 69 64 90 65 57 66 41 67 42 68
REMARK SMILES IDX 50 69 43 70 44 71 48 72 51 73 45 74 46 75 49 76 47 77 73 78
REMARK SMILES IDX 74 79 82 80 75 81 76 82 80 83 83 84 77 85 78 86 81 87 79 88
REMARK SMILES IDX 58 89 59 90 67 91 60 92 61 93 65 94 68 95 62 96 63 97 66 98
REMARK SMILES IDX 64 99
REMARK H PARENT 10 12 88 52 56 63
REMARK Flexibility Score: 100.00
ROOT
ATOM      1  O   UNL     1      -1.159  -7.045   5.300  1.00  0.00    -0.376 OA
ENDROOT
BRANCH   1   2
ATOM      2  C   UNL     1      -0.068  -7.214   4.405  1.00  0.00     0.202 C 
BRANCH   2   3
ATOM      3  C   UNL     1       1.168  -6.296   4.499  1.00  0.00     0.261 C 
BRANCH   3   4
ATOM      4  O   UNL     1       0.939  -4.949   4.947  1.00  0.00    -0.463 OA
BRANCH   4   5
ATOM      5  C   UNL     1       0.624  -4.025   4.008  1.00  0.00     0.311 C 
ATOM      6  O   UNL     1       0.495  -4.310   2.825  1.00  0.00    -0.252 OA
BRANCH   5   7
ATOM      7  C   UNL     1       0.297  -2.638   4.611  1.00  0.00     0.121 C 
BRANCH   7   8
ATOM      8  C   UNL     1       0.290  -1.467   3.558  1.00  0.00     0.098 C 
BRANCH   8   9
ATOM      9  N   UNL     1       0.929  -1.814   2.290  1.00  0.00    -0.334 N 
ATOM     10  C   UNL     1       1.074  -1.328   1.056  1.00  0.00     0.317 C 
ATOM     11  O   UNL     1       1.806  -2.000   0.321  1.00  0.00    -0.249 OA
ATOM     12  H   UNL     1       1.399  -2.675   2.372  1.00  0.00     0.165 HD
BRANCH  10  13
ATOM     13  N   UNL     1       0.504  -0.173   0.615  1.00  0.00    -0.319 N 
ATOM     14  C   UNL     1       1.070   0.358  -0.617  1.00  0.00     0.149 C 
BRANCH  13  15
ATOM     15  C   UNL     1      -0.718   0.492   1.105  1.00  0.00     0.236 C 
BRANCH  15  16
ATOM     16  C   UNL     1      -2.010  -0.320   1.250  1.00  0.00     0.406 C 
ATOM     17  F   UNL     1      -1.845  -1.652   1.150  1.00  0.00    -0.169 F 
ATOM     18  F   UNL     1      -2.574  -0.074   2.462  1.00  0.00    -0.169 F 
ATOM     19  F   UNL     1      -2.921   0.050   0.318  1.00  0.00    -0.169 F 
ENDBRANCH  15  16
ENDBRANCH  13  15
ENDBRANCH  10  13
ENDBRANCH   8   9
BRANCH   8  20
ATOM     20  C   UNL     1       0.848  -0.147   4.111  1.00  0.00     0.026 C 
BRANCH  20  21
ATOM     21  C   UNL     1      -0.047   0.441   5.201  1.00  0.00     0.002 C 
BRANCH  21  22
ATOM     22  C   UNL     1       0.421   0.063   6.596  1.00  0.00     0.000 CG0
ATOM     23  G   UNL     1       0.340  -1.426   6.906  1.00  0.00     0.000 G0
ENDBRANCH  21  22
ENDBRANCH  20  21
ENDBRANCH   8  20
ENDBRANCH   7   8
BRANCH   7  24
ATOM     24  C   UNL     1       1.073  -2.358   5.928  1.00  0.00     0.017 C 
BRANCH  24  25
ATOM     25  C   UNL     1       0.340  -1.426   6.906  1.00  0.00     0.001 CG0
ATOM     26  G   UNL     1       0.421   0.063   6.596  1.00  0.00     0.000 G0
ENDBRANCH  24  25
ENDBRANCH   7  24
ENDBRANCH   5   7
ENDBRANCH   4   5
ENDBRANCH   3   4
ENDBRANCH   2   3
ENDBRANCH   1   2
BRANCH   1  27
ATOM     27  C   UNL     1      -1.723  -5.753   5.393  1.00  0.00     0.188 C 
BRANCH  27  28
ATOM     28  C   UNL     1      -1.381  -5.036   6.717  1.00  0.00     0.188 C 
BRANCH  28  29
ATOM     29  O   UNL     1      -0.394  -5.565   7.586  1.00  0.00    -0.376 OA
BRANCH  29  30
ATOM     30  C   UNL     1      -0.480  -6.938   7.948  1.00  0.00     0.202 C 
BRANCH  30  31
ATOM     31  C   UNL     1      -1.820  -7.545   8.419  1.00  0.00     0.261 C 
BRANCH  31  32
ATOM     32  O   UNL     1      -2.996  -7.167   7.677  1.00  0.00    -0.460 OA
BRANCH  32  33
ATOM     33  C   UNL     1      -3.856  -6.335   8.318  1.00  0.00     0.338 C 
ATOM     34  O   UNL     1      -3.761  -5.901   9.451  1.00  0.00    -0.246 OA
BRANCH  33  35
ATOM     35  C   UNL     1      -4.874  -5.840   7.364  1.00  0.00     0.060 A 
ATOM     36  C   UNL     1      -4.889  -4.474   7.039  1.00  0.00     0.016 A 
ATOM     37  C   UNL     1      -5.850  -6.694   6.855  1.00  0.00     0.016 A 
ATOM     38  C   UNL     1      -5.885  -3.955   6.211  1.00  0.00     0.010 A 
ATOM     39  C   UNL     1      -6.871  -6.167   6.056  1.00  0.00     0.010 A 
ATOM     40  C   UNL     1      -6.908  -4.792   5.754  1.00  0.00    -0.014 A 
BRANCH  40  41
ATOM     41  C   UNL     1      -8.121  -4.204   5.134  1.00  0.00     0.031 A 
ATOM     42  C   UNL     1      -9.328  -3.978   6.002  1.00  0.00     0.074 A 
ATOM     43  C   UNL     1      -8.153  -3.869   3.832  1.00  0.00     0.049 A 
ATOM     44  N   UNL     1     -10.532  -3.587   5.672  1.00  0.00    -0.248 NA
ATOM     45  C   UNL     1      -9.151  -4.233   7.441  1.00  0.00     0.031 C 
ATOM     46  C   UNL     1      -7.034  -3.979   2.901  1.00  0.00     0.029 A 
ATOM     47  N   UNL     1      -9.185  -3.385   3.065  1.00  0.00    -0.354 N 
ATOM     48  C   UNL     1     -11.257  -3.562   6.856  1.00  0.00     0.074 A 
ATOM     49  C   UNL     1     -10.367  -3.999   7.910  1.00  0.00     0.031 C 
ATOM     50  C   UNL     1      -7.446  -3.599   1.679  1.00  0.00     0.029 A 
ATOM     51  C   UNL     1      -8.867  -3.258   1.735  1.00  0.00     0.049 A 
ATOM     52  H   UNL     1     -10.067  -3.150   3.434  1.00  0.00     0.167 HD
ATOM     53  C   UNL     1     -12.549  -3.203   7.047  1.00  0.00     0.037 A 
ATOM     54  C   UNL     1      -9.646  -2.940   0.683  1.00  0.00     0.037 A 
ATOM     55  C   UNL     1     -13.432  -2.772   5.997  1.00  0.00     0.049 A 
ATOM     56  C   UNL     1     -11.107  -2.632   0.909  1.00  0.00     0.074 A 
ATOM     57  C   UNL     1     -14.757  -2.383   6.089  1.00  0.00     0.029 A 
ATOM     58  N   UNL     1     -13.081  -2.681   4.658  1.00  0.00    -0.354 N 
ATOM     59  N   UNL     1     -11.786  -2.600   2.031  1.00  0.00    -0.248 NA
ATOM     60  C   UNL     1     -11.911  -2.315  -0.281  1.00  0.00     0.031 C 
ATOM     61  C   UNL     1     -15.223  -2.110   4.800  1.00  0.00     0.029 A 
ATOM     62  C   UNL     1     -14.172  -2.265   3.912  1.00  0.00     0.049 A 
ATOM     63  H   UNL     1     -12.189  -2.882   4.293  1.00  0.00     0.167 HD
ATOM     64  C   UNL     1     -13.079  -2.223   1.687  1.00  0.00     0.074 A 
ATOM     65  C   UNL     1     -13.089  -2.027   0.254  1.00  0.00     0.031 C 
ATOM     66  C   UNL     1     -14.162  -2.054   2.486  1.00  0.00     0.037 A 
BRANCH  53  67
ATOM     67  C   UNL     1     -13.096  -3.289   8.442  1.00  0.00     0.064 A 
ATOM     68  C   UNL     1     -12.700  -2.394   9.447  1.00  0.00     0.173 A 
ATOM     69  C   UNL     1     -14.064  -4.252   8.765  1.00  0.00     0.173 A 
ATOM     70  F   UNL     1     -11.766  -1.464   9.194  1.00  0.00    -0.203 F 
ATOM     71  C   UNL     1     -13.238  -2.473  10.729  1.00  0.00     0.198 A 
ATOM     72  C   UNL     1     -14.623  -4.308  10.039  1.00  0.00     0.198 A 
ATOM     73  F   UNL     1     -14.480  -5.130   7.840  1.00  0.00    -0.203 F 
ATOM     74  F   UNL     1     -12.814  -1.635  11.685  1.00  0.00    -0.200 F 
ATOM     75  C   UNL     1     -14.206  -3.423  11.021  1.00  0.00     0.200 A 
ATOM     76  F   UNL     1     -15.568  -5.217  10.315  1.00  0.00    -0.200 F 
ATOM     77  F   UNL     1     -14.733  -3.488  12.251  1.00  0.00    -0.200 F 
ENDBRANCH  53  67
BRANCH  54  78
ATOM     78  C   UNL     1      -9.080  -2.922  -0.693  1.00  0.00     0.064 A 
ATOM     79  C   UNL     1      -8.992  -1.730  -1.426  1.00  0.00     0.173 A 
ATOM     80  C   UNL     1      -8.662  -4.105  -1.323  1.00  0.00     0.173 A 
ATOM     81  F   UNL     1      -9.408  -0.578  -0.880  1.00  0.00    -0.203 F 
ATOM     82  C   UNL     1      -8.536  -1.725  -2.743  1.00  0.00     0.198 A 
ATOM     83  C   UNL     1      -8.174  -4.093  -2.628  1.00  0.00     0.198 A 
ATOM     84  F   UNL     1      -8.731  -5.275  -0.671  1.00  0.00    -0.203 F 
ATOM     85  F   UNL     1      -8.526  -0.581  -3.441  1.00  0.00    -0.200 F 
ATOM     86  C   UNL     1      -8.123  -2.905  -3.341  1.00  0.00     0.200 A 
ATOM     87  F   UNL     1      -7.769  -5.235  -3.200  1.00  0.00    -0.200 F 
ATOM     88  F   UNL     1      -7.692  -2.901  -4.610  1.00  0.00    -0.200 F 
ENDBRANCH  54  78
BRANCH  66  89
ATOM     89  C   UNL     1     -15.435  -1.578   1.844  1.00  0.00     0.064 A 
ATOM     90  C   UNL     1     -16.192  -2.400   0.997  1.00  0.00     0.173 A 
ATOM     91  C   UNL     1     -15.928  -0.292   2.121  1.00  0.00     0.173 A 
ATOM     92  F   UNL     1     -15.760  -3.633   0.690  1.00  0.00    -0.203 F 
ATOM     93  C   UNL     1     -17.379  -1.944   0.429  1.00  0.00     0.198 A 
ATOM     94  C   UNL     1     -17.132   0.148   1.579  1.00  0.00     0.198 A 
ATOM     95  F   UNL     1     -15.249   0.532   2.933  1.00  0.00    -0.203 F 
ATOM     96  F   UNL     1     -18.059  -2.728  -0.418  1.00  0.00    -0.200 F 
ATOM     97  C   UNL     1     -17.852  -0.674   0.727  1.00  0.00     0.200 A 
ATOM     98  F   UNL     1     -17.596   1.368   1.883  1.00  0.00    -0.200 F 
ATOM     99  F   UNL     1     -19.000  -0.241   0.187  1.00  0.00    -0.200 F 
ENDBRANCH  66  89
ENDBRANCH  40  41
ENDBRANCH  33  35
ENDBRANCH  32  33
ENDBRANCH  31  32
ENDBRANCH  30  31
ENDBRANCH  29  30
ENDBRANCH  28  29
ENDBRANCH  27  28
ENDBRANCH   1  27
TORSDOF 21
