REMARK SMILES CCc1cc(C(=O)c2[nH]c3cc(Cl)ccc3c2CC(=O)OCCOCCOCCOC(=O)c2ccc(-c3c4nc(c(-c5c(F)c(F)c(F)c(F)c5F)c5ccc([nH]5)c(-c5c(F)c(F)c(F)c(F)c5F)c5nc(c(-c6c(F)c(F)c(F)c(F)c6F)c6ccc3[nH]6)C=C5)C=C4)cc2)ncc1Cl
REMARK SMILES IDX 25 1 24 2 23 3 22 4 21 5 19 6 20 7 18 8 17 9 8 10 9 11 10 12
REMARK SMILES IDX 16 14 11 15 15 16 12 17 14 18 13 19 6 20 7 21 5 22 3 23 4 24
REMARK SMILES IDX 98 25 97 26 99 27 96 28 2 29 1 30 26 31 27 32 28 33 29 34
REMARK SMILES IDX 30 35 31 36 32 37 33 38 34 39 95 40 35 41 94 42 36 43 37 44
REMARK SMILES IDX 38 45 88 46 39 47 93 48 87 49 89 50 40 51 92 52 86 53 85 54
REMARK SMILES IDX 41 56 73 57 53 58 72 59 54 60 57 61 71 62 90 63 55 64 56 65
REMARK SMILES IDX 70 67 91 68 58 69 42 70 43 71 51 72 44 73 45 74 49 75 52 76
REMARK SMILES IDX 46 77 47 78 50 79 48 80 74 81 75 82 83 83 76 84 77 85 81 86
REMARK SMILES IDX 84 87 78 88 79 89 82 90 80 91 59 92 60 93 68 94 61 95 62 96
REMARK SMILES IDX 66 97 69 98 63 99 64 100 67 101 65 102
REMARK H PARENT 9 13 89 55 57 66
REMARK Flexibility Score: inf
ROOT
ATOM      1  C   UNL     1       3.109  -2.634  -8.545  1.00  0.00     0.188 C 
ENDROOT
BRANCH   1   2
ATOM      2  O   UNL     1       3.559  -2.879  -9.873  1.00  0.00    -0.376 OA
BRANCH   2   3
ATOM      3  C   UNL     1       4.208  -1.815 -10.557  1.00  0.00     0.202 C 
BRANCH   3   4
ATOM      4  C   UNL     1       3.334  -0.592 -10.837  1.00  0.00     0.261 C 
BRANCH   4   5
ATOM      5  O   UNL     1       3.013   0.151  -9.636  1.00  0.00    -0.463 OA
BRANCH   5   6
ATOM      6  C   UNL     1       1.734   0.595  -9.551  1.00  0.00     0.310 C 
ATOM      7  O   UNL     1       0.899   0.419 -10.438  1.00  0.00    -0.252 OA
BRANCH   6   8
ATOM      8  C   UNL     1       1.356   1.358  -8.297  1.00  0.00     0.161 C 
BRANCH   8   9
ATOM      9  C   UNL     1       2.361   1.617  -7.196  1.00  0.00     0.000 A 
ATOM     10  C   UNL     1       2.478   0.949  -5.970  1.00  0.00     0.093 A 
ATOM     11  N   UNL     1       3.530   1.524  -5.294  1.00  0.00    -0.351 N 
ATOM     12  C   UNL     1       3.854   2.728  -5.866  1.00  0.00     0.048 A 
ATOM     13  H   UNL     1       3.983   1.129  -4.515  1.00  0.00     0.167 HD
ATOM     14  C   UNL     1       3.171   2.799  -7.079  1.00  0.00     0.004 A 
ATOM     15  C   UNL     1       4.674   3.756  -5.385  1.00  0.00     0.047 A 
ATOM     16  C   UNL     1       3.316   3.966  -7.858  1.00  0.00     0.012 A 
ATOM     17  C   UNL     1       4.750   4.921  -6.151  1.00  0.00     0.043 A 
ATOM     18  C   UNL     1       4.088   5.029  -7.370  1.00  0.00     0.021 A 
ATOM     19  Cl  UNL     1       5.651   6.261  -5.551  1.00  0.00    -0.084 Cl
BRANCH  10  20
ATOM     20  C   UNL     1       1.685  -0.155  -5.462  1.00  0.00     0.227 C 
ATOM     21  O   UNL     1       0.978  -0.847  -6.193  1.00  0.00    -0.285 OA
BRANCH  20  22
ATOM     22  C   UNL     1       1.679  -0.471  -3.999  1.00  0.00     0.113 A 
ATOM     23  C   UNL     1       0.840  -0.088  -1.761  1.00  0.00    -0.026 A 
ATOM     24  C   UNL     1       1.115   0.393  -3.063  1.00  0.00     0.037 A 
ATOM     25  C   UNL     1       1.104  -1.439  -1.494  1.00  0.00     0.062 A 
ATOM     26  C   UNL     1       1.754  -2.187  -2.463  1.00  0.00     0.132 A 
ATOM     27  Cl  UNL     1       0.589  -2.253  -0.068  1.00  0.00    -0.082 Cl
ATOM     28  N   UNL     1       2.071  -1.726  -3.694  1.00  0.00    -0.251 NA
BRANCH  23  29
ATOM     29  C   UNL     1       0.206   0.844  -0.750  1.00  0.00     0.034 C 
ATOM     30  C   UNL     1       0.968   0.962   0.568  1.00  0.00     0.009 C 
ENDBRANCH  23  29
ENDBRANCH  20  22
ENDBRANCH  10  20
ENDBRANCH   8   9
ENDBRANCH   6   8
ENDBRANCH   5   6
ENDBRANCH   4   5
ENDBRANCH   3   4
ENDBRANCH   2   3
ENDBRANCH   1   2
BRANCH   1  31
ATOM     31  C   UNL     1       4.042  -1.870  -7.586  1.00  0.00     0.188 C 
BRANCH  31  32
ATOM     32  O   UNL     1       5.449  -2.009  -7.747  1.00  0.00    -0.376 OA
BRANCH  32  33
ATOM     33  C   UNL     1       5.968  -3.333  -7.807  1.00  0.00     0.202 C 
BRANCH  33  34
ATOM     34  C   UNL     1       5.769  -4.124  -6.520  1.00  0.00     0.261 C 
BRANCH  34  35
ATOM     35  O   UNL     1       4.395  -4.535  -6.405  1.00  0.00    -0.460 OA
BRANCH  35  36
ATOM     36  C   UNL     1       3.958  -4.670  -5.135  1.00  0.00     0.338 C 
ATOM     37  O   UNL     1       4.611  -4.553  -4.113  1.00  0.00    -0.246 OA
BRANCH  36  38
ATOM     38  C   UNL     1       2.522  -4.997  -5.111  1.00  0.00     0.060 A 
ATOM     39  C   UNL     1       1.582  -4.026  -5.442  1.00  0.00     0.016 A 
ATOM     40  C   UNL     1       2.113  -6.178  -4.499  1.00  0.00     0.016 A 
ATOM     41  C   UNL     1       0.263  -4.152  -5.003  1.00  0.00     0.010 A 
ATOM     42  C   UNL     1       0.769  -6.349  -4.153  1.00  0.00     0.010 A 
ATOM     43  C   UNL     1      -0.155  -5.302  -4.323  1.00  0.00    -0.014 A 
BRANCH  43  44
ATOM     44  C   UNL     1      -1.505  -5.375  -3.692  1.00  0.00     0.031 A 
ATOM     45  C   UNL     1      -1.634  -5.590  -2.201  1.00  0.00     0.074 A 
ATOM     46  C   UNL     1      -2.624  -5.213  -4.425  1.00  0.00     0.049 A 
ATOM     47  N   UNL     1      -2.704  -5.824  -1.481  1.00  0.00    -0.248 NA
ATOM     48  C   UNL     1      -0.394  -5.518  -1.412  1.00  0.00     0.031 C 
ATOM     49  C   UNL     1      -2.666  -4.898  -5.853  1.00  0.00     0.029 A 
ATOM     50  N   UNL     1      -3.948  -5.303  -4.066  1.00  0.00    -0.354 N 
ATOM     51  C   UNL     1      -2.265  -5.931  -0.166  1.00  0.00     0.074 A 
ATOM     52  C   UNL     1      -0.829  -5.764  -0.185  1.00  0.00     0.031 C 
ATOM     53  C   UNL     1      -3.945  -4.818  -6.247  1.00  0.00     0.029 A 
ATOM     54  C   UNL     1      -4.810  -5.173  -5.127  1.00  0.00     0.049 A 
ATOM     55  H   UNL     1      -4.249  -5.446  -3.139  1.00  0.00     0.167 HD
ATOM     56  C   UNL     1      -2.989  -6.148   0.959  1.00  0.00     0.037 A 
ATOM     57  C   UNL     1      -6.138  -5.383  -5.213  1.00  0.00     0.037 A 
ATOM     58  C   UNL     1      -4.414  -6.348   0.983  1.00  0.00     0.049 A 
ATOM     59  C   UNL     1      -6.895  -5.818  -3.989  1.00  0.00     0.074 A 
ATOM     60  C   UNL     1      -5.231  -6.623   2.065  1.00  0.00     0.029 A 
ATOM     61  N   UNL     1      -5.231  -6.309  -0.136  1.00  0.00    -0.354 N 
ATOM     62  N   UNL     1      -6.469  -5.962  -2.759  1.00  0.00    -0.248 NA
ATOM     63  C   UNL     1      -8.316  -6.144  -4.173  1.00  0.00     0.031 C 
ATOM     64  C   UNL     1      -6.534  -6.814   1.592  1.00  0.00     0.029 A 
ATOM     65  C   UNL     1      -6.538  -6.601   0.223  1.00  0.00     0.049 A 
ATOM     66  H   UNL     1      -4.929  -6.104  -1.050  1.00  0.00     0.167 HD
ATOM     67  C   UNL     1      -7.568  -6.376  -2.019  1.00  0.00     0.074 A 
ATOM     68  C   UNL     1      -8.686  -6.447  -2.937  1.00  0.00     0.031 C 
ATOM     69  C   UNL     1      -7.643  -6.671  -0.698  1.00  0.00     0.037 A 
BRANCH  56  70
ATOM     70  C   UNL     1      -2.241  -6.235   2.256  1.00  0.00     0.064 A 
ATOM     71  C   UNL     1      -1.729  -5.094   2.891  1.00  0.00     0.173 A 
ATOM     72  C   UNL     1      -2.057  -7.476   2.885  1.00  0.00     0.173 A 
ATOM     73  F   UNL     1      -1.869  -3.886   2.325  1.00  0.00    -0.203 F 
ATOM     74  C   UNL     1      -1.043  -5.195   4.100  1.00  0.00     0.198 A 
ATOM     75  C   UNL     1      -1.391  -7.570   4.104  1.00  0.00     0.198 A 
ATOM     76  F   UNL     1      -2.530  -8.596   2.320  1.00  0.00    -0.203 F 
ATOM     77  F   UNL     1      -0.530  -4.097   4.673  1.00  0.00    -0.200 F 
ATOM     78  C   UNL     1      -0.879  -6.431   4.707  1.00  0.00     0.200 A 
ATOM     79  F   UNL     1      -1.241  -8.765   4.694  1.00  0.00    -0.200 F 
ATOM     80  F   UNL     1      -0.222  -6.527   5.872  1.00  0.00    -0.200 F 
ENDBRANCH  56  70
BRANCH  57  81
ATOM     81  C   UNL     1      -6.816  -5.267  -6.531  1.00  0.00     0.064 A 
ATOM     82  C   UNL     1      -7.766  -4.268  -6.776  1.00  0.00     0.173 A 
ATOM     83  C   UNL     1      -6.522  -6.159  -7.576  1.00  0.00     0.173 A 
ATOM     84  F   UNL     1      -8.106  -3.414  -5.799  1.00  0.00    -0.203 F 
ATOM     85  C   UNL     1      -8.398  -4.166  -8.014  1.00  0.00     0.198 A 
ATOM     86  C   UNL     1      -7.129  -6.034  -8.823  1.00  0.00     0.198 A 
ATOM     87  F   UNL     1      -5.630  -7.142  -7.390  1.00  0.00    -0.203 F 
ATOM     88  F   UNL     1      -9.334  -3.227  -8.209  1.00  0.00    -0.200 F 
ATOM     89  C   UNL     1      -8.071  -5.041  -9.039  1.00  0.00     0.200 A 
ATOM     90  F   UNL     1      -6.800  -6.875  -9.813  1.00  0.00    -0.200 F 
ATOM     91  F   UNL     1      -8.671  -4.934 -10.232  1.00  0.00    -0.200 F 
ENDBRANCH  57  81
BRANCH  69  92
ATOM     92  C   UNL     1      -8.984  -7.069  -0.158  1.00  0.00     0.064 A 
ATOM     93  C   UNL     1      -9.551  -8.319  -0.447  1.00  0.00     0.173 A 
ATOM     94  C   UNL     1      -9.697  -6.203   0.685  1.00  0.00     0.173 A 
ATOM     95  F   UNL     1      -8.917  -9.176  -1.261  1.00  0.00    -0.203 F 
ATOM     96  C   UNL     1     -10.795  -8.676   0.068  1.00  0.00     0.198 A 
ATOM     97  C   UNL     1     -10.926  -6.575   1.221  1.00  0.00     0.198 A 
ATOM     98  F   UNL     1      -9.195  -4.999   0.997  1.00  0.00    -0.203 F 
ATOM     99  F   UNL     1     -11.340  -9.855  -0.261  1.00  0.00    -0.200 F 
ATOM    100  C   UNL     1     -11.477  -7.807   0.906  1.00  0.00     0.200 A 
ATOM    101  F   UNL     1     -11.578  -5.739   2.041  1.00  0.00    -0.200 F 
ATOM    102  F   UNL     1     -12.672  -8.155   1.404  1.00  0.00    -0.200 F 
ENDBRANCH  69  92
ENDBRANCH  43  44
ENDBRANCH  36  38
ENDBRANCH  35  36
ENDBRANCH  34  35
ENDBRANCH  33  34
ENDBRANCH  32  33
ENDBRANCH  31  32
ENDBRANCH   1  31
TORSDOF 21
