REMARK SMILES O=C(OCCOCCOCCOC(=O)c1cn(-c2cc(F)cc(F)c2F)c(=O)[nH]c1=O)c1ccc(-c2c3nc(c(-c4c(F)c(F)c(F)c(F)c4F)c4ccc([nH]4)c(-c4c(F)c(F)c(F)c(F)c4F)c4nc(c(-c5c(F)c(F)c(F)c(F)c5F)c5ccc2[nH]5)C=C4)C=C3)cc1
REMARK SMILES IDX 7 1 6 2 5 3 4 4 3 5 2 6 1 7 32 8 33 9 94 10 34 11 93 12
REMARK SMILES IDX 35 13 36 14 37 15 87 16 38 17 92 18 86 19 88 20 39 21 91 22
REMARK SMILES IDX 85 23 84 24 40 26 72 27 52 28 71 29 53 30 56 31 70 32 89 33
REMARK SMILES IDX 54 34 55 35 69 37 90 38 57 39 41 40 42 41 50 42 43 43 44 44
REMARK SMILES IDX 48 45 51 46 45 47 46 48 49 49 47 50 73 51 74 52 82 53 75 54
REMARK SMILES IDX 76 55 80 56 83 57 77 58 78 59 81 60 79 61 58 62 59 63 67 64
REMARK SMILES IDX 60 65 61 66 65 67 68 68 62 69 63 70 66 71 64 72 8 73 9 74
REMARK SMILES IDX 10 75 11 76 12 77 13 78 14 79 15 80 16 81 30 82 17 83 29 84
REMARK SMILES IDX 31 85 27 86 28 88 18 89 19 90 25 91 20 92 23 93 26 94 21 95
REMARK SMILES IDX 22 96 24 97
REMARK H PARENT 88 25 56 36 29 87
REMARK Flexibility Score: inf
ROOT
ATOM      1  C   UNL     1       3.022   1.080  -1.148  1.00  0.00     0.188 C 
ENDROOT
BRANCH   1   2
ATOM      2  O   UNL     1       4.434   0.963  -0.984  1.00  0.00    -0.376 OA
BRANCH   2   3
ATOM      3  C   UNL     1       5.059  -0.295  -1.202  1.00  0.00     0.202 C 
BRANCH   3   4
ATOM      4  C   UNL     1       4.652  -1.484  -0.322  1.00  0.00     0.261 C 
BRANCH   4   5
ATOM      5  O   UNL     1       3.307  -1.488   0.177  1.00  0.00    -0.460 OA
BRANCH   5   6
ATOM      6  C   UNL     1       2.868  -1.016   1.375  1.00  0.00     0.338 C 
ATOM      7  O   UNL     1       1.839  -1.483   1.858  1.00  0.00    -0.246 OA
BRANCH   6   8
ATOM      8  C   UNL     1       3.422   0.243   1.978  1.00  0.00     0.060 A 
ATOM      9  C   UNL     1       2.515   1.060   2.682  1.00  0.00     0.016 A 
ATOM     10  C   UNL     1       4.730   0.703   1.823  1.00  0.00     0.016 A 
ATOM     11  C   UNL     1       2.896   2.322   3.150  1.00  0.00     0.010 A 
ATOM     12  C   UNL     1       5.107   1.969   2.255  1.00  0.00     0.010 A 
ATOM     13  C   UNL     1       4.197   2.787   2.918  1.00  0.00    -0.014 A 
BRANCH  13  14
ATOM     14  C   UNL     1       4.709   4.019   3.542  1.00  0.00     0.031 A 
ATOM     15  C   UNL     1       5.126   5.205   2.740  1.00  0.00     0.074 A 
ATOM     16  C   UNL     1       4.973   3.964   4.858  1.00  0.00     0.049 A 
ATOM     17  N   UNL     1       5.476   6.394   3.156  1.00  0.00    -0.248 NA
ATOM     18  C   UNL     1       5.214   5.037   1.280  1.00  0.00     0.031 C 
ATOM     19  C   UNL     1       4.848   2.754   5.673  1.00  0.00     0.029 A 
ATOM     20  N   UNL     1       5.453   4.907   5.721  1.00  0.00    -0.354 N 
ATOM     21  C   UNL     1       5.631   7.147   2.002  1.00  0.00     0.074 A 
ATOM     22  C   UNL     1       5.654   6.231   0.899  1.00  0.00     0.031 C 
ATOM     23  C   UNL     1       5.258   3.024   6.918  1.00  0.00     0.029 A 
ATOM     24  C   UNL     1       5.648   4.427   6.989  1.00  0.00     0.049 A 
ATOM     25  H   UNL     1       5.639   5.837   5.458  1.00  0.00     0.167 HD
ATOM     26  C   UNL     1       5.502   8.492   1.923  1.00  0.00     0.037 A 
ATOM     27  C   UNL     1       6.082   5.059   8.093  1.00  0.00     0.037 A 
ATOM     28  C   UNL     1       5.867   9.323   3.098  1.00  0.00     0.049 A 
ATOM     29  C   UNL     1       6.314   6.535   8.013  1.00  0.00     0.074 A 
ATOM     30  C   UNL     1       6.198  10.668   3.183  1.00  0.00     0.029 A 
ATOM     31  N   UNL     1       5.989   8.842   4.411  1.00  0.00    -0.354 N 
ATOM     32  N   UNL     1       6.191   7.323   6.972  1.00  0.00    -0.248 NA
ATOM     33  C   UNL     1       6.708   7.219   9.249  1.00  0.00     0.031 C 
ATOM     34  C   UNL     1       6.411  11.015   4.520  1.00  0.00     0.029 A 
ATOM     35  C   UNL     1       6.314   9.872   5.290  1.00  0.00     0.049 A 
ATOM     36  H   UNL     1       5.861   7.902   4.675  1.00  0.00     0.167 HD
ATOM     37  C   UNL     1       6.478   8.598   7.424  1.00  0.00     0.074 A 
ATOM     38  C   UNL     1       6.748   8.483   8.846  1.00  0.00     0.031 C 
ATOM     39  C   UNL     1       6.538   9.751   6.714  1.00  0.00     0.037 A 
BRANCH  26  40
ATOM     40  C   UNL     1       4.967   9.232   0.504  1.00  0.00     0.064 A 
ATOM     41  C   UNL     1       3.226   9.851  -0.366  1.00  0.00     0.173 A 
ATOM     42  C   UNL     1       6.434  10.229   0.110  1.00  0.00     0.173 A 
ATOM     43  F   UNL     1       1.934   9.427  -0.251  1.00  0.00    -0.203 F 
ATOM     44  C   UNL     1       3.243  11.327  -1.389  1.00  0.00     0.198 A 
ATOM     45  C   UNL     1       6.272  11.664  -0.886  1.00  0.00     0.198 A 
ATOM     46  F   UNL     1       7.638   9.888   0.592  1.00  0.00    -0.203 F 
ATOM     47  F   UNL     1       2.104  11.767  -1.937  1.00  0.00    -0.200 F 
ATOM     48  C   UNL     1       4.741  12.189  -1.598  1.00  0.00     0.200 A 
ATOM     49  F   UNL     1       7.376  12.371  -1.170  1.00  0.00    -0.200 F 
ATOM     50  F   UNL     1       4.741  13.285  -2.372  1.00  0.00    -0.200 F 
ENDBRANCH  26  40
BRANCH  27  51
ATOM     51  C   UNL     1       6.211   4.281   9.345  1.00  0.00     0.064 A 
ATOM     52  C   UNL     1       5.287   4.437  10.384  1.00  0.00     0.173 A 
ATOM     53  C   UNL     1       7.175   3.267   9.467  1.00  0.00     0.173 A 
ATOM     54  F   UNL     1       4.347   5.390  10.307  1.00  0.00    -0.203 F 
ATOM     55  C   UNL     1       5.317   3.603  11.499  1.00  0.00     0.198 A 
ATOM     56  C   UNL     1       7.183   2.414  10.567  1.00  0.00     0.198 A 
ATOM     57  F   UNL     1       8.062   3.062   8.482  1.00  0.00    -0.203 F 
ATOM     58  F   UNL     1       4.424   3.774  12.483  1.00  0.00    -0.200 F 
ATOM     59  C   UNL     1       6.255   2.584  11.582  1.00  0.00     0.200 A 
ATOM     60  F   UNL     1       8.067   1.409  10.625  1.00  0.00    -0.200 F 
ATOM     61  F   UNL     1       6.256   1.757  12.636  1.00  0.00    -0.200 F 
ENDBRANCH  27  51
BRANCH  39  62
ATOM     62  C   UNL     1       6.940  10.991   7.466  1.00  0.00     0.064 A 
ATOM     63  C   UNL     1       8.267  11.176   7.886  1.00  0.00     0.173 A 
ATOM     64  C   UNL     1       6.030  12.034   7.695  1.00  0.00     0.173 A 
ATOM     65  F   UNL     1       9.171  10.201   7.710  1.00  0.00    -0.203 F 
ATOM     66  C   UNL     1       8.667  12.356   8.508  1.00  0.00     0.198 A 
ATOM     67  C   UNL     1       6.440  13.225   8.294  1.00  0.00     0.198 A 
ATOM     68  F   UNL     1       4.750  11.911   7.315  1.00  0.00    -0.203 F 
ATOM     69  F   UNL     1       9.934  12.496   8.921  1.00  0.00    -0.200 F 
ATOM     70  C   UNL     1       7.757  13.384   8.699  1.00  0.00     0.200 A 
ATOM     71  F   UNL     1       5.564  14.224   8.469  1.00  0.00    -0.200 F 
ATOM     72  F   UNL     1       8.151  14.530   9.273  1.00  0.00    -0.200 F 
ENDBRANCH  39  62
ENDBRANCH  13  14
ENDBRANCH   6   8
ENDBRANCH   5   6
ENDBRANCH   4   5
ENDBRANCH   3   4
ENDBRANCH   2   3
ENDBRANCH   1   2
BRANCH   1  73
ATOM     73  C   UNL     1       2.385   0.683  -2.478  1.00  0.00     0.188 C 
BRANCH  73  74
ATOM     74  O   UNL     1       3.320   0.143  -3.388  1.00  0.00    -0.376 OA
BRANCH  74  75
ATOM     75  C   UNL     1       3.872   1.069  -4.315  1.00  0.00     0.202 C 
BRANCH  75  76
ATOM     76  C   UNL     1       4.619   2.316  -3.789  1.00  0.00     0.261 C 
BRANCH  76  77
ATOM     77  O   UNL     1       3.979   3.155  -2.797  1.00  0.00    -0.459 OA
BRANCH  77  78
ATOM     78  C   UNL     1       2.856   3.846  -3.104  1.00  0.00     0.345 C 
ATOM     79  O   UNL     1       2.318   3.881  -4.197  1.00  0.00    -0.246 OA
BRANCH  78  80
ATOM     80  C   UNL     1       2.356   4.543  -1.890  1.00  0.00     0.141 A 
ATOM     81  C   UNL     1       3.045   5.574  -1.389  1.00  0.00     0.118 A 
ATOM     82  C   UNL     1       1.132   4.146  -1.181  1.00  0.00     0.268 A 
ATOM     83  N   UNL     1       2.634   6.369  -0.309  1.00  0.00    -0.265 N 
ATOM     84  N   UNL     1       0.820   4.893  -0.077  1.00  0.00    -0.273 N 
ATOM     85  O   UNL     1       0.475   3.161  -1.497  1.00  0.00    -0.268 OA
ATOM     86  C   UNL     1       1.481   6.004   0.404  1.00  0.00     0.333 A 
ATOM     87  H   UNL     1       0.029   4.604   0.433  1.00  0.00     0.175 HD
ATOM     88  O   UNL     1       0.998   6.582   1.373  1.00  0.00    -0.247 OA
BRANCH  83  89
ATOM     89  C   UNL     1       3.315   7.637  -0.022  1.00  0.00     0.092 A 
ATOM     90  C   UNL     1       2.963   8.605   1.446  1.00  0.00     0.069 A 
ATOM     91  C   UNL     1       4.269   8.278  -1.349  1.00  0.00     0.183 A 
ATOM     92  C   UNL     1       3.476  10.296   1.654  1.00  0.00     0.128 A 
ATOM     93  C   UNL     1       4.872   9.931  -1.282  1.00  0.00     0.163 A 
ATOM     94  F   UNL     1       4.396   7.646  -2.523  1.00  0.00    -0.201 F 
ATOM     95  F   UNL     1       3.143  10.992   2.745  1.00  0.00    -0.207 F 
ATOM     96  C   UNL     1       4.467  11.063   0.348  1.00  0.00     0.081 A 
ATOM     97  F   UNL     1       5.513  10.249  -2.437  1.00  0.00    -0.204 F 
ENDBRANCH  83  89
ENDBRANCH  78  80
ENDBRANCH  77  78
ENDBRANCH  76  77
ENDBRANCH  75  76
ENDBRANCH  74  75
ENDBRANCH  73  74
ENDBRANCH   1  73
TORSDOF 18
