REMARK SMILES CCN(CCC(=O)OCCOCCOCCOC(=O)c1ccc(-c2c3nc(c(-c4c(F)c(F)c(F)c(F)c4F)c4ccc([nH]4)c(-c4c(F)c(F)c(F)c(F)c4F)c4nc(c(-c5c(F)c(F)c(F)c(F)c5F)c5ccc2[nH]5)C=C4)C=C3)cc1)C(=O)c1cc(Cl)ccc1F
REMARK SMILES IDX 12 1 11 2 10 3 9 4 8 5 6 6 7 7 5 8 4 9 3 10 2 11 1 12 83 13
REMARK SMILES IDX 84 14 85 15 86 16 91 17 87 18 90 19 92 20 88 21 89 22 13 23
REMARK SMILES IDX 14 24 15 25 16 26 17 27 18 28 19 29 20 30 21 31 82 32 22 33
REMARK SMILES IDX 81 34 23 35 24 36 25 37 75 38 26 39 80 40 74 41 76 42 27 43
REMARK SMILES IDX 79 44 73 45 72 46 28 48 60 49 40 50 59 51 41 52 44 53 58 54
REMARK SMILES IDX 77 55 42 56 43 57 57 59 78 60 45 61 29 62 30 63 38 64 31 65
REMARK SMILES IDX 32 66 36 67 39 68 33 69 34 70 37 71 35 72 61 73 62 74 70 75
REMARK SMILES IDX 63 76 64 77 68 78 71 79 65 80 66 81 69 82 67 83 46 84 47 85
REMARK SMILES IDX 55 86 48 87 49 88 53 89 56 90 50 91 51 92 54 93 52 94
REMARK H PARENT 76 47 44 58
REMARK Flexibility Score: inf
ROOT
ATOM      1  C   UNL     1       2.571   3.999  -3.817  1.00  0.00     0.188 C 
ENDROOT
BRANCH   1   2
ATOM      2  O   UNL     1       3.692   4.312  -2.808  1.00  0.00    -0.376 OA
BRANCH   2   3
ATOM      3  C   UNL     1       4.397   5.434  -1.308  1.00  0.00     0.202 C 
BRANCH   3   4
ATOM      4  C   UNL     1       3.515   6.393  -0.042  1.00  0.00     0.261 C 
BRANCH   4   5
ATOM      5  O   UNL     1       2.083   6.989  -0.211  1.00  0.00    -0.463 OA
BRANCH   5   6
ATOM      6  C   UNL     1       0.743   6.598  -0.273  1.00  0.00     0.307 C 
ATOM      7  O   UNL     1      -0.040   7.437  -0.740  1.00  0.00    -0.252 OA
BRANCH   6   8
ATOM      8  C   UNL     1       0.086   5.163   0.231  1.00  0.00     0.144 C 
BRANCH   8   9
ATOM      9  C   UNL     1       0.253   3.670  -0.478  1.00  0.00     0.131 C 
BRANCH   9  10
ATOM     10  N   UNL     1       1.329   2.609   0.033  1.00  0.00    -0.338 N 
BRANCH  10  11
ATOM     11  C   UNL     1       0.769   1.514   0.833  1.00  0.00     0.116 C 
ATOM     12  C   UNL     1       0.807   0.161   0.119  1.00  0.00     0.027 C 
ENDBRANCH  10  11
BRANCH  10  13
ATOM     13  C   UNL     1       2.768   2.432  -0.241  1.00  0.00     0.256 C 
ATOM     14  O   UNL     1       3.456   1.563   0.294  1.00  0.00    -0.269 OA
BRANCH  13  15
ATOM     15  C   UNL     1       3.490   3.318  -1.180  1.00  0.00     0.077 A 
ATOM     16  C   UNL     1       5.075   3.251  -1.995  1.00  0.00     0.037 A 
ATOM     17  C   UNL     1       2.463   4.699  -1.462  1.00  0.00     0.136 A 
ATOM     18  C   UNL     1       5.543   4.568  -3.137  1.00  0.00     0.042 A 
ATOM     19  C   UNL     1       2.888   6.075  -2.604  1.00  0.00     0.041 A 
ATOM     20  F   UNL     1       2.038   4.893  -0.231  1.00  0.00    -0.206 F 
ATOM     21  Cl  UNL     1       6.981   4.410  -4.068  1.00  0.00    -0.084 Cl
ATOM     22  C   UNL     1       4.449   5.963  -3.488  1.00  0.00     0.023 A 
ENDBRANCH  13  15
ENDBRANCH  10  13
ENDBRANCH   9  10
ENDBRANCH   8   9
ENDBRANCH   6   8
ENDBRANCH   5   6
ENDBRANCH   4   5
ENDBRANCH   3   4
ENDBRANCH   2   3
ENDBRANCH   1   2
BRANCH   1  23
ATOM     23  C   UNL     1       2.087   2.524  -3.733  1.00  0.00     0.188 C 
BRANCH  23  24
ATOM     24  O   UNL     1       3.049   1.482  -3.715  1.00  0.00    -0.376 OA
BRANCH  24  25
ATOM     25  C   UNL     1       4.089   1.513  -4.682  1.00  0.00     0.202 C 
BRANCH  25  26
ATOM     26  C   UNL     1       3.680   1.189  -6.117  1.00  0.00     0.261 C 
BRANCH  26  27
ATOM     27  O   UNL     1       2.882   2.248  -6.675  1.00  0.00    -0.460 OA
BRANCH  27  28
ATOM     28  C   UNL     1       1.590   1.940  -6.913  1.00  0.00     0.338 C 
ATOM     29  O   UNL     1       1.036   0.855  -6.780  1.00  0.00    -0.246 OA
BRANCH  28  30
ATOM     30  C   UNL     1       0.851   3.184  -7.170  1.00  0.00     0.060 A 
ATOM     31  C   UNL     1      -0.265   3.476  -6.370  1.00  0.00     0.016 A 
ATOM     32  C   UNL     1       1.214   4.018  -8.226  1.00  0.00     0.016 A 
ATOM     33  C   UNL     1      -1.053   4.585  -6.652  1.00  0.00     0.010 A 
ATOM     34  C   UNL     1       0.405   5.110  -8.530  1.00  0.00     0.010 A 
ATOM     35  C   UNL     1      -0.753   5.367  -7.771  1.00  0.00    -0.014 A 
BRANCH  35  36
ATOM     36  C   UNL     1      -1.768   6.295  -8.310  1.00  0.00     0.031 A 
ATOM     37  C   UNL     1      -2.643   5.795  -9.425  1.00  0.00     0.074 A 
ATOM     38  C   UNL     1      -1.881   7.548  -7.843  1.00  0.00     0.049 A 
ATOM     39  N   UNL     1      -3.482   6.452 -10.181  1.00  0.00    -0.248 NA
ATOM     40  C   UNL     1      -2.548   4.358  -9.740  1.00  0.00     0.031 C 
ATOM     41  C   UNL     1      -1.120   8.107  -6.727  1.00  0.00     0.029 A 
ATOM     42  N   UNL     1      -2.662   8.588  -8.277  1.00  0.00    -0.354 N 
ATOM     43  C   UNL     1      -3.987   5.518 -11.077  1.00  0.00     0.074 A 
ATOM     44  C   UNL     1      -3.362   4.250 -10.779  1.00  0.00     0.031 C 
ATOM     45  C   UNL     1      -1.442   9.405  -6.590  1.00  0.00     0.029 A 
ATOM     46  C   UNL     1      -2.393   9.773  -7.638  1.00  0.00     0.049 A 
ATOM     47  H   UNL     1      -3.347   8.493  -8.977  1.00  0.00     0.167 HD
ATOM     48  C   UNL     1      -4.888   5.714 -12.065  1.00  0.00     0.037 A 
ATOM     49  C   UNL     1      -2.831  11.017  -7.912  1.00  0.00     0.037 A 
ATOM     50  C   UNL     1      -5.512   6.980 -12.335  1.00  0.00     0.049 A 
ATOM     51  C   UNL     1      -3.785  11.214  -9.066  1.00  0.00     0.074 A 
ATOM     52  C   UNL     1      -6.482   7.279 -13.274  1.00  0.00     0.029 A 
ATOM     53  N   UNL     1      -5.213   8.161 -11.672  1.00  0.00    -0.354 N 
ATOM     54  N   UNL     1      -4.298  10.324  -9.882  1.00  0.00    -0.248 NA
ATOM     55  C   UNL     1      -4.218  12.592  -9.341  1.00  0.00     0.031 C 
ATOM     56  C   UNL     1      -6.719   8.655 -13.228  1.00  0.00     0.029 A 
ATOM     57  C   UNL     1      -5.947   9.202 -12.214  1.00  0.00     0.049 A 
ATOM     58  H   UNL     1      -4.575   8.246 -10.928  1.00  0.00     0.167 HD
ATOM     59  C   UNL     1      -5.132  11.027 -10.743  1.00  0.00     0.074 A 
ATOM     60  C   UNL     1      -5.073  12.415 -10.336  1.00  0.00     0.031 C 
ATOM     61  C   UNL     1      -5.876  10.573 -11.781  1.00  0.00     0.037 A 
BRANCH  48  62
ATOM     62  C   UNL     1      -5.230   4.557 -12.956  1.00  0.00     0.064 A 
ATOM     63  C   UNL     1      -6.012   3.481 -12.512  1.00  0.00     0.173 A 
ATOM     64  C   UNL     1      -4.832   4.570 -14.302  1.00  0.00     0.173 A 
ATOM     65  F   UNL     1      -6.402   3.412 -11.231  1.00  0.00    -0.203 F 
ATOM     66  C   UNL     1      -6.380   2.459 -13.384  1.00  0.00     0.198 A 
ATOM     67  C   UNL     1      -5.226   3.562 -15.176  1.00  0.00     0.198 A 
ATOM     68  F   UNL     1      -4.080   5.575 -14.775  1.00  0.00    -0.203 F 
ATOM     69  F   UNL     1      -7.107   1.426 -12.934  1.00  0.00    -0.200 F 
ATOM     70  C   UNL     1      -5.999   2.507 -14.717  1.00  0.00     0.200 A 
ATOM     71  F   UNL     1      -4.867   3.618 -16.466  1.00  0.00    -0.200 F 
ATOM     72  F   UNL     1      -6.377   1.536 -15.559  1.00  0.00    -0.200 F 
ENDBRANCH  48  62
BRANCH  49  73
ATOM     73  C   UNL     1      -2.338  12.182  -7.128  1.00  0.00     0.064 A 
ATOM     74  C   UNL     1      -3.212  12.956  -6.352  1.00  0.00     0.173 A 
ATOM     75  C   UNL     1      -0.995  12.584  -7.187  1.00  0.00     0.173 A 
ATOM     76  F   UNL     1      -4.512  12.631  -6.283  1.00  0.00    -0.203 F 
ATOM     77  C   UNL     1      -2.772  14.107  -5.700  1.00  0.00     0.198 A 
ATOM     78  C   UNL     1      -0.547  13.712  -6.504  1.00  0.00     0.198 A 
ATOM     79  F   UNL     1      -0.114  11.882  -7.916  1.00  0.00    -0.203 F 
ATOM     80  F   UNL     1      -3.646  14.869  -5.029  1.00  0.00    -0.200 F 
ATOM     81  C   UNL     1      -1.439  14.482  -5.773  1.00  0.00     0.200 A 
ATOM     82  F   UNL     1       0.745  14.063  -6.568  1.00  0.00    -0.200 F 
ATOM     83  F   UNL     1      -1.018  15.594  -5.155  1.00  0.00    -0.200 F 
ENDBRANCH  49  73
BRANCH  61  84
ATOM     84  C   UNL     1      -6.709  11.576 -12.527  1.00  0.00     0.064 A 
ATOM     85  C   UNL     1      -6.127  12.540 -13.362  1.00  0.00     0.173 A 
ATOM     86  C   UNL     1      -8.110  11.534 -12.447  1.00  0.00     0.173 A 
ATOM     87  F   UNL     1      -4.792  12.629 -13.462  1.00  0.00    -0.203 F 
ATOM     88  C   UNL     1      -6.916  13.443 -14.069  1.00  0.00     0.198 A 
ATOM     89  C   UNL     1      -8.896  12.414 -13.184  1.00  0.00     0.198 A 
ATOM     90  F   UNL     1      -8.717  10.623 -11.671  1.00  0.00    -0.203 F 
ATOM     91  F   UNL     1      -6.337  14.389 -14.821  1.00  0.00    -0.200 F 
ATOM     92  C   UNL     1      -8.299  13.373 -13.987  1.00  0.00     0.200 A 
ATOM     93  F   UNL     1     -10.232  12.331 -13.119  1.00  0.00    -0.200 F 
ATOM     94  F   UNL     1      -9.056  14.234 -14.680  1.00  0.00    -0.200 F 
ENDBRANCH  61  84
ENDBRANCH  35  36
ENDBRANCH  28  30
ENDBRANCH  27  28
ENDBRANCH  26  27
ENDBRANCH  25  26
ENDBRANCH  24  25
ENDBRANCH  23  24
ENDBRANCH   1  23
TORSDOF 22
