REMARK SMILES CC(C)c1nc(C(=O)OCCOCCOCCOC(=O)c2ccc(-c3c4nc(c(-c5c(F)c(F)c(F)c(F)c5F)c5ccc([nH]5)c(-c5c(F)c(F)c(F)c(F)c5F)c5nc(c(-c6c(F)c(F)c(F)c(F)c6F)c6ccc3[nH]6)C=C5)C=C4)cc2)nn1-c1ccccc1F
REMARK SMILES IDX 14 1 13 2 12 3 11 4 10 5 9 6 7 7 8 8 6 9 4 10 5 11 85 12
REMARK SMILES IDX 84 13 2 14 1 15 3 16 86 17 87 18 91 19 88 20 90 21 92 22
REMARK SMILES IDX 89 23 15 24 16 25 17 26 18 27 19 28 20 29 21 30 22 31 83 32
REMARK SMILES IDX 23 33 82 34 24 35 25 36 26 37 76 38 27 39 81 40 75 41 77 42
REMARK SMILES IDX 28 43 80 44 74 45 73 46 29 48 61 49 41 50 60 51 42 52 45 53
REMARK SMILES IDX 59 54 78 55 43 56 44 57 58 59 79 60 46 61 30 62 31 63 39 64
REMARK SMILES IDX 32 65 33 66 37 67 40 68 34 69 35 70 38 71 36 72 62 73 63 74
REMARK SMILES IDX 71 75 64 76 65 77 69 78 72 79 66 80 67 81 70 82 68 83 47 84
REMARK SMILES IDX 48 85 56 86 49 87 50 88 54 89 57 90 51 91 52 92 55 93 53 94
REMARK H PARENT 77 47 45 58
REMARK Flexibility Score: inf
ROOT
ATOM      1  C   UNL     1      -5.268  -0.074  -3.331  1.00  0.00     0.188 C 
ENDROOT
BRANCH   1   2
ATOM      2  C   UNL     1      -5.350  -1.517  -2.788  1.00  0.00     0.188 C 
BRANCH   2   3
ATOM      3  O   UNL     1      -6.576  -2.037  -2.285  1.00  0.00    -0.376 OA
BRANCH   3   4
ATOM      4  C   UNL     1      -7.411  -1.226  -1.467  1.00  0.00     0.202 C 
BRANCH   4   5
ATOM      5  C   UNL     1      -6.832  -0.625  -0.176  1.00  0.00     0.261 C 
BRANCH   5   6
ATOM      6  O   UNL     1      -5.657   0.180  -0.357  1.00  0.00    -0.457 OA
BRANCH   6   7
ATOM      7  C   UNL     1      -4.487  -0.341   0.134  1.00  0.00     0.378 C 
ATOM      8  O   UNL     1      -4.418  -1.392   0.763  1.00  0.00    -0.242 OA
BRANCH   7   9
ATOM      9  C   UNL     1      -3.292   0.418  -0.291  1.00  0.00     0.260 A 
ATOM     10  C   UNL     1      -1.296   0.760  -0.971  1.00  0.00     0.136 A 
ATOM     11  N   UNL     1      -2.125  -0.216  -0.657  1.00  0.00    -0.205 NA
ATOM     12  N   UNL     1      -1.971   1.971  -0.882  1.00  0.00    -0.214 N 
ATOM     13  N   UNL     1      -3.221   1.757  -0.383  1.00  0.00    -0.138 NA
BRANCH  10  14
ATOM     14  C   UNL     1       0.184   0.572  -1.157  1.00  0.00     0.051 C 
ATOM     15  C   UNL     1       0.783  -0.077   0.096  1.00  0.00     0.016 C 
ATOM     16  C   UNL     1       0.477  -0.286  -2.388  1.00  0.00     0.016 C 
ENDBRANCH  10  14
BRANCH  12  17
ATOM     17  C   UNL     1      -1.528   3.291  -1.130  1.00  0.00     0.102 A 
ATOM     18  C   UNL     1      -2.011   4.335  -0.326  1.00  0.00     0.031 A 
ATOM     19  C   UNL     1      -0.626   3.584  -2.152  1.00  0.00     0.148 A 
ATOM     20  C   UNL     1      -1.527   5.634  -0.501  1.00  0.00     0.002 A 
ATOM     21  C   UNL     1      -0.154   4.882  -2.337  1.00  0.00     0.041 A 
ATOM     22  F   UNL     1      -0.239   2.647  -3.028  1.00  0.00    -0.205 F 
ATOM     23  C   UNL     1      -0.592   5.907  -1.500  1.00  0.00     0.003 A 
ENDBRANCH  12  17
ENDBRANCH   7   9
ENDBRANCH   6   7
ENDBRANCH   5   6
ENDBRANCH   4   5
ENDBRANCH   3   4
ENDBRANCH   2   3
ENDBRANCH   1   2
BRANCH   1  24
ATOM     24  O   UNL     1      -6.474   0.664  -3.220  1.00  0.00    -0.376 OA
BRANCH  24  25
ATOM     25  C   UNL     1      -6.999   1.183  -4.432  1.00  0.00     0.202 C 
BRANCH  25  26
ATOM     26  C   UNL     1      -7.708   0.158  -5.318  1.00  0.00     0.261 C 
BRANCH  26  27
ATOM     27  O   UNL     1      -7.025  -1.083  -5.481  1.00  0.00    -0.460 OA
BRANCH  27  28
ATOM     28  C   UNL     1      -5.968  -1.073  -6.318  1.00  0.00     0.338 C 
ATOM     29  O   UNL     1      -5.407  -0.092  -6.769  1.00  0.00    -0.246 OA
BRANCH  28  30
ATOM     30  C   UNL     1      -5.641  -2.464  -6.690  1.00  0.00     0.060 A 
ATOM     31  C   UNL     1      -4.464  -2.677  -7.410  1.00  0.00     0.016 A 
ATOM     32  C   UNL     1      -6.584  -3.491  -6.522  1.00  0.00     0.016 A 
ATOM     33  C   UNL     1      -4.317  -3.860  -8.113  1.00  0.00     0.010 A 
ATOM     34  C   UNL     1      -6.438  -4.672  -7.230  1.00  0.00     0.010 A 
ATOM     35  C   UNL     1      -5.348  -4.807  -8.088  1.00  0.00    -0.014 A 
BRANCH  35  36
ATOM     36  C   UNL     1      -5.307  -5.847  -9.104  1.00  0.00     0.031 A 
ATOM     37  C   UNL     1      -4.328  -6.943  -8.937  1.00  0.00     0.074 A 
ATOM     38  C   UNL     1      -6.136  -5.829 -10.166  1.00  0.00     0.049 A 
ATOM     39  N   UNL     1      -3.365  -7.278  -9.735  1.00  0.00    -0.248 NA
ATOM     40  C   UNL     1      -4.430  -7.764  -7.726  1.00  0.00     0.031 C 
ATOM     41  C   UNL     1      -7.337  -5.013 -10.364  1.00  0.00     0.029 A 
ATOM     42  N   UNL     1      -6.106  -6.623 -11.275  1.00  0.00    -0.354 N 
ATOM     43  C   UNL     1      -2.815  -8.439  -9.202  1.00  0.00     0.074 A 
ATOM     44  C   UNL     1      -3.461  -8.658  -7.931  1.00  0.00     0.031 C 
ATOM     45  C   UNL     1      -8.026  -5.492 -11.423  1.00  0.00     0.029 A 
ATOM     46  C   UNL     1      -7.252  -6.553 -12.046  1.00  0.00     0.049 A 
ATOM     47  H   UNL     1      -5.338  -7.194 -11.505  1.00  0.00     0.167 HD
ATOM     48  C   UNL     1      -1.973  -9.237  -9.911  1.00  0.00     0.037 A 
ATOM     49  C   UNL     1      -7.575  -7.361 -13.081  1.00  0.00     0.037 A 
ATOM     50  C   UNL     1      -1.379  -8.562 -11.029  1.00  0.00     0.049 A 
ATOM     51  C   UNL     1      -6.332  -7.989 -13.587  1.00  0.00     0.074 A 
ATOM     52  C   UNL     1      -0.555  -7.462 -11.171  1.00  0.00     0.029 A 
ATOM     53  N   UNL     1      -1.825  -8.851 -12.292  1.00  0.00    -0.354 N 
ATOM     54  N   UNL     1      -5.393  -7.362 -14.239  1.00  0.00    -0.248 NA
ATOM     55  C   UNL     1      -5.960  -9.295 -13.063  1.00  0.00     0.031 C 
ATOM     56  C   UNL     1      -0.916  -6.878 -12.419  1.00  0.00     0.029 A 
ATOM     57  C   UNL     1      -1.942  -7.657 -12.955  1.00  0.00     0.049 A 
ATOM     58  H   UNL     1      -2.024  -9.745 -12.654  1.00  0.00     0.167 HD
ATOM     59  C   UNL     1      -4.219  -8.000 -13.870  1.00  0.00     0.074 A 
ATOM     60  C   UNL     1      -4.641  -9.250 -13.254  1.00  0.00     0.031 C 
ATOM     61  C   UNL     1      -3.030  -7.332 -13.846  1.00  0.00     0.037 A 
BRANCH  48  62
ATOM     62  C   UNL     1      -1.885 -10.723  -9.726  1.00  0.00     0.064 A 
ATOM     63  C   UNL     1      -0.775 -11.434 -10.216  1.00  0.00     0.173 A 
ATOM     64  C   UNL     1      -2.988 -11.503  -9.317  1.00  0.00     0.173 A 
ATOM     65  F   UNL     1       0.303 -10.783 -10.677  1.00  0.00    -0.203 F 
ATOM     66  C   UNL     1      -0.781 -12.828 -10.315  1.00  0.00     0.198 A 
ATOM     67  C   UNL     1      -2.972 -12.895  -9.368  1.00  0.00     0.198 A 
ATOM     68  F   UNL     1      -4.147 -10.937  -8.953  1.00  0.00    -0.203 F 
ATOM     69  F   UNL     1       0.257 -13.460 -10.878  1.00  0.00    -0.200 F 
ATOM     70  C   UNL     1      -1.878 -13.557  -9.888  1.00  0.00     0.200 A 
ATOM     71  F   UNL     1      -4.053 -13.583  -8.976  1.00  0.00    -0.200 F 
ATOM     72  F   UNL     1      -1.902 -14.889 -10.021  1.00  0.00    -0.200 F 
ENDBRANCH  48  62
BRANCH  49  73
ATOM     73  C   UNL     1      -8.925  -7.814 -13.481  1.00  0.00     0.064 A 
ATOM     74  C   UNL     1      -9.169  -8.338 -14.758  1.00  0.00     0.173 A 
ATOM     75  C   UNL     1      -9.952  -7.974 -12.528  1.00  0.00     0.173 A 
ATOM     76  F   UNL     1      -8.223  -8.274 -15.706  1.00  0.00    -0.203 F 
ATOM     77  C   UNL     1     -10.367  -8.992 -15.063  1.00  0.00     0.198 A 
ATOM     78  C   UNL     1     -11.151  -8.613 -12.837  1.00  0.00     0.198 A 
ATOM     79  F   UNL     1      -9.776  -7.594 -11.254  1.00  0.00    -0.203 F 
ATOM     80  F   UNL     1     -10.543  -9.531 -16.277  1.00  0.00    -0.200 F 
ATOM     81  C   UNL     1     -11.354  -9.132 -14.101  1.00  0.00     0.200 A 
ATOM     82  F   UNL     1     -12.083  -8.772 -11.886  1.00  0.00    -0.200 F 
ATOM     83  F   UNL     1     -12.482  -9.802 -14.378  1.00  0.00    -0.200 F 
ENDBRANCH  49  73
BRANCH  61  84
ATOM     84  C   UNL     1      -2.959  -6.006 -14.542  1.00  0.00     0.064 A 
ATOM     85  C   UNL     1      -3.679  -4.875 -14.120  1.00  0.00     0.173 A 
ATOM     86  C   UNL     1      -2.021  -5.834 -15.569  1.00  0.00     0.173 A 
ATOM     87  F   UNL     1      -4.516  -4.943 -13.076  1.00  0.00    -0.203 F 
ATOM     88  C   UNL     1      -3.497  -3.638 -14.734  1.00  0.00     0.198 A 
ATOM     89  C   UNL     1      -1.817  -4.589 -16.157  1.00  0.00     0.198 A 
ATOM     90  F   UNL     1      -1.262  -6.868 -15.967  1.00  0.00    -0.203 F 
ATOM     91  F   UNL     1      -4.199  -2.573 -14.321  1.00  0.00    -0.200 F 
ATOM     92  C   UNL     1      -2.562  -3.494 -15.747  1.00  0.00     0.200 A 
ATOM     93  F   UNL     1      -0.877  -4.443 -17.102  1.00  0.00    -0.200 F 
ATOM     94  F   UNL     1      -2.356  -2.294 -16.308  1.00  0.00    -0.200 F 
ENDBRANCH  61  84
ENDBRANCH  35  36
ENDBRANCH  28  30
ENDBRANCH  27  28
ENDBRANCH  26  27
ENDBRANCH  25  26
ENDBRANCH  24  25
ENDBRANCH   1  24
TORSDOF 19
