REMARK SMILES Cc1ccc(C#N)c(S[C@H](C(=O)OCCOCCOCCOC(=O)c2ccc(-c3c4nc(c(-c5c(F)c(F)c(F)c(F)c5F)c5ccc([nH]5)c(-c5c(F)c(F)c(F)c(F)c5F)c5nc(c(-c6c(F)c(F)c(F)c(F)c6F)c6ccc3[nH]6)C=C5)C=C4)cc2)c2ccccc2)n1
REMARK SMILES IDX 17 1 16 2 15 3 14 4 13 5 11 6 12 7 10 8 9 9 8 10 1 11 2 12
REMARK SMILES IDX 3 13 94 14 4 15 5 16 6 17 7 18 88 19 89 20 93 21 90 22 92 23
REMARK SMILES IDX 91 24 18 25 19 26 20 27 21 28 22 29 23 30 24 31 25 32 26 33
REMARK SMILES IDX 87 34 27 35 86 36 28 37 29 38 30 39 80 40 31 41 85 42 79 43
REMARK SMILES IDX 81 44 32 45 84 46 78 47 77 48 33 50 65 51 45 52 64 53 46 54
REMARK SMILES IDX 49 55 63 56 82 57 47 58 48 59 62 61 83 62 50 63 34 64 35 65
REMARK SMILES IDX 43 66 36 67 37 68 41 69 44 70 38 71 39 72 42 73 40 74 66 75
REMARK SMILES IDX 67 76 75 77 68 78 69 79 73 80 76 81 70 82 71 83 74 84 72 85
REMARK SMILES IDX 51 86 52 87 60 88 53 89 54 90 58 91 61 92 55 93 56 94 59 95
REMARK SMILES IDX 57 96
REMARK H PARENT 81 49 49 60
REMARK Flexibility Score: inf
ROOT
ATOM      1  C   UNL     1       0.347   4.196  -0.962  1.00  0.00     0.188 C 
ENDROOT
BRANCH   1   2
ATOM      2  O   UNL     1      -1.045   3.941  -0.863  1.00  0.00    -0.376 OA
BRANCH   2   3
ATOM      3  C   UNL     1      -1.575   3.358   0.320  1.00  0.00     0.202 C 
BRANCH   3   4
ATOM      4  C   UNL     1      -0.874   2.173   1.019  1.00  0.00     0.261 C 
BRANCH   4   5
ATOM      5  O   UNL     1       0.568   2.217   1.037  1.00  0.00    -0.462 OA
BRANCH   5   6
ATOM      6  C   UNL     1       1.205   1.220   0.352  1.00  0.00     0.324 C 
ATOM      7  O   UNL     1       0.612   0.248  -0.102  1.00  0.00    -0.251 OA
BRANCH   6   8
ATOM      8  C   UNL     1       2.701   1.549   0.118  1.00  0.00     0.193 C 
BRANCH   8   9
ATOM      9  S   UNL     1       3.772   0.989   1.494  1.00  0.00    -0.085 SA
BRANCH   9  10
ATOM     10  C   UNL     1       4.076   2.384   2.577  1.00  0.00     0.115 A 
ATOM     11  C   UNL     1       4.799   2.206   6.199  1.00  0.00     0.067 C 
ATOM     12  C   UNL     1       4.537   2.811   4.852  1.00  0.00     0.039 A 
ATOM     13  C   UNL     1       4.788   4.150   4.614  1.00  0.00     0.025 A 
ATOM     14  N   UNL     1       4.146   1.961   3.870  1.00  0.00    -0.245 NA
ATOM     15  C   UNL     1       4.713   4.600   3.304  1.00  0.00     0.024 A 
ATOM     16  C   UNL     1       4.412   3.702   2.261  1.00  0.00     0.084 A 
BRANCH  16  17
ATOM     17  C   UNL     1       4.577   4.196   0.931  1.00  0.00     0.102 C 
ATOM     18  N   UNL     1       4.693   4.647  -0.128  1.00  0.00    -0.192 NA
ENDBRANCH  16  17
ENDBRANCH   9  10
ENDBRANCH   8   9
BRANCH   8  19
ATOM     19  C   UNL     1       3.190   0.975  -1.216  1.00  0.00    -0.023 A 
ATOM     20  C   UNL     1       3.006  -0.382  -1.530  1.00  0.00     0.005 A 
ATOM     21  C   UNL     1       3.787   1.804  -2.182  1.00  0.00     0.005 A 
ATOM     22  C   UNL     1       3.337  -0.880  -2.788  1.00  0.00     0.000 A 
ATOM     23  C   UNL     1       4.144   1.297  -3.434  1.00  0.00     0.000 A 
ATOM     24  C   UNL     1       3.903  -0.040  -3.742  1.00  0.00     0.000 A 
ENDBRANCH   8  19
ENDBRANCH   6   8
ENDBRANCH   5   6
ENDBRANCH   4   5
ENDBRANCH   3   4
ENDBRANCH   2   3
ENDBRANCH   1   2
BRANCH   1  25
ATOM     25  C   UNL     1       1.091   4.864   0.214  1.00  0.00     0.188 C 
BRANCH  25  26
ATOM     26  O   UNL     1       0.360   4.971   1.406  1.00  0.00    -0.376 OA
BRANCH  26  27
ATOM     27  C   UNL     1      -0.188   6.226   1.756  1.00  0.00     0.202 C 
BRANCH  27  28
ATOM     28  C   UNL     1      -0.605   7.299   0.726  1.00  0.00     0.261 C 
BRANCH  28  29
ATOM     29  O   UNL     1      -0.114   7.201  -0.622  1.00  0.00    -0.460 OA
BRANCH  29  30
ATOM     30  C   UNL     1       1.040   7.854  -0.914  1.00  0.00     0.338 C 
ATOM     31  O   UNL     1       1.736   8.491  -0.145  1.00  0.00    -0.246 OA
BRANCH  30  32
ATOM     32  C   UNL     1       1.431   7.506  -2.301  1.00  0.00     0.060 A 
ATOM     33  C   UNL     1       2.501   6.625  -2.528  1.00  0.00     0.016 A 
ATOM     34  C   UNL     1       0.736   8.049  -3.379  1.00  0.00     0.016 A 
ATOM     35  C   UNL     1       2.857   6.262  -3.832  1.00  0.00     0.010 A 
ATOM     36  C   UNL     1       1.116   7.712  -4.683  1.00  0.00     0.010 A 
ATOM     37  C   UNL     1       2.178   6.819  -4.921  1.00  0.00    -0.014 A 
BRANCH  37  38
ATOM     38  C   UNL     1       2.614   6.562  -6.318  1.00  0.00     0.031 A 
ATOM     39  C   UNL     1       3.376   7.628  -7.053  1.00  0.00     0.074 A 
ATOM     40  C   UNL     1       2.285   5.420  -6.949  1.00  0.00     0.049 A 
ATOM     41  N   UNL     1       3.691   7.706  -8.321  1.00  0.00    -0.248 NA
ATOM     42  C   UNL     1       3.840   8.766  -6.245  1.00  0.00     0.031 C 
ATOM     43  C   UNL     1       1.597   4.285  -6.339  1.00  0.00     0.029 A 
ATOM     44  N   UNL     1       2.458   5.043  -8.261  1.00  0.00    -0.354 N 
ATOM     45  C   UNL     1       4.370   8.908  -8.468  1.00  0.00     0.074 A 
ATOM     46  C   UNL     1       4.403   9.537  -7.164  1.00  0.00     0.031 C 
ATOM     47  C   UNL     1       1.377   3.352  -7.280  1.00  0.00     0.029 A 
ATOM     48  C   UNL     1       1.860   3.846  -8.569  1.00  0.00     0.049 A 
ATOM     49  H   UNL     1       2.963   5.580  -8.914  1.00  0.00     0.167 HD
ATOM     50  C   UNL     1       4.914   9.437  -9.590  1.00  0.00     0.037 A 
ATOM     51  C   UNL     1       1.679   3.242  -9.762  1.00  0.00     0.037 A 
ATOM     52  C   UNL     1       4.873   8.807 -10.885  1.00  0.00     0.049 A 
ATOM     53  C   UNL     1       2.200   3.902 -11.016  1.00  0.00     0.074 A 
ATOM     54  C   UNL     1       5.422   9.251 -12.076  1.00  0.00     0.029 A 
ATOM     55  N   UNL     1       4.234   7.608 -11.163  1.00  0.00    -0.354 N 
ATOM     56  N   UNL     1       2.869   5.022 -11.148  1.00  0.00    -0.248 NA
ATOM     57  C   UNL     1       1.933   3.217 -12.290  1.00  0.00     0.031 C 
ATOM     58  C   UNL     1       5.048   8.362 -13.088  1.00  0.00     0.029 A 
ATOM     59  C   UNL     1       4.332   7.323 -12.516  1.00  0.00     0.049 A 
ATOM     60  H   UNL     1       3.778   7.044 -10.498  1.00  0.00     0.167 HD
ATOM     61  C   UNL     1       3.124   5.160 -12.507  1.00  0.00     0.074 A 
ATOM     62  C   UNL     1       2.556   4.000 -13.159  1.00  0.00     0.031 C 
ATOM     63  C   UNL     1       3.767   6.162 -13.157  1.00  0.00     0.037 A 
BRANCH  50  64
ATOM     64  C   UNL     1       5.568  10.786  -9.482  1.00  0.00     0.064 A 
ATOM     65  C   UNL     1       6.767  10.976  -8.778  1.00  0.00     0.173 A 
ATOM     66  C   UNL     1       5.011  11.896 -10.136  1.00  0.00     0.173 A 
ATOM     67  F   UNL     1       7.340   9.951  -8.129  1.00  0.00    -0.203 F 
ATOM     68  C   UNL     1       7.364  12.232  -8.707  1.00  0.00     0.198 A 
ATOM     69  C   UNL     1       5.630  13.142 -10.094  1.00  0.00     0.198 A 
ATOM     70  F   UNL     1       3.871  11.770 -10.832  1.00  0.00    -0.203 F 
ATOM     71  F   UNL     1       8.481  12.401  -7.984  1.00  0.00    -0.200 F 
ATOM     72  C   UNL     1       6.801  13.311  -9.371  1.00  0.00     0.200 A 
ATOM     73  F   UNL     1       5.095  14.178 -10.754  1.00  0.00    -0.200 F 
ATOM     74  F   UNL     1       7.384  14.516  -9.311  1.00  0.00    -0.200 F 
ENDBRANCH  50  64
BRANCH  51  75
ATOM     75  C   UNL     1       0.935   1.954  -9.842  1.00  0.00     0.064 A 
ATOM     76  C   UNL     1       1.571   0.777 -10.260  1.00  0.00     0.173 A 
ATOM     77  C   UNL     1      -0.433   1.879  -9.536  1.00  0.00     0.173 A 
ATOM     78  F   UNL     1       2.869   0.801 -10.595  1.00  0.00    -0.203 F 
ATOM     79  C   UNL     1       0.865  -0.418 -10.391  1.00  0.00     0.198 A 
ATOM     80  C   UNL     1      -1.130   0.676  -9.631  1.00  0.00     0.198 A 
ATOM     81  F   UNL     1      -1.095   2.977  -9.142  1.00  0.00    -0.203 F 
ATOM     82  F   UNL     1       1.485  -1.512 -10.852  1.00  0.00    -0.200 F 
ATOM     83  C   UNL     1      -0.483  -0.469 -10.069  1.00  0.00     0.200 A 
ATOM     84  F   UNL     1      -2.429   0.629  -9.309  1.00  0.00    -0.200 F 
ATOM     85  F   UNL     1      -1.161  -1.618 -10.194  1.00  0.00    -0.200 F 
ENDBRANCH  51  75
BRANCH  63  86
ATOM     86  C   UNL     1       3.917   6.049 -14.649  1.00  0.00     0.064 A 
ATOM     87  C   UNL     1       2.820   6.188 -15.513  1.00  0.00     0.173 A 
ATOM     88  C   UNL     1       5.185   5.871 -15.226  1.00  0.00     0.173 A 
ATOM     89  F   UNL     1       1.585   6.346 -15.015  1.00  0.00    -0.203 F 
ATOM     90  C   UNL     1       2.985   6.136 -16.895  1.00  0.00     0.198 A 
ATOM     91  C   UNL     1       5.350   5.857 -16.609  1.00  0.00     0.198 A 
ATOM     92  F   UNL     1       6.270   5.741 -14.448  1.00  0.00    -0.203 F 
ATOM     93  F   UNL     1       1.916   6.230 -17.699  1.00  0.00    -0.200 F 
ATOM     94  C   UNL     1       4.250   5.983 -17.442  1.00  0.00     0.200 A 
ATOM     95  F   UNL     1       6.577   5.729 -17.134  1.00  0.00    -0.200 F 
ATOM     96  F   UNL     1       4.408   5.955 -18.772  1.00  0.00    -0.200 F 
ENDBRANCH  63  86
ENDBRANCH  37  38
ENDBRANCH  30  32
ENDBRANCH  29  30
ENDBRANCH  28  29
ENDBRANCH  27  28
ENDBRANCH  26  27
ENDBRANCH  25  26
ENDBRANCH   1  25
TORSDOF 21
