REMARK SMILES Cc1nnc(-c2ccccc2-c2cc(NCC(=O)OCCOCCOCCOC(=O)c3ccc(-c4c5nc(c(-c6c(F)c(F)c(F)c(F)c6F)c6ccc([nH]6)c(-c6c(F)c(F)c(F)c(F)c6F)c6nc(c(-c7c(F)c(F)c(F)c(F)c7F)c7ccc4[nH]7)C=C6)C=C5)cc3)nc3[nH]ccc23)o1
REMARK SMILES IDX 23 1 22 2 21 3 20 4 19 5 17 6 18 7 16 8 15 9 14 11 12 12
REMARK SMILES IDX 13 13 99 14 95 15 98 16 94 17 96 18 97 19 11 21 6 22 7 23
REMARK SMILES IDX 8 24 10 25 9 26 5 27 1 28 2 29 3 30 100 31 4 32 24 33 25 34
REMARK SMILES IDX 26 35 27 36 28 37 29 38 30 39 31 40 32 41 93 42 33 43 92 44
REMARK SMILES IDX 34 45 35 46 36 47 86 48 37 49 91 50 85 51 87 52 38 53 90 54
REMARK SMILES IDX 84 55 83 56 39 58 71 59 51 60 70 61 52 62 55 63 69 64 88 65
REMARK SMILES IDX 53 66 54 67 68 69 89 70 56 71 40 72 41 73 49 74 42 75 43 76
REMARK SMILES IDX 47 77 50 78 44 79 45 80 48 81 46 82 72 83 73 84 81 85 74 86
REMARK SMILES IDX 75 87 79 88 82 89 76 90 77 91 80 92 78 93 57 94 58 95 66 96
REMARK SMILES IDX 59 97 60 98 64 99 67 100 61 101 62 102 65 103 63 104
REMARK H PARENT 15 10 96 20 87 57 55 68
REMARK Flexibility Score: inf
ROOT
ATOM      1  C   UNL     1      -2.707  -2.317  -5.079  1.00  0.00     0.188 C 
ENDROOT
BRANCH   1   2
ATOM      2  O   UNL     1      -3.441  -3.321  -4.422  1.00  0.00    -0.376 OA
BRANCH   2   3
ATOM      3  C   UNL     1      -2.781  -4.548  -4.137  1.00  0.00     0.202 C 
BRANCH   3   4
ATOM      4  C   UNL     1      -1.280  -4.650  -3.769  1.00  0.00     0.261 C 
BRANCH   4   5
ATOM      5  O   UNL     1      -0.428  -3.557  -4.153  1.00  0.00    -0.462 OA
BRANCH   5   6
ATOM      6  C   UNL     1       0.485  -3.755  -5.138  1.00  0.00     0.325 C 
ATOM      7  O   UNL     1       0.589  -4.809  -5.761  1.00  0.00    -0.250 OA
BRANCH   6   8
ATOM      8  C   UNL     1       1.243  -2.486  -5.560  1.00  0.00     0.237 C 
BRANCH   8   9
ATOM      9  N   UNL     1       1.255  -1.355  -4.625  1.00  0.00    -0.359 N 
ATOM     10  H   UNL     1       0.482  -0.746  -4.597  1.00  0.00     0.162 HD
BRANCH   9  11
ATOM     11  C   UNL     1       2.330  -1.125  -3.781  1.00  0.00     0.129 A 
ATOM     12  C   UNL     1       3.355   0.281  -2.046  1.00  0.00    -0.003 A 
ATOM     13  C   UNL     1       2.267  -0.043  -2.885  1.00  0.00     0.056 A 
ATOM     14  C   UNL     1       4.487  -0.553  -2.169  1.00  0.00     0.027 A 
ATOM     15  C   UNL     1       4.411  -1.607  -3.071  1.00  0.00     0.140 A 
ATOM     16  C   UNL     1       5.783  -0.633  -1.578  1.00  0.00     0.030 A 
ATOM     17  N   UNL     1       3.391  -1.939  -3.872  1.00  0.00    -0.213 NA
ATOM     18  N   UNL     1       5.591  -2.293  -3.034  1.00  0.00    -0.346 N 
ATOM     19  C   UNL     1       6.444  -1.705  -2.140  1.00  0.00     0.085 A 
ATOM     20  H   UNL     1       5.797  -3.093  -3.571  1.00  0.00     0.167 HD
BRANCH  12  21
ATOM     21  C   UNL     1       3.371   1.412  -1.093  1.00  0.00    -0.005 A 
ATOM     22  C   UNL     1       2.456   1.550  -0.025  1.00  0.00     0.047 A 
ATOM     23  C   UNL     1       2.579   2.632   0.876  1.00  0.00     0.014 A 
ATOM     24  C   UNL     1       3.581   3.586   0.730  1.00  0.00     0.001 A 
ATOM     25  C   UNL     1       4.356   2.416  -1.234  1.00  0.00     0.009 A 
ATOM     26  C   UNL     1       4.464   3.484  -0.335  1.00  0.00     0.001 A 
BRANCH  22  27
ATOM     27  C   UNL     1       1.357   0.627   0.193  1.00  0.00     0.248 A 
ATOM     28  C   UNL     1      -2.115   0.408   0.643  1.00  0.00     0.113 C 
ATOM     29  C   UNL     1      -0.681   0.130   0.492  1.00  0.00     0.213 A 
ATOM     30  N   UNL     1      -0.026  -1.010   0.471  1.00  0.00    -0.113 NA
ATOM     31  O   UNL     1       0.129   1.216   0.339  1.00  0.00    -0.421 OA
ATOM     32  N   UNL     1       1.304  -0.686   0.266  1.00  0.00    -0.108 NA
ENDBRANCH  22  27
ENDBRANCH  12  21
ENDBRANCH   9  11
ENDBRANCH   8   9
ENDBRANCH   6   8
ENDBRANCH   5   6
ENDBRANCH   4   5
ENDBRANCH   3   4
ENDBRANCH   2   3
ENDBRANCH   1   2
BRANCH   1  33
ATOM     33  C   UNL     1      -2.059  -1.305  -4.121  1.00  0.00     0.188 C 
BRANCH  33  34
ATOM     34  O   UNL     1      -2.080  -1.495  -2.719  1.00  0.00    -0.376 OA
BRANCH  34  35
ATOM     35  C   UNL     1      -3.332  -1.708  -2.088  1.00  0.00     0.202 C 
BRANCH  35  36
ATOM     36  C   UNL     1      -4.428  -0.641  -2.239  1.00  0.00     0.261 C 
BRANCH  36  37
ATOM     37  O   UNL     1      -4.676  -0.202  -3.587  1.00  0.00    -0.460 OA
BRANCH  37  38
ATOM     38  C   UNL     1      -4.246   1.056  -3.886  1.00  0.00     0.338 C 
ATOM     39  O   UNL     1      -3.722   1.860  -3.144  1.00  0.00    -0.246 OA
BRANCH  38  40
ATOM     40  C   UNL     1      -4.309   1.225  -5.356  1.00  0.00     0.060 A 
ATOM     41  C   UNL     1      -3.116   1.401  -6.078  1.00  0.00     0.016 A 
ATOM     42  C   UNL     1      -5.535   1.194  -6.016  1.00  0.00     0.016 A 
ATOM     43  C   UNL     1      -3.143   1.507  -7.469  1.00  0.00     0.010 A 
ATOM     44  C   UNL     1      -5.564   1.347  -7.403  1.00  0.00     0.010 A 
ATOM     45  C   UNL     1      -4.372   1.508  -8.135  1.00  0.00    -0.014 A 
BRANCH  45  46
ATOM     46  C   UNL     1      -4.449   1.837  -9.576  1.00  0.00     0.031 A 
ATOM     47  C   UNL     1      -4.788   3.246  -9.967  1.00  0.00     0.074 A 
ATOM     48  C   UNL     1      -4.264   0.898 -10.519  1.00  0.00     0.049 A 
ATOM     49  N   UNL     1      -5.069   3.740 -11.144  1.00  0.00    -0.248 NA
ATOM     50  C   UNL     1      -4.824   4.228  -8.872  1.00  0.00     0.031 C 
ATOM     51  C   UNL     1      -3.868  -0.486 -10.270  1.00  0.00     0.029 A 
ATOM     52  N   UNL     1      -4.410   0.968 -11.882  1.00  0.00    -0.354 N 
ATOM     53  C   UNL     1      -5.336   5.085 -10.930  1.00  0.00     0.074 A 
ATOM     54  C   UNL     1      -5.204   5.325  -9.509  1.00  0.00     0.031 C 
ATOM     55  C   UNL     1      -3.823  -1.142 -11.442  1.00  0.00     0.029 A 
ATOM     56  C   UNL     1      -4.235  -0.238 -12.515  1.00  0.00     0.049 A 
ATOM     57  H   UNL     1      -4.620   1.803 -12.360  1.00  0.00     0.167 HD
ATOM     58  C   UNL     1      -5.665   6.033 -11.839  1.00  0.00     0.037 A 
ATOM     59  C   UNL     1      -4.426  -0.575 -13.806  1.00  0.00     0.037 A 
ATOM     60  C   UNL     1      -5.804   5.783 -13.250  1.00  0.00     0.049 A 
ATOM     61  C   UNL     1      -4.903   0.474 -14.782  1.00  0.00     0.074 A 
ATOM     62  C   UNL     1      -6.111   6.679 -14.258  1.00  0.00     0.029 A 
ATOM     63  N   UNL     1      -5.663   4.540 -13.849  1.00  0.00    -0.354 N 
ATOM     64  N   UNL     1      -5.133   1.750 -14.584  1.00  0.00    -0.248 NA
ATOM     65  C   UNL     1      -5.157   0.029 -16.160  1.00  0.00     0.031 C 
ATOM     66  C   UNL     1      -6.224   5.966 -15.456  1.00  0.00     0.029 A 
ATOM     67  C   UNL     1      -5.917   4.638 -15.207  1.00  0.00     0.049 A 
ATOM     68  H   UNL     1      -5.418   3.710 -13.378  1.00  0.00     0.167 HD
ATOM     69  C   UNL     1      -5.521   2.266 -15.815  1.00  0.00     0.074 A 
ATOM     70  C   UNL     1      -5.488   1.167 -16.756  1.00  0.00     0.031 C 
ATOM     71  C   UNL     1      -5.870   3.536 -16.137  1.00  0.00     0.037 A 
BRANCH  58  72
ATOM     72  C   UNL     1      -5.946   7.415 -11.324  1.00  0.00     0.064 A 
ATOM     73  C   UNL     1      -4.936   8.227 -10.785  1.00  0.00     0.173 A 
ATOM     74  C   UNL     1      -7.247   7.938 -11.380  1.00  0.00     0.173 A 
ATOM     75  F   UNL     1      -3.678   7.770 -10.694  1.00  0.00    -0.203 F 
ATOM     76  C   UNL     1      -5.226   9.494 -10.286  1.00  0.00     0.198 A 
ATOM     77  C   UNL     1      -7.526   9.220 -10.914  1.00  0.00     0.198 A 
ATOM     78  F   UNL     1      -8.250   7.207 -11.889  1.00  0.00    -0.203 F 
ATOM     79  F   UNL     1      -4.258  10.226  -9.717  1.00  0.00    -0.200 F 
ATOM     80  C   UNL     1      -6.519   9.992 -10.357  1.00  0.00     0.200 A 
ATOM     81  F   UNL     1      -8.773   9.704 -10.997  1.00  0.00    -0.200 F 
ATOM     82  F   UNL     1      -6.795  11.213  -9.878  1.00  0.00    -0.200 F 
ENDBRANCH  58  72
BRANCH  59  83
ATOM     83  C   UNL     1      -4.185  -1.971 -14.259  1.00  0.00     0.064 A 
ATOM     84  C   UNL     1      -3.145  -2.265 -15.152  1.00  0.00     0.173 A 
ATOM     85  C   UNL     1      -4.999  -3.033 -13.836  1.00  0.00     0.173 A 
ATOM     86  F   UNL     1      -2.358  -1.280 -15.609  1.00  0.00    -0.203 F 
ATOM     87  C   UNL     1      -2.939  -3.562 -15.619  1.00  0.00     0.198 A 
ATOM     88  C   UNL     1      -4.773  -4.335 -14.279  1.00  0.00     0.198 A 
ATOM     89  F   UNL     1      -6.013  -2.806 -12.989  1.00  0.00    -0.203 F 
ATOM     90  F   UNL     1      -1.971  -3.804 -16.512  1.00  0.00    -0.200 F 
ATOM     91  C   UNL     1      -3.749  -4.597 -15.176  1.00  0.00     0.200 A 
ATOM     92  F   UNL     1      -5.552  -5.333 -13.841  1.00  0.00    -0.200 F 
ATOM     93  F   UNL     1      -3.550  -5.844 -15.624  1.00  0.00    -0.200 F 
ENDBRANCH  59  83
BRANCH  71  94
ATOM     94  C   UNL     1      -6.203   3.827 -17.574  1.00  0.00     0.064 A 
ATOM     95  C   UNL     1      -7.384   3.361 -18.170  1.00  0.00     0.173 A 
ATOM     96  C   UNL     1      -5.355   4.637 -18.347  1.00  0.00     0.173 A 
ATOM     97  F   UNL     1      -8.222   2.571 -17.482  1.00  0.00    -0.203 F 
ATOM     98  C   UNL     1      -7.694   3.679 -19.491  1.00  0.00     0.198 A 
ATOM     99  C   UNL     1      -5.685   4.982 -19.655  1.00  0.00     0.198 A 
ATOM    100  F   UNL     1      -4.216   5.116 -17.825  1.00  0.00    -0.203 F 
ATOM    101  F   UNL     1      -8.807   3.188 -20.052  1.00  0.00    -0.200 F 
ATOM    102  C   UNL     1      -6.851   4.498 -20.228  1.00  0.00     0.200 A 
ATOM    103  F   UNL     1      -4.878   5.787 -20.358  1.00  0.00    -0.200 F 
ATOM    104  F   UNL     1      -7.160   4.816 -21.492  1.00  0.00    -0.200 F 
ENDBRANCH  71  94
ENDBRANCH  45  46
ENDBRANCH  38  40
ENDBRANCH  37  38
ENDBRANCH  36  37
ENDBRANCH  35  36
ENDBRANCH  34  35
ENDBRANCH  33  34
ENDBRANCH   1  33
TORSDOF 21
