REMARK SMILES C[C@]1(Cn2c(=O)[nH]c3cc(C(=O)OCCOCCOCCOC(=O)c4ccc(-c5c6nc(c(-c7c(F)c(F)c(F)c(F)c7F)c7ccc([nH]7)c(-c7c(F)c(F)c(F)c(F)c7F)c7nc(c(-c8c(F)c(F)c(F)c(F)c8F)c8ccc5[nH]8)C=C7)C=C6)cc4)ccc32)CCCO1
REMARK SMILES IDX 17 1 16 2 15 3 14 4 13 5 11 6 12 7 10 8 4 9 5 10 90 11 6 12
REMARK SMILES IDX 7 13 8 14 89 15 9 17 88 18 3 19 2 20 1 21 91 22 94 23 92 24
REMARK SMILES IDX 93 25 18 26 19 27 20 28 21 29 22 30 23 31 24 32 25 33 26 34
REMARK SMILES IDX 87 35 27 36 86 37 28 38 29 39 30 40 80 41 31 42 85 43 79 44
REMARK SMILES IDX 81 45 32 46 84 47 78 48 77 49 33 51 65 52 45 53 64 54 46 55
REMARK SMILES IDX 49 56 63 57 82 58 47 59 48 60 62 62 83 63 50 64 34 65 35 66
REMARK SMILES IDX 43 67 36 68 37 69 41 70 44 71 38 72 39 73 42 74 40 75 66 76
REMARK SMILES IDX 67 77 75 78 68 79 69 80 73 81 76 82 70 83 71 84 74 85 72 86
REMARK SMILES IDX 51 87 52 88 60 89 53 90 54 91 58 92 61 93 55 94 56 95 59 96
REMARK SMILES IDX 57 97
REMARK H PARENT 7 16 81 50 49 61
REMARK Flexibility Score: inf
ROOT
ATOM      1  C   UNL     1       7.761  -4.693  -1.234  1.00  0.00     0.188 C 
ENDROOT
BRANCH   1   2
ATOM      2  O   UNL     1       8.751  -5.381  -1.955  1.00  0.00    -0.376 OA
BRANCH   2   3
ATOM      3  C   UNL     1       8.747  -5.293  -3.364  1.00  0.00     0.202 C 
BRANCH   3   4
ATOM      4  C   UNL     1       7.629  -4.564  -4.131  1.00  0.00     0.261 C 
BRANCH   4   5
ATOM      5  O   UNL     1       7.129  -3.355  -3.509  1.00  0.00    -0.460 OA
BRANCH   5   6
ATOM      6  C   UNL     1       5.775  -3.290  -3.408  1.00  0.00     0.338 C 
ATOM      7  O   UNL     1       4.992  -4.065  -3.936  1.00  0.00    -0.246 OA
BRANCH   6   8
ATOM      8  C   UNL     1       5.285  -2.291  -2.408  1.00  0.00     0.062 A 
ATOM      9  N   UNL     1       2.458  -0.223  -0.208  1.00  0.00    -0.289 N 
ATOM     10  C   UNL     1       1.976  -1.267   0.609  1.00  0.00     0.326 A 
ATOM     11  C   UNL     1       3.617  -0.663  -0.884  1.00  0.00     0.069 A 
ATOM     12  O   UNL     1       0.986  -1.302   1.306  1.00  0.00    -0.248 OA
ATOM     13  N   UNL     1       2.841  -2.334   0.398  1.00  0.00    -0.306 N 
ATOM     14  C   UNL     1       3.808  -1.982  -0.543  1.00  0.00     0.067 A 
ATOM     15  C   UNL     1       4.431  -0.087  -1.843  1.00  0.00     0.029 A 
ATOM     16  H   UNL     1       2.781  -3.209   0.846  1.00  0.00     0.171 HD
ATOM     17  C   UNL     1       4.707  -2.774  -1.228  1.00  0.00     0.044 A 
ATOM     18  C   UNL     1       5.218  -0.924  -2.666  1.00  0.00     0.018 A 
BRANCH   9  19
ATOM     19  C   UNL     1       1.652   0.928  -0.512  1.00  0.00     0.162 C 
BRANCH  19  20
ATOM     20  C   UNL     1       0.903   0.870  -1.867  1.00  0.00     0.083 C 
ATOM     21  C   UNL     1       1.856   0.932  -3.067  1.00  0.00     0.044 C 
ATOM     22  C   UNL     1      -0.072  -0.297  -2.015  1.00  0.00     0.039 C 
ATOM     23  O   UNL     1       0.047   2.032  -1.980  1.00  0.00    -0.373 OA
ATOM     24  C   UNL     1      -0.950   0.206  -3.140  1.00  0.00     0.031 C 
ATOM     25  C   UNL     1      -1.078   1.679  -2.805  1.00  0.00     0.161 C 
ENDBRANCH  19  20
ENDBRANCH   9  19
ENDBRANCH   6   8
ENDBRANCH   5   6
ENDBRANCH   4   5
ENDBRANCH   3   4
ENDBRANCH   2   3
ENDBRANCH   1   2
BRANCH   1  26
ATOM     26  C   UNL     1       8.044  -3.230  -0.820  1.00  0.00     0.188 C 
BRANCH  26  27
ATOM     27  O   UNL     1       9.259  -2.631  -1.214  1.00  0.00    -0.376 OA
BRANCH  27  28
ATOM     28  C   UNL     1      10.440  -3.294  -0.787  1.00  0.00     0.202 C 
BRANCH  28  29
ATOM     29  C   UNL     1      10.527  -3.723   0.698  1.00  0.00     0.261 C 
BRANCH  29  30
ATOM     30  O   UNL     1       9.479  -4.645   1.116  1.00  0.00    -0.460 OA
BRANCH  30  31
ATOM     31  C   UNL     1       8.784  -4.340   2.256  1.00  0.00     0.338 C 
ATOM     32  O   UNL     1       9.126  -3.531   3.101  1.00  0.00    -0.246 OA
BRANCH  31  33
ATOM     33  C   UNL     1       7.365  -4.837   2.126  1.00  0.00     0.060 A 
ATOM     34  C   UNL     1       7.003  -6.111   1.670  1.00  0.00     0.016 A 
ATOM     35  C   UNL     1       6.360  -3.877   2.232  1.00  0.00     0.016 A 
ATOM     36  C   UNL     1       5.707  -6.341   1.118  1.00  0.00     0.010 A 
ATOM     37  C   UNL     1       5.072  -4.137   1.727  1.00  0.00     0.010 A 
ATOM     38  C   UNL     1       4.739  -5.322   1.036  1.00  0.00    -0.014 A 
BRANCH  38  39
ATOM     39  C   UNL     1       3.301  -5.603   0.617  1.00  0.00     0.031 A 
ATOM     40  C   UNL     1       2.678  -6.348   1.717  1.00  0.00     0.074 A 
ATOM     41  C   UNL     1       2.458  -5.332  -0.441  1.00  0.00     0.049 A 
ATOM     42  N   UNL     1       2.516  -7.626   1.680  1.00  0.00    -0.248 NA
ATOM     43  C   UNL     1       2.451  -5.725   3.021  1.00  0.00     0.031 C 
ATOM     44  C   UNL     1       2.738  -4.713  -1.727  1.00  0.00     0.029 A 
ATOM     45  N   UNL     1       1.069  -5.463  -0.557  1.00  0.00    -0.354 N 
ATOM     46  C   UNL     1       1.911  -7.935   2.876  1.00  0.00     0.074 A 
ATOM     47  C   UNL     1       2.124  -6.801   3.740  1.00  0.00     0.031 C 
ATOM     48  C   UNL     1       1.636  -4.189  -2.312  1.00  0.00     0.029 A 
ATOM     49  C   UNL     1       0.475  -4.693  -1.596  1.00  0.00     0.049 A 
ATOM     50  H   UNL     1       0.542  -6.045   0.036  1.00  0.00     0.167 HD
ATOM     51  C   UNL     1       0.996  -8.935   2.896  1.00  0.00     0.037 A 
ATOM     52  C   UNL     1      -0.716  -4.813  -2.262  1.00  0.00     0.037 A 
ATOM     53  C   UNL     1       1.131  -9.794   1.734  1.00  0.00     0.049 A 
ATOM     54  C   UNL     1      -1.193  -6.183  -2.076  1.00  0.00     0.074 A 
ATOM     55  C   UNL     1       2.143 -10.559   1.184  1.00  0.00     0.029 A 
ATOM     56  N   UNL     1       0.208  -9.620   0.735  1.00  0.00    -0.354 N 
ATOM     57  N   UNL     1      -0.679  -7.208  -2.685  1.00  0.00    -0.248 NA
ATOM     58  C   UNL     1      -1.994  -6.461  -0.900  1.00  0.00     0.031 C 
ATOM     59  C   UNL     1       1.954 -10.508  -0.231  1.00  0.00     0.029 A 
ATOM     60  C   UNL     1       0.805  -9.765  -0.491  1.00  0.00     0.049 A 
ATOM     61  H   UNL     1      -0.745  -9.419   0.877  1.00  0.00     0.167 HD
ATOM     62  C   UNL     1      -0.670  -8.184  -1.709  1.00  0.00     0.074 A 
ATOM     63  C   UNL     1      -1.611  -7.720  -0.693  1.00  0.00     0.031 C 
ATOM     64  C   UNL     1       0.330  -9.107  -1.686  1.00  0.00     0.037 A 
BRANCH  51  65
ATOM     65  C   UNL     1      -0.273  -8.839   3.705  1.00  0.00     0.064 A 
ATOM     66  C   UNL     1      -1.099  -9.972   3.799  1.00  0.00     0.173 A 
ATOM     67  C   UNL     1      -0.847  -7.629   4.162  1.00  0.00     0.173 A 
ATOM     68  F   UNL     1      -0.678 -11.160   3.340  1.00  0.00    -0.203 F 
ATOM     69  C   UNL     1      -2.409  -9.889   4.276  1.00  0.00     0.198 A 
ATOM     70  C   UNL     1      -2.129  -7.562   4.697  1.00  0.00     0.198 A 
ATOM     71  F   UNL     1      -0.251  -6.442   4.006  1.00  0.00    -0.203 F 
ATOM     72  F   UNL     1      -3.198 -10.970   4.232  1.00  0.00    -0.200 F 
ATOM     73  C   UNL     1      -2.921  -8.687   4.730  1.00  0.00     0.200 A 
ATOM     74  F   UNL     1      -2.613  -6.379   5.101  1.00  0.00    -0.200 F 
ATOM     75  F   UNL     1      -4.190  -8.599   5.145  1.00  0.00    -0.200 F 
ENDBRANCH  51  65
BRANCH  52  76
ATOM     76  C   UNL     1      -1.712  -3.765  -2.624  1.00  0.00     0.064 A 
ATOM     77  C   UNL     1      -2.463  -3.797  -3.814  1.00  0.00     0.173 A 
ATOM     78  C   UNL     1      -2.148  -2.862  -1.642  1.00  0.00     0.173 A 
ATOM     79  F   UNL     1      -2.170  -4.688  -4.772  1.00  0.00    -0.203 F 
ATOM     80  C   UNL     1      -3.559  -2.942  -4.020  1.00  0.00     0.198 A 
ATOM     81  C   UNL     1      -3.246  -2.017  -1.841  1.00  0.00     0.198 A 
ATOM     82  F   UNL     1      -1.534  -2.830  -0.451  1.00  0.00    -0.203 F 
ATOM     83  F   UNL     1      -4.257  -3.000  -5.165  1.00  0.00    -0.200 F 
ATOM     84  C   UNL     1      -3.949  -2.053  -3.032  1.00  0.00     0.200 A 
ATOM     85  F   UNL     1      -3.602  -1.149  -0.884  1.00  0.00    -0.200 F 
ATOM     86  F   UNL     1      -4.983  -1.222  -3.231  1.00  0.00    -0.200 F 
ENDBRANCH  52  76
BRANCH  64  87
ATOM     87  C   UNL     1       1.113  -9.306  -2.957  1.00  0.00     0.064 A 
ATOM     88  C   UNL     1       2.005  -8.369  -3.507  1.00  0.00     0.173 A 
ATOM     89  C   UNL     1       1.032 -10.555  -3.584  1.00  0.00     0.173 A 
ATOM     90  F   UNL     1       2.175  -7.172  -2.940  1.00  0.00    -0.203 F 
ATOM     91  C   UNL     1       2.779  -8.672  -4.629  1.00  0.00     0.198 A 
ATOM     92  C   UNL     1       1.823 -10.866  -4.686  1.00  0.00     0.198 A 
ATOM     93  F   UNL     1       0.209 -11.495  -3.094  1.00  0.00    -0.203 F 
ATOM     94  F   UNL     1       3.632  -7.764  -5.127  1.00  0.00    -0.200 F 
ATOM     95  C   UNL     1       2.697  -9.926  -5.209  1.00  0.00     0.200 A 
ATOM     96  F   UNL     1       1.761 -12.092  -5.223  1.00  0.00    -0.200 F 
ATOM     97  F   UNL     1       3.476 -10.240  -6.254  1.00  0.00    -0.200 F 
ENDBRANCH  64  87
ENDBRANCH  38  39
ENDBRANCH  31  33
ENDBRANCH  30  31
ENDBRANCH  29  30
ENDBRANCH  28  29
ENDBRANCH  27  28
ENDBRANCH  26  27
ENDBRANCH   1  26
TORSDOF 19
