REMARK SMILES Cc1cccc(C[N@@H+](C)C[C@]2(C(=O)OCCOCCOCCOC(=O)c3ccc(-c4c5nc(c(-c6c(F)c(F)c(F)c(F)c6F)c6ccc([nH]6)c(-c6c(F)c(F)c(F)c(F)c6F)c6nc(c(-c7c(F)c(F)c(F)c(F)c7F)c7ccc4[nH]7)C=C6)C=C5)cc3)CCC[C@H](C)C2)n1
REMARK SMILES IDX 18 1 17 2 16 3 15 4 14 5 12 6 13 7 11 8 89 9 94 10 90 11
REMARK SMILES IDX 92 12 91 13 93 14 10 15 8 16 9 17 7 19 6 20 1 21 2 22 3 23
REMARK SMILES IDX 95 24 4 25 5 26 19 27 20 28 21 29 22 30 23 31 24 32 25 33
REMARK SMILES IDX 26 34 27 35 88 36 28 37 87 38 29 39 30 40 31 41 81 42 32 43
REMARK SMILES IDX 86 44 80 45 82 46 33 47 85 48 79 49 78 50 34 52 66 53 46 54
REMARK SMILES IDX 65 55 47 56 50 57 64 58 83 59 48 60 49 61 63 63 84 64 51 65
REMARK SMILES IDX 35 66 36 67 44 68 37 69 38 70 42 71 45 72 39 73 40 74 43 75
REMARK SMILES IDX 41 76 67 77 68 78 76 79 69 80 70 81 74 82 77 83 71 84 72 85
REMARK SMILES IDX 75 86 73 87 52 88 53 89 61 90 54 91 55 92 59 93 62 94 56 95
REMARK SMILES IDX 57 96 60 97 58 98
REMARK H PARENT 8 18 82 51 50 62
REMARK Flexibility Score: inf
ROOT
ATOM      1  C   UNL     1       3.261   2.985   4.271  1.00  0.00     0.188 C 
ENDROOT
BRANCH   1   2
ATOM      2  O   UNL     1       3.877   2.407   3.127  1.00  0.00    -0.376 OA
BRANCH   2   3
ATOM      3  C   UNL     1       3.443   2.809   1.834  1.00  0.00     0.202 C 
BRANCH   3   4
ATOM      4  C   UNL     1       2.027   2.404   1.437  1.00  0.00     0.261 C 
BRANCH   4   5
ATOM      5  O   UNL     1       0.952   3.106   2.087  1.00  0.00    -0.463 OA
BRANCH   5   6
ATOM      6  C   UNL     1       0.186   2.360   2.930  1.00  0.00     0.317 C 
ATOM      7  O   UNL     1       0.526   1.260   3.362  1.00  0.00    -0.251 OA
BRANCH   6   8
ATOM      8  C   UNL     1      -1.188   2.990   3.250  1.00  0.00     0.117 C 
ATOM      9  C   UNL     1      -1.772   2.227   4.478  1.00  0.00     0.025 C 
ATOM     10  C   UNL     1      -1.216   4.519   3.531  1.00  0.00     0.028 C 
ATOM     11  C   UNL     1      -1.161   2.675   5.803  1.00  0.00     0.002 C 
ATOM     12  C   UNL     1      -0.892   5.009   4.959  1.00  0.00    -0.013 C 
ATOM     13  C   UNL     1      -1.507   4.132   6.046  1.00  0.00     0.003 C 
ATOM     14  C   UNL     1      -1.342   6.462   5.147  1.00  0.00     0.007 C 
BRANCH   8  15
ATOM     15  C   UNL     1      -2.090   2.645   2.011  1.00  0.00     0.281 C 
BRANCH  15  16
ATOM     16  N   UNL     1      -1.647   3.216   0.723  1.00  0.00    -0.331 N 
ATOM     17  C   UNL     1      -2.295   4.498   0.426  1.00  0.00     0.333 C 
ATOM     18  H   UNL     1      -0.645   3.355   0.851  1.00  0.00     0.348 HD
BRANCH  16  19
ATOM     19  C   UNL     1      -1.844   2.311  -0.437  1.00  0.00     0.319 C 
BRANCH  19  20
ATOM     20  C   UNL     1      -1.183   0.938  -0.354  1.00  0.00     0.095 A 
ATOM     21  C   UNL     1       2.243  -0.447  -0.476  1.00  0.00     0.067 C 
ATOM     22  C   UNL     1       0.745  -0.372  -0.386  1.00  0.00     0.038 A 
ATOM     23  C   UNL     1       0.017  -1.524  -0.120  1.00  0.00     0.023 A 
ATOM     24  N   UNL     1       0.164   0.849  -0.509  1.00  0.00    -0.252 NA
ATOM     25  C   UNL     1      -1.363  -1.429   0.002  1.00  0.00     0.004 A 
ATOM     26  C   UNL     1      -1.973  -0.186  -0.118  1.00  0.00     0.030 A 
ENDBRANCH  19  20
ENDBRANCH  16  19
ENDBRANCH  15  16
ENDBRANCH   8  15
ENDBRANCH   6   8
ENDBRANCH   5   6
ENDBRANCH   4   5
ENDBRANCH   3   4
ENDBRANCH   2   3
ENDBRANCH   1   2
BRANCH   1  27
ATOM     27  C   UNL     1       2.659   4.386   4.155  1.00  0.00     0.188 C 
BRANCH  27  28
ATOM     28  O   UNL     1       3.433   5.250   3.340  1.00  0.00    -0.376 OA
BRANCH  28  29
ATOM     29  C   UNL     1       3.743   6.506   3.917  1.00  0.00     0.202 C 
BRANCH  29  30
ATOM     30  C   UNL     1       4.939   6.362   4.862  1.00  0.00     0.261 C 
BRANCH  30  31
ATOM     31  O   UNL     1       4.649   5.579   6.039  1.00  0.00    -0.460 OA
BRANCH  31  32
ATOM     32  C   UNL     1       3.735   6.114   6.880  1.00  0.00     0.338 C 
ATOM     33  O   UNL     1       3.220   7.213   6.801  1.00  0.00    -0.246 OA
BRANCH  32  34
ATOM     34  C   UNL     1       3.271   5.061   7.808  1.00  0.00     0.060 A 
ATOM     35  C   UNL     1       1.894   4.825   7.893  1.00  0.00     0.016 A 
ATOM     36  C   UNL     1       4.161   4.350   8.614  1.00  0.00     0.016 A 
ATOM     37  C   UNL     1       1.395   3.912   8.819  1.00  0.00     0.010 A 
ATOM     38  C   UNL     1       3.658   3.453   9.564  1.00  0.00     0.010 A 
ATOM     39  C   UNL     1       2.270   3.263   9.698  1.00  0.00    -0.014 A 
BRANCH  39  40
ATOM     40  C   UNL     1       1.707   2.602  10.902  1.00  0.00     0.031 A 
ATOM     41  C   UNL     1       1.652   3.392  12.182  1.00  0.00     0.074 A 
ATOM     42  C   UNL     1       1.181   1.367  10.858  1.00  0.00     0.049 A 
ATOM     43  N   UNL     1       1.229   3.036  13.368  1.00  0.00    -0.248 NA
ATOM     44  C   UNL     1       2.139   4.779  12.106  1.00  0.00     0.031 C 
ATOM     45  C   UNL     1       1.103   0.521   9.671  1.00  0.00     0.029 A 
ATOM     46  N   UNL     1       0.608   0.612  11.852  1.00  0.00    -0.354 N 
ATOM     47  C   UNL     1       1.408   4.149  14.179  1.00  0.00     0.074 A 
ATOM     48  C   UNL     1       2.001   5.182  13.359  1.00  0.00     0.031 C 
ATOM     49  C   UNL     1       0.527  -0.646  10.008  1.00  0.00     0.029 A 
ATOM     50  C   UNL     1       0.226  -0.640  11.440  1.00  0.00     0.049 A 
ATOM     51  H   UNL     1       0.483   0.938  12.773  1.00  0.00     0.167 HD
ATOM     52  C   UNL     1       1.101   4.302  15.489  1.00  0.00     0.037 A 
ATOM     53  C   UNL     1      -0.285  -1.669  12.145  1.00  0.00     0.037 A 
ATOM     54  C   UNL     1       0.514   3.279  16.312  1.00  0.00     0.049 A 
ATOM     55  C   UNL     1      -0.557  -1.502  13.620  1.00  0.00     0.074 A 
ATOM     56  C   UNL     1       0.183   3.332  17.654  1.00  0.00     0.029 A 
ATOM     57  N   UNL     1       0.175   2.010  15.866  1.00  0.00    -0.354 N 
ATOM     58  N   UNL     1      -0.373  -0.454  14.385  1.00  0.00    -0.248 NA
ATOM     59  C   UNL     1      -1.115  -2.665  14.326  1.00  0.00     0.031 C 
ATOM     60  C   UNL     1      -0.316   2.080  18.032  1.00  0.00     0.029 A 
ATOM     61  C   UNL     1      -0.346   1.264  16.912  1.00  0.00     0.049 A 
ATOM     62  H   UNL     1       0.288   1.686  14.943  1.00  0.00     0.167 HD
ATOM     63  C   UNL     1      -0.809  -0.821  15.653  1.00  0.00     0.074 A 
ATOM     64  C   UNL     1      -1.284  -2.185  15.550  1.00  0.00     0.031 C 
ATOM     65  C   UNL     1      -0.817  -0.093  16.798  1.00  0.00     0.037 A 
BRANCH  52  66
ATOM     66  C   UNL     1       1.451   5.620  16.116  1.00  0.00     0.064 A 
ATOM     67  C   UNL     1       0.755   6.797  15.801  1.00  0.00     0.173 A 
ATOM     68  C   UNL     1       2.517   5.709  17.023  1.00  0.00     0.173 A 
ATOM     69  F   UNL     1      -0.257   6.769  14.922  1.00  0.00    -0.203 F 
ATOM     70  C   UNL     1       1.141   8.022  16.341  1.00  0.00     0.198 A 
ATOM     71  C   UNL     1       2.880   6.929  17.585  1.00  0.00     0.198 A 
ATOM     72  F   UNL     1       3.214   4.612  17.357  1.00  0.00    -0.203 F 
ATOM     73  F   UNL     1       0.507   9.144  15.974  1.00  0.00    -0.200 F 
ATOM     74  C   UNL     1       2.200   8.086  17.234  1.00  0.00     0.200 A 
ATOM     75  F   UNL     1       3.898   6.988  18.454  1.00  0.00    -0.200 F 
ATOM     76  F   UNL     1       2.576   9.266  17.746  1.00  0.00    -0.200 F 
ENDBRANCH  52  66
BRANCH  53  77
ATOM     77  C   UNL     1      -0.548  -2.966  11.469  1.00  0.00     0.064 A 
ATOM     78  C   UNL     1      -1.853  -3.435  11.270  1.00  0.00     0.173 A 
ATOM     79  C   UNL     1       0.511  -3.771  11.022  1.00  0.00     0.173 A 
ATOM     80  F   UNL     1      -2.897  -2.717  11.708  1.00  0.00    -0.203 F 
ATOM     81  C   UNL     1      -2.089  -4.666  10.659  1.00  0.00     0.198 A 
ATOM     82  C   UNL     1       0.273  -4.987  10.388  1.00  0.00     0.198 A 
ATOM     83  F   UNL     1       1.779  -3.371  11.198  1.00  0.00    -0.203 F 
ATOM     84  F   UNL     1      -3.344  -5.114  10.521  1.00  0.00    -0.200 F 
ATOM     85  C   UNL     1      -1.026  -5.438  10.213  1.00  0.00     0.200 A 
ATOM     86  F   UNL     1       1.303  -5.726   9.952  1.00  0.00    -0.200 F 
ATOM     87  F   UNL     1      -1.254  -6.619   9.623  1.00  0.00    -0.200 F 
ENDBRANCH  53  77
BRANCH  65  88
ATOM     88  C   UNL     1      -1.387  -0.743  18.028  1.00  0.00     0.064 A 
ATOM     89  C   UNL     1      -0.717  -1.779  18.695  1.00  0.00     0.173 A 
ATOM     90  C   UNL     1      -2.606  -0.299  18.565  1.00  0.00     0.173 A 
ATOM     91  F   UNL     1       0.446  -2.249  18.218  1.00  0.00    -0.203 F 
ATOM     92  C   UNL     1      -1.260  -2.366  19.836  1.00  0.00     0.198 A 
ATOM     93  C   UNL     1      -3.131  -0.868  19.722  1.00  0.00     0.198 A 
ATOM     94  F   UNL     1      -3.284   0.695  17.972  1.00  0.00    -0.203 F 
ATOM     95  F   UNL     1      -0.627  -3.389  20.427  1.00  0.00    -0.200 F 
ATOM     96  C   UNL     1      -2.462  -1.907  20.352  1.00  0.00     0.200 A 
ATOM     97  F   UNL     1      -4.286  -0.412  20.227  1.00  0.00    -0.200 F 
ATOM     98  F   UNL     1      -2.982  -2.471  21.451  1.00  0.00    -0.200 F 
ENDBRANCH  65  88
ENDBRANCH  39  40
ENDBRANCH  32  34
ENDBRANCH  31  32
ENDBRANCH  30  31
ENDBRANCH  29  30
ENDBRANCH  28  29
ENDBRANCH  27  28
ENDBRANCH   1  27
TORSDOF 21
