REMARK SMILES O=C(CC1(NC(=O)c2ccncc2Cl)CCCCC1)OCCOCCOCCOC(=O)c1ccc(-c2c3nc(c(-c4c(F)c(F)c(F)c(F)c4F)c4ccc([nH]4)c(-c4c(F)c(F)c(F)c(F)c4F)c4nc(c(-c5c(F)c(F)c(F)c(F)c5F)c5ccc2[nH]5)C=C4)C=C3)cc1
REMARK SMILES IDX 24 1 23 2 22 3 21 4 20 5 2 6 1 7 3 8 4 9 15 10 19 11 16 12
REMARK SMILES IDX 18 13 17 14 5 15 6 16 7 18 8 19 9 20 13 21 10 22 12 23 14 24
REMARK SMILES IDX 11 25 25 26 26 27 27 28 28 29 29 30 30 31 31 32 32 33 33 34
REMARK SMILES IDX 94 35 34 36 93 37 35 38 36 39 37 40 87 41 38 42 92 43 86 44
REMARK SMILES IDX 88 45 39 46 91 47 85 48 84 49 40 51 72 52 52 53 71 54 53 55
REMARK SMILES IDX 56 56 70 57 89 58 54 59 55 60 69 62 90 63 57 64 41 65 42 66
REMARK SMILES IDX 50 67 43 68 44 69 48 70 51 71 45 72 46 73 49 74 47 75 73 76
REMARK SMILES IDX 74 77 82 78 75 79 76 80 80 81 83 82 77 83 78 84 81 85 79 86
REMARK SMILES IDX 58 87 59 88 67 89 60 90 61 91 65 92 68 93 62 94 63 95 66 96
REMARK SMILES IDX 64 97
REMARK H PARENT 5 17 88 50 56 61
REMARK Flexibility Score: inf
ROOT
ATOM      1  C   UNL     1       2.178   0.753  -2.113  1.00  0.00     0.188 C 
ENDROOT
BRANCH   1   2
ATOM      2  O   UNL     1       3.529   0.617  -1.657  1.00  0.00    -0.376 OA
BRANCH   2   3
ATOM      3  C   UNL     1       4.115  -0.634  -2.010  1.00  0.00     0.202 C 
BRANCH   3   4
ATOM      4  C   UNL     1       4.004  -1.645  -0.875  1.00  0.00     0.261 C 
BRANCH   4   5
ATOM      5  O   UNL     1       2.653  -1.772  -0.385  1.00  0.00    -0.463 OA
BRANCH   5   6
ATOM      6  C   UNL     1       2.186  -1.166   0.734  1.00  0.00     0.308 C 
ATOM      7  O   UNL     1       1.023  -1.339   1.093  1.00  0.00    -0.252 OA
BRANCH   6   8
ATOM      8  C   UNL     1       3.108  -0.264   1.522  1.00  0.00     0.151 C 
BRANCH   8   9
ATOM      9  C   UNL     1       4.066  -0.941   2.543  1.00  0.00     0.051 C 
ATOM     10  C   UNL     1       3.726  -0.450   3.973  1.00  0.00     0.029 C 
ATOM     11  C   UNL     1       3.878  -2.489   2.567  1.00  0.00     0.029 C 
ATOM     12  C   UNL     1       4.625  -1.085   5.035  1.00  0.00     0.002 C 
ATOM     13  C   UNL     1       4.687  -3.204   3.654  1.00  0.00     0.002 C 
ATOM     14  C   UNL     1       4.470  -2.601   5.036  1.00  0.00     0.000 C 
BRANCH   9  15
ATOM     15  N   UNL     1       5.513  -0.651   2.246  1.00  0.00    -0.346 N 
ATOM     16  C   UNL     1       6.260   0.484   2.043  1.00  0.00     0.253 C 
ATOM     17  H   UNL     1       6.053  -1.472   2.181  1.00  0.00     0.164 HD
ATOM     18  O   UNL     1       7.482   0.409   1.961  1.00  0.00    -0.269 OA
BRANCH  16  19
ATOM     19  C   UNL     1       5.620   1.761   1.746  1.00  0.00     0.061 A 
ATOM     20  C   UNL     1       5.475   2.056   0.391  1.00  0.00     0.035 A 
ATOM     21  C   UNL     1       5.175   2.651   2.714  1.00  0.00     0.072 A 
ATOM     22  C   UNL     1       4.720   3.155   0.060  1.00  0.00     0.112 A 
ATOM     23  C   UNL     1       4.408   3.714   2.274  1.00  0.00     0.132 A 
ATOM     24  Cl  UNL     1       5.585   2.541   4.378  1.00  0.00    -0.082 Cl
ATOM     25  N   UNL     1       4.146   3.961   0.971  1.00  0.00    -0.263 NA
ENDBRANCH  16  19
ENDBRANCH   9  15
ENDBRANCH   8   9
ENDBRANCH   6   8
ENDBRANCH   5   6
ENDBRANCH   4   5
ENDBRANCH   3   4
ENDBRANCH   2   3
ENDBRANCH   1   2
BRANCH   1  26
ATOM     26  C   UNL     1       2.026   2.066  -2.874  1.00  0.00     0.188 C 
BRANCH  26  27
ATOM     27  O   UNL     1       2.834   2.114  -4.051  1.00  0.00    -0.376 OA
BRANCH  27  28
ATOM     28  C   UNL     1       4.115   2.730  -3.885  1.00  0.00     0.202 C 
BRANCH  28  29
ATOM     29  C   UNL     1       4.077   4.267  -3.948  1.00  0.00     0.261 C 
BRANCH  29  30
ATOM     30  O   UNL     1       3.712   4.856  -2.678  1.00  0.00    -0.460 OA
BRANCH  30  31
ATOM     31  C   UNL     1       2.452   5.345  -2.579  1.00  0.00     0.338 C 
ATOM     32  O   UNL     1       1.617   5.382  -3.470  1.00  0.00    -0.246 OA
BRANCH  31  33
ATOM     33  C   UNL     1       2.122   5.690  -1.173  1.00  0.00     0.060 A 
ATOM     34  C   UNL     1       0.870   5.295  -0.685  1.00  0.00     0.016 A 
ATOM     35  C   UNL     1       2.977   6.437  -0.358  1.00  0.00     0.016 A 
ATOM     36  C   UNL     1       0.447   5.688   0.588  1.00  0.00     0.010 A 
ATOM     37  C   UNL     1       2.557   6.822   0.928  1.00  0.00     0.010 A 
ATOM     38  C   UNL     1       1.269   6.492   1.391  1.00  0.00    -0.014 A 
BRANCH  38  39
ATOM     39  C   UNL     1       0.676   7.167   2.581  1.00  0.00     0.031 A 
ATOM     40  C   UNL     1       0.221   8.598   2.435  1.00  0.00     0.074 A 
ATOM     41  C   UNL     1       0.454   6.530   3.747  1.00  0.00     0.049 A 
ATOM     42  N   UNL     1      -0.434   9.358   3.279  1.00  0.00    -0.248 NA
ATOM     43  C   UNL     1       0.543   9.259   1.160  1.00  0.00     0.031 C 
ATOM     44  C   UNL     1       0.817   5.148   4.048  1.00  0.00     0.029 A 
ATOM     45  N   UNL     1      -0.143   6.978   4.904  1.00  0.00    -0.354 N 
ATOM     46  C   UNL     1      -0.631  10.565   2.622  1.00  0.00     0.074 A 
ATOM     47  C   UNL     1       0.037  10.467   1.343  1.00  0.00     0.031 C 
ATOM     48  C   UNL     1       0.449   4.864   5.311  1.00  0.00     0.029 A 
ATOM     49  C   UNL     1      -0.185   6.042   5.908  1.00  0.00     0.049 A 
ATOM     50  H   UNL     1      -0.508   7.887   5.003  1.00  0.00     0.167 HD
ATOM     51  C   UNL     1      -1.337  11.650   3.020  1.00  0.00     0.037 A 
ATOM     52  C   UNL     1      -0.684   6.122   7.159  1.00  0.00     0.037 A 
ATOM     53  C   UNL     1      -1.991  11.786   4.292  1.00  0.00     0.049 A 
ATOM     54  C   UNL     1      -1.396   7.375   7.616  1.00  0.00     0.074 A 
ATOM     55  C   UNL     1      -2.723  12.856   4.777  1.00  0.00     0.029 A 
ATOM     56  N   UNL     1      -1.982  10.824   5.289  1.00  0.00    -0.354 N 
ATOM     57  N   UNL     1      -1.640   8.481   6.957  1.00  0.00    -0.248 NA
ATOM     58  C   UNL     1      -1.925   7.375   8.990  1.00  0.00     0.031 C 
ATOM     59  C   UNL     1      -3.120  12.560   6.085  1.00  0.00     0.029 A 
ATOM     60  C   UNL     1      -2.677  11.285   6.396  1.00  0.00     0.049 A 
ATOM     61  H   UNL     1      -1.546   9.944   5.222  1.00  0.00     0.167 HD
ATOM     62  C   UNL     1      -2.379   9.287   7.818  1.00  0.00     0.074 A 
ATOM     63  C   UNL     1      -2.557   8.539   9.042  1.00  0.00     0.031 C 
ATOM     64  C   UNL     1      -2.866  10.535   7.609  1.00  0.00     0.037 A 
BRANCH  51  65
ATOM     65  C   UNL     1      -1.441  12.784   2.046  1.00  0.00     0.064 A 
ATOM     66  C   UNL     1      -2.238  12.681   0.895  1.00  0.00     0.173 A 
ATOM     67  C   UNL     1      -0.754  13.985   2.267  1.00  0.00     0.173 A 
ATOM     68  F   UNL     1      -2.900  11.543   0.632  1.00  0.00    -0.203 F 
ATOM     69  C   UNL     1      -2.322  13.732  -0.013  1.00  0.00     0.198 A 
ATOM     70  C   UNL     1      -0.863  15.045   1.371  1.00  0.00     0.198 A 
ATOM     71  F   UNL     1       0.019  14.132   3.353  1.00  0.00    -0.203 F 
ATOM     72  F   UNL     1      -3.051  13.594  -1.129  1.00  0.00    -0.200 F 
ATOM     73  C   UNL     1      -1.640  14.915   0.229  1.00  0.00     0.200 A 
ATOM     74  F   UNL     1      -0.210  16.191   1.609  1.00  0.00    -0.200 F 
ATOM     75  F   UNL     1      -1.724  15.928  -0.644  1.00  0.00    -0.200 F 
ENDBRANCH  51  65
BRANCH  52  76
ATOM     76  C   UNL     1      -0.548   4.974   8.097  1.00  0.00     0.064 A 
ATOM     77  C   UNL     1      -1.667   4.240   8.517  1.00  0.00     0.173 A 
ATOM     78  C   UNL     1       0.696   4.642   8.653  1.00  0.00     0.173 A 
ATOM     79  F   UNL     1      -2.884   4.542   8.040  1.00  0.00    -0.203 F 
ATOM     80  C   UNL     1      -1.552   3.240   9.482  1.00  0.00     0.198 A 
ATOM     81  C   UNL     1       0.814   3.625   9.598  1.00  0.00     0.198 A 
ATOM     82  F   UNL     1       1.795   5.320   8.291  1.00  0.00    -0.203 F 
ATOM     83  F   UNL     1      -2.647   2.601   9.915  1.00  0.00    -0.200 F 
ATOM     84  C   UNL     1      -0.311   2.933  10.020  1.00  0.00     0.200 A 
ATOM     85  F   UNL     1       2.014   3.328  10.113  1.00  0.00    -0.200 F 
ATOM     86  F   UNL     1      -0.203   1.982  10.958  1.00  0.00    -0.200 F 
ENDBRANCH  52  76
BRANCH  64  87
ATOM     87  C   UNL     1      -3.674  11.164   8.710  1.00  0.00     0.064 A 
ATOM     88  C   UNL     1      -3.083  11.589   9.911  1.00  0.00     0.173 A 
ATOM     89  C   UNL     1      -5.052  11.379   8.549  1.00  0.00     0.173 A 
ATOM     90  F   UNL     1      -1.772  11.399  10.122  1.00  0.00    -0.203 F 
ATOM     91  C   UNL     1      -3.847  12.174  10.918  1.00  0.00     0.198 A 
ATOM     92  C   UNL     1      -5.806  11.992   9.546  1.00  0.00     0.198 A 
ATOM     93  F   UNL     1      -5.667  11.002   7.418  1.00  0.00    -0.203 F 
ATOM     94  F   UNL     1      -3.269  12.524  12.076  1.00  0.00    -0.200 F 
ATOM     95  C   UNL     1      -5.206  12.381  10.733  1.00  0.00     0.200 A 
ATOM     96  F   UNL     1      -7.117  12.204   9.359  1.00  0.00    -0.200 F 
ATOM     97  F   UNL     1      -5.938  12.947  11.703  1.00  0.00    -0.200 F 
ENDBRANCH  64  87
ENDBRANCH  38  39
ENDBRANCH  31  33
ENDBRANCH  30  31
ENDBRANCH  29  30
ENDBRANCH  28  29
ENDBRANCH  27  28
ENDBRANCH  26  27
ENDBRANCH   1  26
TORSDOF 20
