REMARK SMILES C=Cc1cccc(-c2ccc([C@@H](C)C(=O)OCCOCCOCCOC(=O)c3ccc(-c4c5nc(c(-c6c(F)c(F)c(F)c(F)c6F)c6ccc([nH]6)c(-c6c(F)c(F)c(F)c(F)c6F)c6nc(c(-c7c(F)c(F)c(F)c(F)c7F)c7ccc4[nH]7)C=C6)C=C5)cc3)cc2)c1
REMARK SMILES IDX 20 1 19 2 18 3 17 4 16 5 14 6 15 7 12 8 13 9 11 10 8 11 9 12
REMARK SMILES IDX 92 13 10 14 91 15 7 16 3 17 4 18 93 19 5 20 6 21 2 22 1 23
REMARK SMILES IDX 21 24 22 25 23 26 24 27 25 28 26 29 27 30 28 31 29 32 90 33
REMARK SMILES IDX 30 34 89 35 31 36 32 37 33 38 83 39 34 40 88 41 82 42 84 43
REMARK SMILES IDX 35 44 87 45 81 46 80 47 36 49 68 50 48 51 67 52 49 53 52 54
REMARK SMILES IDX 66 55 85 56 50 57 51 58 65 60 86 61 53 62 37 63 38 64 46 65
REMARK SMILES IDX 39 66 40 67 44 68 47 69 41 70 42 71 45 72 43 73 69 74 70 75
REMARK SMILES IDX 78 76 71 77 72 78 76 79 79 80 73 81 74 82 77 83 75 84 54 85
REMARK SMILES IDX 55 86 63 87 56 88 57 89 61 90 64 91 58 92 59 93 62 94 60 95
REMARK H PARENT 84 48 52 59
REMARK Flexibility Score: inf
ROOT
ATOM      1  C   UNL     1      -3.649   5.995  -3.704  1.00  0.00     0.188 C 
ENDROOT
BRANCH   1   2
ATOM      2  O   UNL     1      -4.043   7.290  -3.268  1.00  0.00    -0.376 OA
BRANCH   2   3
ATOM      3  C   UNL     1      -4.992   7.414  -2.215  1.00  0.00     0.202 C 
BRANCH   3   4
ATOM      4  C   UNL     1      -6.372   6.761  -2.401  1.00  0.00     0.261 C 
BRANCH   4   5
ATOM      5  O   UNL     1      -6.363   5.345  -2.693  1.00  0.00    -0.463 OA
BRANCH   5   6
ATOM      6  C   UNL     1      -6.894   4.965  -3.883  1.00  0.00     0.313 C 
ATOM      7  O   UNL     1      -7.402   5.756  -4.676  1.00  0.00    -0.252 OA
BRANCH   6   8
ATOM      8  C   UNL     1      -6.821   3.470  -4.219  1.00  0.00     0.126 C 
ATOM      9  C   UNL     1      -8.242   2.936  -4.387  1.00  0.00     0.025 C 
BRANCH   8  10
ATOM     10  C   UNL     1      -5.981   2.508  -3.380  1.00  0.00    -0.034 A 
ATOM     11  C   UNL     1      -4.324   0.703  -1.897  1.00  0.00    -0.018 A 
ATOM     12  C   UNL     1      -5.314   1.479  -1.271  1.00  0.00     0.009 A 
ATOM     13  C   UNL     1      -4.187   0.831  -3.284  1.00  0.00     0.009 A 
ATOM     14  C   UNL     1      -6.137   2.359  -1.997  1.00  0.00     0.005 A 
ATOM     15  C   UNL     1      -5.005   1.710  -4.014  1.00  0.00     0.005 A 
BRANCH  11  16
ATOM     16  C   UNL     1      -3.498  -0.246  -1.123  1.00  0.00    -0.018 A 
ATOM     17  C   UNL     1      -1.324  -1.051  -0.310  1.00  0.00    -0.026 A 
ATOM     18  C   UNL     1      -1.972  -2.085   0.376  1.00  0.00     0.008 A 
ATOM     19  C   UNL     1      -2.092  -0.146  -1.066  1.00  0.00     0.016 A 
ATOM     20  C   UNL     1      -3.359  -2.204   0.328  1.00  0.00     0.001 A 
ATOM     21  C   UNL     1      -4.111  -1.292  -0.414  1.00  0.00     0.009 A 
BRANCH  17  22
ATOM     22  C   UNL     1       0.143  -0.996  -0.236  1.00  0.00     0.000 C 
ATOM     23  C   UNL     1       0.859   0.133  -0.151  1.00  0.00     0.009 C 
ENDBRANCH  17  22
ENDBRANCH  11  16
ENDBRANCH   8  10
ENDBRANCH   6   8
ENDBRANCH   5   6
ENDBRANCH   4   5
ENDBRANCH   3   4
ENDBRANCH   2   3
ENDBRANCH   1   2
BRANCH   1  24
ATOM     24  C   UNL     1      -3.542   4.851  -2.686  1.00  0.00     0.188 C 
BRANCH  24  25
ATOM     25  O   UNL     1      -3.563   5.269  -1.339  1.00  0.00    -0.376 OA
BRANCH  25  26
ATOM     26  C   UNL     1      -2.489   4.836  -0.528  1.00  0.00     0.202 C 
BRANCH  26  27
ATOM     27  C   UNL     1      -1.146   5.495  -0.868  1.00  0.00     0.261 C 
BRANCH  27  28
ATOM     28  O   UNL     1      -0.753   5.430  -2.253  1.00  0.00    -0.460 OA
BRANCH  28  29
ATOM     29  C   UNL     1      -0.356   4.225  -2.727  1.00  0.00     0.338 C 
ATOM     30  O   UNL     1      -0.266   3.185  -2.106  1.00  0.00    -0.246 OA
BRANCH  29  31
ATOM     31  C   UNL     1      -0.240   4.339  -4.202  1.00  0.00     0.060 A 
ATOM     32  C   UNL     1      -1.029   3.516  -5.019  1.00  0.00     0.016 A 
ATOM     33  C   UNL     1       0.642   5.257  -4.774  1.00  0.00     0.016 A 
ATOM     34  C   UNL     1      -0.915   3.591  -6.412  1.00  0.00     0.010 A 
ATOM     35  C   UNL     1       0.769   5.317  -6.165  1.00  0.00     0.010 A 
ATOM     36  C   UNL     1       0.015   4.464  -6.992  1.00  0.00    -0.014 A 
BRANCH  36  37
ATOM     37  C   UNL     1       0.345   4.366  -8.438  1.00  0.00     0.031 A 
ATOM     38  C   UNL     1       1.582   3.608  -8.839  1.00  0.00     0.074 A 
ATOM     39  C   UNL     1      -0.419   4.943  -9.382  1.00  0.00     0.049 A 
ATOM     40  N   UNL     1       2.134   3.470 -10.018  1.00  0.00    -0.248 NA
ATOM     41  C   UNL     1       2.297   2.917  -7.754  1.00  0.00     0.031 C 
ATOM     42  C   UNL     1      -1.664   5.667  -9.138  1.00  0.00     0.029 A 
ATOM     43  N   UNL     1      -0.244   5.022 -10.743  1.00  0.00    -0.354 N 
ATOM     44  C   UNL     1       3.264   2.688  -9.815  1.00  0.00     0.074 A 
ATOM     45  C   UNL     1       3.337   2.408  -8.397  1.00  0.00     0.031 C 
ATOM     46  C   UNL     1      -2.133   6.131 -10.310  1.00  0.00     0.029 A 
ATOM     47  C   UNL     1      -1.202   5.771 -11.380  1.00  0.00     0.049 A 
ATOM     48  H   UNL     1       0.499   4.582 -11.217  1.00  0.00     0.167 HD
ATOM     49  C   UNL     1       4.157   2.236 -10.728  1.00  0.00     0.037 A 
ATOM     50  C   UNL     1      -1.298   6.147 -12.671  1.00  0.00     0.037 A 
ATOM     51  C   UNL     1       4.089   2.519 -12.138  1.00  0.00     0.049 A 
ATOM     52  C   UNL     1      -0.242   5.708 -13.656  1.00  0.00     0.074 A 
ATOM     53  C   UNL     1       4.939   2.096 -13.145  1.00  0.00     0.029 A 
ATOM     54  N   UNL     1       3.120   3.308 -12.739  1.00  0.00    -0.354 N 
ATOM     55  N   UNL     1       0.811   4.951 -13.463  1.00  0.00    -0.248 NA
ATOM     56  C   UNL     1      -0.390   6.178 -15.042  1.00  0.00     0.031 C 
ATOM     57  C   UNL     1       4.520   2.678 -14.345  1.00  0.00     0.029 A 
ATOM     58  C   UNL     1       3.368   3.407 -14.099  1.00  0.00     0.049 A 
ATOM     59  H   UNL     1       2.367   3.734 -12.269  1.00  0.00     0.167 HD
ATOM     60  C   UNL     1       1.427   4.824 -14.704  1.00  0.00     0.074 A 
ATOM     61  C   UNL     1       0.624   5.574 -15.646  1.00  0.00     0.031 C 
ATOM     62  C   UNL     1       2.554   4.145 -15.033  1.00  0.00     0.037 A 
BRANCH  49  63
ATOM     63  C   UNL     1       5.306   1.411 -10.222  1.00  0.00     0.064 A 
ATOM     64  C   UNL     1       5.120   0.114  -9.719  1.00  0.00     0.173 A 
ATOM     65  C   UNL     1       6.614   1.916 -10.264  1.00  0.00     0.173 A 
ATOM     66  F   UNL     1       3.888  -0.412  -9.644  1.00  0.00    -0.203 F 
ATOM     67  C   UNL     1       6.197  -0.633  -9.248  1.00  0.00     0.198 A 
ATOM     68  C   UNL     1       7.693   1.154  -9.824  1.00  0.00     0.198 A 
ATOM     69  F   UNL     1       6.849   3.149 -10.739  1.00  0.00    -0.203 F 
ATOM     70  F   UNL     1       5.989  -1.847  -8.721  1.00  0.00    -0.200 F 
ATOM     71  C   UNL     1       7.483  -0.116  -9.308  1.00  0.00     0.200 A 
ATOM     72  F   UNL     1       8.936   1.650  -9.896  1.00  0.00    -0.200 F 
ATOM     73  F   UNL     1       8.519  -0.838  -8.860  1.00  0.00    -0.200 F 
ENDBRANCH  49  63
BRANCH  50  74
ATOM     74  C   UNL     1      -2.432   7.002 -13.119  1.00  0.00     0.064 A 
ATOM     75  C   UNL     1      -3.401   6.511 -14.005  1.00  0.00     0.173 A 
ATOM     76  C   UNL     1      -2.551   8.336 -12.700  1.00  0.00     0.173 A 
ATOM     77  F   UNL     1      -3.314   5.252 -14.461  1.00  0.00    -0.203 F 
ATOM     78  C   UNL     1      -4.432   7.325 -14.470  1.00  0.00     0.198 A 
ATOM     79  C   UNL     1      -3.600   9.140 -13.141  1.00  0.00     0.198 A 
ATOM     80  F   UNL     1      -1.645   8.860 -11.861  1.00  0.00    -0.203 F 
ATOM     81  F   UNL     1      -5.312   6.845 -15.361  1.00  0.00    -0.200 F 
ATOM     82  C   UNL     1      -4.535   8.636 -14.033  1.00  0.00     0.200 A 
ATOM     83  F   UNL     1      -3.700  10.404 -12.710  1.00  0.00    -0.200 F 
ATOM     84  F   UNL     1      -5.526   9.419 -14.481  1.00  0.00    -0.200 F 
ENDBRANCH  50  74
BRANCH  62  85
ATOM     85  C   UNL     1       2.965   4.133 -16.480  1.00  0.00     0.064 A 
ATOM     86  C   UNL     1       3.461   5.277 -17.121  1.00  0.00     0.173 A 
ATOM     87  C   UNL     1       2.902   2.942 -17.222  1.00  0.00     0.173 A 
ATOM     88  F   UNL     1       3.532   6.444 -16.463  1.00  0.00    -0.203 F 
ATOM     89  C   UNL     1       3.852   5.237 -18.458  1.00  0.00     0.198 A 
ATOM     90  C   UNL     1       3.326   2.897 -18.547  1.00  0.00     0.198 A 
ATOM     91  F   UNL     1       2.444   1.815 -16.656  1.00  0.00    -0.203 F 
ATOM     92  F   UNL     1       4.275   6.355 -19.064  1.00  0.00    -0.200 F 
ATOM     93  C   UNL     1       3.792   4.046 -19.167  1.00  0.00     0.200 A 
ATOM     94  F   UNL     1       3.284   1.741 -19.224  1.00  0.00    -0.200 F 
ATOM     95  F   UNL     1       4.178   4.008 -20.450  1.00  0.00    -0.200 F 
ENDBRANCH  62  85
ENDBRANCH  36  37
ENDBRANCH  29  31
ENDBRANCH  28  29
ENDBRANCH  27  28
ENDBRANCH  26  27
ENDBRANCH  25  26
ENDBRANCH  24  25
ENDBRANCH   1  24
TORSDOF 20
