REMARK SMILES CCc1ccsc1CNC(=O)N1[C@@H]2CC[C@H]1[C@H](C(=O)OCCOCCOCCOC(=O)c1ccc(-c3c4nc(c(-c5c(F)c(F)c(F)c(F)c5F)c5ccc([nH]5)c(-c5c(F)c(F)c(F)c(F)c5F)c5nc(c(-c6c(F)c(F)c(F)c(F)c6F)c6ccc3[nH]6)C=C5)C=C4)cc1)C2
REMARK SMILES IDX 24 1 23 2 22 3 21 4 20 5 18 6 19 7 17 8 12 9 13 10 16 11
REMARK SMILES IDX 14 12 95 13 15 14 10 15 9 16 11 18 8 19 7 20 3 21 4 22 5 23
REMARK SMILES IDX 6 24 2 25 1 26 25 27 26 28 27 29 28 30 29 31 30 32 31 33
REMARK SMILES IDX 32 34 33 35 94 36 34 37 93 38 35 39 36 40 37 41 87 42 38 43
REMARK SMILES IDX 92 44 86 45 88 46 39 47 91 48 85 49 84 50 40 52 72 53 52 54
REMARK SMILES IDX 71 55 53 56 56 57 70 58 89 59 54 60 55 61 69 63 90 64 57 65
REMARK SMILES IDX 41 66 42 67 50 68 43 69 44 70 48 71 51 72 45 73 46 74 49 75
REMARK SMILES IDX 47 76 73 77 74 78 82 79 75 80 76 81 80 82 83 83 77 84 78 85
REMARK SMILES IDX 81 86 79 87 58 88 59 89 67 90 60 91 61 92 65 93 68 94 62 95
REMARK SMILES IDX 63 96 66 97 64 98
REMARK H PARENT 9 17 88 51 56 62
REMARK Flexibility Score: inf
ROOT
ATOM      1  C   UNL     1       5.559  -1.720  -0.489  1.00  0.00     0.188 C 
ENDROOT
BRANCH   1   2
ATOM      2  O   UNL     1       4.669  -2.468  -1.303  1.00  0.00    -0.376 OA
BRANCH   2   3
ATOM      3  C   UNL     1       3.654  -3.257  -0.674  1.00  0.00     0.202 C 
BRANCH   3   4
ATOM      4  C   UNL     1       3.959  -3.875   0.688  1.00  0.00     0.261 C 
BRANCH   4   5
ATOM      5  O   UNL     1       4.088  -2.861   1.708  1.00  0.00    -0.463 OA
BRANCH   5   6
ATOM      6  C   UNL     1       4.906  -3.227   2.729  1.00  0.00     0.311 C 
ATOM      7  O   UNL     1       5.401  -4.346   2.835  1.00  0.00    -0.252 OA
BRANCH   6   8
ATOM      8  C   UNL     1       5.318  -2.089   3.638  1.00  0.00     0.124 C 
ATOM      9  N   UNL     1       3.504  -1.261   4.829  1.00  0.00    -0.318 N 
ATOM     10  C   UNL     1       4.495  -1.571   5.842  1.00  0.00     0.088 C 
ATOM     11  C   UNL     1       4.388  -0.867   3.749  1.00  0.00     0.101 C 
ATOM     12  C   UNL     1       5.285  -0.255   5.911  1.00  0.00     0.027 C 
ATOM     13  C   UNL     1       5.352  -2.604   5.101  1.00  0.00     0.042 C 
ATOM     14  C   UNL     1       5.182   0.261   4.460  1.00  0.00     0.028 C 
BRANCH   9  15
ATOM     15  C   UNL     1       2.193  -1.115   5.111  1.00  0.00     0.318 C 
ATOM     16  N   UNL     1       1.263  -0.905   4.165  1.00  0.00    -0.333 N 
ATOM     17  H   UNL     1       0.384  -0.668   4.540  1.00  0.00     0.165 HD
ATOM     18  O   UNL     1       1.782  -1.189   6.273  1.00  0.00    -0.249 OA
BRANCH  16  19
ATOM     19  C   UNL     1       1.263  -0.950   2.721  1.00  0.00     0.165 C 
BRANCH  19  20
ATOM     20  C   UNL     1       0.570  -2.170   2.164  1.00  0.00     0.027 A 
ATOM     21  C   UNL     1      -0.157  -2.331   0.980  1.00  0.00    -0.033 A 
ATOM     22  C   UNL     1      -0.459  -3.724   0.760  1.00  0.00     0.016 A 
ATOM     23  C   UNL     1      -0.011  -4.548   1.761  1.00  0.00     0.065 A 
ATOM     24  S   UNL     1       0.772  -3.677   2.987  1.00  0.00    -0.147 S 
BRANCH  21  25
ATOM     25  C   UNL     1      -0.549  -1.309  -0.064  1.00  0.00     0.033 C 
ATOM     26  C   UNL     1      -1.094   0.017   0.432  1.00  0.00     0.009 C 
ENDBRANCH  21  25
ENDBRANCH  19  20
ENDBRANCH  16  19
ENDBRANCH   9  15
ENDBRANCH   6   8
ENDBRANCH   5   6
ENDBRANCH   4   5
ENDBRANCH   3   4
ENDBRANCH   2   3
ENDBRANCH   1   2
BRANCH   1  27
ATOM     27  C   UNL     1       5.178  -0.258  -0.253  1.00  0.00     0.188 C 
BRANCH  27  28
ATOM     28  O   UNL     1       3.940   0.057   0.377  1.00  0.00    -0.376 OA
BRANCH  28  29
ATOM     29  C   UNL     1       2.797   0.069  -0.474  1.00  0.00     0.202 C 
BRANCH  29  30
ATOM     30  C   UNL     1       2.495   1.316  -1.317  1.00  0.00     0.261 C 
BRANCH  30  31
ATOM     31  O   UNL     1       3.669   1.884  -1.881  1.00  0.00    -0.460 OA
BRANCH  31  32
ATOM     32  C   UNL     1       4.240   2.839  -1.109  1.00  0.00     0.338 C 
ATOM     33  O   UNL     1       3.730   3.459  -0.192  1.00  0.00    -0.246 OA
BRANCH  32  34
ATOM     34  C   UNL     1       5.689   2.793  -1.382  1.00  0.00     0.060 A 
ATOM     35  C   UNL     1       6.551   2.821  -0.278  1.00  0.00     0.016 A 
ATOM     36  C   UNL     1       6.178   2.543  -2.670  1.00  0.00     0.016 A 
ATOM     37  C   UNL     1       7.911   2.599  -0.459  1.00  0.00     0.010 A 
ATOM     38  C   UNL     1       7.540   2.332  -2.853  1.00  0.00     0.010 A 
ATOM     39  C   UNL     1       8.409   2.385  -1.752  1.00  0.00    -0.014 A 
BRANCH  39  40
ATOM     40  C   UNL     1       9.857   2.498  -2.000  1.00  0.00     0.031 A 
ATOM     41  C   UNL     1      10.377   3.865  -2.333  1.00  0.00     0.074 A 
ATOM     42  C   UNL     1      10.666   1.427  -1.956  1.00  0.00     0.049 A 
ATOM     43  N   UNL     1      11.584   4.240  -2.660  1.00  0.00    -0.248 NA
ATOM     44  C   UNL     1       9.390   4.959  -2.304  1.00  0.00     0.031 C 
ATOM     45  C   UNL     1      10.257   0.065  -1.624  1.00  0.00     0.029 A 
ATOM     46  N   UNL     1      12.009   1.325  -2.213  1.00  0.00    -0.354 N 
ATOM     47  C   UNL     1      11.498   5.609  -2.871  1.00  0.00     0.074 A 
ATOM     48  C   UNL     1      10.122   5.996  -2.673  1.00  0.00     0.031 C 
ATOM     49  C   UNL     1      11.328  -0.745  -1.713  1.00  0.00     0.029 A 
ATOM     50  C   UNL     1      12.487   0.041  -2.134  1.00  0.00     0.049 A 
ATOM     51  H   UNL     1      12.576   2.099  -2.433  1.00  0.00     0.167 HD
ATOM     52  C   UNL     1      12.488   6.469  -3.197  1.00  0.00     0.037 A 
ATOM     53  C   UNL     1      13.721  -0.432  -2.395  1.00  0.00     0.037 A 
ATOM     54  C   UNL     1      13.847   6.067  -3.421  1.00  0.00     0.049 A 
ATOM     55  C   UNL     1      14.795   0.539  -2.824  1.00  0.00     0.074 A 
ATOM     56  C   UNL     1      14.935   6.847  -3.760  1.00  0.00     0.029 A 
ATOM     57  N   UNL     1      14.296   4.756  -3.339  1.00  0.00    -0.354 N 
ATOM     58  N   UNL     1      14.721   1.839  -2.986  1.00  0.00    -0.248 NA
ATOM     59  C   UNL     1      16.123  -0.023  -3.106  1.00  0.00     0.031 C 
ATOM     60  C   UNL     1      16.036   6.000  -3.928  1.00  0.00     0.029 A 
ATOM     61  C   UNL     1      15.644   4.701  -3.642  1.00  0.00     0.049 A 
ATOM     62  H   UNL     1      13.738   3.981  -3.100  1.00  0.00     0.167 HD
ATOM     63  C   UNL     1      15.994   2.254  -3.357  1.00  0.00     0.074 A 
ATOM     64  C   UNL     1      16.823   1.067  -3.387  1.00  0.00     0.031 C 
ATOM     65  C   UNL     1      16.441   3.501  -3.648  1.00  0.00     0.037 A 
BRANCH  52  66
ATOM     66  C   UNL     1      12.112   7.910  -3.360  1.00  0.00     0.064 A 
ATOM     67  C   UNL     1      11.758   8.706  -2.259  1.00  0.00     0.173 A 
ATOM     68  C   UNL     1      12.083   8.497  -4.633  1.00  0.00     0.173 A 
ATOM     69  F   UNL     1      11.741   8.180  -1.024  1.00  0.00    -0.203 F 
ATOM     70  C   UNL     1      11.364  10.029  -2.431  1.00  0.00     0.198 A 
ATOM     71  C   UNL     1      11.715   9.829  -4.797  1.00  0.00     0.198 A 
ATOM     72  F   UNL     1      12.400   7.775  -5.718  1.00  0.00    -0.203 F 
ATOM     73  F   UNL     1      10.974  10.753  -1.372  1.00  0.00    -0.200 F 
ATOM     74  C   UNL     1      11.348  10.591  -3.698  1.00  0.00     0.200 A 
ATOM     75  F   UNL     1      11.702  10.372  -6.022  1.00  0.00    -0.200 F 
ATOM     76  F   UNL     1      10.966  11.865  -3.862  1.00  0.00    -0.200 F 
ENDBRANCH  52  66
BRANCH  53  77
ATOM     77  C   UNL     1      14.013  -1.884  -2.267  1.00  0.00     0.064 A 
ATOM     78  C   UNL     1      14.870  -2.363  -1.265  1.00  0.00     0.173 A 
ATOM     79  C   UNL     1      13.466  -2.820  -3.157  1.00  0.00     0.173 A 
ATOM     80  F   UNL     1      15.438  -1.506  -0.405  1.00  0.00    -0.203 F 
ATOM     81  C   UNL     1      15.184  -3.718  -1.172  1.00  0.00     0.198 A 
ATOM     82  C   UNL     1      13.761  -4.178  -3.047  1.00  0.00     0.198 A 
ATOM     83  F   UNL     1      12.643  -2.415  -4.135  1.00  0.00    -0.203 F 
ATOM     84  F   UNL     1      16.044  -4.141  -0.235  1.00  0.00    -0.200 F 
ATOM     85  C   UNL     1      14.626  -4.625  -2.060  1.00  0.00     0.200 A 
ATOM     86  F   UNL     1      13.212  -5.052  -3.901  1.00  0.00    -0.200 F 
ATOM     87  F   UNL     1      14.930  -5.927  -1.971  1.00  0.00    -0.200 F 
ENDBRANCH  53  77
BRANCH  65  88
ATOM     88  C   UNL     1      17.896   3.650  -3.981  1.00  0.00     0.064 A 
ATOM     89  C   UNL     1      18.418   3.220  -5.208  1.00  0.00     0.173 A 
ATOM     90  C   UNL     1      18.762   4.293  -3.083  1.00  0.00     0.173 A 
ATOM     91  F   UNL     1      17.630   2.591  -6.094  1.00  0.00    -0.203 F 
ATOM     92  C   UNL     1      19.762   3.410  -5.517  1.00  0.00     0.198 A 
ATOM     93  C   UNL     1      20.098   4.507  -3.408  1.00  0.00     0.198 A 
ATOM     94  F   UNL     1      18.307   4.732  -1.900  1.00  0.00    -0.203 F 
ATOM     95  F   UNL     1      20.250   2.955  -6.680  1.00  0.00    -0.200 F 
ATOM     96  C   UNL     1      20.598   4.060  -4.621  1.00  0.00     0.200 A 
ATOM     97  F   UNL     1      20.900   5.150  -2.548  1.00  0.00    -0.200 F 
ATOM     98  F   UNL     1      21.888   4.253  -4.926  1.00  0.00    -0.200 F 
ENDBRANCH  65  88
ENDBRANCH  39  40
ENDBRANCH  32  34
ENDBRANCH  31  32
ENDBRANCH  30  31
ENDBRANCH  29  30
ENDBRANCH  28  29
ENDBRANCH  27  28
ENDBRANCH   1  27
TORSDOF 21
