REMARK SMILES O=C(C[C@@H](NC(=O)C1CC=CC1)C1CC1)OCCOCCOCCOC(=O)c1ccc(-c2c3nc(c(-c4c(F)c(F)c(F)c(F)c4F)c4ccc([nH]4)c(-c4c(F)c(F)c(F)c(F)c4F)c4nc(c(-c5c(F)c(F)c(F)c(F)c5F)c5ccc2[nH]5)C=C4)C=C3)cc1
REMARK SMILES IDX 20 1 19 2 18 3 17 4 16 5 2 6 1 7 3 8 4 9 5 10 6 11 7 13 8 14
REMARK SMILES IDX 9 15 12 16 10 17 11 18 13 19 14 20 15 21 21 22 22 23 23 24
REMARK SMILES IDX 24 25 25 26 26 27 27 28 28 29 29 30 90 31 30 32 89 33 31 34
REMARK SMILES IDX 32 35 33 36 83 37 34 38 88 39 82 40 84 41 35 42 87 43 81 44
REMARK SMILES IDX 80 45 36 47 68 48 48 49 67 50 49 51 52 52 66 53 85 54 50 55
REMARK SMILES IDX 51 56 65 58 86 59 53 60 37 61 38 62 46 63 39 64 40 65 44 66
REMARK SMILES IDX 47 67 41 68 42 69 45 70 43 71 69 72 70 73 78 74 71 75 72 76
REMARK SMILES IDX 76 77 79 78 73 79 74 80 77 81 75 82 54 83 55 84 63 85 56 86
REMARK SMILES IDX 57 87 61 88 64 89 58 90 59 91 62 92 60 93
REMARK H PARENT 5 12 84 46 52 57
REMARK Flexibility Score: inf
ROOT
ATOM      1  C   UNL     1       2.438   1.342   1.393  1.00  0.00     0.188 C 
ENDROOT
BRANCH   1   2
ATOM      2  O   UNL     1       3.803   1.030   1.612  1.00  0.00    -0.376 OA
BRANCH   2   3
ATOM      3  C   UNL     1       4.666   0.777   0.503  1.00  0.00     0.202 C 
BRANCH   3   4
ATOM      4  C   UNL     1       4.198   1.037  -0.927  1.00  0.00     0.261 C 
BRANCH   4   5
ATOM      5  O   UNL     1       3.062   0.309  -1.475  1.00  0.00    -0.463 OA
BRANCH   5   6
ATOM      6  C   UNL     1       2.441  -0.836  -1.155  1.00  0.00     0.307 C 
ATOM      7  O   UNL     1       1.320  -1.058  -1.614  1.00  0.00    -0.252 OA
BRANCH   6   8
ATOM      8  C   UNL     1       3.116  -1.879  -0.318  1.00  0.00     0.147 C 
BRANCH   8   9
ATOM      9  C   UNL     1       4.029  -2.745  -1.180  1.00  0.00     0.096 C 
BRANCH   9  10
ATOM     10  N   UNL     1       5.278  -2.079  -1.562  1.00  0.00    -0.352 N 
ATOM     11  C   UNL     1       6.457  -1.714  -1.025  1.00  0.00     0.223 C 
ATOM     12  H   UNL     1       5.244  -1.816  -2.510  1.00  0.00     0.163 HD
ATOM     13  O   UNL     1       7.007  -0.773  -1.622  1.00  0.00    -0.275 OA
BRANCH  11  14
ATOM     14  C   UNL     1       7.237  -2.368   0.102  1.00  0.00     0.086 C 
ATOM     15  C   UNL     1       6.556  -2.879   1.364  1.00  0.00     0.040 C 
ATOM     16  C   UNL     1       8.081  -3.517  -0.465  1.00  0.00     0.040 C 
ATOM     17  C   UNL     1       6.868  -4.343   1.365  1.00  0.00    -0.030 C 
ATOM     18  C   UNL     1       7.695  -4.686   0.373  1.00  0.00    -0.030 C 
ENDBRANCH  11  14
ENDBRANCH   9  10
BRANCH   9  19
ATOM     19  C   UNL     1       4.192  -4.123  -0.617  1.00  0.00     0.012 C 
ATOM     20  C   UNL     1       3.230  -5.214  -1.028  1.00  0.00     0.006 C 
ATOM     21  C   UNL     1       4.663  -5.266  -1.475  1.00  0.00     0.006 C 
ENDBRANCH   9  19
ENDBRANCH   8   9
ENDBRANCH   6   8
ENDBRANCH   5   6
ENDBRANCH   4   5
ENDBRANCH   3   4
ENDBRANCH   2   3
ENDBRANCH   1   2
BRANCH   1  22
ATOM     22  C   UNL     1       2.011   2.734   1.870  1.00  0.00     0.188 C 
BRANCH  22  23
ATOM     23  O   UNL     1       2.857   3.819   1.515  1.00  0.00    -0.376 OA
BRANCH  23  24
ATOM     24  C   UNL     1       4.145   3.886   2.131  1.00  0.00     0.202 C 
BRANCH  24  25
ATOM     25  C   UNL     1       4.223   3.774   3.662  1.00  0.00     0.261 C 
BRANCH  25  26
ATOM     26  O   UNL     1       3.924   2.446   4.148  1.00  0.00    -0.460 OA
BRANCH  26  27
ATOM     27  C   UNL     1       2.955   2.385   5.088  1.00  0.00     0.338 C 
ATOM     28  O   UNL     1       2.357   3.323   5.598  1.00  0.00    -0.246 OA
BRANCH  27  29
ATOM     29  C   UNL     1       2.562   0.994   5.375  1.00  0.00     0.060 A 
ATOM     30  C   UNL     1       1.246   0.613   5.080  1.00  0.00     0.016 A 
ATOM     31  C   UNL     1       3.382   0.170   6.147  1.00  0.00     0.016 A 
ATOM     32  C   UNL     1       0.716  -0.552   5.633  1.00  0.00     0.010 A 
ATOM     33  C   UNL     1       2.845  -0.996   6.710  1.00  0.00     0.010 A 
ATOM     34  C   UNL     1       1.491  -1.323   6.509  1.00  0.00    -0.014 A 
BRANCH  34  35
ATOM     35  C   UNL     1       0.805  -2.291   7.405  1.00  0.00     0.031 A 
ATOM     36  C   UNL     1       0.378  -1.821   8.774  1.00  0.00     0.074 A 
ATOM     37  C   UNL     1       0.503  -3.537   7.003  1.00  0.00     0.049 A 
ATOM     38  N   UNL     1      -0.272  -2.463   9.713  1.00  0.00    -0.248 NA
ATOM     39  C   UNL     1       0.730  -0.436   9.129  1.00  0.00     0.031 C 
ATOM     40  C   UNL     1       0.820  -4.105   5.697  1.00  0.00     0.029 A 
ATOM     41  N   UNL     1      -0.148  -4.549   7.665  1.00  0.00    -0.354 N 
ATOM     42  C   UNL     1      -0.404  -1.564  10.763  1.00  0.00     0.074 A 
ATOM     43  C   UNL     1       0.259  -0.342  10.363  1.00  0.00     0.031 C 
ATOM     44  C   UNL     1       0.364  -5.369   5.651  1.00  0.00     0.029 A 
ATOM     45  C   UNL     1      -0.263  -5.703   6.930  1.00  0.00     0.049 A 
ATOM     46  H   UNL     1      -0.499  -4.456   8.580  1.00  0.00     0.167 HD
ATOM     47  C   UNL     1      -1.031  -1.732  11.952  1.00  0.00     0.037 A 
ATOM     48  C   UNL     1      -0.810  -6.890   7.258  1.00  0.00     0.037 A 
ATOM     49  C   UNL     1      -1.697  -2.939  12.359  1.00  0.00     0.049 A 
ATOM     50  C   UNL     1      -1.457  -7.069   8.608  1.00  0.00     0.074 A 
ATOM     51  C   UNL     1      -2.370  -3.200  13.540  1.00  0.00     0.029 A 
ATOM     52  N   UNL     1      -1.769  -4.093  11.594  1.00  0.00    -0.354 N 
ATOM     53  N   UNL     1      -1.608  -6.202   9.579  1.00  0.00    -0.248 NA
ATOM     54  C   UNL     1      -2.023  -8.396   8.899  1.00  0.00     0.031 C 
ATOM     55  C   UNL     1      -2.816  -4.526  13.506  1.00  0.00     0.029 A 
ATOM     56  C   UNL     1      -2.460  -5.075  12.285  1.00  0.00     0.049 A 
ATOM     57  H   UNL     1      -1.386  -4.199  10.693  1.00  0.00     0.167 HD
ATOM     58  C   UNL     1      -2.319  -6.862  10.575  1.00  0.00     0.074 A 
ATOM     59  C   UNL     1      -2.573  -8.201  10.090  1.00  0.00     0.031 C 
ATOM     60  C   UNL     1      -2.728  -6.397  11.781  1.00  0.00     0.037 A 
BRANCH  47  61
ATOM     61  C   UNL     1      -1.004  -0.579  12.912  1.00  0.00     0.064 A 
ATOM     62  C   UNL     1      -1.778   0.572  12.701  1.00  0.00     0.173 A 
ATOM     63  C   UNL     1      -0.211  -0.637  14.068  1.00  0.00     0.173 A 
ATOM     64  F   UNL     1      -2.541   0.680  11.603  1.00  0.00    -0.203 F 
ATOM     65  C   UNL     1      -1.740   1.634  13.601  1.00  0.00     0.198 A 
ATOM     66  C   UNL     1      -0.195   0.416  14.978  1.00  0.00     0.198 A 
ATOM     67  F   UNL     1       0.545  -1.717  14.316  1.00  0.00    -0.203 F 
ATOM     68  F   UNL     1      -2.453   2.742  13.358  1.00  0.00    -0.200 F 
ATOM     69  C   UNL     1      -0.953   1.553  14.741  1.00  0.00     0.200 A 
ATOM     70  F   UNL     1       0.558   0.332  16.083  1.00  0.00    -0.200 F 
ATOM     71  F   UNL     1      -0.919   2.574  15.607  1.00  0.00    -0.200 F 
ENDBRANCH  47  61
BRANCH  48  72
ATOM     72  C   UNL     1      -0.787  -8.012   6.284  1.00  0.00     0.064 A 
ATOM     73  C   UNL     1      -1.966  -8.466   5.676  1.00  0.00     0.173 A 
ATOM     74  C   UNL     1       0.408  -8.675   5.970  1.00  0.00     0.173 A 
ATOM     75  F   UNL     1      -3.137  -7.880   5.968  1.00  0.00    -0.203 F 
ATOM     76  C   UNL     1      -1.954  -9.553   4.806  1.00  0.00     0.198 A 
ATOM     77  C   UNL     1       0.422  -9.747   5.080  1.00  0.00     0.198 A 
ATOM     78  F   UNL     1       1.562  -8.282   6.528  1.00  0.00    -0.203 F 
ATOM     79  F   UNL     1      -3.102  -9.998   4.276  1.00  0.00    -0.200 F 
ATOM     80  C   UNL     1      -0.759 -10.191   4.505  1.00  0.00     0.200 A 
ATOM     81  F   UNL     1       1.579 -10.355   4.785  1.00  0.00    -0.200 F 
ATOM     82  F   UNL     1      -0.748 -11.238   3.670  1.00  0.00    -0.200 F 
ENDBRANCH  48  72
BRANCH  60  83
ATOM     83  C   UNL     1      -3.544  -7.320  12.639  1.00  0.00     0.064 A 
ATOM     84  C   UNL     1      -2.973  -8.421  13.293  1.00  0.00     0.173 A 
ATOM     85  C   UNL     1      -4.912  -7.074  12.838  1.00  0.00     0.173 A 
ATOM     86  F   UNL     1      -1.672  -8.705  13.125  1.00  0.00    -0.203 F 
ATOM     87  C   UNL     1      -3.747  -9.258  14.092  1.00  0.00     0.198 A 
ATOM     88  C   UNL     1      -5.676  -7.898  13.659  1.00  0.00     0.198 A 
ATOM     89  F   UNL     1      -5.505  -6.029  12.241  1.00  0.00    -0.203 F 
ATOM     90  F   UNL     1      -3.190 -10.332  14.670  1.00  0.00    -0.200 F 
ATOM     91  C   UNL     1      -5.095  -8.993  14.279  1.00  0.00     0.200 A 
ATOM     92  F   UNL     1      -6.976  -7.633  13.848  1.00  0.00    -0.200 F 
ATOM     93  F   UNL     1      -5.837  -9.799  15.052  1.00  0.00    -0.200 F 
ENDBRANCH  60  83
ENDBRANCH  34  35
ENDBRANCH  27  29
ENDBRANCH  26  27
ENDBRANCH  25  26
ENDBRANCH  24  25
ENDBRANCH  23  24
ENDBRANCH  22  23
ENDBRANCH   1  22
TORSDOF 21
