REMARK SMILES CS(=O)(=O)c1cccc(-c2ccc(C(=O)OCCOCCOCCOC(=O)c3ccc(-c4c5nc(c(-c6c(F)c(F)c(F)c(F)c6F)c6ccc([nH]6)c(-c6c(F)c(F)c(F)c(F)c6F)c6nc(c(-c7c(F)c(F)c(F)c(F)c7F)c7ccc4[nH]7)C=C6)C=C5)cc3)nc2)c1
REMARK SMILES IDX 20 1 19 2 18 3 17 4 16 5 14 6 15 7 13 8 10 9 11 10 92 11
REMARK SMILES IDX 12 12 91 13 9 14 5 15 6 16 93 17 7 18 8 19 2 20 1 21 3 22
REMARK SMILES IDX 4 23 21 24 22 25 23 26 24 27 25 28 26 29 27 30 28 31 29 32
REMARK SMILES IDX 90 33 30 34 89 35 31 36 32 37 33 38 83 39 34 40 88 41 82 42
REMARK SMILES IDX 84 43 35 44 87 45 81 46 80 47 36 49 68 50 48 51 67 52 49 53
REMARK SMILES IDX 52 54 66 55 85 56 50 57 51 58 65 60 86 61 53 62 37 63 38 64
REMARK SMILES IDX 46 65 39 66 40 67 44 68 47 69 41 70 42 71 45 72 43 73 69 74
REMARK SMILES IDX 70 75 78 76 71 77 72 78 76 79 79 80 73 81 74 82 77 83 75 84
REMARK SMILES IDX 54 85 55 86 63 87 56 88 57 89 61 90 64 91 58 92 59 93 62 94
REMARK SMILES IDX 60 95
REMARK H PARENT 84 48 52 59
REMARK Flexibility Score: inf
ROOT
ATOM      1  C   UNL     1      -2.345  10.732  -1.469  1.00  0.00     0.188 C 
ENDROOT
BRANCH   1   2
ATOM      2  O   UNL     1      -3.427  11.620  -1.270  1.00  0.00    -0.376 OA
BRANCH   2   3
ATOM      3  C   UNL     1      -4.550  11.231  -0.494  1.00  0.00     0.202 C 
BRANCH   3   4
ATOM      4  C   UNL     1      -5.080   9.788  -0.414  1.00  0.00     0.261 C 
BRANCH   4   5
ATOM      5  O   UNL     1      -4.090   8.754  -0.374  1.00  0.00    -0.459 OA
BRANCH   5   6
ATOM      6  C   UNL     1      -4.046   7.950  -1.472  1.00  0.00     0.356 C 
ATOM      7  O   UNL     1      -4.816   7.976  -2.418  1.00  0.00    -0.244 OA
BRANCH   6   8
ATOM      8  C   UNL     1      -2.801   7.129  -1.432  1.00  0.00     0.148 A 
ATOM      9  C   UNL     1      -0.551   5.543  -1.534  1.00  0.00     0.000 A 
ATOM     10  C   UNL     1      -1.265   5.674  -0.333  1.00  0.00     0.013 A 
ATOM     11  C   UNL     1      -0.992   6.303  -2.614  1.00  0.00     0.120 A 
ATOM     12  C   UNL     1      -2.406   6.474  -0.274  1.00  0.00     0.037 A 
ATOM     13  N   UNL     1      -2.090   7.092  -2.592  1.00  0.00    -0.249 NA
BRANCH   9  14
ATOM     14  C   UNL     1       0.491   4.526  -1.691  1.00  0.00    -0.016 A 
ATOM     15  C   UNL     1       1.068   2.164  -1.766  1.00  0.00     0.067 A 
ATOM     16  C   UNL     1       2.390   2.474  -2.080  1.00  0.00     0.020 A 
ATOM     17  C   UNL     1       0.125   3.175  -1.583  1.00  0.00     0.029 A 
ATOM     18  C   UNL     1       2.768   3.814  -2.187  1.00  0.00     0.002 A 
ATOM     19  C   UNL     1       1.826   4.834  -1.994  1.00  0.00     0.009 A 
BRANCH  15  20
ATOM     20  S   UNL     1       0.552   0.471  -1.640  1.00  0.00     0.175 S 
ATOM     21  C   UNL     1       1.115  -0.003  -0.027  1.00  0.00     0.163 C 
ATOM     22  O   UNL     1       1.299  -0.283  -2.630  1.00  0.00    -0.224 OA
ATOM     23  O   UNL     1      -0.897   0.452  -1.626  1.00  0.00    -0.224 OA
ENDBRANCH  15  20
ENDBRANCH   9  14
ENDBRANCH   6   8
ENDBRANCH   5   6
ENDBRANCH   4   5
ENDBRANCH   3   4
ENDBRANCH   2   3
ENDBRANCH   1   2
BRANCH   1  24
ATOM     24  C   UNL     1      -1.542  10.223  -0.254  1.00  0.00     0.188 C 
BRANCH  24  25
ATOM     25  O   UNL     1      -2.083  10.450   1.024  1.00  0.00    -0.376 OA
BRANCH  25  26
ATOM     26  C   UNL     1      -1.930  11.712   1.653  1.00  0.00     0.202 C 
BRANCH  26  27
ATOM     27  C   UNL     1      -1.146  12.925   1.104  1.00  0.00     0.261 C 
BRANCH  27  28
ATOM     28  O   UNL     1      -0.691  12.895  -0.251  1.00  0.00    -0.460 OA
BRANCH  28  29
ATOM     29  C   UNL     1       0.627  12.640  -0.425  1.00  0.00     0.338 C 
ATOM     30  O   UNL     1       1.458  12.393   0.436  1.00  0.00    -0.246 OA
BRANCH  29  31
ATOM     31  C   UNL     1       0.900  12.523  -1.868  1.00  0.00     0.060 A 
ATOM     32  C   UNL     1       1.215  11.264  -2.398  1.00  0.00     0.016 A 
ATOM     33  C   UNL     1       0.883  13.654  -2.684  1.00  0.00     0.016 A 
ATOM     34  C   UNL     1       1.529  11.135  -3.750  1.00  0.00     0.010 A 
ATOM     35  C   UNL     1       1.220  13.526  -4.034  1.00  0.00     0.010 A 
ATOM     36  C   UNL     1       1.570  12.271  -4.567  1.00  0.00    -0.014 A 
BRANCH  36  37
ATOM     37  C   UNL     1       2.135  12.178  -5.935  1.00  0.00     0.031 A 
ATOM     38  C   UNL     1       3.552  12.623  -6.162  1.00  0.00     0.074 A 
ATOM     39  C   UNL     1       1.405  11.701  -6.958  1.00  0.00     0.049 A 
ATOM     40  N   UNL     1       4.233  12.705  -7.276  1.00  0.00    -0.248 NA
ATOM     41  C   UNL     1       4.303  13.037  -4.965  1.00  0.00     0.031 C 
ATOM     42  C   UNL     1       0.037  11.199  -6.858  1.00  0.00     0.029 A 
ATOM     43  N   UNL     1       1.715  11.579  -8.290  1.00  0.00    -0.354 N 
ATOM     44  C   UNL     1       5.484  13.191  -6.918  1.00  0.00     0.074 A 
ATOM     45  C   UNL     1       5.460  13.413  -5.489  1.00  0.00     0.031 C 
ATOM     46  C   UNL     1      -0.383  10.838  -8.082  1.00  0.00     0.029 A 
ATOM     47  C   UNL     1       0.671  11.121  -9.055  1.00  0.00     0.049 A 
ATOM     48  H   UNL     1       2.600  11.798  -8.661  1.00  0.00     0.167 HD
ATOM     49  C   UNL     1       6.557  13.425  -7.711  1.00  0.00     0.037 A 
ATOM     50  C   UNL     1       0.572  10.977 -10.392  1.00  0.00     0.037 A 
ATOM     51  C   UNL     1       6.574  13.207  -9.134  1.00  0.00     0.049 A 
ATOM     52  C   UNL     1       1.754  11.320 -11.264  1.00  0.00     0.074 A 
ATOM     53  C   UNL     1       7.618  13.391 -10.022  1.00  0.00     0.029 A 
ATOM     54  N   UNL     1       5.488  12.769  -9.879  1.00  0.00    -0.354 N 
ATOM     55  N   UNL     1       2.944  11.751 -10.918  1.00  0.00    -0.248 NA
ATOM     56  C   UNL     1       1.579  11.154 -12.714  1.00  0.00     0.031 C 
ATOM     57  C   UNL     1       7.147  13.129 -11.312  1.00  0.00     0.029 A 
ATOM     58  C   UNL     1       5.829  12.710 -11.222  1.00  0.00     0.049 A 
ATOM     59  H   UNL     1       4.606  12.534  -9.510  1.00  0.00     0.167 HD
ATOM     60  C   UNL     1       3.666  11.873 -12.099  1.00  0.00     0.074 A 
ATOM     61  C   UNL     1       2.785  11.460 -13.171  1.00  0.00     0.031 C 
ATOM     62  C   UNL     1       4.945  12.288 -12.280  1.00  0.00     0.037 A 
BRANCH  49  63
ATOM     63  C   UNL     1       7.791  13.982  -7.061  1.00  0.00     0.064 A 
ATOM     64  C   UNL     1       8.573  13.221  -6.179  1.00  0.00     0.173 A 
ATOM     65  C   UNL     1       8.213  15.289  -7.349  1.00  0.00     0.173 A 
ATOM     66  F   UNL     1       8.209  11.970  -5.859  1.00  0.00    -0.203 F 
ATOM     67  C   UNL     1       9.713  13.759  -5.586  1.00  0.00     0.198 A 
ATOM     68  C   UNL     1       9.372  15.811  -6.782  1.00  0.00     0.198 A 
ATOM     69  F   UNL     1       7.505  16.060  -8.189  1.00  0.00    -0.203 F 
ATOM     70  F   UNL     1      10.414  13.032  -4.705  1.00  0.00    -0.200 F 
ATOM     71  C   UNL     1      10.116  15.049  -5.894  1.00  0.00     0.200 A 
ATOM     72  F   UNL     1       9.768  17.053  -7.092  1.00  0.00    -0.200 F 
ATOM     73  F   UNL     1      11.217  15.562  -5.328  1.00  0.00    -0.200 F 
ENDBRANCH  49  63
BRANCH  50  74
ATOM     74  C   UNL     1      -0.702  10.502 -10.995  1.00  0.00     0.064 A 
ATOM     75  C   UNL     1      -0.780   9.259 -11.640  1.00  0.00     0.173 A 
ATOM     76  C   UNL     1      -1.863  11.290 -10.960  1.00  0.00     0.173 A 
ATOM     77  F   UNL     1       0.310   8.482 -11.727  1.00  0.00    -0.203 F 
ATOM     78  C   UNL     1      -1.961   8.833 -12.244  1.00  0.00     0.198 A 
ATOM     79  C   UNL     1      -3.052  10.848 -11.535  1.00  0.00     0.198 A 
ATOM     80  F   UNL     1      -1.842  12.490 -10.362  1.00  0.00    -0.203 F 
ATOM     81  F   UNL     1      -1.991   7.667 -12.903  1.00  0.00    -0.200 F 
ATOM     82  C   UNL     1      -3.098   9.625 -12.185  1.00  0.00     0.200 A 
ATOM     83  F   UNL     1      -4.151  11.613 -11.468  1.00  0.00    -0.200 F 
ATOM     84  F   UNL     1      -4.234   9.214 -12.766  1.00  0.00    -0.200 F 
ENDBRANCH  50  74
BRANCH  62  85
ATOM     85  C   UNL     1       5.491  12.272 -13.681  1.00  0.00     0.064 A 
ATOM     86  C   UNL     1       5.048  13.172 -14.662  1.00  0.00     0.173 A 
ATOM     87  C   UNL     1       6.508  11.369 -14.034  1.00  0.00     0.173 A 
ATOM     88  F   UNL     1       4.071  14.048 -14.383  1.00  0.00    -0.203 F 
ATOM     89  C   UNL     1       5.581  13.149 -15.949  1.00  0.00     0.198 A 
ATOM     90  C   UNL     1       7.063  11.373 -15.310  1.00  0.00     0.198 A 
ATOM     91  F   UNL     1       6.977  10.493 -13.133  1.00  0.00    -0.203 F 
ATOM     92  F   UNL     1       5.104  13.982 -16.884  1.00  0.00    -0.200 F 
ATOM     93  C   UNL     1       6.593  12.256 -16.270  1.00  0.00     0.200 A 
ATOM     94  F   UNL     1       8.055  10.523 -15.611  1.00  0.00    -0.200 F 
ATOM     95  F   UNL     1       7.111  12.243 -17.505  1.00  0.00    -0.200 F 
ENDBRANCH  62  85
ENDBRANCH  36  37
ENDBRANCH  29  31
ENDBRANCH  28  29
ENDBRANCH  27  28
ENDBRANCH  26  27
ENDBRANCH  25  26
ENDBRANCH  24  25
ENDBRANCH   1  24
TORSDOF 19
