REMARK SMILES C[C@H](CC(=O)OCCOCCOCCOC(=O)c1ccc(-c2c3nc(c(-c4c(F)c(F)c(F)c(F)c4F)c4ccc([nH]4)c(-c4c(F)c(F)c(F)c(F)c4F)c4nc(c(-c5c(F)c(F)c(F)c(F)c5F)c5ccc2[nH]5)C=C4)C=C3)cc1)[NH2+][C@H](C)c1ccccc1
REMARK SMILES IDX 10 1 9 2 8 3 7 4 6 5 4 6 5 7 3 8 2 9 1 10 81 11 82 14 83 15
REMARK SMILES IDX 84 16 85 17 89 18 86 19 88 20 87 21 11 22 12 23 13 24 14 25
REMARK SMILES IDX 15 26 16 27 17 28 18 29 19 30 80 31 20 32 79 33 21 34 22 35
REMARK SMILES IDX 23 36 73 37 24 38 78 39 72 40 74 41 25 42 77 43 71 44 70 45
REMARK SMILES IDX 26 47 58 48 38 49 57 50 39 51 42 52 56 53 75 54 40 55 41 56
REMARK SMILES IDX 55 58 76 59 43 60 27 61 28 62 36 63 29 64 30 65 34 66 37 67
REMARK SMILES IDX 31 68 32 69 35 70 33 71 59 72 60 73 68 74 61 75 62 76 66 77
REMARK SMILES IDX 69 78 63 79 64 80 67 81 65 82 44 83 45 84 53 85 46 86 47 87
REMARK SMILES IDX 51 88 54 89 48 90 49 91 52 92 50 93
REMARK H PARENT 81 12 81 13 74 46 42 57
REMARK Flexibility Score: inf
ROOT
ATOM      1  C   UNL     1      -0.922  -4.957  -3.754  1.00  0.00     0.188 C 
ENDROOT
BRANCH   1   2
ATOM      2  O   UNL     1       0.407  -5.463  -3.821  1.00  0.00    -0.376 OA
BRANCH   2   3
ATOM      3  C   UNL     1       1.396  -4.694  -3.149  1.00  0.00     0.202 C 
BRANCH   3   4
ATOM      4  C   UNL     1       1.862  -3.436  -3.884  1.00  0.00     0.261 C 
BRANCH   4   5
ATOM      5  O   UNL     1       0.825  -2.470  -4.128  1.00  0.00    -0.463 OA
BRANCH   5   6
ATOM      6  C   UNL     1       0.414  -2.349  -5.418  1.00  0.00     0.311 C 
ATOM      7  O   UNL     1       0.774  -3.087  -6.331  1.00  0.00    -0.252 OA
BRANCH   6   8
ATOM      8  C   UNL     1      -0.447  -1.131  -5.683  1.00  0.00     0.187 C 
BRANCH   8   9
ATOM      9  C   UNL     1      -1.516  -0.681  -4.671  1.00  0.00     0.190 C 
ATOM     10  C   UNL     1      -2.656  -1.702  -4.564  1.00  0.00     0.076 C 
BRANCH   9  11
ATOM     11  N   UNL     1      -0.932  -0.370  -3.366  1.00  0.00    -0.338 N 
ATOM     12  H   UNL     1       0.066  -0.216  -3.509  1.00  0.00     0.347 HD
ATOM     13  H   UNL     1      -1.175  -1.169  -2.780  1.00  0.00     0.347 HD
BRANCH  11  14
ATOM     14  C   UNL     1      -1.457   0.793  -2.642  1.00  0.00     0.210 C 
ATOM     15  C   UNL     1      -0.807   0.806  -1.250  1.00  0.00     0.081 C 
BRANCH  14  16
ATOM     16  C   UNL     1      -2.967   0.882  -2.501  1.00  0.00     0.009 A 
ATOM     17  C   UNL     1      -3.643   2.030  -2.950  1.00  0.00     0.010 A 
ATOM     18  C   UNL     1      -3.720  -0.133  -1.895  1.00  0.00     0.010 A 
ATOM     19  C   UNL     1      -5.030   2.145  -2.818  1.00  0.00     0.001 A 
ATOM     20  C   UNL     1      -5.108  -0.025  -1.778  1.00  0.00     0.001 A 
ATOM     21  C   UNL     1      -5.763   1.112  -2.241  1.00  0.00     0.000 A 
ENDBRANCH  14  16
ENDBRANCH  11  14
ENDBRANCH   9  11
ENDBRANCH   8   9
ENDBRANCH   6   8
ENDBRANCH   5   6
ENDBRANCH   4   5
ENDBRANCH   3   4
ENDBRANCH   2   3
ENDBRANCH   1   2
BRANCH   1  22
ATOM     22  C   UNL     1      -1.453  -4.763  -2.337  1.00  0.00     0.188 C 
BRANCH  22  23
ATOM     23  O   UNL     1      -1.170  -3.477  -1.777  1.00  0.00    -0.376 OA
BRANCH  23  24
ATOM     24  C   UNL     1      -0.970  -3.471  -0.359  1.00  0.00     0.202 C 
BRANCH  24  25
ATOM     25  C   UNL     1      -2.048  -4.084   0.566  1.00  0.00     0.261 C 
BRANCH  25  26
ATOM     26  O   UNL     1      -3.071  -4.828  -0.103  1.00  0.00    -0.460 OA
BRANCH  26  27
ATOM     27  C   UNL     1      -4.133  -4.102  -0.530  1.00  0.00     0.338 C 
ATOM     28  O   UNL     1      -4.383  -2.941  -0.255  1.00  0.00    -0.246 OA
BRANCH  27  29
ATOM     29  C   UNL     1      -4.853  -4.883  -1.564  1.00  0.00     0.060 A 
ATOM     30  C   UNL     1      -5.173  -4.246  -2.772  1.00  0.00     0.016 A 
ATOM     31  C   UNL     1      -5.126  -6.244  -1.395  1.00  0.00     0.016 A 
ATOM     32  C   UNL     1      -5.788  -4.961  -3.804  1.00  0.00     0.010 A 
ATOM     33  C   UNL     1      -5.759  -6.953  -2.421  1.00  0.00     0.010 A 
ATOM     34  C   UNL     1      -6.116  -6.311  -3.621  1.00  0.00    -0.014 A 
BRANCH  34  35
ATOM     35  C   UNL     1      -7.002  -7.008  -4.589  1.00  0.00     0.031 A 
ATOM     36  C   UNL     1      -8.470  -7.084  -4.275  1.00  0.00     0.074 A 
ATOM     37  C   UNL     1      -6.532  -7.562  -5.720  1.00  0.00     0.049 A 
ATOM     38  N   UNL     1      -9.428  -7.718  -4.902  1.00  0.00    -0.248 NA
ATOM     39  C   UNL     1      -8.916  -6.340  -3.087  1.00  0.00     0.031 C 
ATOM     40  C   UNL     1      -5.148  -7.509  -6.181  1.00  0.00     0.029 A 
ATOM     41  N   UNL     1      -7.182  -8.294  -6.686  1.00  0.00    -0.354 N 
ATOM     42  C   UNL     1     -10.586  -7.455  -4.182  1.00  0.00     0.074 A 
ATOM     43  C   UNL     1     -10.207  -6.629  -3.056  1.00  0.00     0.031 C 
ATOM     44  C   UNL     1      -5.048  -8.192  -7.336  1.00  0.00     0.029 A 
ATOM     45  C   UNL     1      -6.351  -8.765  -7.673  1.00  0.00     0.049 A 
ATOM     46  H   UNL     1      -8.151  -8.465  -6.671  1.00  0.00     0.167 HD
ATOM     47  C   UNL     1     -11.852  -7.858  -4.439  1.00  0.00     0.037 A 
ATOM     48  C   UNL     1      -6.611  -9.587  -8.710  1.00  0.00     0.037 A 
ATOM     49  C   UNL     1     -12.232  -8.687  -5.551  1.00  0.00     0.049 A 
ATOM     50  C   UNL     1      -8.010 -10.120  -8.911  1.00  0.00     0.074 A 
ATOM     51  C   UNL     1     -13.491  -9.149  -5.893  1.00  0.00     0.029 A 
ATOM     52  N   UNL     1     -11.352  -9.188  -6.499  1.00  0.00    -0.354 N 
ATOM     53  N   UNL     1      -9.102  -9.865  -8.232  1.00  0.00    -0.248 NA
ATOM     54  C   UNL     1      -8.208 -11.064 -10.022  1.00  0.00     0.031 C 
ATOM     55  C   UNL     1     -13.365  -9.975  -7.013  1.00  0.00     0.029 A 
ATOM     56  C   UNL     1     -12.037  -9.979  -7.407  1.00  0.00     0.049 A 
ATOM     57  H   UNL     1     -10.385  -9.008  -6.522  1.00  0.00     0.167 HD
ATOM     58  C   UNL     1     -10.117 -10.585  -8.851  1.00  0.00     0.074 A 
ATOM     59  C   UNL     1      -9.515 -11.282  -9.966  1.00  0.00     0.031 C 
ATOM     60  C   UNL     1     -11.431 -10.660  -8.524  1.00  0.00     0.037 A 
BRANCH  47  61
ATOM     61  C   UNL     1     -12.917  -7.433  -3.470  1.00  0.00     0.064 A 
ATOM     62  C   UNL     1     -13.345  -6.100  -3.381  1.00  0.00     0.173 A 
ATOM     63  C   UNL     1     -13.527  -8.377  -2.630  1.00  0.00     0.173 A 
ATOM     64  F   UNL     1     -12.780  -5.156  -4.150  1.00  0.00    -0.203 F 
ATOM     65  C   UNL     1     -14.322  -5.722  -2.464  1.00  0.00     0.198 A 
ATOM     66  C   UNL     1     -14.526  -8.001  -1.737  1.00  0.00     0.198 A 
ATOM     67  F   UNL     1     -13.155  -9.665  -2.677  1.00  0.00    -0.203 F 
ATOM     68  F   UNL     1     -14.675  -4.434  -2.356  1.00  0.00    -0.200 F 
ATOM     69  C   UNL     1     -14.916  -6.673  -1.648  1.00  0.00     0.200 A 
ATOM     70  F   UNL     1     -15.107  -8.924  -0.958  1.00  0.00    -0.200 F 
ATOM     71  F   UNL     1     -15.859  -6.309  -0.768  1.00  0.00    -0.200 F 
ENDBRANCH  47  61
BRANCH  48  72
ATOM     72  C   UNL     1      -5.519  -9.988  -9.639  1.00  0.00     0.064 A 
ATOM     73  C   UNL     1      -5.525  -9.581 -10.980  1.00  0.00     0.173 A 
ATOM     74  C   UNL     1      -4.472 -10.821  -9.216  1.00  0.00     0.173 A 
ATOM     75  F   UNL     1      -6.525  -8.815 -11.443  1.00  0.00    -0.203 F 
ATOM     76  C   UNL     1      -4.537 -10.005 -11.867  1.00  0.00     0.198 A 
ATOM     77  C   UNL     1      -3.467 -11.219 -10.097  1.00  0.00     0.198 A 
ATOM     78  F   UNL     1      -4.426 -11.251  -7.947  1.00  0.00    -0.203 F 
ATOM     79  F   UNL     1      -4.598  -9.646 -13.157  1.00  0.00    -0.200 F 
ATOM     80  C   UNL     1      -3.505 -10.818 -11.423  1.00  0.00     0.200 A 
ATOM     81  F   UNL     1      -2.471 -12.002  -9.662  1.00  0.00    -0.200 F 
ATOM     82  F   UNL     1      -2.557 -11.228 -12.277  1.00  0.00    -0.200 F 
ENDBRANCH  48  72
BRANCH  60  83
ATOM     83  C   UNL     1     -12.326 -11.487  -9.405  1.00  0.00     0.064 A 
ATOM     84  C   UNL     1     -12.268 -12.888  -9.412  1.00  0.00     0.173 A 
ATOM     85  C   UNL     1     -13.296 -10.868 -10.210  1.00  0.00     0.173 A 
ATOM     86  F   UNL     1     -11.352 -13.529  -8.670  1.00  0.00    -0.203 F 
ATOM     87  C   UNL     1     -13.132 -13.637 -10.207  1.00  0.00     0.198 A 
ATOM     88  C   UNL     1     -14.178 -11.621 -10.980  1.00  0.00     0.198 A 
ATOM     89  F   UNL     1     -13.401  -9.531 -10.235  1.00  0.00    -0.203 F 
ATOM     90  F   UNL     1     -13.030 -14.974 -10.230  1.00  0.00    -0.200 F 
ATOM     91  C   UNL     1     -14.092 -13.004 -10.983  1.00  0.00     0.200 A 
ATOM     92  F   UNL     1     -15.116 -11.007 -11.716  1.00  0.00    -0.200 F 
ATOM     93  F   UNL     1     -14.931 -13.728 -11.737  1.00  0.00    -0.200 F 
ENDBRANCH  60  83
ENDBRANCH  34  35
ENDBRANCH  27  29
ENDBRANCH  26  27
ENDBRANCH  25  26
ENDBRANCH  24  25
ENDBRANCH  23  24
ENDBRANCH  22  23
ENDBRANCH   1  22
TORSDOF 21
