REMARK SMILES CC1(C)CCCC[C@@]1(CC(=O)OCCOCCOCCOC(=O)c1ccc(-c2c3nc(c(-c4c(F)c(F)c(F)c(F)c4F)c4ccc([nH]4)c(-c4c(F)c(F)c(F)c(F)c4F)c4nc(c(-c5c(F)c(F)c(F)c(F)c5F)c5ccc2[nH]5)C=C4)C=C3)cc1)[NH+]1CCCCCC1
REMARK SMILES IDX 15 1 14 2 13 3 12 4 10 5 11 6 9 7 8 8 1 9 2 10 3 11 4 12
REMARK SMILES IDX 5 13 7 14 6 15 87 16 88 18 89 19 90 20 93 22 92 23 91 24
REMARK SMILES IDX 16 26 17 27 18 28 19 29 20 30 21 31 22 32 23 33 24 34 25 35
REMARK SMILES IDX 86 36 26 37 85 38 27 39 28 40 29 41 79 42 30 43 84 44 78 45
REMARK SMILES IDX 80 46 31 47 83 48 77 49 76 50 32 52 64 53 44 54 63 55 45 56
REMARK SMILES IDX 48 57 62 58 81 59 46 60 47 61 61 63 82 64 49 65 33 66 34 67
REMARK SMILES IDX 42 68 35 69 36 70 40 71 43 72 37 73 38 74 41 75 39 76 65 77
REMARK SMILES IDX 66 78 74 79 67 80 68 81 72 82 75 83 69 84 70 85 73 86 71 87
REMARK SMILES IDX 50 88 51 89 59 90 52 91 53 92 57 93 60 94 54 95 55 96 58 97
REMARK SMILES IDX 56 98
REMARK H PARENT 87 17 80 51 48 62
REMARK Flexibility Score: 90.00
ROOT
ATOM      1  O   UNL     1      -3.494   2.317   3.835  1.00  0.00    -0.376 OA
ENDROOT
BRANCH   1   2
ATOM      2  C   UNL     1      -2.957   0.999   4.020  1.00  0.00     0.202 C 
BRANCH   2   3
ATOM      3  C   UNL     1      -2.918   0.095   2.777  1.00  0.00     0.261 C 
BRANCH   3   4
ATOM      4  O   UNL     1      -1.881   0.490   1.848  1.00  0.00    -0.463 OA
BRANCH   4   5
ATOM      5  C   UNL     1      -1.970  -0.110   0.627  1.00  0.00     0.312 C 
ATOM      6  O   UNL     1      -2.755  -1.024   0.390  1.00  0.00    -0.252 OA
BRANCH   5   7
ATOM      7  C   UNL     1      -1.194   0.643  -0.456  1.00  0.00     0.191 C 
BRANCH   7   8
ATOM      8  C   UNL     1       0.211   0.118  -1.042  1.00  0.00     0.113 C 
ATOM      9  C   UNL     1       2.895   0.644  -0.538  1.00  0.00     0.018 C 
ATOM     10  C   UNL     1       1.410   1.056  -0.379  1.00  0.00     0.020 C 
ATOM     11  C   UNL     1       1.214   1.203   1.148  1.00  0.00     0.018 C 
ATOM     12  C   UNL     1       1.364   2.498  -0.989  1.00  0.00     0.013 C 
ATOM     13  C   UNL     1       1.373   2.550  -2.509  1.00  0.00     0.001 C 
ATOM     14  C   UNL     1       0.131   0.413  -2.592  1.00  0.00     0.070 C 
ATOM     15  C   UNL     1       0.118   1.875  -3.011  1.00  0.00     0.006 C 
BRANCH   8  16
ATOM     16  N   UNL     1       0.285  -1.374  -0.877  1.00  0.00    -0.329 N 
ATOM     17  H   UNL     1       0.149  -1.249   0.127  1.00  0.00     0.348 HD
BRANCH  16  18
ATOM     18  C   UNL     1       1.542  -2.114  -0.877  1.00  0.00     0.262 C 
BRANCH  18  19
ATOM     19  C   UNL     1       2.377  -2.100  -2.162  1.00  0.00     0.061 C 
BRANCH  19  20
ATOM     20  C   UNL     1       1.856  -2.896  -3.355  1.00  0.00     0.006 CG0
ATOM     21  G   UNL     1       0.368  -2.805  -3.669  1.00  0.00     0.000 G0
ENDBRANCH  19  20
ENDBRANCH  18  19
ENDBRANCH  16  18
BRANCH  16  22
ATOM     22  C   UNL     1      -0.815  -2.181  -1.442  1.00  0.00     0.262 C 
BRANCH  22  23
ATOM     23  C   UNL     1      -0.519  -3.245  -2.514  1.00  0.00     0.061 C 
BRANCH  23  24
ATOM     24  C   UNL     1       0.368  -2.805  -3.669  1.00  0.00     0.006 CG0
ATOM     25  G   UNL     1       1.856  -2.896  -3.355  1.00  0.00     0.000 G0
ENDBRANCH  23  24
ENDBRANCH  22  23
ENDBRANCH  16  22
ENDBRANCH   8  16
ENDBRANCH   7   8
ENDBRANCH   5   7
ENDBRANCH   4   5
ENDBRANCH   3   4
ENDBRANCH   2   3
ENDBRANCH   1   2
BRANCH   1  26
ATOM     26  C   UNL     1      -3.016   3.039   2.708  1.00  0.00     0.188 C 
BRANCH  26  27
ATOM     27  C   UNL     1      -1.565   3.521   2.782  1.00  0.00     0.188 C 
BRANCH  27  28
ATOM     28  O   UNL     1      -0.661   2.598   3.381  1.00  0.00    -0.376 OA
BRANCH  28  29
ATOM     29  C   UNL     1       0.029   3.111   4.524  1.00  0.00     0.202 C 
BRANCH  29  30
ATOM     30  C   UNL     1       1.244   3.951   4.127  1.00  0.00     0.261 C 
BRANCH  30  31
ATOM     31  O   UNL     1       0.801   5.091   3.371  1.00  0.00    -0.460 OA
BRANCH  31  32
ATOM     32  C   UNL     1       1.657   5.507   2.415  1.00  0.00     0.338 C 
ATOM     33  O   UNL     1       2.820   5.192   2.258  1.00  0.00    -0.246 OA
BRANCH  32  34
ATOM     34  C   UNL     1       0.896   6.311   1.448  1.00  0.00     0.060 A 
ATOM     35  C   UNL     1       0.240   5.640   0.415  1.00  0.00     0.016 A 
ATOM     36  C   UNL     1       0.916   7.698   1.484  1.00  0.00     0.016 A 
ATOM     37  C   UNL     1      -0.347   6.338  -0.637  1.00  0.00     0.010 A 
ATOM     38  C   UNL     1       0.299   8.405   0.450  1.00  0.00     0.010 A 
ATOM     39  C   UNL     1      -0.302   7.733  -0.637  1.00  0.00    -0.014 A 
BRANCH  39  40
ATOM     40  C   UNL     1      -0.729   8.527  -1.815  1.00  0.00     0.031 A 
ATOM     41  C   UNL     1       0.323   9.288  -2.567  1.00  0.00     0.074 A 
ATOM     42  C   UNL     1      -2.014   8.611  -2.200  1.00  0.00     0.049 A 
ATOM     43  N   UNL     1       0.206  10.339  -3.334  1.00  0.00    -0.248 NA
ATOM     44  C   UNL     1       1.704   8.799  -2.414  1.00  0.00     0.031 C 
ATOM     45  C   UNL     1      -3.122   7.825  -1.663  1.00  0.00     0.029 A 
ATOM     46  N   UNL     1      -2.606   9.441  -3.122  1.00  0.00    -0.354 N 
ATOM     47  C   UNL     1       1.501  10.681  -3.697  1.00  0.00     0.074 A 
ATOM     48  C   UNL     1       2.388   9.713  -3.087  1.00  0.00     0.031 C 
ATOM     49  C   UNL     1      -4.265   8.228  -2.245  1.00  0.00     0.029 A 
ATOM     50  C   UNL     1      -3.977   9.360  -3.122  1.00  0.00     0.049 A 
ATOM     51  H   UNL     1      -2.098  10.033  -3.723  1.00  0.00     0.167 HD
ATOM     52  C   UNL     1       1.905  11.728  -4.453  1.00  0.00     0.037 A 
ATOM     53  C   UNL     1      -4.894  10.161  -3.699  1.00  0.00     0.037 A 
ATOM     54  C   UNL     1       1.002  12.659  -5.077  1.00  0.00     0.049 A 
ATOM     55  C   UNL     1      -4.430  11.374  -4.466  1.00  0.00     0.074 A 
ATOM     56  C   UNL     1       1.294  13.789  -5.819  1.00  0.00     0.029 A 
ATOM     57  N   UNL     1      -0.380  12.545  -5.044  1.00  0.00    -0.354 N 
ATOM     58  N   UNL     1      -3.209  11.788  -4.705  1.00  0.00    -0.248 NA
ATOM     59  C   UNL     1      -5.475  12.249  -5.018  1.00  0.00     0.031 C 
ATOM     60  C   UNL     1       0.086  14.371  -6.218  1.00  0.00     0.029 A 
ATOM     61  C   UNL     1      -0.955  13.581  -5.758  1.00  0.00     0.049 A 
ATOM     62  H   UNL     1      -0.878  11.833  -4.581  1.00  0.00     0.167 HD
ATOM     63  C   UNL     1      -3.337  12.948  -5.457  1.00  0.00     0.074 A 
ATOM     64  C   UNL     1      -4.756  13.173  -5.639  1.00  0.00     0.031 C 
ATOM     65  C   UNL     1      -2.370  13.758  -5.952  1.00  0.00     0.037 A 
BRANCH  52  66
ATOM     66  C   UNL     1       3.380  11.951  -4.600  1.00  0.00     0.064 A 
ATOM     67  C   UNL     1       4.180  11.126  -5.402  1.00  0.00     0.173 A 
ATOM     68  C   UNL     1       3.997  13.027  -3.942  1.00  0.00     0.173 A 
ATOM     69  F   UNL     1       3.641  10.072  -6.034  1.00  0.00    -0.203 F 
ATOM     70  C   UNL     1       5.548  11.358  -5.525  1.00  0.00     0.198 A 
ATOM     71  C   UNL     1       5.359  13.272  -4.089  1.00  0.00     0.198 A 
ATOM     72  F   UNL     1       3.276  13.846  -3.162  1.00  0.00    -0.203 F 
ATOM     73  F   UNL     1       6.302  10.531  -6.263  1.00  0.00    -0.200 F 
ATOM     74  C   UNL     1       6.135  12.434  -4.876  1.00  0.00     0.200 A 
ATOM     75  F   UNL     1       5.922  14.317  -3.467  1.00  0.00    -0.200 F 
ATOM     76  F   UNL     1       7.450  12.659  -5.001  1.00  0.00    -0.200 F 
ENDBRANCH  52  66
BRANCH  53  77
ATOM     77  C   UNL     1      -6.345   9.893  -3.515  1.00  0.00     0.064 A 
ATOM     78  C   UNL     1      -7.148   9.510  -4.597  1.00  0.00     0.173 A 
ATOM     79  C   UNL     1      -6.963  10.039  -2.264  1.00  0.00     0.173 A 
ATOM     80  F   UNL     1      -6.609   9.389  -5.819  1.00  0.00    -0.203 F 
ATOM     81  C   UNL     1      -8.516   9.296  -4.439  1.00  0.00     0.198 A 
ATOM     82  C   UNL     1      -8.325   9.795  -2.100  1.00  0.00     0.198 A 
ATOM     83  F   UNL     1      -6.243  10.412  -1.196  1.00  0.00    -0.203 F 
ATOM     84  F   UNL     1      -9.269   8.977  -5.500  1.00  0.00    -0.200 F 
ATOM     85  C   UNL     1      -9.102   9.432  -3.189  1.00  0.00     0.200 A 
ATOM     86  F   UNL     1      -8.885   9.918  -0.889  1.00  0.00    -0.200 F 
ATOM     87  F   UNL     1     -10.417   9.223  -3.037  1.00  0.00    -0.200 F 
ENDBRANCH  53  77
BRANCH  65  88
ATOM     88  C   UNL     1      -2.808  14.916  -6.799  1.00  0.00     0.064 A 
ATOM     89  C   UNL     1      -3.363  16.073  -6.237  1.00  0.00     0.173 A 
ATOM     90  C   UNL     1      -2.614  14.882  -8.188  1.00  0.00     0.173 A 
ATOM     91  F   UNL     1      -3.580  16.144  -4.915  1.00  0.00    -0.203 F 
ATOM     92  C   UNL     1      -3.725  17.151  -7.040  1.00  0.00     0.198 A 
ATOM     93  C   UNL     1      -2.955  15.970  -8.984  1.00  0.00     0.198 A 
ATOM     94  F   UNL     1      -2.080  13.797  -8.770  1.00  0.00    -0.203 F 
ATOM     95  F   UNL     1      -4.286  18.236  -6.488  1.00  0.00    -0.200 F 
ATOM     96  C   UNL     1      -3.514  17.102  -8.410  1.00  0.00     0.200 A 
ATOM     97  F   UNL     1      -2.741  15.925 -10.306  1.00  0.00    -0.200 F 
ATOM     98  F   UNL     1      -3.855  18.145  -9.179  1.00  0.00    -0.200 F 
ENDBRANCH  65  88
ENDBRANCH  39  40
ENDBRANCH  32  34
ENDBRANCH  31  32
ENDBRANCH  30  31
ENDBRANCH  29  30
ENDBRANCH  28  29
ENDBRANCH  27  28
ENDBRANCH  26  27
ENDBRANCH   1  26
TORSDOF 19
