REMARK SMILES O=C(OCCOCCOCCOC(=O)[C@@H]1CN(c2ncccn2)CCN1C(=O)C1CCOCC1)c1ccc(-c2c3nc(c(-c4c(F)c(F)c(F)c(F)c4F)c4ccc([nH]4)c(-c4c(F)c(F)c(F)c(F)c4F)c4nc(c(-c5c(F)c(F)c(F)c(F)c5F)c5ccc2[nH]5)C=C4)C=C3)cc1
REMARK SMILES IDX 7 1 6 2 5 3 4 4 3 5 2 6 1 7 35 8 36 9 97 10 37 11 96 12
REMARK SMILES IDX 38 13 39 14 40 15 90 16 41 17 95 18 89 19 91 20 42 21 94 22
REMARK SMILES IDX 88 23 87 24 43 26 75 27 55 28 74 29 56 30 59 31 73 32 92 33
REMARK SMILES IDX 57 34 58 35 72 37 93 38 60 39 44 40 45 41 53 42 46 43 47 44
REMARK SMILES IDX 51 45 54 46 48 47 49 48 52 49 50 50 76 51 77 52 85 53 78 54
REMARK SMILES IDX 79 55 83 56 86 57 80 58 81 59 84 60 82 61 61 62 62 63 70 64
REMARK SMILES IDX 63 65 64 66 68 67 71 68 65 69 66 70 69 71 67 72 8 73 9 74
REMARK SMILES IDX 10 75 11 76 12 77 13 78 14 79 15 80 16 81 26 82 17 83 25 84
REMARK SMILES IDX 24 85 27 86 28 87 29 88 30 89 34 90 31 91 33 92 32 93 18 94
REMARK SMILES IDX 19 95 23 96 20 97 22 98 21 99
REMARK H PARENT 91 25 59 36
REMARK Flexibility Score: inf
ROOT
ATOM      1  C   UNL     1       3.360   1.461   0.085  1.00  0.00     0.188 C 
ENDROOT
BRANCH   1   2
ATOM      2  O   UNL     1       4.623   0.843  -0.139  1.00  0.00    -0.376 OA
BRANCH   2   3
ATOM      3  C   UNL     1       4.980   0.718  -1.510  1.00  0.00     0.202 C 
BRANCH   3   4
ATOM      4  C   UNL     1       4.500  -0.592  -2.146  1.00  0.00     0.261 C 
BRANCH   4   5
ATOM      5  O   UNL     1       3.169  -0.975  -1.758  1.00  0.00    -0.460 OA
BRANCH   5   6
ATOM      6  C   UNL     1       2.787  -1.806  -0.755  1.00  0.00     0.338 C 
ATOM      7  O   UNL     1       1.657  -2.291  -0.811  1.00  0.00    -0.246 OA
BRANCH   6   8
ATOM      8  C   UNL     1       3.602  -2.081   0.479  1.00  0.00     0.060 A 
ATOM      9  C   UNL     1       4.956  -1.790   0.656  1.00  0.00     0.016 A 
ATOM     10  C   UNL     1       2.932  -2.682   1.559  1.00  0.00     0.016 A 
ATOM     11  C   UNL     1       5.611  -2.011   1.864  1.00  0.00     0.010 A 
ATOM     12  C   UNL     1       3.600  -2.969   2.755  1.00  0.00     0.010 A 
ATOM     13  C   UNL     1       4.945  -2.624   2.915  1.00  0.00    -0.014 A 
BRANCH  13  14
ATOM     14  C   UNL     1       5.772  -3.127   4.029  1.00  0.00     0.031 A 
ATOM     15  C   UNL     1       6.244  -4.547   3.928  1.00  0.00     0.074 A 
ATOM     16  C   UNL     1       6.239  -2.301   4.985  1.00  0.00     0.049 A 
ATOM     17  N   UNL     1       7.063  -5.206   4.702  1.00  0.00    -0.248 NA
ATOM     18  C   UNL     1       5.784  -5.310   2.751  1.00  0.00     0.031 C 
ATOM     19  C   UNL     1       5.968  -0.866   5.080  1.00  0.00     0.029 A 
ATOM     20  N   UNL     1       7.024  -2.558   6.080  1.00  0.00    -0.354 N 
ATOM     21  C   UNL     1       7.297  -6.408   4.050  1.00  0.00     0.074 A 
ATOM     22  C   UNL     1       6.453  -6.443   2.879  1.00  0.00     0.031 C 
ATOM     23  C   UNL     1       6.486  -0.391   6.229  1.00  0.00     0.029 A 
ATOM     24  C   UNL     1       7.132  -1.488   6.939  1.00  0.00     0.049 A 
ATOM     25  H   UNL     1       7.467  -3.423   6.237  1.00  0.00     0.167 HD
ATOM     26  C   UNL     1       8.191  -7.369   4.370  1.00  0.00     0.037 A 
ATOM     27  C   UNL     1       7.649  -1.443   8.181  1.00  0.00     0.037 A 
ATOM     28  C   UNL     1       8.964  -7.349   5.578  1.00  0.00     0.049 A 
ATOM     29  C   UNL     1       8.368  -2.659   8.685  1.00  0.00     0.074 A 
ATOM     30  C   UNL     1       9.841  -8.296   6.068  1.00  0.00     0.029 A 
ATOM     31  N   UNL     1       8.921  -6.316   6.505  1.00  0.00    -0.354 N 
ATOM     32  N   UNL     1       8.559  -3.810   8.087  1.00  0.00    -0.248 NA
ATOM     33  C   UNL     1       8.984  -2.554  10.012  1.00  0.00     0.031 C 
ATOM     34  C   UNL     1      10.294  -7.854   7.318  1.00  0.00     0.029 A 
ATOM     35  C   UNL     1       9.735  -6.613   7.583  1.00  0.00     0.049 A 
ATOM     36  H   UNL     1       8.390  -5.492   6.409  1.00  0.00     0.167 HD
ATOM     37  C   UNL     1       9.377  -4.544   8.930  1.00  0.00     0.074 A 
ATOM     38  C   UNL     1       9.605  -3.722  10.104  1.00  0.00     0.031 C 
ATOM     39  C   UNL     1       9.927  -5.768   8.734  1.00  0.00     0.037 A 
BRANCH  26  40
ATOM     40  C   UNL     1       8.350  -8.492   3.392  1.00  0.00     0.064 A 
ATOM     41  C   UNL     1       8.989  -8.288   2.156  1.00  0.00     0.173 A 
ATOM     42  C   UNL     1       7.820  -9.761   3.654  1.00  0.00     0.173 A 
ATOM     43  F   UNL     1       9.487  -7.082   1.845  1.00  0.00    -0.203 F 
ATOM     44  C   UNL     1       9.066  -9.307   1.211  1.00  0.00     0.198 A 
ATOM     45  C   UNL     1       7.916 -10.785   2.714  1.00  0.00     0.198 A 
ATOM     46  F   UNL     1       7.187 -10.002   4.812  1.00  0.00    -0.203 F 
ATOM     47  F   UNL     1       9.631  -9.073   0.018  1.00  0.00    -0.200 F 
ATOM     48  C   UNL     1       8.531 -10.555   1.491  1.00  0.00     0.200 A 
ATOM     49  F   UNL     1       7.395 -11.990   2.983  1.00  0.00    -0.200 F 
ATOM     50  F   UNL     1       8.592 -11.532   0.576  1.00  0.00    -0.200 F 
ENDBRANCH  26  40
BRANCH  27  51
ATOM     51  C   UNL     1       7.477  -0.251   9.051  1.00  0.00     0.064 A 
ATOM     52  C   UNL     1       8.471   0.724   9.178  1.00  0.00     0.173 A 
ATOM     53  C   UNL     1       6.325  -0.110   9.841  1.00  0.00     0.173 A 
ATOM     54  F   UNL     1       9.619   0.599   8.498  1.00  0.00    -0.203 F 
ATOM     55  C   UNL     1       8.312   1.803  10.050  1.00  0.00     0.198 A 
ATOM     56  C   UNL     1       6.152   0.983  10.687  1.00  0.00     0.198 A 
ATOM     57  F   UNL     1       5.390  -1.070   9.838  1.00  0.00    -0.203 F 
ATOM     58  F   UNL     1       9.301   2.696  10.194  1.00  0.00    -0.200 F 
ATOM     59  C   UNL     1       7.148   1.939  10.794  1.00  0.00     0.200 A 
ATOM     60  F   UNL     1       5.035   1.091  11.419  1.00  0.00    -0.200 F 
ATOM     61  F   UNL     1       7.002   2.970  11.637  1.00  0.00    -0.200 F 
ENDBRANCH  27  51
BRANCH  39  62
ATOM     62  C   UNL     1      10.875  -6.248   9.785  1.00  0.00     0.064 A 
ATOM     63  C   UNL     1      10.426  -6.711  11.028  1.00  0.00     0.173 A 
ATOM     64  C   UNL     1      12.254  -6.261   9.526  1.00  0.00     0.173 A 
ATOM     65  F   UNL     1       9.117  -6.690  11.323  1.00  0.00    -0.203 F 
ATOM     66  C   UNL     1      11.330  -7.153  11.987  1.00  0.00     0.198 A 
ATOM     67  C   UNL     1      13.152  -6.731  10.477  1.00  0.00     0.198 A 
ATOM     68  F   UNL     1      12.726  -5.824   8.348  1.00  0.00    -0.203 F 
ATOM     69  F   UNL     1      10.888  -7.546  13.189  1.00  0.00    -0.200 F 
ATOM     70  C   UNL     1      12.690  -7.169  11.709  1.00  0.00     0.200 A 
ATOM     71  F   UNL     1      14.463  -6.754  10.203  1.00  0.00    -0.200 F 
ATOM     72  F   UNL     1      13.558  -7.599  12.634  1.00  0.00    -0.200 F 
ENDBRANCH  39  62
ENDBRANCH  13  14
ENDBRANCH   6   8
ENDBRANCH   5   6
ENDBRANCH   4   5
ENDBRANCH   3   4
ENDBRANCH   2   3
ENDBRANCH   1   2
BRANCH   1  73
ATOM     73  C   UNL     1       3.354   2.939  -0.283  1.00  0.00     0.188 C 
BRANCH  73  74
ATOM     74  O   UNL     1       4.635   3.546  -0.151  1.00  0.00    -0.376 OA
BRANCH  74  75
ATOM     75  C   UNL     1       4.793   4.343   1.020  1.00  0.00     0.202 C 
BRANCH  75  76
ATOM     76  C   UNL     1       5.017   3.528   2.296  1.00  0.00     0.261 C 
BRANCH  76  77
ATOM     77  O   UNL     1       3.827   2.842   2.763  1.00  0.00    -0.462 OA
BRANCH  77  78
ATOM     78  C   UNL     1       3.296   3.253   3.946  1.00  0.00     0.330 C 
ATOM     79  O   UNL     1       3.642   4.274   4.521  1.00  0.00    -0.250 OA
BRANCH  78  80
ATOM     80  C   UNL     1       2.292   2.241   4.551  1.00  0.00     0.214 C 
ATOM     81  C   UNL     1       2.282   0.810   3.941  1.00  0.00     0.157 C 
ATOM     82  N   UNL     1       0.913   2.616   5.017  1.00  0.00    -0.325 N 
ATOM     83  N   UNL     1       1.535  -0.163   4.771  1.00  0.00    -0.336 N 
ATOM     84  C   UNL     1       0.481   1.669   6.063  1.00  0.00     0.142 C 
ATOM     85  C   UNL     1       0.295   0.271   5.429  1.00  0.00     0.141 C 
BRANCH  82  86
ATOM     86  C   UNL     1      -0.156   3.144   4.302  1.00  0.00     0.226 C 
ATOM     87  O   UNL     1      -1.313   2.787   4.575  1.00  0.00    -0.275 OA
BRANCH  86  88
ATOM     88  C   UNL     1      -0.044   4.163   3.177  1.00  0.00     0.083 C 
ATOM     89  C   UNL     1       0.164   3.501   1.825  1.00  0.00     0.042 C 
ATOM     90  C   UNL     1       0.802   5.394   3.465  1.00  0.00     0.042 C 
ATOM     91  C   UNL     1       0.293   4.583   0.771  1.00  0.00     0.161 C 
ATOM     92  C   UNL     1       1.334   6.132   2.239  1.00  0.00     0.161 C 
ATOM     93  O   UNL     1       1.462   5.335   1.070  1.00  0.00    -0.381 OA
ENDBRANCH  86  88
ENDBRANCH  82  86
BRANCH  83  94
ATOM     94  C   UNL     1       2.193  -1.109   5.525  1.00  0.00     0.225 A 
ATOM     95  N   UNL     1       1.786  -2.385   5.397  1.00  0.00    -0.221 NA
ATOM     96  N   UNL     1       3.076  -0.712   6.446  1.00  0.00    -0.221 NA
ATOM     97  C   UNL     1       2.356  -3.314   6.191  1.00  0.00     0.117 A 
ATOM     98  C   UNL     1       3.585  -1.681   7.240  1.00  0.00     0.117 A 
ATOM     99  C   UNL     1       3.285  -3.015   7.143  1.00  0.00     0.040 A 
ENDBRANCH  83  94
ENDBRANCH  78  80
ENDBRANCH  77  78
ENDBRANCH  76  77
ENDBRANCH  75  76
ENDBRANCH  74  75
ENDBRANCH  73  74
ENDBRANCH   1  73
TORSDOF 20
