REMARK SMILES CC(C)[C@H](NC(=O)[C@H](C)NC(=O)C[NH3+])C(=O)OCCOCCOCCOC(=O)c1ccc(-c2c3nc(c(-c4c(F)c(F)c(F)c(F)c4F)c4ccc([nH]4)c(-c4c(F)c(F)c(F)c(F)c4F)c4nc(c(-c5c(F)c(F)c(F)c(F)c5F)c5ccc2[nH]5)C=C4)C=C3)cc1
REMARK SMILES IDX 20 1 19 2 18 3 17 4 15 5 16 6 4 7 2 8 1 9 3 10 5 11 6 12
REMARK SMILES IDX 7 14 8 15 9 16 10 17 11 18 12 20 13 21 14 22 21 26 22 27
REMARK SMILES IDX 23 28 24 29 25 30 26 31 27 32 28 33 29 34 30 35 91 36 31 37
REMARK SMILES IDX 90 38 32 39 33 40 34 41 84 42 35 43 89 44 83 45 85 46 36 47
REMARK SMILES IDX 88 48 82 49 81 50 37 52 69 53 49 54 68 55 50 56 53 57 67 58
REMARK SMILES IDX 86 59 51 60 52 61 66 63 87 64 54 65 38 66 39 67 47 68 40 69
REMARK SMILES IDX 41 70 45 71 48 72 42 73 43 74 46 75 44 76 70 77 71 78 79 79
REMARK SMILES IDX 72 80 73 81 77 82 80 83 74 84 75 85 78 86 76 87 55 88 56 89
REMARK SMILES IDX 64 90 57 91 58 92 62 93 65 94 59 95 60 96 63 97 61 98
REMARK H PARENT 5 13 10 19 14 23 14 24 14 25 85 51 53 62
REMARK Flexibility Score: inf
ROOT
ATOM      1  O   UNL     1       2.010  -1.825   8.566  1.00  0.00    -0.376 OA
ENDROOT
BRANCH   1   2
ATOM      2  C   UNL     1       2.599  -2.387   7.399  1.00  0.00     0.202 C 
BRANCH   2   3
ATOM      3  C   UNL     1       1.669  -3.200   6.494  1.00  0.00     0.261 C 
BRANCH   3   4
ATOM      4  O   UNL     1       0.677  -2.388   5.819  1.00  0.00    -0.462 OA
BRANCH   4   5
ATOM      5  C   UNL     1      -0.571  -2.903   5.621  1.00  0.00     0.328 C 
ATOM      6  O   UNL     1      -0.908  -4.025   5.982  1.00  0.00    -0.250 OA
BRANCH   5   7
ATOM      7  C   UNL     1      -1.556  -1.878   4.973  1.00  0.00     0.194 C 
BRANCH   7   8
ATOM      8  C   UNL     1      -2.591  -2.519   4.007  1.00  0.00     0.017 C 
ATOM      9  C   UNL     1      -3.883  -2.863   4.772  1.00  0.00     0.010 C 
ATOM     10  C   UNL     1      -3.010  -1.656   2.808  1.00  0.00     0.010 C 
ENDBRANCH   7   8
BRANCH   7  11
ATOM     11  N   UNL     1      -1.021  -0.592   4.522  1.00  0.00    -0.341 N 
ATOM     12  C   UNL     1      -0.042  -0.230   3.654  1.00  0.00     0.243 C 
ATOM     13  H   UNL     1      -1.469   0.179   4.940  1.00  0.00     0.164 HD
ATOM     14  O   UNL     1       0.108   0.991   3.526  1.00  0.00    -0.273 OA
BRANCH  12  15
ATOM     15  C   UNL     1       0.922  -1.250   2.989  1.00  0.00     0.168 C 
ATOM     16  C   UNL     1       1.749  -0.495   1.944  1.00  0.00     0.041 C 
BRANCH  15  17
ATOM     17  N   UNL     1       0.204  -2.336   2.316  1.00  0.00    -0.340 N 
ATOM     18  C   UNL     1       0.375  -3.682   2.279  1.00  0.00     0.275 C 
ATOM     19  H   UNL     1      -0.560  -2.024   1.779  1.00  0.00     0.164 HD
ATOM     20  O   UNL     1      -0.384  -4.319   1.542  1.00  0.00    -0.268 OA
BRANCH  18  21
ATOM     21  C   UNL     1       1.376  -4.418   3.160  1.00  0.00     0.360 C 
BRANCH  21  22
ATOM     22  N   UNL     1       2.740  -3.891   3.041  1.00  0.00    -0.350 N 
ATOM     23  H   UNL     1       3.065  -4.004   2.081  1.00  0.00     0.344 HD
ATOM     24  H   UNL     1       3.358  -4.401   3.672  1.00  0.00     0.344 HD
ATOM     25  H   UNL     1       2.744  -2.901   3.287  1.00  0.00     0.344 HD
ENDBRANCH  21  22
ENDBRANCH  18  21
ENDBRANCH  15  17
ENDBRANCH  12  15
ENDBRANCH   7  11
ENDBRANCH   5   7
ENDBRANCH   4   5
ENDBRANCH   3   4
ENDBRANCH   2   3
ENDBRANCH   1   2
BRANCH   1  26
ATOM     26  C   UNL     1       0.790  -1.115   8.401  1.00  0.00     0.188 C 
BRANCH  26  27
ATOM     27  C   UNL     1       0.733   0.001   7.344  1.00  0.00     0.188 C 
BRANCH  27  28
ATOM     28  O   UNL     1       1.951   0.239   6.663  1.00  0.00    -0.376 OA
BRANCH  28  29
ATOM     29  C   UNL     1       2.462   1.561   6.793  1.00  0.00     0.202 C 
BRANCH  29  30
ATOM     30  C   UNL     1       3.008   1.888   8.192  1.00  0.00     0.261 C 
BRANCH  30  31
ATOM     31  O   UNL     1       2.083   1.685   9.277  1.00  0.00    -0.460 OA
BRANCH  31  32
ATOM     32  C   UNL     1       1.002   2.511   9.357  1.00  0.00     0.338 C 
ATOM     33  O   UNL     1       0.756   3.461   8.660  1.00  0.00    -0.246 OA
BRANCH  32  34
ATOM     34  C   UNL     1       0.036   1.846  10.277  1.00  0.00     0.060 A 
ATOM     35  C   UNL     1      -1.248   1.533   9.801  1.00  0.00     0.016 A 
ATOM     36  C   UNL     1       0.436   1.419  11.543  1.00  0.00     0.016 A 
ATOM     37  C   UNL     1      -2.122   0.766  10.581  1.00  0.00     0.010 A 
ATOM     38  C   UNL     1      -0.452   0.688  12.338  1.00  0.00     0.010 A 
ATOM     39  C   UNL     1      -1.735   0.360  11.865  1.00  0.00    -0.014 A 
BRANCH  39  40
ATOM     40  C   UNL     1      -2.714  -0.240  12.804  1.00  0.00     0.031 A 
ATOM     41  C   UNL     1      -3.454   0.682  13.730  1.00  0.00     0.074 A 
ATOM     42  C   UNL     1      -2.906  -1.570  12.884  1.00  0.00     0.049 A 
ATOM     43  N   UNL     1      -4.230   0.402  14.744  1.00  0.00    -0.248 NA
ATOM     44  C   UNL     1      -3.284   2.123  13.477  1.00  0.00     0.031 C 
ATOM     45  C   UNL     1      -2.290  -2.570  12.016  1.00  0.00     0.029 A 
ATOM     46  N   UNL     1      -3.660  -2.307  13.766  1.00  0.00    -0.354 N 
ATOM     47  C   UNL     1      -4.629   1.627  15.259  1.00  0.00     0.074 A 
ATOM     48  C   UNL     1      -4.000   2.654  14.456  1.00  0.00     0.031 C 
ATOM     49  C   UNL     1      -2.666  -3.794  12.429  1.00  0.00     0.029 A 
ATOM     50  C   UNL     1      -3.512  -3.665  13.616  1.00  0.00     0.049 A 
ATOM     51  H   UNL     1      -4.251  -1.900  14.441  1.00  0.00     0.167 HD
ATOM     52  C   UNL     1      -5.445   1.875  16.309  1.00  0.00     0.037 A 
ATOM     53  C   UNL     1      -3.969  -4.680  14.378  1.00  0.00     0.037 A 
ATOM     54  C   UNL     1      -6.059   0.856  17.116  1.00  0.00     0.049 A 
ATOM     55  C   UNL     1      -4.794  -4.376  15.607  1.00  0.00     0.074 A 
ATOM     56  C   UNL     1      -6.925   1.008  18.184  1.00  0.00     0.029 A 
ATOM     57  N   UNL     1      -5.856  -0.506  16.953  1.00  0.00    -0.354 N 
ATOM     58  N   UNL     1      -5.196  -3.218  16.072  1.00  0.00    -0.248 NA
ATOM     59  C   UNL     1      -5.218  -5.524  16.425  1.00  0.00     0.031 C 
ATOM     60  C   UNL     1      -7.199  -0.260  18.706  1.00  0.00     0.029 A 
ATOM     61  C   UNL     1      -6.550  -1.205  17.928  1.00  0.00     0.049 A 
ATOM     62  H   UNL     1      -5.303  -0.916  16.250  1.00  0.00     0.167 HD
ATOM     63  C   UNL     1      -5.933  -3.497  17.217  1.00  0.00     0.074 A 
ATOM     64  C   UNL     1      -5.939  -4.936  17.370  1.00  0.00     0.031 C 
ATOM     65  C   UNL     1      -6.548  -2.639  18.068  1.00  0.00     0.037 A 
BRANCH  52  66
ATOM     66  C   UNL     1      -5.688   3.309  16.670  1.00  0.00     0.064 A 
ATOM     67  C   UNL     1      -6.476   4.149  15.869  1.00  0.00     0.173 A 
ATOM     68  C   UNL     1      -5.149   3.842  17.851  1.00  0.00     0.173 A 
ATOM     69  F   UNL     1      -6.998   3.691  14.721  1.00  0.00    -0.203 F 
ATOM     70  C   UNL     1      -6.697   5.476  16.226  1.00  0.00     0.198 A 
ATOM     71  C   UNL     1      -5.395   5.161  18.219  1.00  0.00     0.198 A 
ATOM     72  F   UNL     1      -4.387   3.080  18.651  1.00  0.00    -0.203 F 
ATOM     73  F   UNL     1      -7.414   6.274  15.423  1.00  0.00    -0.200 F 
ATOM     74  C   UNL     1      -6.163   5.979  17.404  1.00  0.00     0.200 A 
ATOM     75  F   UNL     1      -4.888   5.642  19.362  1.00  0.00    -0.200 F 
ATOM     76  F   UNL     1      -6.383   7.254  17.750  1.00  0.00    -0.200 F 
ENDBRANCH  52  66
BRANCH  53  77
ATOM     77  C   UNL     1      -3.624  -6.088  14.038  1.00  0.00     0.064 A 
ATOM     78  C   UNL     1      -4.611  -6.998  13.633  1.00  0.00     0.173 A 
ATOM     79  C   UNL     1      -2.309  -6.564  14.154  1.00  0.00     0.173 A 
ATOM     80  F   UNL     1      -5.889  -6.602  13.543  1.00  0.00    -0.203 F 
ATOM     81  C   UNL     1      -4.299  -8.332  13.374  1.00  0.00     0.198 A 
ATOM     82  C   UNL     1      -1.994  -7.891  13.865  1.00  0.00     0.198 A 
ATOM     83  F   UNL     1      -1.328  -5.740  14.551  1.00  0.00    -0.203 F 
ATOM     84  F   UNL     1      -5.272  -9.192  13.042  1.00  0.00    -0.200 F 
ATOM     85  C   UNL     1      -2.990  -8.775  13.483  1.00  0.00     0.200 A 
ATOM     86  F   UNL     1      -0.726  -8.313  13.967  1.00  0.00    -0.200 F 
ATOM     87  F   UNL     1      -2.692 -10.058  13.235  1.00  0.00    -0.200 F 
ENDBRANCH  53  77
BRANCH  65  88
ATOM     88  C   UNL     1      -7.297  -3.223  19.231  1.00  0.00     0.064 A 
ATOM     89  C   UNL     1      -6.628  -3.787  20.328  1.00  0.00     0.173 A 
ATOM     90  C   UNL     1      -8.698  -3.157  19.282  1.00  0.00     0.173 A 
ATOM     91  F   UNL     1      -5.290  -3.886  20.323  1.00  0.00    -0.203 F 
ATOM     92  C   UNL     1      -7.335  -4.277  21.423  1.00  0.00     0.198 A 
ATOM     93  C   UNL     1      -9.400  -3.620  20.392  1.00  0.00     0.198 A 
ATOM     94  F   UNL     1      -9.387  -2.620  18.263  1.00  0.00    -0.203 F 
ATOM     95  F   UNL     1      -6.676  -4.845  22.443  1.00  0.00    -0.200 F 
ATOM     96  C   UNL     1      -8.718  -4.184  21.459  1.00  0.00     0.200 A 
ATOM     97  F   UNL     1     -10.735  -3.514  20.431  1.00  0.00    -0.200 F 
ATOM     98  F   UNL     1      -9.395  -4.641  22.521  1.00  0.00    -0.200 F 
ENDBRANCH  65  88
ENDBRANCH  39  40
ENDBRANCH  32  34
ENDBRANCH  31  32
ENDBRANCH  30  31
ENDBRANCH  29  30
ENDBRANCH  28  29
ENDBRANCH  27  28
ENDBRANCH  26  27
ENDBRANCH   1  26
TORSDOF 23
