REMARK SMILES Cc1ccc(C)c([C@H]([NH3+])CCCCC(=O)OCCOCCOCCOC(=O)c2ccc(-c3c4nc(c(-c5c(F)c(F)c(F)c(F)c5F)c5ccc([nH]5)c(-c5c(F)c(F)c(F)c(F)c5F)c5nc(c(-c6c(F)c(F)c(F)c(F)c6F)c6ccc3[nH]6)C=C5)C=C4)cc2)c1
REMARK SMILES IDX 19 1 18 2 17 3 16 4 14 5 15 6 13 7 12 8 11 9 10 10 8 11 7 12
REMARK SMILES IDX 1 13 2 14 3 15 91 16 4 17 5 18 6 19 9 20 20 24 21 25 22 26
REMARK SMILES IDX 23 27 24 28 25 29 26 30 27 31 28 32 29 33 90 34 30 35 89 36
REMARK SMILES IDX 31 37 32 38 33 39 83 40 34 41 88 42 82 43 84 44 35 45 87 46
REMARK SMILES IDX 81 47 80 48 36 50 68 51 48 52 67 53 49 54 52 55 66 56 85 57
REMARK SMILES IDX 50 58 51 59 65 61 86 62 53 63 37 64 38 65 46 66 39 67 40 68
REMARK SMILES IDX 44 69 47 70 41 71 42 72 45 73 43 74 69 75 70 76 78 77 71 78
REMARK SMILES IDX 72 79 76 80 79 81 73 82 74 83 77 84 75 85 54 86 55 87 63 88
REMARK SMILES IDX 56 89 57 90 61 91 64 92 58 93 59 94 62 95 60 96
REMARK H PARENT 9 21 9 22 9 23 84 49 52 60
REMARK Flexibility Score: inf
ROOT
ATOM      1  O   UNL     1      -2.163   6.888   7.553  1.00  0.00    -0.376 OA
ENDROOT
BRANCH   1   2
ATOM      2  C   UNL     1      -3.336   6.433   6.876  1.00  0.00     0.202 C 
BRANCH   2   3
ATOM      3  C   UNL     1      -3.473   6.839   5.386  1.00  0.00     0.261 C 
BRANCH   3   4
ATOM      4  O   UNL     1      -2.386   6.363   4.544  1.00  0.00    -0.463 OA
BRANCH   4   5
ATOM      5  C   UNL     1      -2.318   6.861   3.278  1.00  0.00     0.305 C 
ATOM      6  O   UNL     1      -2.464   8.050   3.021  1.00  0.00    -0.252 OA
BRANCH   5   7
ATOM      7  C   UNL     1      -2.234   5.763   2.191  1.00  0.00     0.123 C 
BRANCH   7   8
ATOM      8  C   UNL     1      -0.956   4.909   2.055  1.00  0.00     0.012 C 
BRANCH   8   9
ATOM      9  C   UNL     1      -1.119   3.372   1.858  1.00  0.00     0.007 C 
BRANCH   9  10
ATOM     10  C   UNL     1      -1.950   2.841   0.689  1.00  0.00     0.070 C 
BRANCH  10  11
ATOM     11  C   UNL     1      -1.196   2.529  -0.619  1.00  0.00     0.212 C 
BRANCH  11  12
ATOM     12  C   UNL     1      -2.206   2.577  -1.767  1.00  0.00     0.012 A 
ATOM     13  C   UNL     1      -4.314   0.169  -3.887  1.00  0.00     0.044 C 
ATOM     14  C   UNL     1      -3.741   1.429  -3.310  1.00  0.00    -0.051 A 
ATOM     15  C   UNL     1      -4.166   2.666  -3.795  1.00  0.00     0.004 A 
ATOM     16  C   UNL     1      -2.767   1.394  -2.301  1.00  0.00     0.013 A 
ATOM     17  C   UNL     1      -3.639   3.845  -3.271  1.00  0.00     0.004 A 
ATOM     18  C   UNL     1      -2.666   3.820  -2.260  1.00  0.00    -0.042 A 
ATOM     19  C   UNL     1      -2.207   5.152  -1.725  1.00  0.00     0.045 C 
ENDBRANCH  11  12
BRANCH  11  20
ATOM     20  N   UNL     1      -0.498   1.236  -0.533  1.00  0.00    -0.351 N 
ATOM     21  H   UNL     1      -1.177   0.494  -0.364  1.00  0.00     0.345 HD
ATOM     22  H   UNL     1       0.174   1.263   0.234  1.00  0.00     0.345 HD
ATOM     23  H   UNL     1      -0.008   1.056  -1.409  1.00  0.00     0.345 HD
ENDBRANCH  11  20
ENDBRANCH  10  11
ENDBRANCH   9  10
ENDBRANCH   8   9
ENDBRANCH   7   8
ENDBRANCH   5   7
ENDBRANCH   4   5
ENDBRANCH   3   4
ENDBRANCH   2   3
ENDBRANCH   1   2
BRANCH   1  24
ATOM     24  C   UNL     1      -0.964   6.155   7.288  1.00  0.00     0.188 C 
BRANCH  24  25
ATOM     25  C   UNL     1      -0.798   4.831   8.066  1.00  0.00     0.188 C 
BRANCH  25  26
ATOM     26  O   UNL     1      -1.816   3.909   7.716  1.00  0.00    -0.376 OA
BRANCH  26  27
ATOM     27  C   UNL     1      -1.841   2.663   8.390  1.00  0.00     0.202 C 
BRANCH  27  28
ATOM     28  C   UNL     1      -0.558   1.819   8.417  1.00  0.00     0.261 C 
BRANCH  28  29
ATOM     29  O   UNL     1       0.333   1.691   7.274  1.00  0.00    -0.460 OA
BRANCH  29  30
ATOM     30  C   UNL     1       0.129   1.835   5.952  1.00  0.00     0.338 C 
ATOM     31  O   UNL     1       1.053   1.924   5.146  1.00  0.00    -0.246 OA
BRANCH  30  32
ATOM     32  C   UNL     1      -1.250   2.013   5.517  1.00  0.00     0.060 A 
ATOM     33  C   UNL     1      -1.588   3.279   5.085  1.00  0.00     0.016 A 
ATOM     34  C   UNL     1      -2.224   1.016   5.613  1.00  0.00     0.016 A 
ATOM     35  C   UNL     1      -2.928   3.560   4.874  1.00  0.00     0.010 A 
ATOM     36  C   UNL     1      -3.582   1.353   5.456  1.00  0.00     0.010 A 
ATOM     37  C   UNL     1      -3.949   2.662   5.146  1.00  0.00    -0.014 A 
BRANCH  37  38
ATOM     38  C   UNL     1      -5.287   3.121   4.708  1.00  0.00     0.031 A 
ATOM     39  C   UNL     1      -5.422   3.027   3.229  1.00  0.00     0.074 A 
ATOM     40  C   UNL     1      -6.276   3.657   5.469  1.00  0.00     0.049 A 
ATOM     41  N   UNL     1      -5.705   3.986   2.405  1.00  0.00    -0.248 NA
ATOM     42  C   UNL     1      -5.053   1.759   2.577  1.00  0.00     0.031 C 
ATOM     43  C   UNL     1      -6.279   3.784   6.926  1.00  0.00     0.029 A 
ATOM     44  N   UNL     1      -7.534   4.137   5.130  1.00  0.00    -0.354 N 
ATOM     45  C   UNL     1      -5.781   3.371   1.160  1.00  0.00     0.074 A 
ATOM     46  C   UNL     1      -5.206   2.062   1.290  1.00  0.00     0.031 C 
ATOM     47  C   UNL     1      -7.534   4.051   7.353  1.00  0.00     0.029 A 
ATOM     48  C   UNL     1      -8.424   4.190   6.209  1.00  0.00     0.049 A 
ATOM     49  H   UNL     1      -7.777   4.414   4.217  1.00  0.00     0.167 HD
ATOM     50  C   UNL     1      -6.695   3.793   0.252  1.00  0.00     0.037 A 
ATOM     51  C   UNL     1      -9.786   4.281   6.205  1.00  0.00     0.037 A 
ATOM     52  C   UNL     1      -7.054   5.167   0.434  1.00  0.00     0.049 A 
ATOM     53  C   UNL     1     -10.232   4.844   4.916  1.00  0.00     0.074 A 
ATOM     54  C   UNL     1      -6.530   6.408   0.149  1.00  0.00     0.029 A 
ATOM     55  N   UNL     1      -8.039   5.351   1.353  1.00  0.00    -0.354 N 
ATOM     56  N   UNL     1     -10.179   6.111   4.629  1.00  0.00    -0.248 NA
ATOM     57  C   UNL     1     -10.551   3.953   3.804  1.00  0.00     0.031 C 
ATOM     58  C   UNL     1      -7.260   7.351   0.933  1.00  0.00     0.029 A 
ATOM     59  C   UNL     1      -8.231   6.667   1.653  1.00  0.00     0.049 A 
ATOM     60  H   UNL     1      -8.555   4.617   1.757  1.00  0.00     0.167 HD
ATOM     61  C   UNL     1      -9.994   6.123   3.268  1.00  0.00     0.074 A 
ATOM     62  C   UNL     1     -10.419   4.814   2.793  1.00  0.00     0.031 C 
ATOM     63  C   UNL     1      -9.127   7.017   2.721  1.00  0.00     0.037 A 
BRANCH  50  64
ATOM     64  C   UNL     1      -7.670   2.801  -0.351  1.00  0.00     0.064 A 
ATOM     65  C   UNL     1      -8.465   3.170  -1.446  1.00  0.00     0.173 A 
ATOM     66  C   UNL     1      -8.051   1.599   0.298  1.00  0.00     0.173 A 
ATOM     67  F   UNL     1      -8.268   4.345  -2.064  1.00  0.00    -0.203 F 
ATOM     68  C   UNL     1      -9.538   2.378  -1.873  1.00  0.00     0.198 A 
ATOM     69  C   UNL     1      -9.065   0.775  -0.175  1.00  0.00     0.198 A 
ATOM     70  F   UNL     1      -7.553   1.246   1.489  1.00  0.00    -0.203 F 
ATOM     71  F   UNL     1     -10.339   2.814  -2.854  1.00  0.00    -0.200 F 
ATOM     72  C   UNL     1      -9.822   1.172  -1.252  1.00  0.00     0.200 A 
ATOM     73  F   UNL     1      -9.350  -0.360   0.479  1.00  0.00    -0.200 F 
ATOM     74  F   UNL     1     -10.861   0.425  -1.646  1.00  0.00    -0.200 F 
ENDBRANCH  50  64
BRANCH  51  75
ATOM     75  C   UNL     1     -10.814   3.816   7.187  1.00  0.00     0.064 A 
ATOM     76  C   UNL     1     -12.166   4.223   7.093  1.00  0.00     0.173 A 
ATOM     77  C   UNL     1     -10.565   2.736   8.051  1.00  0.00     0.173 A 
ATOM     78  F   UNL     1     -12.523   5.227   6.279  1.00  0.00    -0.203 F 
ATOM     79  C   UNL     1     -13.194   3.554   7.770  1.00  0.00     0.198 A 
ATOM     80  C   UNL     1     -11.592   2.077   8.735  1.00  0.00     0.198 A 
ATOM     81  F   UNL     1      -9.332   2.230   8.180  1.00  0.00    -0.203 F 
ATOM     82  F   UNL     1     -14.470   3.924   7.585  1.00  0.00    -0.200 F 
ATOM     83  C   UNL     1     -12.907   2.470   8.577  1.00  0.00     0.200 A 
ATOM     84  F   UNL     1     -11.302   1.011   9.494  1.00  0.00    -0.200 F 
ATOM     85  F   UNL     1     -13.894   1.781   9.166  1.00  0.00    -0.200 F 
ENDBRANCH  51  75
BRANCH  63  86
ATOM     86  C   UNL     1      -9.024   8.355   3.359  1.00  0.00     0.064 A 
ATOM     87  C   UNL     1      -8.504   8.599   4.638  1.00  0.00     0.173 A 
ATOM     88  C   UNL     1      -9.453   9.454   2.600  1.00  0.00     0.173 A 
ATOM     89  F   UNL     1      -8.019   7.599   5.391  1.00  0.00    -0.203 F 
ATOM     90  C   UNL     1      -8.450   9.897   5.144  1.00  0.00     0.198 A 
ATOM     91  C   UNL     1      -9.362  10.748   3.092  1.00  0.00     0.198 A 
ATOM     92  F   UNL     1      -9.941   9.267   1.363  1.00  0.00    -0.203 F 
ATOM     93  F   UNL     1      -7.974  10.116   6.378  1.00  0.00    -0.200 F 
ATOM     94  C   UNL     1      -8.870  10.969   4.368  1.00  0.00     0.200 A 
ATOM     95  F   UNL     1      -9.740  11.779   2.325  1.00  0.00    -0.200 F 
ATOM     96  F   UNL     1      -8.788  12.218   4.844  1.00  0.00    -0.200 F 
ENDBRANCH  63  86
ENDBRANCH  37  38
ENDBRANCH  30  32
ENDBRANCH  29  30
ENDBRANCH  28  29
ENDBRANCH  27  28
ENDBRANCH  26  27
ENDBRANCH  25  26
ENDBRANCH  24  25
ENDBRANCH   1  24
TORSDOF 23
