REMARK SMILES Cc1ccc(-c2cc(C(=O)OCCOCCOCCOC(=O)c3ccc(-c4c5nc(c(-c6c(F)c(F)c(F)c(F)c6F)c6ccc([nH]6)c(-c6c(F)c(F)c(F)c(F)c6F)c6nc(c(-c7c(F)c(F)c(F)c(F)c7F)c7ccc4[nH]7)C=C6)C=C5)cc3)c3c(-c4cccc([N+](=O)[O-])c4)[nH]nc3n2)cc1
REMARK SMILES IDX 15 1 14 2 13 3 12 4 11 5 9 6 10 7 8 8 6 9 7 10 100 11 99 12
REMARK SMILES IDX 86 13 98 14 87 15 97 16 5 18 1 19 2 20 3 21 102 22 4 23
REMARK SMILES IDX 101 24 88 25 89 26 96 27 90 28 92 29 91 30 93 31 94 32 95 33
REMARK SMILES IDX 16 34 17 35 18 36 19 37 20 38 21 39 22 40 23 41 24 42 85 43
REMARK SMILES IDX 25 44 84 45 26 46 27 47 28 48 78 49 29 50 83 51 77 52 79 53
REMARK SMILES IDX 30 54 82 55 76 56 75 57 31 59 63 60 43 61 62 62 44 63 47 64
REMARK SMILES IDX 61 65 80 66 45 67 46 68 60 70 81 71 48 72 32 73 33 74 41 75
REMARK SMILES IDX 34 76 35 77 39 78 42 79 36 80 37 81 40 82 38 83 64 84 65 85
REMARK SMILES IDX 73 86 66 87 67 88 71 89 74 90 68 91 69 92 72 93 70 94 49 95
REMARK SMILES IDX 50 96 58 97 51 98 52 99 56 100 59 101 53 102 54 103 57 104
REMARK SMILES IDX 55 105
REMARK H PARENT 97 17 79 58 47 69
REMARK Flexibility Score: inf
ROOT
ATOM      1  C   UNL     1      -6.834   1.405  -6.711  1.00  0.00     0.188 C 
ENDROOT
BRANCH   1   2
ATOM      2  O   UNL     1      -5.400   1.665  -6.700  1.00  0.00    -0.376 OA
BRANCH   2   3
ATOM      3  C   UNL     1      -4.791   2.524  -5.693  1.00  0.00     0.202 C 
BRANCH   3   4
ATOM      4  C   UNL     1      -3.662   1.877  -4.547  1.00  0.00     0.261 C 
BRANCH   4   5
ATOM      5  O   UNL     1      -3.909   0.956  -3.059  1.00  0.00    -0.460 OA
BRANCH   5   6
ATOM      6  C   UNL     1      -4.659   0.863  -1.801  1.00  0.00     0.339 C 
ATOM      7  O   UNL     1      -5.396   1.687  -1.262  1.00  0.00    -0.246 OA
BRANCH   6   8
ATOM      8  C   UNL     1      -4.401  -0.200  -0.835  1.00  0.00     0.075 A 
ATOM      9  C   UNL     1      -2.504  -0.593   0.645  1.00  0.00     0.074 A 
ATOM     10  C   UNL     1      -3.033  -0.240  -0.600  1.00  0.00     0.045 A 
ATOM     11  N   UNL     1      -3.173  -1.028   1.726  1.00  0.00    -0.226 NA
ATOM     12  C   UNL     1      -4.510  -1.037   1.558  1.00  0.00     0.182 A 
ATOM     13  C   UNL     1      -5.190  -0.626   0.323  1.00  0.00     0.061 A 
ATOM     14  N   UNL     1      -5.335  -1.394   2.530  1.00  0.00    -0.154 NA
ATOM     15  C   UNL     1      -6.552  -0.763   0.681  1.00  0.00     0.076 A 
ATOM     16  N   UNL     1      -6.524  -1.204   1.997  1.00  0.00    -0.275 N 
ATOM     17  H   UNL     1      -7.351  -1.365   2.506  1.00  0.00     0.190 HD
BRANCH   9  18
ATOM     18  C   UNL     1      -1.070  -0.466   0.777  1.00  0.00     0.000 A 
ATOM     19  C   UNL     1       3.103  -0.114  -0.050  1.00  0.00     0.044 C 
ATOM     20  C   UNL     1       1.657  -0.221   0.317  1.00  0.00    -0.051 A 
ATOM     21  C   UNL     1       1.063  -1.488   0.364  1.00  0.00     0.004 A 
ATOM     22  C   UNL     1       0.896   0.922   0.584  1.00  0.00     0.004 A 
ATOM     23  C   UNL     1      -0.295  -1.611   0.602  1.00  0.00     0.010 A 
ATOM     24  C   UNL     1      -0.468   0.802   0.817  1.00  0.00     0.010 A 
ENDBRANCH   9  18
BRANCH  15  25
ATOM     25  C   UNL     1      -7.947  -0.747   0.190  1.00  0.00     0.007 A 
ATOM     26  C   UNL     1      -8.877   0.155   0.759  1.00  0.00     0.011 A 
ATOM     27  C   UNL     1      -8.477  -1.884  -0.443  1.00  0.00     0.096 A 
ATOM     28  C   UNL     1     -10.270  -0.051   0.679  1.00  0.00     0.008 A 
ATOM     29  C   UNL     1      -9.875  -2.059  -0.570  1.00  0.00     0.270 A 
ATOM     30  C   UNL     1     -10.776  -1.155   0.003  1.00  0.00     0.085 A 
BRANCH  29  31
ATOM     31  N   UNL     1     -10.403  -3.164  -1.382  1.00  0.00     0.062 N 
ATOM     32  O   UNL     1     -11.565  -3.061  -1.806  1.00  0.00    -0.258 OA
ATOM     33  O   UNL     1      -9.651  -4.121  -1.600  1.00  0.00    -0.258 OA
ENDBRANCH  29  31
ENDBRANCH  15  25
ENDBRANCH   6   8
ENDBRANCH   5   6
ENDBRANCH   4   5
ENDBRANCH   3   4
ENDBRANCH   2   3
ENDBRANCH   1   2
BRANCH   1  34
ATOM     34  C   UNL     1      -7.127  -0.061  -7.166  1.00  0.00     0.188 C 
BRANCH  34  35
ATOM     35  O   UNL     1      -5.920  -0.795  -7.020  1.00  0.00    -0.376 OA
BRANCH  35  36
ATOM     36  C   UNL     1      -5.712  -1.958  -7.789  1.00  0.00     0.202 C 
BRANCH  36  37
ATOM     37  C   UNL     1      -6.260  -3.240  -7.140  1.00  0.00     0.261 C 
BRANCH  37  38
ATOM     38  O   UNL     1      -5.824  -3.367  -5.767  1.00  0.00    -0.460 OA
BRANCH  38  39
ATOM     39  C   UNL     1      -6.809  -3.237  -4.826  1.00  0.00     0.338 C 
ATOM     40  O   UNL     1      -7.780  -3.974  -4.731  1.00  0.00    -0.246 OA
BRANCH  39  41
ATOM     41  C   UNL     1      -6.646  -1.955  -4.075  1.00  0.00     0.060 A 
ATOM     42  C   UNL     1      -7.649  -1.254  -3.404  1.00  0.00     0.016 A 
ATOM     43  C   UNL     1      -5.532  -1.247  -4.323  1.00  0.00     0.016 A 
ATOM     44  C   UNL     1      -7.540   0.169  -3.055  1.00  0.00     0.010 A 
ATOM     45  C   UNL     1      -5.684   0.142  -4.291  1.00  0.00     0.010 A 
ATOM     46  C   UNL     1      -6.543   0.996  -3.550  1.00  0.00    -0.014 A 
BRANCH  46  47
ATOM     47  C   UNL     1      -6.361   2.668  -3.302  1.00  0.00     0.031 A 
ATOM     48  C   UNL     1      -5.080   3.660  -2.606  1.00  0.00     0.074 A 
ATOM     49  C   UNL     1      -7.386   3.476  -3.683  1.00  0.00     0.049 A 
ATOM     50  N   UNL     1      -5.256   4.897  -2.161  1.00  0.00    -0.248 NA
ATOM     51  C   UNL     1      -3.629   3.387  -2.346  1.00  0.00     0.031 C 
ATOM     52  C   UNL     1      -7.340   4.935  -3.813  1.00  0.00     0.029 A 
ATOM     53  N   UNL     1      -8.732   3.177  -3.930  1.00  0.00    -0.354 N 
ATOM     54  C   UNL     1      -4.027   5.517  -1.879  1.00  0.00     0.074 A 
ATOM     55  C   UNL     1      -3.040   4.531  -2.049  1.00  0.00     0.031 C 
ATOM     56  C   UNL     1      -8.576   5.425  -3.691  1.00  0.00     0.029 A 
ATOM     57  C   UNL     1      -9.465   4.311  -3.482  1.00  0.00     0.049 A 
ATOM     58  H   UNL     1      -9.096   2.354  -4.330  1.00  0.00     0.167 HD
ATOM     59  C   UNL     1      -3.865   6.831  -1.557  1.00  0.00     0.037 A 
ATOM     60  C   UNL     1     -10.440   4.236  -2.537  1.00  0.00     0.037 A 
ATOM     61  C   UNL     1      -5.139   7.450  -1.337  1.00  0.00     0.049 A 
ATOM     62  C   UNL     1     -10.198   5.053  -1.288  1.00  0.00     0.074 A 
ATOM     63  C   UNL     1      -5.968   8.231  -2.115  1.00  0.00     0.029 A 
ATOM     64  N   UNL     1      -5.886   7.010  -0.260  1.00  0.00    -0.354 N 
ATOM     65  N   UNL     1      -9.212   5.889  -1.127  1.00  0.00    -0.248 NA
ATOM     66  C   UNL     1     -11.017   4.942  -0.081  1.00  0.00     0.031 C 
ATOM     67  C   UNL     1      -7.245   8.237  -1.508  1.00  0.00     0.029 A 
ATOM     68  C   UNL     1      -7.180   7.466  -0.362  1.00  0.00     0.049 A 
ATOM     69  H   UNL     1      -5.541   6.451   0.473  1.00  0.00     0.167 HD
ATOM     70  C   UNL     1      -9.179   6.330   0.179  1.00  0.00     0.074 A 
ATOM     71  C   UNL     1     -10.373   5.763   0.769  1.00  0.00     0.031 C 
ATOM     72  C   UNL     1      -8.142   7.086   0.656  1.00  0.00     0.037 A 
BRANCH  59  73
ATOM     73  C   UNL     1      -2.541   7.577  -1.714  1.00  0.00     0.064 A 
ATOM     74  C   UNL     1      -2.523   8.871  -2.276  1.00  0.00     0.173 A 
ATOM     75  C   UNL     1      -1.261   7.037  -1.470  1.00  0.00     0.173 A 
ATOM     76  F   UNL     1      -3.646   9.584  -2.415  1.00  0.00    -0.203 F 
ATOM     77  C   UNL     1      -1.350   9.478  -2.737  1.00  0.00     0.198 A 
ATOM     78  C   UNL     1      -0.091   7.610  -1.993  1.00  0.00     0.198 A 
ATOM     79  F   UNL     1      -1.100   5.959  -0.689  1.00  0.00    -0.203 F 
ATOM     80  F   UNL     1      -1.407  10.695  -3.298  1.00  0.00    -0.200 F 
ATOM     81  C   UNL     1      -0.142   8.819  -2.655  1.00  0.00     0.200 A 
ATOM     82  F   UNL     1       1.081   6.968  -1.871  1.00  0.00    -0.200 F 
ATOM     83  F   UNL     1       0.966   9.356  -3.185  1.00  0.00    -0.200 F 
ENDBRANCH  59  73
BRANCH  60  84
ATOM     84  C   UNL     1     -11.239   2.996  -2.666  1.00  0.00     0.064 A 
ATOM     85  C   UNL     1     -12.237   2.947  -3.653  1.00  0.00     0.173 A 
ATOM     86  C   UNL     1     -10.683   1.788  -2.260  1.00  0.00     0.173 A 
ATOM     87  F   UNL     1     -12.803   4.084  -4.079  1.00  0.00    -0.203 F 
ATOM     88  C   UNL     1     -12.560   1.754  -4.303  1.00  0.00     0.198 A 
ATOM     89  C   UNL     1     -10.984   0.608  -2.943  1.00  0.00     0.198 A 
ATOM     90  F   UNL     1      -9.702   1.809  -1.351  1.00  0.00    -0.203 F 
ATOM     91  F   UNL     1     -13.440   1.752  -5.312  1.00  0.00    -0.200 F 
ATOM     92  C   UNL     1     -11.894   0.592  -3.978  1.00  0.00     0.200 A 
ATOM     93  F   UNL     1     -10.308  -0.511  -2.692  1.00  0.00    -0.200 F 
ATOM     94  F   UNL     1     -12.073  -0.527  -4.693  1.00  0.00    -0.200 F 
ENDBRANCH  60  84
BRANCH  72  95
ATOM     95  C   UNL     1      -7.881   7.567   2.075  1.00  0.00     0.064 A 
ATOM     96  C   UNL     1      -8.373   6.961   3.240  1.00  0.00     0.173 A 
ATOM     97  C   UNL     1      -6.978   8.646   2.300  1.00  0.00     0.173 A 
ATOM     98  F   UNL     1      -9.134   5.862   3.187  1.00  0.00    -0.203 F 
ATOM     99  C   UNL     1      -8.043   7.432   4.519  1.00  0.00     0.198 A 
ATOM    100  C   UNL     1      -6.599   9.068   3.574  1.00  0.00     0.198 A 
ATOM    101  F   UNL     1      -6.413   9.314   1.283  1.00  0.00    -0.203 F 
ATOM    102  F   UNL     1      -8.581   6.846   5.599  1.00  0.00    -0.200 F 
ATOM    103  C   UNL     1      -7.149   8.474   4.687  1.00  0.00     0.200 A 
ATOM    104  F   UNL     1      -5.686  10.041   3.711  1.00  0.00    -0.200 F 
ATOM    105  F   UNL     1      -6.807   8.890   5.913  1.00  0.00    -0.200 F 
ENDBRANCH  72  95
ENDBRANCH  46  47
ENDBRANCH  39  41
ENDBRANCH  38  39
ENDBRANCH  37  38
ENDBRANCH  36  37
ENDBRANCH  35  36
ENDBRANCH  34  35
ENDBRANCH   1  34
TORSDOF 20
