REMARK SMILES O=C(OCCOCCOCCOC(=O)c1cc2ncoc2cn1)c1ccc(-c2c3nc(c(-c4c(F)c(F)c(F)c(F)c4F)c4ccc([nH]4)c(-c4c(F)c(F)c(F)c(F)c4F)c4nc(c(-c5c(F)c(F)c(F)c(F)c5F)c5ccc2[nH]5)C=C4)C=C3)cc1
REMARK SMILES IDX 7 1 6 2 5 3 4 4 3 5 2 6 1 7 24 8 25 9 86 10 26 11 85 12
REMARK SMILES IDX 27 13 28 14 29 15 79 16 30 17 84 18 78 19 80 20 31 21 83 22
REMARK SMILES IDX 77 23 76 24 32 26 64 27 44 28 63 29 45 30 48 31 62 32 81 33
REMARK SMILES IDX 46 34 47 35 61 37 82 38 49 39 33 40 34 41 42 42 35 43 36 44
REMARK SMILES IDX 40 45 43 46 37 47 38 48 41 49 39 50 65 51 66 52 74 53 67 54
REMARK SMILES IDX 68 55 72 56 75 57 69 58 70 59 73 60 71 61 50 62 51 63 59 64
REMARK SMILES IDX 52 65 53 66 57 67 60 68 54 69 55 70 58 71 56 72 8 73 9 74
REMARK SMILES IDX 10 75 11 76 12 77 13 78 14 79 15 80 16 81 23 82 17 83 22 84
REMARK SMILES IDX 18 85 21 86 19 87 20 88
REMARK H PARENT 80 25 48 36
REMARK Flexibility Score: inf
ROOT
ATOM      1  C   UNL     1       1.879   1.363  -0.227  1.00  0.00     0.188 C 
ENDROOT
BRANCH   1   2
ATOM      2  O   UNL     1       3.259   1.626  -0.019  1.00  0.00    -0.376 OA
BRANCH   2   3
ATOM      3  C   UNL     1       4.097   1.326  -1.127  1.00  0.00     0.202 C 
BRANCH   3   4
ATOM      4  C   UNL     1       4.069  -0.116  -1.676  1.00  0.00     0.261 C 
BRANCH   4   5
ATOM      5  O   UNL     1       3.342  -1.159  -0.964  1.00  0.00    -0.460 OA
BRANCH   5   6
ATOM      6  C   UNL     1       3.396  -1.540   0.338  1.00  0.00     0.338 C 
ATOM      7  O   UNL     1       2.622  -2.368   0.802  1.00  0.00    -0.246 OA
BRANCH   6   8
ATOM      8  C   UNL     1       4.319  -0.809   1.216  1.00  0.00     0.060 A 
ATOM      9  C   UNL     1       3.809  -0.236   2.385  1.00  0.00     0.016 A 
ATOM     10  C   UNL     1       5.617  -0.538   0.792  1.00  0.00     0.016 A 
ATOM     11  C   UNL     1       4.537   0.769   3.010  1.00  0.00     0.010 A 
ATOM     12  C   UNL     1       6.285   0.540   1.351  1.00  0.00     0.010 A 
ATOM     13  C   UNL     1       5.728   1.229   2.436  1.00  0.00    -0.014 A 
BRANCH  13  14
ATOM     14  C   UNL     1       6.613   2.103   3.211  1.00  0.00     0.031 A 
ATOM     15  C   UNL     1       7.312   1.309   4.231  1.00  0.00     0.074 A 
ATOM     16  C   UNL     1       6.883   3.416   3.051  1.00  0.00     0.049 A 
ATOM     17  N   UNL     1       7.056   1.364   5.495  1.00  0.00    -0.248 NA
ATOM     18  C   UNL     1       8.196   0.203   3.832  1.00  0.00     0.031 C 
ATOM     19  C   UNL     1       6.264   4.325   2.113  1.00  0.00     0.029 A 
ATOM     20  N   UNL     1       7.806   4.237   3.647  1.00  0.00    -0.354 N 
ATOM     21  C   UNL     1       7.967   0.500   6.063  1.00  0.00     0.074 A 
ATOM     22  C   UNL     1       8.448  -0.361   5.015  1.00  0.00     0.031 C 
ATOM     23  C   UNL     1       6.996   5.439   1.931  1.00  0.00     0.029 A 
ATOM     24  C   UNL     1       8.027   5.425   2.948  1.00  0.00     0.049 A 
ATOM     25  H   UNL     1       8.269   4.010   4.486  1.00  0.00     0.167 HD
ATOM     26  C   UNL     1       8.562   0.858   7.226  1.00  0.00     0.037 A 
ATOM     27  C   UNL     1       8.825   6.479   3.234  1.00  0.00     0.037 A 
ATOM     28  C   UNL     1       7.839   1.899   7.907  1.00  0.00     0.049 A 
ATOM     29  C   UNL     1       9.005   6.482   4.698  1.00  0.00     0.074 A 
ATOM     30  C   UNL     1       6.646   1.980   8.589  1.00  0.00     0.029 A 
ATOM     31  N   UNL     1       8.194   3.173   7.548  1.00  0.00    -0.354 N 
ATOM     32  N   UNL     1       8.053   6.793   5.535  1.00  0.00    -0.248 NA
ATOM     33  C   UNL     1      10.140   5.771   5.272  1.00  0.00     0.031 C 
ATOM     34  C   UNL     1       6.244   3.345   8.543  1.00  0.00     0.029 A 
ATOM     35  C   UNL     1       7.211   4.076   7.857  1.00  0.00     0.049 A 
ATOM     36  H   UNL     1       9.049   3.410   7.122  1.00  0.00     0.167 HD
ATOM     37  C   UNL     1       8.255   5.935   6.597  1.00  0.00     0.074 A 
ATOM     38  C   UNL     1       9.629   5.471   6.468  1.00  0.00     0.031 C 
ATOM     39  C   UNL     1       7.205   5.406   7.283  1.00  0.00     0.037 A 
BRANCH  26  40
ATOM     40  C   UNL     1      10.024   0.633   7.448  1.00  0.00     0.064 A 
ATOM     41  C   UNL     1      10.530   0.621   8.752  1.00  0.00     0.173 A 
ATOM     42  C   UNL     1      10.978   0.690   6.406  1.00  0.00     0.173 A 
ATOM     43  F   UNL     1       9.697   0.658   9.802  1.00  0.00    -0.203 F 
ATOM     44  C   UNL     1      11.905   0.644   8.995  1.00  0.00     0.198 A 
ATOM     45  C   UNL     1      12.344   0.639   6.647  1.00  0.00     0.198 A 
ATOM     46  F   UNL     1      10.624   0.914   5.133  1.00  0.00    -0.203 F 
ATOM     47  F   UNL     1      12.355   0.725  10.253  1.00  0.00    -0.200 F 
ATOM     48  C   UNL     1      12.809   0.634   7.944  1.00  0.00     0.200 A 
ATOM     49  F   UNL     1      13.198   0.670   5.614  1.00  0.00    -0.200 F 
ATOM     50  F   UNL     1      14.126   0.675   8.178  1.00  0.00    -0.200 F 
ENDBRANCH  26  40
BRANCH  27  51
ATOM     51  C   UNL     1       9.461   7.444   2.303  1.00  0.00     0.064 A 
ATOM     52  C   UNL     1      10.147   8.571   2.787  1.00  0.00     0.173 A 
ATOM     53  C   UNL     1       9.649   7.146   0.936  1.00  0.00     0.173 A 
ATOM     54  F   UNL     1      10.038   8.929   4.074  1.00  0.00    -0.203 F 
ATOM     55  C   UNL     1      11.022   9.304   1.977  1.00  0.00     0.198 A 
ATOM     56  C   UNL     1      10.513   7.886   0.127  1.00  0.00     0.198 A 
ATOM     57  F   UNL     1       9.069   6.077   0.372  1.00  0.00    -0.203 F 
ATOM     58  F   UNL     1      11.723  10.318   2.503  1.00  0.00    -0.200 F 
ATOM     59  C   UNL     1      11.220   8.948   0.654  1.00  0.00     0.200 A 
ATOM     60  F   UNL     1      10.706   7.519  -1.149  1.00  0.00    -0.200 F 
ATOM     61  F   UNL     1      12.119   9.598  -0.097  1.00  0.00    -0.200 F 
ENDBRANCH  27  51
BRANCH  39  62
ATOM     62  C   UNL     1       5.930   6.189   7.340  1.00  0.00     0.064 A 
ATOM     63  C   UNL     1       5.079   6.433   6.251  1.00  0.00     0.173 A 
ATOM     64  C   UNL     1       5.513   6.628   8.607  1.00  0.00     0.173 A 
ATOM     65  F   UNL     1       5.398   6.010   5.019  1.00  0.00    -0.203 F 
ATOM     66  C   UNL     1       3.866   7.103   6.434  1.00  0.00     0.198 A 
ATOM     67  C   UNL     1       4.286   7.253   8.790  1.00  0.00     0.198 A 
ATOM     68  F   UNL     1       6.286   6.409   9.683  1.00  0.00    -0.203 F 
ATOM     69  F   UNL     1       3.080   7.380   5.385  1.00  0.00    -0.200 F 
ATOM     70  C   UNL     1       3.464   7.493   7.704  1.00  0.00     0.200 A 
ATOM     71  F   UNL     1       3.897   7.607  10.023  1.00  0.00    -0.200 F 
ATOM     72  F   UNL     1       2.281   8.098   7.884  1.00  0.00    -0.200 F 
ENDBRANCH  39  62
ENDBRANCH  13  14
ENDBRANCH   6   8
ENDBRANCH   5   6
ENDBRANCH   4   5
ENDBRANCH   3   4
ENDBRANCH   2   3
ENDBRANCH   1   2
BRANCH   1  73
ATOM     73  C   UNL     1       0.946   2.564  -0.044  1.00  0.00     0.188 C 
BRANCH  73  74
ATOM     74  O   UNL     1       1.345   3.807  -0.593  1.00  0.00    -0.376 OA
BRANCH  74  75
ATOM     75  C   UNL     1       2.545   4.372  -0.107  1.00  0.00     0.202 C 
BRANCH  75  76
ATOM     76  C   UNL     1       2.928   4.270   1.375  1.00  0.00     0.261 C 
BRANCH  76  77
ATOM     77  O   UNL     1       2.227   3.419   2.292  1.00  0.00    -0.459 OA
BRANCH  77  78
ATOM     78  C   UNL     1       2.219   3.842   3.580  1.00  0.00     0.357 C 
ATOM     79  O   UNL     1       2.466   4.990   3.957  1.00  0.00    -0.244 OA
BRANCH  78  80
ATOM     80  C   UNL     1       1.980   2.716   4.529  1.00  0.00     0.150 A 
ATOM     81  C   UNL     1       1.021   1.744   4.256  1.00  0.00     0.068 A 
ATOM     82  N   UNL     1       2.750   2.743   5.663  1.00  0.00    -0.245 NA
ATOM     83  C   UNL     1       0.833   0.793   5.264  1.00  0.00     0.113 A 
ATOM     84  C   UNL     1       2.598   1.783   6.610  1.00  0.00     0.161 A 
ATOM     85  N   UNL     1      -0.056  -0.250   5.363  1.00  0.00    -0.216 NA
ATOM     86  C   UNL     1       1.618   0.837   6.405  1.00  0.00     0.172 A 
ATOM     87  C   UNL     1       0.210  -0.770   6.543  1.00  0.00     0.309 A 
ATOM     88  O   UNL     1       1.228  -0.177   7.230  1.00  0.00    -0.442 OA
ENDBRANCH  78  80
ENDBRANCH  77  78
ENDBRANCH  76  77
ENDBRANCH  75  76
ENDBRANCH  74  75
ENDBRANCH  73  74
ENDBRANCH   1  73
TORSDOF 17
