REMARK SMILES C[C@H]1[C@@H](C(=O)OCCOCCOCCOC(=O)c2ccc(-c3c4nc(c(-c5c(F)c(F)c(F)c(F)c5F)c5ccc([nH]5)c(-c5c(F)c(F)c(F)c(F)c5F)c5nc(c(-c6c(F)c(F)c(F)c(F)c6F)c6ccc3[nH]6)C=C5)C=C4)cc2)CC[N@@H+]1CC1(O)CCCC1
REMARK SMILES IDX 10 1 9 2 8 3 7 4 6 5 4 6 5 7 3 8 1 9 2 10 83 11 81 12 82 13
REMARK SMILES IDX 84 15 85 16 87 17 90 18 88 19 89 20 86 21 11 23 12 24 13 25
REMARK SMILES IDX 14 26 15 27 16 28 17 29 18 30 19 31 80 32 20 33 79 34 21 35
REMARK SMILES IDX 22 36 23 37 73 38 24 39 78 40 72 41 74 42 25 43 77 44 71 45
REMARK SMILES IDX 70 46 26 48 58 49 38 50 57 51 39 52 42 53 56 54 75 55 40 56
REMARK SMILES IDX 41 57 55 59 76 60 43 61 27 62 28 63 36 64 29 65 30 66 34 67
REMARK SMILES IDX 37 68 31 69 32 70 35 71 33 72 59 73 60 74 68 75 61 76 62 77
REMARK SMILES IDX 66 78 69 79 63 80 64 81 67 82 65 83 44 84 45 85 53 86 46 87
REMARK SMILES IDX 47 88 51 89 54 90 48 91 49 92 52 93 50 94
REMARK H PARENT 83 14 86 22 74 47 42 58
REMARK Flexibility Score: inf
ROOT
ATOM      1  C   UNL     1      -0.284   1.667  -3.639  1.00  0.00     0.188 C 
ENDROOT
BRANCH   1   2
ATOM      2  O   UNL     1       0.512   2.564  -4.386  1.00  0.00    -0.376 OA
BRANCH   2   3
ATOM      3  C   UNL     1       1.847   2.811  -3.969  1.00  0.00     0.202 C 
BRANCH   3   4
ATOM      4  C   UNL     1       2.118   3.224  -2.518  1.00  0.00     0.261 C 
BRANCH   4   5
ATOM      5  O   UNL     1       1.755   2.223  -1.542  1.00  0.00    -0.463 OA
BRANCH   5   6
ATOM      6  C   UNL     1       0.891   2.618  -0.581  1.00  0.00     0.315 C 
ATOM      7  O   UNL     1       0.431   3.757  -0.509  1.00  0.00    -0.252 OA
BRANCH   6   8
ATOM      8  C   UNL     1       0.403   1.544   0.377  1.00  0.00     0.162 C 
ATOM      9  C   UNL     1       2.351  -0.185  -0.027  1.00  0.00     0.076 C 
ATOM     10  C   UNL     1       1.147   0.265   0.794  1.00  0.00     0.195 C 
ATOM     11  N   UNL     1       0.140  -0.818   0.827  1.00  0.00    -0.330 N 
ATOM     12  C   UNL     1      -1.030   1.107   0.055  1.00  0.00     0.083 C 
ATOM     13  C   UNL     1      -1.003  -0.410   0.023  1.00  0.00     0.263 C 
ATOM     14  H   UNL     1       0.594  -1.636   0.421  1.00  0.00     0.348 HD
BRANCH  11  15
ATOM     15  C   UNL     1      -0.236  -1.358   2.148  1.00  0.00     0.297 C 
BRANCH  15  16
ATOM     16  C   UNL     1      -1.102  -0.522   3.137  1.00  0.00     0.113 C 
ATOM     17  C   UNL     1      -0.438   0.757   3.642  1.00  0.00     0.041 C 
ATOM     18  C   UNL     1      -1.359  -1.266   4.453  1.00  0.00     0.041 C 
ATOM     19  C   UNL     1      -1.176   1.123   4.922  1.00  0.00     0.003 C 
ATOM     20  C   UNL     1      -1.812  -0.170   5.421  1.00  0.00     0.003 C 
BRANCH  16  21
ATOM     21  O   UNL     1      -2.381  -0.240   2.553  1.00  0.00    -0.384 OA
ATOM     22  H   UNL     1      -2.256   0.232   1.714  1.00  0.00     0.211 HD
ENDBRANCH  16  21
ENDBRANCH  15  16
ENDBRANCH  11  15
ENDBRANCH   6   8
ENDBRANCH   5   6
ENDBRANCH   4   5
ENDBRANCH   3   4
ENDBRANCH   2   3
ENDBRANCH   1   2
BRANCH   1  23
ATOM     23  C   UNL     1       0.288   0.311  -3.195  1.00  0.00     0.188 C 
BRANCH  23  24
ATOM     24  O   UNL     1       1.442  -0.251  -3.776  1.00  0.00    -0.376 OA
BRANCH  24  25
ATOM     25  C   UNL     1       1.494  -0.444  -5.174  1.00  0.00     0.202 C 
BRANCH  25  26
ATOM     26  C   UNL     1       0.344  -1.156  -5.894  1.00  0.00     0.261 C 
BRANCH  26  27
ATOM     27  O   UNL     1      -0.968  -0.660  -5.588  1.00  0.00    -0.460 OA
BRANCH  27  28
ATOM     28  C   UNL     1      -1.763  -1.505  -4.890  1.00  0.00     0.338 C 
ATOM     29  O   UNL     1      -1.486  -2.627  -4.480  1.00  0.00    -0.246 OA
BRANCH  28  30
ATOM     30  C   UNL     1      -3.015  -0.816  -4.541  1.00  0.00     0.060 A 
ATOM     31  C   UNL     1      -3.358  -0.644  -3.192  1.00  0.00     0.016 A 
ATOM     32  C   UNL     1      -3.877  -0.396  -5.552  1.00  0.00     0.016 A 
ATOM     33  C   UNL     1      -4.577  -0.056  -2.846  1.00  0.00     0.010 A 
ATOM     34  C   UNL     1      -5.105   0.166  -5.206  1.00  0.00     0.010 A 
ATOM     35  C   UNL     1      -5.472   0.317  -3.854  1.00  0.00    -0.014 A 
BRANCH  35  36
ATOM     36  C   UNL     1      -6.870   0.698  -3.545  1.00  0.00     0.031 A 
ATOM     37  C   UNL     1      -7.940  -0.337  -3.734  1.00  0.00     0.074 A 
ATOM     38  C   UNL     1      -7.191   1.950  -3.180  1.00  0.00     0.049 A 
ATOM     39  N   UNL     1      -9.238  -0.194  -3.790  1.00  0.00    -0.248 NA
ATOM     40  C   UNL     1      -7.476  -1.724  -3.895  1.00  0.00     0.031 C 
ATOM     41  C   UNL     1      -6.240   3.019  -2.891  1.00  0.00     0.029 A 
ATOM     42  N   UNL     1      -8.423   2.540  -3.030  1.00  0.00    -0.354 N 
ATOM     43  C   UNL     1      -9.744  -1.466  -4.027  1.00  0.00     0.074 A 
ATOM     44  C   UNL     1      -8.614  -2.365  -4.112  1.00  0.00     0.031 C 
ATOM     45  C   UNL     1      -6.922   4.148  -2.632  1.00  0.00     0.029 A 
ATOM     46  C   UNL     1      -8.353   3.893  -2.799  1.00  0.00     0.049 A 
ATOM     47  H   UNL     1      -9.271   2.044  -3.082  1.00  0.00     0.167 HD
ATOM     48  C   UNL     1     -11.036  -1.841  -4.170  1.00  0.00     0.037 A 
ATOM     49  C   UNL     1      -9.330   4.822  -2.783  1.00  0.00     0.037 A 
ATOM     50  C   UNL     1     -12.149  -0.934  -4.083  1.00  0.00     0.049 A 
ATOM     51  C   UNL     1     -10.756   4.398  -3.041  1.00  0.00     0.074 A 
ATOM     52  C   UNL     1     -13.499  -1.210  -4.209  1.00  0.00     0.029 A 
ATOM     53  N   UNL     1     -12.037   0.430  -3.857  1.00  0.00    -0.354 N 
ATOM     54  N   UNL     1     -11.236   3.201  -3.279  1.00  0.00    -0.248 NA
ATOM     55  C   UNL     1     -11.777   5.457  -3.038  1.00  0.00     0.031 C 
ATOM     56  C   UNL     1     -14.199  -0.004  -4.120  1.00  0.00     0.029 A 
ATOM     57  C   UNL     1     -13.293   1.013  -3.864  1.00  0.00     0.049 A 
ATOM     58  H   UNL     1     -11.191   0.912  -3.712  1.00  0.00     0.167 HD
ATOM     59  C   UNL     1     -12.611   3.355  -3.409  1.00  0.00     0.074 A 
ATOM     60  C   UNL     1     -12.891   4.763  -3.229  1.00  0.00     0.031 C 
ATOM     61  C   UNL     1     -13.556   2.414  -3.648  1.00  0.00     0.037 A 
BRANCH  48  62
ATOM     62  C   UNL     1     -11.312  -3.282  -4.483  1.00  0.00     0.064 A 
ATOM     63  C   UNL     1     -11.106  -4.301  -3.541  1.00  0.00     0.173 A 
ATOM     64  C   UNL     1     -11.820  -3.646  -5.741  1.00  0.00     0.173 A 
ATOM     65  F   UNL     1     -10.610  -4.009  -2.329  1.00  0.00    -0.203 F 
ATOM     66  C   UNL     1     -11.370  -5.632  -3.856  1.00  0.00     0.198 A 
ATOM     67  C   UNL     1     -12.114  -4.973  -6.040  1.00  0.00     0.198 A 
ATOM     68  F   UNL     1     -12.040  -2.711  -6.678  1.00  0.00    -0.203 F 
ATOM     69  F   UNL     1     -11.115  -6.594  -2.958  1.00  0.00    -0.200 F 
ATOM     70  C   UNL     1     -11.880  -5.965  -5.101  1.00  0.00     0.200 A 
ATOM     71  F   UNL     1     -12.623  -5.290  -7.239  1.00  0.00    -0.200 F 
ATOM     72  F   UNL     1     -12.142  -7.245  -5.399  1.00  0.00    -0.200 F 
ENDBRANCH  48  62
BRANCH  49  73
ATOM     73  C   UNL     1      -8.995   6.253  -2.551  1.00  0.00     0.064 A 
ATOM     74  C   UNL     1      -9.430   6.917  -1.395  1.00  0.00     0.173 A 
ATOM     75  C   UNL     1      -8.258   6.993  -3.487  1.00  0.00     0.173 A 
ATOM     76  F   UNL     1     -10.164   6.262  -0.483  1.00  0.00    -0.203 F 
ATOM     77  C   UNL     1      -9.158   8.269  -1.195  1.00  0.00     0.198 A 
ATOM     78  C   UNL     1      -7.958   8.337  -3.270  1.00  0.00     0.198 A 
ATOM     79  F   UNL     1      -7.822   6.410  -4.613  1.00  0.00    -0.203 F 
ATOM     80  F   UNL     1      -9.633   8.892  -0.108  1.00  0.00    -0.200 F 
ATOM     81  C   UNL     1      -8.416   8.976  -2.129  1.00  0.00     0.200 A 
ATOM     82  F   UNL     1      -7.231   9.013  -4.171  1.00  0.00    -0.200 F 
ATOM     83  F   UNL     1      -8.154  10.276  -1.935  1.00  0.00    -0.200 F 
ENDBRANCH  49  73
BRANCH  61  84
ATOM     84  C   UNL     1     -14.996   2.843  -3.652  1.00  0.00     0.064 A 
ATOM     85  C   UNL     1     -15.550   3.577  -4.710  1.00  0.00     0.173 A 
ATOM     86  C   UNL     1     -15.854   2.420  -2.624  1.00  0.00     0.173 A 
ATOM     87  F   UNL     1     -14.771   4.016  -5.710  1.00  0.00    -0.203 F 
ATOM     88  C   UNL     1     -16.910   3.878  -4.734  1.00  0.00     0.198 A 
ATOM     89  C   UNL     1     -17.217   2.695  -2.668  1.00  0.00     0.198 A 
ATOM     90  F   UNL     1     -15.374   1.708  -1.593  1.00  0.00    -0.203 F 
ATOM     91  F   UNL     1     -17.416   4.604  -5.741  1.00  0.00    -0.200 F 
ATOM     92  C   UNL     1     -17.744   3.425  -3.722  1.00  0.00     0.200 A 
ATOM     93  F   UNL     1     -18.023   2.240  -1.698  1.00  0.00    -0.200 F 
ATOM     94  F   UNL     1     -19.056   3.693  -3.762  1.00  0.00    -0.200 F 
ENDBRANCH  61  84
ENDBRANCH  35  36
ENDBRANCH  28  30
ENDBRANCH  27  28
ENDBRANCH  26  27
ENDBRANCH  25  26
ENDBRANCH  24  25
ENDBRANCH  23  24
ENDBRANCH   1  23
TORSDOF 20
