REMARK SMILES O=C(OCCOCCOCCOC(=O)c1ccc(-c2c3nc(c(-c4c(F)c(F)c(F)c(F)c4F)c4ccc([nH]4)c(-c4c(F)c(F)c(F)c(F)c4F)c4nc(c(-c5c(F)c(F)c(F)c(F)c5F)c5ccc2[nH]5)C=C4)C=C3)cc1)c1ccc(C[C@H]2SC(=O)N(c3ccccc3)C2=O)cc1
REMARK SMILES IDX 7 1 6 2 5 3 4 4 3 5 2 6 1 7 78 8 79 9 97 10 80 11 96 12
REMARK SMILES IDX 81 13 82 14 83 15 84 16 94 17 85 18 87 19 95 20 86 21 88 22
REMARK SMILES IDX 89 23 93 24 90 25 92 26 91 27 8 28 9 29 10 30 11 31 12 32
REMARK SMILES IDX 13 33 14 34 15 35 16 36 77 37 17 38 76 39 18 40 19 41 20 42
REMARK SMILES IDX 70 43 21 44 75 45 69 46 71 47 22 48 74 49 68 50 67 51 23 53
REMARK SMILES IDX 55 54 35 55 54 56 36 57 39 58 53 59 72 60 37 61 38 62 52 64
REMARK SMILES IDX 73 65 40 66 24 67 25 68 33 69 26 70 27 71 31 72 34 73 28 74
REMARK SMILES IDX 29 75 32 76 30 77 56 78 57 79 65 80 58 81 59 82 63 83 66 84
REMARK SMILES IDX 60 85 61 86 64 87 62 88 41 89 42 90 50 91 43 92 44 93 48 94
REMARK SMILES IDX 51 95 45 96 46 97 49 98 47 99
REMARK H PARENT 71 52 39 63
REMARK Flexibility Score: inf
ROOT
ATOM      1  C   UNL     1       9.819   1.459   9.062  1.00  0.00     0.188 C 
ENDROOT
BRANCH   1   2
ATOM      2  O   UNL     1       9.618   1.222   7.672  1.00  0.00    -0.376 OA
BRANCH   2   3
ATOM      3  C   UNL     1       8.326   1.466   7.122  1.00  0.00     0.202 C 
BRANCH   3   4
ATOM      4  C   UNL     1       7.087   1.264   8.000  1.00  0.00     0.261 C 
BRANCH   4   5
ATOM      5  O   UNL     1       7.229   0.426   9.168  1.00  0.00    -0.460 OA
BRANCH   5   6
ATOM      6  C   UNL     1       7.494  -0.894   9.273  1.00  0.00     0.338 C 
ATOM      7  O   UNL     1       7.625  -1.428  10.368  1.00  0.00    -0.246 OA
BRANCH   6   8
ATOM      8  C   UNL     1       7.562  -1.731   8.069  1.00  0.00     0.060 A 
ATOM      9  C   UNL     1       8.636  -1.666   7.184  1.00  0.00     0.016 A 
ATOM     10  C   UNL     1       6.582  -2.709   7.901  1.00  0.00     0.016 A 
ATOM     11  C   UNL     1       8.623  -2.426   6.020  1.00  0.00     0.004 A 
ATOM     12  C   UNL     1       6.584  -3.498   6.753  1.00  0.00     0.004 A 
ATOM     13  C   UNL     1       7.564  -3.305   5.771  1.00  0.00    -0.046 A 
BRANCH  13  14
ATOM     14  C   UNL     1       7.419  -3.946   4.414  1.00  0.00     0.060 C 
BRANCH  14  15
ATOM     15  C   UNL     1       6.571  -3.074   3.469  1.00  0.00     0.151 C 
ATOM     16  S   UNL     1       7.399  -1.542   2.967  1.00  0.00    -0.050 SA
ATOM     17  C   UNL     1       6.338  -3.832   2.186  1.00  0.00     0.248 C 
ATOM     18  C   UNL     1       7.812  -2.179   1.390  1.00  0.00     0.293 C 
ATOM     19  N   UNL     1       7.117  -3.344   1.147  1.00  0.00    -0.240 N 
ATOM     20  O   UNL     1       5.605  -4.819   2.169  1.00  0.00    -0.273 OA
ATOM     21  O   UNL     1       8.582  -1.573   0.667  1.00  0.00    -0.261 OA
BRANCH  19  22
ATOM     22  C   UNL     1       7.210  -4.025  -0.100  1.00  0.00     0.053 A 
ATOM     23  C   UNL     1       6.093  -4.670  -0.651  1.00  0.00     0.027 A 
ATOM     24  C   UNL     1       8.427  -4.094  -0.793  1.00  0.00     0.027 A 
ATOM     25  C   UNL     1       6.191  -5.374  -1.853  1.00  0.00     0.002 A 
ATOM     26  C   UNL     1       8.532  -4.823  -1.981  1.00  0.00     0.002 A 
ATOM     27  C   UNL     1       7.415  -5.461  -2.510  1.00  0.00     0.000 A 
ENDBRANCH  19  22
ENDBRANCH  14  15
ENDBRANCH  13  14
ENDBRANCH   6   8
ENDBRANCH   5   6
ENDBRANCH   4   5
ENDBRANCH   3   4
ENDBRANCH   2   3
ENDBRANCH   1   2
BRANCH   1  28
ATOM     28  C   UNL     1      11.288   1.727   9.394  1.00  0.00     0.188 C 
BRANCH  28  29
ATOM     29  O   UNL     1      11.831   2.934   8.874  1.00  0.00    -0.376 OA
BRANCH  29  30
ATOM     30  C   UNL     1      11.742   3.121   7.464  1.00  0.00     0.202 C 
BRANCH  30  31
ATOM     31  C   UNL     1      12.565   2.175   6.571  1.00  0.00     0.261 C 
BRANCH  31  32
ATOM     32  O   UNL     1      12.256   0.767   6.680  1.00  0.00    -0.460 OA
BRANCH  32  33
ATOM     33  C   UNL     1      13.264  -0.002   7.159  1.00  0.00     0.338 C 
ATOM     34  O   UNL     1      14.354   0.374   7.560  1.00  0.00    -0.246 OA
BRANCH  33  35
ATOM     35  C   UNL     1      12.928  -1.439   7.153  1.00  0.00     0.060 A 
ATOM     36  C   UNL     1      12.612  -2.073   8.360  1.00  0.00     0.016 A 
ATOM     37  C   UNL     1      13.237  -2.201   6.023  1.00  0.00     0.016 A 
ATOM     38  C   UNL     1      12.689  -3.469   8.458  1.00  0.00     0.010 A 
ATOM     39  C   UNL     1      13.296  -3.599   6.121  1.00  0.00     0.010 A 
ATOM     40  C   UNL     1      13.085  -4.241   7.354  1.00  0.00    -0.014 A 
BRANCH  40  41
ATOM     41  C   UNL     1      13.424  -5.686   7.520  1.00  0.00     0.031 A 
ATOM     42  C   UNL     1      14.870  -6.129   7.493  1.00  0.00     0.074 A 
ATOM     43  C   UNL     1      12.464  -6.610   7.705  1.00  0.00     0.049 A 
ATOM     44  N   UNL     1      15.378  -7.335   7.590  1.00  0.00    -0.248 NA
ATOM     45  C   UNL     1      15.877  -5.071   7.328  1.00  0.00     0.031 C 
ATOM     46  C   UNL     1      11.032  -6.335   7.782  1.00  0.00     0.029 A 
ATOM     47  N   UNL     1      12.554  -7.974   7.858  1.00  0.00    -0.354 N 
ATOM     48  C   UNL     1      16.756  -7.181   7.483  1.00  0.00     0.074 A 
ATOM     49  C   UNL     1      17.002  -5.769   7.278  1.00  0.00     0.031 C 
ATOM     50  C   UNL     1      10.376  -7.492   7.974  1.00  0.00     0.029 A 
ATOM     51  C   UNL     1      11.337  -8.595   7.998  1.00  0.00     0.049 A 
ATOM     52  H   UNL     1      13.410  -8.460   7.867  1.00  0.00     0.167 HD
ATOM     53  C   UNL     1      17.731  -8.123   7.559  1.00  0.00     0.037 A 
ATOM     54  C   UNL     1      11.029  -9.902   8.119  1.00  0.00     0.037 A 
ATOM     55  C   UNL     1      17.498  -9.529   7.777  1.00  0.00     0.049 A 
ATOM     56  C   UNL     1      12.127 -10.937   8.138  1.00  0.00     0.074 A 
ATOM     57  C   UNL     1      18.428 -10.547   7.914  1.00  0.00     0.029 A 
ATOM     58  N   UNL     1      16.248 -10.120   7.880  1.00  0.00    -0.354 N 
ATOM     59  N   UNL     1      13.426 -10.775   8.082  1.00  0.00    -0.248 NA
ATOM     60  C   UNL     1      11.707 -12.343   8.244  1.00  0.00     0.031 C 
ATOM     61  C   UNL     1      17.741 -11.760   8.030  1.00  0.00     0.029 A 
ATOM     62  C   UNL     1      16.383 -11.492   8.041  1.00  0.00     0.049 A 
ATOM     63  H   UNL     1      15.391  -9.637   7.844  1.00  0.00     0.167 HD
ATOM     64  C   UNL     1      13.977 -12.047   8.191  1.00  0.00     0.074 A 
ATOM     65  C   UNL     1      12.872 -12.970   8.325  1.00  0.00     0.031 C 
ATOM     66  C   UNL     1      15.283 -12.413   8.186  1.00  0.00     0.037 A 
BRANCH  53  67
ATOM     67  C   UNL     1      19.154  -7.670   7.375  1.00  0.00     0.064 A 
ATOM     68  C   UNL     1      19.813  -6.879   8.328  1.00  0.00     0.173 A 
ATOM     69  C   UNL     1      19.885  -8.074   6.245  1.00  0.00     0.173 A 
ATOM     70  F   UNL     1      19.164  -6.462   9.425  1.00  0.00    -0.203 F 
ATOM     71  C   UNL     1      21.134  -6.478   8.139  1.00  0.00     0.198 A 
ATOM     72  C   UNL     1      21.216  -7.701   6.077  1.00  0.00     0.198 A 
ATOM     73  F   UNL     1      19.311  -8.844   5.308  1.00  0.00    -0.203 F 
ATOM     74  F   UNL     1      21.725  -5.677   9.037  1.00  0.00    -0.200 F 
ATOM     75  C   UNL     1      21.836  -6.894   7.018  1.00  0.00     0.200 A 
ATOM     76  F   UNL     1      21.898  -8.122   5.003  1.00  0.00    -0.200 F 
ATOM     77  F   UNL     1      23.109  -6.514   6.842  1.00  0.00    -0.200 F 
ENDBRANCH  53  67
BRANCH  54  78
ATOM     78  C   UNL     1       9.607 -10.321   8.245  1.00  0.00     0.064 A 
ATOM     79  C   UNL     1       9.126 -10.890   9.433  1.00  0.00     0.173 A 
ATOM     80  C   UNL     1       8.710 -10.191   7.175  1.00  0.00     0.173 A 
ATOM     81  F   UNL     1       9.953 -11.063  10.475  1.00  0.00    -0.203 F 
ATOM     82  C   UNL     1       7.810 -11.334   9.538  1.00  0.00     0.198 A 
ATOM     83  C   UNL     1       7.385 -10.605   7.292  1.00  0.00     0.198 A 
ATOM     84  F   UNL     1       9.120  -9.657   6.014  1.00  0.00    -0.203 F 
ATOM     85  F   UNL     1       7.392 -11.926  10.665  1.00  0.00    -0.200 F 
ATOM     86  C   UNL     1       6.939 -11.185   8.469  1.00  0.00     0.200 A 
ATOM     87  F   UNL     1       6.543 -10.448   6.261  1.00  0.00    -0.200 F 
ATOM     88  F   UNL     1       5.672 -11.610   8.571  1.00  0.00    -0.200 F 
ENDBRANCH  54  78
BRANCH  66  89
ATOM     89  C   UNL     1      15.600 -13.871   8.388  1.00  0.00     0.064 A 
ATOM     90  C   UNL     1      15.293 -14.842   7.423  1.00  0.00     0.173 A 
ATOM     91  C   UNL     1      16.242 -14.300   9.562  1.00  0.00     0.173 A 
ATOM     92  F   UNL     1      14.669 -14.492   6.287  1.00  0.00    -0.203 F 
ATOM     93  C   UNL     1      15.580 -16.189   7.641  1.00  0.00     0.198 A 
ATOM     94  C   UNL     1      16.560 -15.642   9.760  1.00  0.00     0.198 A 
ATOM     95  F   UNL     1      16.569 -13.416  10.516  1.00  0.00    -0.203 F 
ATOM     96  F   UNL     1      15.219 -17.104   6.731  1.00  0.00    -0.200 F 
ATOM     97  C   UNL     1      16.219 -16.586   8.805  1.00  0.00     0.200 A 
ATOM     98  F   UNL     1      17.194 -16.020  10.879  1.00  0.00    -0.200 F 
ATOM     99  F   UNL     1      16.496 -17.881   9.012  1.00  0.00    -0.200 F 
ENDBRANCH  66  89
ENDBRANCH  40  41
ENDBRANCH  33  35
ENDBRANCH  32  33
ENDBRANCH  31  32
ENDBRANCH  30  31
ENDBRANCH  29  30
ENDBRANCH  28  29
ENDBRANCH   1  28
TORSDOF 20
