REMARK SMILES O=C(OCCOCCOCCOC(=O)c1sccc1[S@](=O)[O-])c1ccc(-c2c3nc(c(-c4c(F)c(F)c(F)c(F)c4F)c4ccc([nH]4)c(-c4c(F)c(F)c(F)c(F)c4F)c4nc(c(-c5c(F)c(F)c(F)c(F)c5F)c5ccc2[nH]5)C=C4)C=C3)cc1
REMARK SMILES IDX 7 1 6 2 5 3 4 4 3 5 2 6 1 7 23 8 24 9 85 10 25 11 84 12
REMARK SMILES IDX 26 13 27 14 28 15 78 16 29 17 83 18 77 19 79 20 30 21 82 22
REMARK SMILES IDX 76 23 75 24 31 26 63 27 43 28 62 29 44 30 47 31 61 32 80 33
REMARK SMILES IDX 45 34 46 35 60 37 81 38 48 39 32 40 33 41 41 42 34 43 35 44
REMARK SMILES IDX 39 45 42 46 36 47 37 48 40 49 38 50 64 51 65 52 73 53 66 54
REMARK SMILES IDX 67 55 71 56 74 57 68 58 69 59 72 60 70 61 49 62 50 63 58 64
REMARK SMILES IDX 51 65 52 66 56 67 59 68 53 69 54 70 57 71 55 72 8 73 9 74
REMARK SMILES IDX 10 75 11 76 12 77 13 78 14 79 15 80 16 81 19 82 17 83 18 84
REMARK SMILES IDX 20 85 22 86 21 87
REMARK H PARENT 79 25 47 36
REMARK Flexibility Score: inf
ROOT
ATOM      1  C   UNL     1       9.989  -9.528   0.922  1.00  0.00     0.188 C 
ENDROOT
BRANCH   1   2
ATOM      2  O   UNL     1       8.897 -10.343   0.462  1.00  0.00    -0.376 OA
BRANCH   2   3
ATOM      3  C   UNL     1       9.099 -11.743   0.685  1.00  0.00     0.202 C 
BRANCH   3   4
ATOM      4  C   UNL     1       9.759 -12.475  -0.489  1.00  0.00     0.261 C 
BRANCH   4   5
ATOM      5  O   UNL     1      10.777 -11.672  -1.107  1.00  0.00    -0.460 OA
BRANCH   5   6
ATOM      6  C   UNL     1      10.669 -10.902  -2.218  1.00  0.00     0.338 C 
ATOM      7  O   UNL     1      11.654 -10.271  -2.598  1.00  0.00    -0.246 OA
BRANCH   6   8
ATOM      8  C   UNL     1       9.435 -10.837  -3.060  1.00  0.00     0.060 A 
ATOM      9  C   UNL     1       8.127 -10.948  -2.582  1.00  0.00     0.016 A 
ATOM     10  C   UNL     1       9.616 -10.582  -4.430  1.00  0.00     0.016 A 
ATOM     11  C   UNL     1       7.038 -10.943  -3.454  1.00  0.00     0.010 A 
ATOM     12  C   UNL     1       8.523 -10.502  -5.300  1.00  0.00     0.010 A 
ATOM     13  C   UNL     1       7.227 -10.723  -4.820  1.00  0.00    -0.014 A 
BRANCH  13  14
ATOM     14  C   UNL     1       6.071 -10.783  -5.742  1.00  0.00     0.031 A 
ATOM     15  C   UNL     1       5.940 -11.940  -6.684  1.00  0.00     0.074 A 
ATOM     16  C   UNL     1       5.114  -9.838  -5.692  1.00  0.00     0.049 A 
ATOM     17  N   UNL     1       5.046 -12.152  -7.614  1.00  0.00    -0.248 NA
ATOM     18  C   UNL     1       6.938 -13.012  -6.549  1.00  0.00     0.031 C 
ATOM     19  C   UNL     1       5.091  -8.721  -4.752  1.00  0.00     0.029 A 
ATOM     20  N   UNL     1       3.979  -9.668  -6.443  1.00  0.00    -0.354 N 
ATOM     21  C   UNL     1       5.375 -13.376  -8.177  1.00  0.00     0.074 A 
ATOM     22  C   UNL     1       6.564 -13.852  -7.503  1.00  0.00     0.031 C 
ATOM     23  C   UNL     1       3.999  -7.978  -4.986  1.00  0.00     0.029 A 
ATOM     24  C   UNL     1       3.287  -8.524  -6.131  1.00  0.00     0.049 A 
ATOM     25  H   UNL     1       3.689 -10.303  -7.137  1.00  0.00     0.167 HD
ATOM     26  C   UNL     1       4.733 -14.045  -9.162  1.00  0.00     0.037 A 
ATOM     27  C   UNL     1       2.226  -7.949  -6.727  1.00  0.00     0.037 A 
ATOM     28  C   UNL     1       3.551 -13.564  -9.824  1.00  0.00     0.049 A 
ATOM     29  C   UNL     1       1.608  -8.642  -7.906  1.00  0.00     0.074 A 
ATOM     30  C   UNL     1       2.824 -14.160 -10.838  1.00  0.00     0.029 A 
ATOM     31  N   UNL     1       2.927 -12.358  -9.536  1.00  0.00    -0.354 N 
ATOM     32  N   UNL     1       1.935  -9.791  -8.447  1.00  0.00    -0.248 NA
ATOM     33  C   UNL     1       0.483  -7.965  -8.564  1.00  0.00     0.031 C 
ATOM     34  C   UNL     1       1.779 -13.295 -11.189  1.00  0.00     0.029 A 
ATOM     35  C   UNL     1       1.839 -12.176 -10.372  1.00  0.00     0.049 A 
ATOM     36  H   UNL     1       3.216 -11.725  -8.839  1.00  0.00     0.167 HD
ATOM     37  C   UNL     1       1.050  -9.985  -9.496  1.00  0.00     0.074 A 
ATOM     38  C   UNL     1       0.165  -8.837  -9.511  1.00  0.00     0.031 C 
ATOM     39  C   UNL     1       0.976 -11.022 -10.365  1.00  0.00     0.037 A 
BRANCH  26  40
ATOM     40  C   UNL     1       5.329 -15.348  -9.595  1.00  0.00     0.064 A 
ATOM     41  C   UNL     1       5.210 -16.507  -8.813  1.00  0.00     0.173 A 
ATOM     42  C   UNL     1       6.048 -15.433 -10.796  1.00  0.00     0.173 A 
ATOM     43  F   UNL     1       4.554 -16.468  -7.644  1.00  0.00    -0.203 F 
ATOM     44  C   UNL     1       5.813 -17.699  -9.208  1.00  0.00     0.198 A 
ATOM     45  C   UNL     1       6.633 -16.631 -11.196  1.00  0.00     0.198 A 
ATOM     46  F   UNL     1       6.196 -14.349 -11.573  1.00  0.00    -0.203 F 
ATOM     47  F   UNL     1       5.730 -18.782  -8.422  1.00  0.00    -0.200 F 
ATOM     48  C   UNL     1       6.521 -17.760 -10.399  1.00  0.00     0.200 A 
ATOM     49  F   UNL     1       7.319 -16.689 -12.346  1.00  0.00    -0.200 F 
ATOM     50  F   UNL     1       7.110 -18.905 -10.771  1.00  0.00    -0.200 F 
ENDBRANCH  26  40
BRANCH  27  51
ATOM     51  C   UNL     1       1.737  -6.628  -6.246  1.00  0.00     0.064 A 
ATOM     52  C   UNL     1       0.497  -6.493  -5.611  1.00  0.00     0.173 A 
ATOM     53  C   UNL     1       2.515  -5.469  -6.405  1.00  0.00     0.173 A 
ATOM     54  F   UNL     1      -0.296  -7.564  -5.460  1.00  0.00    -0.203 F 
ATOM     55  C   UNL     1       0.047  -5.249  -5.167  1.00  0.00     0.198 A 
ATOM     56  C   UNL     1       2.076  -4.231  -5.941  1.00  0.00     0.198 A 
ATOM     57  F   UNL     1       3.710  -5.542  -7.012  1.00  0.00    -0.203 F 
ATOM     58  F   UNL     1      -1.169  -5.141  -4.613  1.00  0.00    -0.200 F 
ATOM     59  C   UNL     1       0.838  -4.120  -5.328  1.00  0.00     0.200 A 
ATOM     60  F   UNL     1       2.844  -3.146  -6.109  1.00  0.00    -0.200 F 
ATOM     61  F   UNL     1       0.392  -2.923  -4.924  1.00  0.00    -0.200 F 
ENDBRANCH  27  51
BRANCH  39  62
ATOM     62  C   UNL     1      -0.110 -10.967 -11.394  1.00  0.00     0.064 A 
ATOM     63  C   UNL     1       0.003 -10.150 -12.527  1.00  0.00     0.173 A 
ATOM     64  C   UNL     1      -1.249 -11.774 -11.268  1.00  0.00     0.173 A 
ATOM     65  F   UNL     1       1.068  -9.350 -12.678  1.00  0.00    -0.203 F 
ATOM     66  C   UNL     1      -0.996 -10.136 -13.496  1.00  0.00     0.198 A 
ATOM     67  C   UNL     1      -2.236 -11.773 -12.248  1.00  0.00     0.198 A 
ATOM     68  F   UNL     1      -1.397 -12.574 -10.200  1.00  0.00    -0.203 F 
ATOM     69  F   UNL     1      -0.884  -9.328 -14.559  1.00  0.00    -0.200 F 
ATOM     70  C   UNL     1      -2.110 -10.952 -13.360  1.00  0.00     0.200 A 
ATOM     71  F   UNL     1      -3.307 -12.568 -12.120  1.00  0.00    -0.200 F 
ATOM     72  F   UNL     1      -3.066 -10.944 -14.299  1.00  0.00    -0.200 F 
ENDBRANCH  39  62
ENDBRANCH  13  14
ENDBRANCH   6   8
ENDBRANCH   5   6
ENDBRANCH   4   5
ENDBRANCH   3   4
ENDBRANCH   2   3
ENDBRANCH   1   2
BRANCH   1  73
ATOM     73  C   UNL     1       9.500  -8.122   1.285  1.00  0.00     0.188 C 
BRANCH  73  74
ATOM     74  O   UNL     1       8.794  -8.026   2.530  1.00  0.00    -0.376 OA
BRANCH  74  75
ATOM     75  C   UNL     1       7.639  -8.847   2.671  1.00  0.00     0.202 C 
BRANCH  75  76
ATOM     76  C   UNL     1       6.376  -8.328   1.980  1.00  0.00     0.261 C 
BRANCH  76  77
ATOM     77  O   UNL     1       6.593  -7.897   0.628  1.00  0.00    -0.459 OA
BRANCH  77  78
ATOM     78  C   UNL     1       5.978  -6.736   0.286  1.00  0.00     0.349 C 
ATOM     79  O   UNL     1       5.241  -6.082   1.039  1.00  0.00    -0.245 OA
BRANCH  78  80
ATOM     80  C   UNL     1       6.154  -6.393  -1.104  1.00  0.00     0.127 A 
ATOM     81  S   UNL     1       7.660  -6.546  -1.905  1.00  0.00    -0.136 S 
ATOM     82  C   UNL     1       5.203  -5.851  -1.947  1.00  0.00     0.050 A 
ATOM     83  C   UNL     1       7.060  -5.809  -3.330  1.00  0.00     0.067 A 
ATOM     84  C   UNL     1       5.726  -5.486  -3.219  1.00  0.00     0.029 A 
BRANCH  82  85
ATOM     85  S   UNL     1       3.516  -5.688  -1.520  1.00  0.00    -0.020 S 
ATOM     86  O   UNL     1       3.788  -4.494  -0.482  1.00  0.00    -0.768 OA
ATOM     87  O   UNL     1       2.825  -5.109  -2.716  1.00  0.00    -0.269 OA
ENDBRANCH  82  85
ENDBRANCH  78  80
ENDBRANCH  77  78
ENDBRANCH  76  77
ENDBRANCH  75  76
ENDBRANCH  74  75
ENDBRANCH  73  74
ENDBRANCH   1  73
TORSDOF 18
