REMARK SMILES O=C(CSc1nc2cccnc2n1CC(F)(F)F)OCCOCCOCCOC(=O)c1ccc(-c2c3nc(c(-c4c(F)c(F)c(F)c(F)c4F)c4ccc([nH]4)c(-c4c(F)c(F)c(F)c(F)c4F)c4nc(c(-c5c(F)c(F)c(F)c(F)c5F)c5ccc2[nH]5)C=C4)C=C3)cc1
REMARK SMILES IDX 23 1 22 2 21 3 20 4 19 5 2 6 1 7 3 8 4 9 5 10 6 11 13 12
REMARK SMILES IDX 7 13 12 14 8 15 11 16 9 17 10 18 14 19 15 20 16 21 17 22
REMARK SMILES IDX 18 23 24 24 25 25 26 26 27 27 28 28 29 29 30 30 31 31 32 32
REMARK SMILES IDX 93 33 33 34 92 35 34 36 35 37 36 38 86 39 37 40 91 41 85 42
REMARK SMILES IDX 87 43 38 44 90 45 84 46 83 47 39 49 71 50 51 51 70 52 52 53
REMARK SMILES IDX 55 54 69 55 88 56 53 57 54 58 68 60 89 61 56 62 40 63 41 64
REMARK SMILES IDX 49 65 42 66 43 67 47 68 50 69 44 70 45 71 48 72 46 73 72 74
REMARK SMILES IDX 73 75 81 76 74 77 75 78 79 79 82 80 76 81 77 82 80 83 78 84
REMARK SMILES IDX 57 85 58 86 66 87 59 88 60 89 64 90 67 91 61 92 62 93 65 94
REMARK SMILES IDX 63 95
REMARK H PARENT 87 48 55 59
REMARK Flexibility Score: inf
ROOT
ATOM      1  C   UNL     1       3.623   2.033   1.211  1.00  0.00     0.188 C 
ENDROOT
BRANCH   1   2
ATOM      2  O   UNL     1       4.997   2.201   0.890  1.00  0.00    -0.376 OA
BRANCH   2   3
ATOM      3  C   UNL     1       5.711   1.009   0.589  1.00  0.00     0.202 C 
BRANCH   3   4
ATOM      4  C   UNL     1       5.431   0.440  -0.808  1.00  0.00     0.261 C 
BRANCH   4   5
ATOM      5  O   UNL     1       4.032   0.322  -1.129  1.00  0.00    -0.463 OA
BRANCH   5   6
ATOM      6  C   UNL     1       3.165  -0.523  -0.541  1.00  0.00     0.316 C 
ATOM      7  O   UNL     1       1.956  -0.369  -0.706  1.00  0.00    -0.251 OA
BRANCH   6   8
ATOM      8  C   UNL     1       3.692  -1.673   0.272  1.00  0.00     0.200 C 
BRANCH   8   9
ATOM      9  S   UNL     1       3.971  -3.043  -0.844  1.00  0.00    -0.076 SA
BRANCH   9  10
ATOM     10  C   UNL     1       2.751  -4.187  -0.404  1.00  0.00     0.171 A 
ATOM     11  N   UNL     1       3.091  -5.402  -0.031  1.00  0.00    -0.221 NA
ATOM     12  N   UNL     1       1.420  -4.106  -0.738  1.00  0.00    -0.294 N 
ATOM     13  C   UNL     1       2.029  -6.181  -0.394  1.00  0.00     0.109 A 
ATOM     14  C   UNL     1       0.978  -5.399  -0.849  1.00  0.00     0.160 A 
ATOM     15  C   UNL     1       1.885  -7.568  -0.455  1.00  0.00     0.034 A 
ATOM     16  N   UNL     1      -0.195  -5.808  -1.365  1.00  0.00    -0.237 NA
ATOM     17  C   UNL     1       0.709  -8.054  -1.032  1.00  0.00     0.022 A 
ATOM     18  C   UNL     1      -0.267  -7.156  -1.457  1.00  0.00     0.113 A 
BRANCH  12  19
ATOM     19  C   UNL     1       0.592  -2.971  -1.086  1.00  0.00     0.241 C 
BRANCH  19  20
ATOM     20  C   UNL     1      -0.117  -2.385   0.118  1.00  0.00     0.406 C 
ATOM     21  F   UNL     1       0.741  -2.001   1.091  1.00  0.00    -0.169 F 
ATOM     22  F   UNL     1      -0.850  -1.301  -0.226  1.00  0.00    -0.169 F 
ATOM     23  F   UNL     1      -0.971  -3.271   0.681  1.00  0.00    -0.169 F 
ENDBRANCH  19  20
ENDBRANCH  12  19
ENDBRANCH   9  10
ENDBRANCH   8   9
ENDBRANCH   6   8
ENDBRANCH   5   6
ENDBRANCH   4   5
ENDBRANCH   3   4
ENDBRANCH   2   3
ENDBRANCH   1   2
BRANCH   1  24
ATOM     24  C   UNL     1       2.606   2.719   0.267  1.00  0.00     0.188 C 
BRANCH  24  25
ATOM     25  O   UNL     1       2.978   3.407  -0.921  1.00  0.00    -0.376 OA
BRANCH  25  26
ATOM     26  C   UNL     1       4.241   4.031  -1.074  1.00  0.00     0.202 C 
BRANCH  26  27
ATOM     27  C   UNL     1       4.573   5.241  -0.202  1.00  0.00     0.261 C 
BRANCH  27  28
ATOM     28  O   UNL     1       4.434   4.979   1.190  1.00  0.00    -0.460 OA
BRANCH  28  29
ATOM     29  C   UNL     1       3.234   5.327   1.699  1.00  0.00     0.338 C 
ATOM     30  O   UNL     1       2.311   5.868   1.117  1.00  0.00    -0.246 OA
BRANCH  29  31
ATOM     31  C   UNL     1       3.171   4.941   3.118  1.00  0.00     0.060 A 
ATOM     32  C   UNL     1       1.912   4.975   3.727  1.00  0.00     0.016 A 
ATOM     33  C   UNL     1       4.342   4.743   3.863  1.00  0.00     0.016 A 
ATOM     34  C   UNL     1       1.843   5.078   5.100  1.00  0.00     0.010 A 
ATOM     35  C   UNL     1       4.277   4.856   5.236  1.00  0.00     0.010 A 
ATOM     36  C   UNL     1       3.040   5.155   5.817  1.00  0.00    -0.014 A 
BRANCH  36  37
ATOM     37  C   UNL     1       3.006   5.938   7.043  1.00  0.00     0.031 A 
ATOM     38  C   UNL     1       2.883   5.249   8.341  1.00  0.00     0.074 A 
ATOM     39  C   UNL     1       3.231   7.267   6.962  1.00  0.00     0.049 A 
ATOM     40  N   UNL     1       2.029   5.481   9.286  1.00  0.00    -0.248 NA
ATOM     41  C   UNL     1       3.835   4.169   8.633  1.00  0.00     0.031 C 
ATOM     42  C   UNL     1       3.687   8.021   5.784  1.00  0.00     0.029 A 
ATOM     43  N   UNL     1       3.220   8.209   7.946  1.00  0.00    -0.354 N 
ATOM     44  C   UNL     1       2.421   4.682  10.352  1.00  0.00     0.074 A 
ATOM     45  C   UNL     1       3.483   3.833   9.873  1.00  0.00     0.031 C 
ATOM     46  C   UNL     1       4.108   9.241   6.174  1.00  0.00     0.029 A 
ATOM     47  C   UNL     1       3.851   9.392   7.595  1.00  0.00     0.049 A 
ATOM     48  H   UNL     1       2.802   8.062   8.825  1.00  0.00     0.167 HD
ATOM     49  C   UNL     1       1.984   4.888  11.622  1.00  0.00     0.037 A 
ATOM     50  C   UNL     1       4.224  10.387   8.431  1.00  0.00     0.037 A 
ATOM     51  C   UNL     1       0.798   5.689  11.691  1.00  0.00     0.049 A 
ATOM     52  C   UNL     1       3.458  10.234   9.691  1.00  0.00     0.074 A 
ATOM     53  C   UNL     1      -0.488   5.556  11.205  1.00  0.00     0.029 A 
ATOM     54  N   UNL     1       0.904   6.994  12.100  1.00  0.00    -0.354 N 
ATOM     55  N   UNL     1       2.179  10.454   9.819  1.00  0.00    -0.248 NA
ATOM     56  C   UNL     1       4.071   9.477  10.773  1.00  0.00     0.031 C 
ATOM     57  C   UNL     1      -0.928   6.882  10.927  1.00  0.00     0.029 A 
ATOM     58  C   UNL     1       0.119   7.741  11.259  1.00  0.00     0.049 A 
ATOM     59  H   UNL     1       1.441   7.330  12.854  1.00  0.00     0.167 HD
ATOM     60  C   UNL     1       1.757   9.539  10.771  1.00  0.00     0.074 A 
ATOM     61  C   UNL     1       2.976   9.060  11.408  1.00  0.00     0.031 C 
ATOM     62  C   UNL     1       0.485   9.047  10.761  1.00  0.00     0.037 A 
BRANCH  49  63
ATOM     63  C   UNL     1       2.822   4.560  12.817  1.00  0.00     0.064 A 
ATOM     64  C   UNL     1       2.231   4.307  14.064  1.00  0.00     0.173 A 
ATOM     65  C   UNL     1       4.225   4.713  12.808  1.00  0.00     0.173 A 
ATOM     66  F   UNL     1       0.898   4.213  14.178  1.00  0.00    -0.203 F 
ATOM     67  C   UNL     1       2.999   4.203  15.225  1.00  0.00     0.198 A 
ATOM     68  C   UNL     1       4.993   4.559  13.957  1.00  0.00     0.198 A 
ATOM     69  F   UNL     1       4.875   5.101  11.700  1.00  0.00    -0.203 F 
ATOM     70  F   UNL     1       2.397   4.035  16.410  1.00  0.00    -0.200 F 
ATOM     71  C   UNL     1       4.379   4.318  15.169  1.00  0.00     0.200 A 
ATOM     72  F   UNL     1       6.324   4.700  13.887  1.00  0.00    -0.200 F 
ATOM     73  F   UNL     1       5.114   4.240  16.287  1.00  0.00    -0.200 F 
ENDBRANCH  49  63
BRANCH  50  74
ATOM     74  C   UNL     1       5.398  11.282   8.312  1.00  0.00     0.064 A 
ATOM     75  C   UNL     1       5.485  12.460   9.070  1.00  0.00     0.173 A 
ATOM     76  C   UNL     1       6.572  10.882   7.642  1.00  0.00     0.173 A 
ATOM     77  F   UNL     1       4.429  12.885   9.779  1.00  0.00    -0.203 F 
ATOM     78  C   UNL     1       6.678  13.183   9.166  1.00  0.00     0.198 A 
ATOM     79  C   UNL     1       7.756  11.614   7.722  1.00  0.00     0.198 A 
ATOM     80  F   UNL     1       6.627   9.722   6.972  1.00  0.00    -0.203 F 
ATOM     81  F   UNL     1       6.740  14.266   9.953  1.00  0.00    -0.200 F 
ATOM     82  C   UNL     1       7.813  12.757   8.496  1.00  0.00     0.200 A 
ATOM     83  F   UNL     1       8.855  11.171   7.095  1.00  0.00    -0.200 F 
ATOM     84  F   UNL     1       8.969  13.421   8.629  1.00  0.00    -0.200 F 
ENDBRANCH  50  74
BRANCH  62  85
ATOM     85  C   UNL     1      -0.529   9.758   9.914  1.00  0.00     0.064 A 
ATOM     86  C   UNL     1      -0.463   9.812   8.511  1.00  0.00     0.173 A 
ATOM     87  C   UNL     1      -1.677  10.275  10.529  1.00  0.00     0.173 A 
ATOM     88  F   UNL     1       0.554   9.244   7.849  1.00  0.00    -0.203 F 
ATOM     89  C   UNL     1      -1.480  10.403   7.764  1.00  0.00     0.198 A 
ATOM     90  C   UNL     1      -2.708  10.833   9.778  1.00  0.00     0.198 A 
ATOM     91  F   UNL     1      -1.821  10.193  11.862  1.00  0.00    -0.203 F 
ATOM     92  F   UNL     1      -1.390  10.452   6.427  1.00  0.00    -0.200 F 
ATOM     93  C   UNL     1      -2.604  10.907   8.398  1.00  0.00     0.200 A 
ATOM     94  F   UNL     1      -3.816  11.275  10.390  1.00  0.00    -0.200 F 
ATOM     95  F   UNL     1      -3.602  11.438   7.677  1.00  0.00    -0.200 F 
ENDBRANCH  62  85
ENDBRANCH  36  37
ENDBRANCH  29  31
ENDBRANCH  28  29
ENDBRANCH  27  28
ENDBRANCH  26  27
ENDBRANCH  25  26
ENDBRANCH  24  25
ENDBRANCH   1  24
TORSDOF 21
