REMARK SMILES Cc1ccc(NC(=O)c2ccccc2NC(=O)[C@H]2CCCC[C@H]2C(=O)OCCOCCOCCOC(=O)c2ccc(-c3c4nc(c(-c5c(F)c(F)c(F)c(F)c5F)c5ccc([nH]5)c(-c5c(F)c(F)c(F)c(F)c5F)c5nc(c(-c6c(F)c(F)c(F)c(F)c6F)c6ccc3[nH]6)C=C5)C=C4)cc2)cc1
REMARK SMILES IDX 30 1 29 2 28 3 27 4 26 5 24 6 25 7 23 8 18 9 19 10 20 11
REMARK SMILES IDX 22 12 21 13 16 14 15 15 17 17 14 18 9 19 10 20 11 21 13 22
REMARK SMILES IDX 12 23 7 24 6 25 8 27 5 28 1 29 2 30 3 31 102 32 4 33 101 34
REMARK SMILES IDX 31 35 32 36 33 37 34 38 35 39 36 40 37 41 38 42 39 43 100 44
REMARK SMILES IDX 40 45 99 46 41 47 42 48 43 49 93 50 44 51 98 52 92 53 94 54
REMARK SMILES IDX 45 55 97 56 91 57 90 58 46 60 78 61 58 62 77 63 59 64 62 65
REMARK SMILES IDX 76 66 95 67 60 68 61 69 75 71 96 72 63 73 47 74 48 75 56 76
REMARK SMILES IDX 49 77 50 78 54 79 57 80 51 81 52 82 55 83 53 84 79 85 80 86
REMARK SMILES IDX 88 87 81 88 82 89 86 90 89 91 83 92 84 93 87 94 85 95 64 96
REMARK SMILES IDX 65 97 73 98 66 99 67 100 71 101 74 102 68 103 69 104 72 105
REMARK SMILES IDX 70 106
REMARK H PARENT 15 16 6 26 94 59 62 70
REMARK Flexibility Score: inf
ROOT
ATOM      1  C   UNL     1      -0.420   4.554   5.359  1.00  0.00     0.188 C 
ENDROOT
BRANCH   1   2
ATOM      2  O   UNL     1      -0.910   3.942   6.526  1.00  0.00    -0.376 OA
BRANCH   2   3
ATOM      3  C   UNL     1      -2.013   3.037   6.380  1.00  0.00     0.202 C 
BRANCH   3   4
ATOM      4  C   UNL     1      -1.890   1.915   5.265  1.00  0.00     0.261 C 
BRANCH   4   5
ATOM      5  O   UNL     1      -2.786   0.496   5.021  1.00  0.00    -0.463 OA
BRANCH   5   6
ATOM      6  C   UNL     1      -2.993  -0.892   4.823  1.00  0.00     0.309 C 
ATOM      7  O   UNL     1      -4.130  -1.244   5.179  1.00  0.00    -0.252 OA
BRANCH   6   8
ATOM      8  C   UNL     1      -2.051  -2.247   4.362  1.00  0.00     0.111 C 
ATOM      9  C   UNL     1      -0.993  -2.603   3.128  1.00  0.00     0.093 C 
ATOM     10  C   UNL     1      -1.157  -4.121   2.752  1.00  0.00     0.014 C 
ATOM     11  C   UNL     1      -1.089  -5.096   3.938  1.00  0.00     0.001 C 
ATOM     12  C   UNL     1      -1.940  -3.299   5.503  1.00  0.00     0.016 C 
ATOM     13  C   UNL     1      -2.105  -4.745   5.014  1.00  0.00     0.001 C 
BRANCH   9  14
ATOM     14  C   UNL     1       0.569  -2.460   3.321  1.00  0.00     0.228 C 
ATOM     15  N   UNL     1       1.466  -1.673   2.627  1.00  0.00    -0.325 N 
ATOM     16  H   UNL     1       2.351  -1.707   3.055  1.00  0.00     0.169 HD
ATOM     17  O   UNL     1       1.101  -3.117   4.227  1.00  0.00    -0.274 OA
BRANCH  15  18
ATOM     18  C   UNL     1       1.506  -0.824   1.480  1.00  0.00     0.054 A 
ATOM     19  C   UNL     1       2.518   0.193   1.259  1.00  0.00     0.063 A 
ATOM     20  C   UNL     1       2.325   1.099   0.182  1.00  0.00     0.016 A 
ATOM     21  C   UNL     1       1.205   1.052  -0.637  1.00  0.00     0.001 A 
ATOM     22  C   UNL     1       0.454  -0.910   0.553  1.00  0.00     0.027 A 
ATOM     23  C   UNL     1       0.279   0.041  -0.459  1.00  0.00     0.002 A 
BRANCH  19  24
ATOM     24  C   UNL     1       3.652   0.718   2.145  1.00  0.00     0.257 C 
ATOM     25  N   UNL     1       4.330   0.015   3.105  1.00  0.00    -0.322 N 
ATOM     26  H   UNL     1       4.691   0.558   3.843  1.00  0.00     0.170 HD
ATOM     27  O   UNL     1       3.929   1.926   2.104  1.00  0.00    -0.269 OA
BRANCH  25  28
ATOM     28  C   UNL     1       4.586  -1.340   3.196  1.00  0.00     0.041 A 
ATOM     29  C   UNL     1       4.077  -5.517   3.659  1.00  0.00     0.044 C 
ATOM     30  C   UNL     1       4.452  -4.077   3.499  1.00  0.00    -0.051 A 
ATOM     31  C   UNL     1       4.473  -3.516   2.218  1.00  0.00     0.005 A 
ATOM     32  C   UNL     1       4.646  -3.262   4.621  1.00  0.00     0.005 A 
ATOM     33  C   UNL     1       4.560  -2.144   2.064  1.00  0.00     0.026 A 
ATOM     34  C   UNL     1       4.743  -1.883   4.469  1.00  0.00     0.026 A 
ENDBRANCH  25  28
ENDBRANCH  19  24
ENDBRANCH  15  18
ENDBRANCH   9  14
ENDBRANCH   6   8
ENDBRANCH   5   6
ENDBRANCH   4   5
ENDBRANCH   3   4
ENDBRANCH   2   3
ENDBRANCH   1   2
BRANCH   1  35
ATOM     35  C   UNL     1       1.078   4.295   5.377  1.00  0.00     0.188 C 
BRANCH  35  36
ATOM     36  O   UNL     1       1.943   5.395   5.314  1.00  0.00    -0.376 OA
BRANCH  36  37
ATOM     37  C   UNL     1       1.650   6.281   4.256  1.00  0.00     0.202 C 
BRANCH  37  38
ATOM     38  C   UNL     1       1.085   5.833   2.884  1.00  0.00     0.261 C 
BRANCH  38  39
ATOM     39  O   UNL     1       0.761   4.456   2.440  1.00  0.00    -0.460 OA
BRANCH  39  40
ATOM     40  C   UNL     1       0.470   3.204   2.138  1.00  0.00     0.338 C 
ATOM     41  O   UNL     1      -0.177   3.007   1.114  1.00  0.00    -0.246 OA
BRANCH  40  42
ATOM     42  C   UNL     1       0.663   2.027   3.073  1.00  0.00     0.060 A 
ATOM     43  C   UNL     1      -0.316   1.084   2.967  1.00  0.00     0.016 A 
ATOM     44  C   UNL     1       1.628   1.722   4.050  1.00  0.00     0.016 A 
ATOM     45  C   UNL     1      -0.435   0.094   3.961  1.00  0.00     0.010 A 
ATOM     46  C   UNL     1       1.442   0.740   5.093  1.00  0.00     0.010 A 
ATOM     47  C   UNL     1       0.289  -0.034   5.173  1.00  0.00    -0.014 A 
BRANCH  47  48
ATOM     48  C   UNL     1      -0.194  -0.551   6.602  1.00  0.00     0.031 A 
ATOM     49  C   UNL     1       0.519  -1.666   7.295  1.00  0.00     0.074 A 
ATOM     50  C   UNL     1      -1.144  -0.033   7.476  1.00  0.00     0.049 A 
ATOM     51  N   UNL     1       0.013  -2.347   8.283  1.00  0.00    -0.248 NA
ATOM     52  C   UNL     1       1.790  -2.194   6.844  1.00  0.00     0.031 C 
ATOM     53  C   UNL     1      -0.989   0.194   8.931  1.00  0.00     0.029 A 
ATOM     54  N   UNL     1      -2.428   0.462   7.305  1.00  0.00    -0.354 N 
ATOM     55  C   UNL     1       1.001  -3.165   8.769  1.00  0.00     0.074 A 
ATOM     56  C   UNL     1       1.995  -3.180   7.722  1.00  0.00     0.031 C 
ATOM     57  C   UNL     1      -2.082   0.805   9.447  1.00  0.00     0.029 A 
ATOM     58  C   UNL     1      -3.098   0.945   8.411  1.00  0.00     0.049 A 
ATOM     59  H   UNL     1      -2.851   0.469   6.416  1.00  0.00     0.167 HD
ATOM     60  C   UNL     1       0.989  -3.572  10.075  1.00  0.00     0.037 A 
ATOM     61  C   UNL     1      -4.461   1.064   8.478  1.00  0.00     0.037 A 
ATOM     62  C   UNL     1      -0.163  -3.027  10.809  1.00  0.00     0.049 A 
ATOM     63  C   UNL     1      -4.874  -0.040   9.396  1.00  0.00     0.074 A 
ATOM     64  C   UNL     1      -0.271  -1.945  11.671  1.00  0.00     0.029 A 
ATOM     65  N   UNL     1      -1.476  -3.398  10.499  1.00  0.00    -0.354 N 
ATOM     66  N   UNL     1      -4.007  -0.932   9.775  1.00  0.00    -0.248 NA
ATOM     67  C   UNL     1      -6.198  -0.269   9.950  1.00  0.00     0.031 C 
ATOM     68  C   UNL     1      -1.643  -1.668  11.880  1.00  0.00     0.029 A 
ATOM     69  C   UNL     1      -2.389  -2.595  11.171  1.00  0.00     0.049 A 
ATOM     70  H   UNL     1      -1.719  -4.130   9.887  1.00  0.00     0.167 HD
ATOM     71  C   UNL     1      -4.586  -1.813  10.613  1.00  0.00     0.074 A 
ATOM     72  C   UNL     1      -5.970  -1.373  10.687  1.00  0.00     0.031 C 
ATOM     73  C   UNL     1      -3.837  -2.822  11.131  1.00  0.00     0.037 A 
BRANCH  60  74
ATOM     74  C   UNL     1       2.252  -4.109  10.748  1.00  0.00     0.064 A 
ATOM     75  C   UNL     1       2.546  -3.843  12.104  1.00  0.00     0.173 A 
ATOM     76  C   UNL     1       3.252  -4.842  10.077  1.00  0.00     0.173 A 
ATOM     77  F   UNL     1       1.646  -3.286  12.922  1.00  0.00    -0.203 F 
ATOM     78  C   UNL     1       3.785  -4.147  12.683  1.00  0.00     0.198 A 
ATOM     79  C   UNL     1       4.515  -5.085  10.630  1.00  0.00     0.198 A 
ATOM     80  F   UNL     1       3.016  -5.399   8.882  1.00  0.00    -0.203 F 
ATOM     81  F   UNL     1       4.005  -3.860  13.974  1.00  0.00    -0.200 F 
ATOM     82  C   UNL     1       4.787  -4.726  11.933  1.00  0.00     0.200 A 
ATOM     83  F   UNL     1       5.466  -5.672   9.888  1.00  0.00    -0.200 F 
ATOM     84  F   UNL     1       5.990  -4.970  12.471  1.00  0.00    -0.200 F 
ENDBRANCH  60  74
BRANCH  61  85
ATOM     85  C   UNL     1      -5.208   1.524   7.239  1.00  0.00     0.064 A 
ATOM     86  C   UNL     1      -5.030   2.852   6.811  1.00  0.00     0.173 A 
ATOM     87  C   UNL     1      -5.798   0.677   6.296  1.00  0.00     0.173 A 
ATOM     88  F   UNL     1      -4.613   3.780   7.689  1.00  0.00    -0.203 F 
ATOM     89  C   UNL     1      -5.094   3.215   5.451  1.00  0.00     0.198 A 
ATOM     90  C   UNL     1      -5.879   1.040   4.931  1.00  0.00     0.198 A 
ATOM     91  F   UNL     1      -6.206  -0.543   6.663  1.00  0.00    -0.203 F 
ATOM     92  F   UNL     1      -4.647   4.418   5.054  1.00  0.00    -0.200 F 
ATOM     93  C   UNL     1      -5.430   2.276   4.502  1.00  0.00     0.200 A 
ATOM     94  F   UNL     1      -6.276   0.148   4.012  1.00  0.00    -0.200 F 
ATOM     95  F   UNL     1      -5.265   2.541   3.196  1.00  0.00    -0.200 F 
ENDBRANCH  61  85
BRANCH  73  96
ATOM     96  C   UNL     1      -4.433  -4.019  11.786  1.00  0.00     0.064 A 
ATOM     97  C   UNL     1      -5.691  -4.533  11.434  1.00  0.00     0.173 A 
ATOM     98  C   UNL     1      -3.679  -4.776  12.704  1.00  0.00     0.173 A 
ATOM     99  F   UNL     1      -6.439  -3.966  10.476  1.00  0.00    -0.203 F 
ATOM    100  C   UNL     1      -6.197  -5.687  12.023  1.00  0.00     0.198 A 
ATOM    101  C   UNL     1      -4.160  -5.964  13.239  1.00  0.00     0.198 A 
ATOM    102  F   UNL     1      -2.449  -4.401  13.084  1.00  0.00    -0.203 F 
ATOM    103  F   UNL     1      -7.426  -6.111  11.698  1.00  0.00    -0.200 F 
ATOM    104  C   UNL     1      -5.427  -6.408  12.915  1.00  0.00     0.200 A 
ATOM    105  F   UNL     1      -3.379  -6.686  14.054  1.00  0.00    -0.200 F 
ATOM    106  F   UNL     1      -5.896  -7.544  13.445  1.00  0.00    -0.200 F 
ENDBRANCH  73  96
ENDBRANCH  47  48
ENDBRANCH  40  42
ENDBRANCH  39  40
ENDBRANCH  38  39
ENDBRANCH  37  38
ENDBRANCH  36  37
ENDBRANCH  35  36
ENDBRANCH   1  35
TORSDOF 21
