REMARK SMILES Cc1cc(C)c2c(C(=O)OCCOCCOCCOC(=O)c3ccc(-c4c5nc(c(-c6c(F)c(F)c(F)c(F)c6F)c6ccc([nH]6)c(-c6c(F)c(F)c(F)c(F)c6F)c6nc(c(-c7c(F)c(F)c(F)c(F)c7F)c7ccc4[nH]7)C=C6)C=C5)cc3)cc(-c3ccco3)nc2c1
REMARK SMILES IDX 15 1 14 2 13 3 12 4 11 5 10 6 8 7 9 8 7 9 1 10 2 11 3 12
REMARK SMILES IDX 94 13 4 14 93 15 5 16 6 17 92 18 86 19 85 20 87 21 88 22
REMARK SMILES IDX 91 23 89 24 90 25 16 26 17 27 18 28 19 29 20 30 21 31 22 32
REMARK SMILES IDX 23 33 84 34 24 35 83 36 25 37 26 38 27 39 77 40 28 41 82 42
REMARK SMILES IDX 76 43 78 44 29 45 81 46 75 47 74 48 30 50 62 51 42 52 61 53
REMARK SMILES IDX 43 54 46 55 60 56 79 57 44 58 45 59 59 61 80 62 47 63 31 64
REMARK SMILES IDX 32 65 40 66 33 67 34 68 38 69 41 70 35 71 36 72 39 73 37 74
REMARK SMILES IDX 63 75 64 76 72 77 65 78 66 79 70 80 73 81 67 82 68 83 71 84
REMARK SMILES IDX 69 85 48 86 49 87 57 88 50 89 51 90 55 91 58 92 52 93 53 94
REMARK SMILES IDX 56 95 54 96
REMARK H PARENT 78 49 46 60
REMARK Flexibility Score: inf
ROOT
ATOM      1  C   UNL     1       0.756   0.499  -7.249  1.00  0.00     0.188 C 
ENDROOT
BRANCH   1   2
ATOM      2  C   UNL     1      -0.310   0.196  -8.327  1.00  0.00     0.188 C 
BRANCH   2   3
ATOM      3  O   UNL     1      -1.063   1.256  -8.901  1.00  0.00    -0.376 OA
BRANCH   3   4
ATOM      4  C   UNL     1      -1.830   2.092  -8.038  1.00  0.00     0.202 C 
BRANCH   4   5
ATOM      5  C   UNL     1      -2.773   1.375  -7.077  1.00  0.00     0.261 C 
BRANCH   5   6
ATOM      6  O   UNL     1      -1.991   0.646  -6.119  1.00  0.00    -0.460 OA
BRANCH   6   7
ATOM      7  C   UNL     1      -2.603  -0.396  -5.527  1.00  0.00     0.338 C 
ATOM      8  O   UNL     1      -3.765  -0.737  -5.682  1.00  0.00    -0.246 OA
BRANCH   7   9
ATOM      9  C   UNL     1      -1.596  -1.231  -4.845  1.00  0.00     0.072 A 
ATOM     10  C   UNL     1       1.269  -0.372   0.083  1.00  0.00     0.044 C 
ATOM     11  C   UNL     1       0.571  -0.499  -1.236  1.00  0.00    -0.049 A 
ATOM     12  C   UNL     1      -0.053   0.589  -1.829  1.00  0.00     0.007 A 
ATOM     13  C   UNL     1       0.573  -1.712  -1.921  1.00  0.00     0.032 A 
ATOM     14  C   UNL     1      -0.754   0.453  -3.043  1.00  0.00    -0.041 A 
ATOM     15  C   UNL     1      -0.091  -1.892  -3.123  1.00  0.00     0.072 A 
ATOM     16  C   UNL     1      -1.299   1.732  -3.626  1.00  0.00     0.045 C 
ATOM     17  C   UNL     1      -0.843  -0.835  -3.692  1.00  0.00     0.018 A 
ATOM     18  N   UNL     1       0.033  -3.112  -3.663  1.00  0.00    -0.244 NA
ATOM     19  C   UNL     1      -0.647  -3.410  -4.783  1.00  0.00     0.107 A 
ATOM     20  C   UNL     1      -1.492  -2.517  -5.394  1.00  0.00     0.048 A 
BRANCH  19  21
ATOM     21  C   UNL     1      -0.404  -4.733  -5.318  1.00  0.00     0.152 A 
ATOM     22  C   UNL     1       0.527  -5.255  -6.192  1.00  0.00     0.052 A 
ATOM     23  O   UNL     1      -1.242  -5.720  -4.888  1.00  0.00    -0.463 OA
ATOM     24  C   UNL     1       0.243  -6.638  -6.304  1.00  0.00     0.043 A 
ATOM     25  C   UNL     1      -0.831  -6.873  -5.477  1.00  0.00     0.196 A 
ENDBRANCH  19  21
ENDBRANCH   7   9
ENDBRANCH   6   7
ENDBRANCH   5   6
ENDBRANCH   4   5
ENDBRANCH   3   4
ENDBRANCH   2   3
ENDBRANCH   1   2
BRANCH   1  26
ATOM     26  O   UNL     1       1.125   1.837  -6.965  1.00  0.00    -0.376 OA
BRANCH  26  27
ATOM     27  C   UNL     1       1.566   2.663  -8.037  1.00  0.00     0.202 C 
BRANCH  27  28
ATOM     28  C   UNL     1       2.756   2.176  -8.865  1.00  0.00     0.261 C 
BRANCH  28  29
ATOM     29  O   UNL     1       2.433   0.995  -9.619  1.00  0.00    -0.460 OA
BRANCH  29  30
ATOM     30  C   UNL     1       3.272  -0.052  -9.445  1.00  0.00     0.338 C 
ATOM     31  O   UNL     1       4.294  -0.093  -8.785  1.00  0.00    -0.246 OA
BRANCH  30  32
ATOM     32  C   UNL     1       2.667  -1.251 -10.049  1.00  0.00     0.060 A 
ATOM     33  C   UNL     1       2.275  -2.295  -9.201  1.00  0.00     0.016 A 
ATOM     34  C   UNL     1       2.549  -1.369 -11.434  1.00  0.00     0.016 A 
ATOM     35  C   UNL     1       1.781  -3.478  -9.743  1.00  0.00     0.010 A 
ATOM     36  C   UNL     1       2.092  -2.571 -11.977  1.00  0.00     0.010 A 
ATOM     37  C   UNL     1       1.738  -3.639 -11.133  1.00  0.00    -0.014 A 
BRANCH  37  38
ATOM     38  C   UNL     1       1.544  -4.993 -11.696  1.00  0.00     0.031 A 
ATOM     39  C   UNL     1       2.755  -5.867 -11.867  1.00  0.00     0.074 A 
ATOM     40  C   UNL     1       0.323  -5.446 -12.023  1.00  0.00     0.049 A 
ATOM     41  N   UNL     1       2.849  -7.065 -12.382  1.00  0.00    -0.248 NA
ATOM     42  C   UNL     1       4.032  -5.318 -11.378  1.00  0.00     0.031 C 
ATOM     43  C   UNL     1      -0.928  -4.719 -11.829  1.00  0.00     0.029 A 
ATOM     44  N   UNL     1      -0.058  -6.634 -12.593  1.00  0.00    -0.354 N 
ATOM     45  C   UNL     1       4.186  -7.416 -12.269  1.00  0.00     0.074 A 
ATOM     46  C   UNL     1       4.874  -6.301 -11.657  1.00  0.00     0.031 C 
ATOM     47  C   UNL     1      -1.942  -5.473 -12.291  1.00  0.00     0.029 A 
ATOM     48  C   UNL     1      -1.405  -6.716 -12.842  1.00  0.00     0.049 A 
ATOM     49  H   UNL     1       0.575  -7.359 -12.804  1.00  0.00     0.167 HD
ATOM     50  C   UNL     1       4.787  -8.569 -12.642  1.00  0.00     0.037 A 
ATOM     51  C   UNL     1      -2.111  -7.677 -13.470  1.00  0.00     0.037 A 
ATOM     52  C   UNL     1       4.110  -9.660 -13.285  1.00  0.00     0.049 A 
ATOM     53  C   UNL     1      -1.395  -8.895 -13.996  1.00  0.00     0.074 A 
ATOM     54  C   UNL     1       4.636 -10.860 -13.729  1.00  0.00     0.029 A 
ATOM     55  N   UNL     1       2.757  -9.676 -13.589  1.00  0.00    -0.354 N 
ATOM     56  N   UNL     1      -0.130  -9.222 -13.893  1.00  0.00    -0.248 NA
ATOM     57  C   UNL     1      -2.207  -9.875 -14.734  1.00  0.00     0.031 C 
ATOM     58  C   UNL     1       3.609 -11.583 -14.345  1.00  0.00     0.029 A 
ATOM     59  C   UNL     1       2.434 -10.855 -14.238  1.00  0.00     0.049 A 
ATOM     60  H   UNL     1       2.121  -8.956 -13.375  1.00  0.00     0.167 HD
ATOM     61  C   UNL     1       0.003 -10.450 -14.529  1.00  0.00     0.074 A 
ATOM     62  C   UNL     1      -1.314 -10.817 -15.007  1.00  0.00     0.031 C 
ATOM     63  C   UNL     1       1.116 -11.205 -14.702  1.00  0.00     0.037 A 
BRANCH  50  64
ATOM     64  C   UNL     1       6.258  -8.693 -12.388  1.00  0.00     0.064 A 
ATOM     65  C   UNL     1       6.762  -8.898 -11.095  1.00  0.00     0.173 A 
ATOM     66  C   UNL     1       7.171  -8.644 -13.452  1.00  0.00     0.173 A 
ATOM     67  F   UNL     1       5.929  -8.930 -10.044  1.00  0.00    -0.203 F 
ATOM     68  C   UNL     1       8.130  -9.038 -10.876  1.00  0.00     0.198 A 
ATOM     69  C   UNL     1       8.535  -8.809 -13.231  1.00  0.00     0.198 A 
ATOM     70  F   UNL     1       6.738  -8.447 -14.706  1.00  0.00    -0.203 F 
ATOM     71  F   UNL     1       8.593  -9.199  -9.628  1.00  0.00    -0.200 F 
ATOM     72  C   UNL     1       9.014  -9.002 -11.944  1.00  0.00     0.200 A 
ATOM     73  F   UNL     1       9.387  -8.781 -14.265  1.00  0.00    -0.200 F 
ATOM     74  F   UNL     1      10.329  -9.148 -11.732  1.00  0.00    -0.200 F 
ENDBRANCH  50  64
BRANCH  51  75
ATOM     75  C   UNL     1      -3.577  -7.520 -13.652  1.00  0.00     0.064 A 
ATOM     76  C   UNL     1      -4.481  -8.345 -12.970  1.00  0.00     0.173 A 
ATOM     77  C   UNL     1      -4.104  -6.552 -14.521  1.00  0.00     0.173 A 
ATOM     78  F   UNL     1      -4.024  -9.305 -12.153  1.00  0.00    -0.203 F 
ATOM     79  C   UNL     1      -5.856  -8.214 -13.155  1.00  0.00     0.198 A 
ATOM     80  C   UNL     1      -5.480  -6.405 -14.686  1.00  0.00     0.198 A 
ATOM     81  F   UNL     1      -3.281  -5.744 -15.204  1.00  0.00    -0.203 F 
ATOM     82  F   UNL     1      -6.697  -9.042 -12.520  1.00  0.00    -0.200 F 
ATOM     83  C   UNL     1      -6.355  -7.240 -14.007  1.00  0.00     0.200 A 
ATOM     84  F   UNL     1      -5.957  -5.459 -15.505  1.00  0.00    -0.200 F 
ATOM     85  F   UNL     1      -7.677  -7.112 -14.181  1.00  0.00    -0.200 F 
ENDBRANCH  51  75
BRANCH  63  86
ATOM     86  C   UNL     1       0.965 -12.517 -15.415  1.00  0.00     0.064 A 
ATOM     87  C   UNL     1       0.766 -12.579 -16.802  1.00  0.00     0.173 A 
ATOM     88  C   UNL     1       1.103 -13.726 -14.715  1.00  0.00     0.173 A 
ATOM     89  F   UNL     1       0.616 -11.451 -17.513  1.00  0.00    -0.203 F 
ATOM     90  C   UNL     1       0.698 -13.804 -17.460  1.00  0.00     0.198 A 
ATOM     91  C   UNL     1       1.063 -14.947 -15.380  1.00  0.00     0.198 A 
ATOM     92  F   UNL     1       1.305 -13.720 -13.389  1.00  0.00    -0.203 F 
ATOM     93  F   UNL     1       0.476 -13.841 -18.781  1.00  0.00    -0.200 F 
ATOM     94  C   UNL     1       0.857 -14.986 -16.751  1.00  0.00     0.200 A 
ATOM     95  F   UNL     1       1.234 -16.087 -14.696  1.00  0.00    -0.200 F 
ATOM     96  F   UNL     1       0.810 -16.163 -17.389  1.00  0.00    -0.200 F 
ENDBRANCH  63  86
ENDBRANCH  37  38
ENDBRANCH  30  32
ENDBRANCH  29  30
ENDBRANCH  28  29
ENDBRANCH  27  28
ENDBRANCH  26  27
ENDBRANCH   1  26
TORSDOF 18
