REMARK SMILES C[C@@](NC(=O)CSCc1ccccc1)(C(=O)OCCOCCOCCOC(=O)c1ccc(-c2c3nc(c(-c4c(F)c(F)c(F)c(F)c4F)c4ccc([nH]4)c(-c4c(F)c(F)c(F)c(F)c4F)c4nc(c(-c5c(F)c(F)c(F)c(F)c5F)c5ccc2[nH]5)C=C4)C=C3)cc1)C1CC1
REMARK SMILES IDX 20 1 19 2 18 3 17 4 15 5 16 6 2 7 1 8 3 9 4 10 5 12 6 13
REMARK SMILES IDX 7 14 8 15 9 16 10 17 14 18 11 19 13 20 12 21 92 22 93 23
REMARK SMILES IDX 94 24 21 25 22 26 23 27 24 28 25 29 26 30 27 31 28 32 29 33
REMARK SMILES IDX 30 34 91 35 31 36 90 37 32 38 33 39 34 40 84 41 35 42 89 43
REMARK SMILES IDX 83 44 85 45 36 46 88 47 82 48 81 49 37 51 69 52 49 53 68 54
REMARK SMILES IDX 50 55 53 56 67 57 86 58 51 59 52 60 66 62 87 63 54 64 38 65
REMARK SMILES IDX 39 66 47 67 40 68 41 69 45 70 48 71 42 72 43 73 46 74 44 75
REMARK SMILES IDX 70 76 71 77 79 78 72 79 73 80 77 81 80 82 74 83 75 84 78 85
REMARK SMILES IDX 76 86 55 87 56 88 64 89 57 90 58 91 62 92 65 93 59 94 60 95
REMARK SMILES IDX 63 96 61 97
REMARK H PARENT 3 11 85 50 53 61
REMARK Flexibility Score: inf
ROOT
ATOM      1  O   UNL     1      -3.830   0.476   2.120  1.00  0.00    -0.376 OA
ENDROOT
BRANCH   1   2
ATOM      2  C   UNL     1      -4.171   0.839   0.782  1.00  0.00     0.202 C 
BRANCH   2   3
ATOM      3  C   UNL     1      -3.316   1.923   0.116  1.00  0.00     0.261 C 
BRANCH   3   4
ATOM      4  O   UNL     1      -1.931   1.541  -0.045  1.00  0.00    -0.461 OA
BRANCH   4   5
ATOM      5  C   UNL     1      -0.991   2.476   0.241  1.00  0.00     0.331 C 
ATOM      6  O   UNL     1      -1.267   3.600   0.656  1.00  0.00    -0.249 OA
BRANCH   5   7
ATOM      7  C   UNL     1       0.489   2.040  -0.099  1.00  0.00     0.138 C 
ATOM      8  C   UNL     1       0.817   0.581  -0.487  1.00  0.00     0.048 C 
BRANCH   7   9
ATOM      9  N   UNL     1       0.975   2.912  -1.194  1.00  0.00    -0.340 N 
ATOM     10  C   UNL     1       0.493   3.032  -2.470  1.00  0.00     0.230 C 
ATOM     11  H   UNL     1       1.748   3.482  -0.974  1.00  0.00     0.164 HD
ATOM     12  O   UNL     1       1.276   3.396  -3.351  1.00  0.00    -0.274 OA
BRANCH  10  13
ATOM     13  C   UNL     1      -0.975   2.806  -2.786  1.00  0.00     0.169 C 
BRANCH  13  14
ATOM     14  S   UNL     1      -1.376   1.052  -3.051  1.00  0.00    -0.147 SA
BRANCH  14  15
ATOM     15  C   UNL     1      -0.773   0.801  -4.745  1.00  0.00     0.105 C 
BRANCH  15  16
ATOM     16  C   UNL     1      -1.747   1.421  -5.707  1.00  0.00    -0.038 A 
ATOM     17  C   UNL     1      -1.556   2.739  -6.142  1.00  0.00     0.004 A 
ATOM     18  C   UNL     1      -2.937   0.754  -6.036  1.00  0.00     0.004 A 
ATOM     19  C   UNL     1      -2.572   3.408  -6.816  1.00  0.00     0.000 A 
ATOM     20  C   UNL     1      -3.941   1.418  -6.737  1.00  0.00     0.000 A 
ATOM     21  C   UNL     1      -3.767   2.751  -7.105  1.00  0.00     0.000 A 
ENDBRANCH  15  16
ENDBRANCH  14  15
ENDBRANCH  13  14
ENDBRANCH  10  13
ENDBRANCH   7   9
BRANCH   7  22
ATOM     22  C   UNL     1       1.278   2.294   1.204  1.00  0.00     0.026 C 
ATOM     23  C   UNL     1       2.760   2.576   1.279  1.00  0.00     0.007 C 
ATOM     24  C   UNL     1       1.769   3.663   1.603  1.00  0.00     0.007 C 
ENDBRANCH   7  22
ENDBRANCH   5   7
ENDBRANCH   4   5
ENDBRANCH   3   4
ENDBRANCH   2   3
ENDBRANCH   1   2
BRANCH   1  25
ATOM     25  C   UNL     1      -2.459   0.229   2.410  1.00  0.00     0.188 C 
BRANCH  25  26
ATOM     26  C   UNL     1      -1.693  -0.750   1.503  1.00  0.00     0.188 C 
BRANCH  26  27
ATOM     27  O   UNL     1      -2.450  -1.299   0.447  1.00  0.00    -0.376 OA
BRANCH  27  28
ATOM     28  C   UNL     1      -2.733  -2.687   0.523  1.00  0.00     0.202 C 
BRANCH  28  29
ATOM     29  C   UNL     1      -3.494  -3.185   1.765  1.00  0.00     0.261 C 
BRANCH  29  30
ATOM     30  O   UNL     1      -2.987  -2.740   3.038  1.00  0.00    -0.460 OA
BRANCH  30  31
ATOM     31  C   UNL     1      -1.805  -3.257   3.462  1.00  0.00     0.338 C 
ATOM     32  O   UNL     1      -1.157  -4.122   2.927  1.00  0.00    -0.246 OA
BRANCH  31  33
ATOM     33  C   UNL     1      -1.300  -2.364   4.546  1.00  0.00     0.060 A 
ATOM     34  C   UNL     1      -0.001  -1.844   4.428  1.00  0.00     0.016 A 
ATOM     35  C   UNL     1      -2.114  -1.972   5.612  1.00  0.00     0.016 A 
ATOM     36  C   UNL     1       0.500  -0.969   5.396  1.00  0.00     0.010 A 
ATOM     37  C   UNL     1      -1.604  -1.115   6.595  1.00  0.00     0.010 A 
ATOM     38  C   UNL     1      -0.280  -0.645   6.514  1.00  0.00    -0.014 A 
BRANCH  38  39
ATOM     39  C   UNL     1       0.383  -0.087   7.721  1.00  0.00     0.031 A 
ATOM     40  C   UNL     1       0.868  -1.070   8.755  1.00  0.00     0.074 A 
ATOM     41  C   UNL     1       0.593   1.230   7.896  1.00  0.00     0.049 A 
ATOM     42  N   UNL     1       1.471  -0.859   9.896  1.00  0.00    -0.248 NA
ATOM     43  C   UNL     1       0.636  -2.493   8.452  1.00  0.00     0.031 C 
ATOM     44  C   UNL     1       0.220   2.284   6.958  1.00  0.00     0.029 A 
ATOM     45  N   UNL     1       1.179   1.901   8.943  1.00  0.00    -0.354 N 
ATOM     46  C   UNL     1       1.682  -2.117  10.446  1.00  0.00     0.074 A 
ATOM     47  C   UNL     1       1.114  -3.084   9.534  1.00  0.00     0.031 C 
ATOM     48  C   UNL     1       0.583   3.474   7.474  1.00  0.00     0.029 A 
ATOM     49  C   UNL     1       1.188   3.266   8.790  1.00  0.00     0.049 A 
ATOM     50  H   UNL     1       1.556   1.446   9.730  1.00  0.00     0.167 HD
ATOM     51  C   UNL     1       2.302  -2.445  11.604  1.00  0.00     0.037 A 
ATOM     52  C   UNL     1       1.625   4.230   9.626  1.00  0.00     0.037 A 
ATOM     53  C   UNL     1       2.861  -1.488  12.518  1.00  0.00     0.049 A 
ATOM     54  C   UNL     1       2.237   3.845  10.953  1.00  0.00     0.074 A 
ATOM     55  C   UNL     1       3.525  -1.719  13.710  1.00  0.00     0.029 A 
ATOM     56  N   UNL     1       2.809  -0.113  12.348  1.00  0.00    -0.354 N 
ATOM     57  N   UNL     1       2.467   2.653  11.449  1.00  0.00    -0.248 NA
ATOM     58  C   UNL     1       2.653   4.946  11.835  1.00  0.00     0.031 C 
ATOM     59  C   UNL     1       3.821  -0.482  14.291  1.00  0.00     0.029 A 
ATOM     60  C   UNL     1       3.402   0.519  13.429  1.00  0.00     0.049 A 
ATOM     61  H   UNL     1       2.410   0.347  11.574  1.00  0.00     0.167 HD
ATOM     62  C   UNL     1       3.091   2.860  12.675  1.00  0.00     0.074 A 
ATOM     63  C   UNL     1       3.209   4.293  12.844  1.00  0.00     0.031 C 
ATOM     64  C   UNL     1       3.529   1.947  13.578  1.00  0.00     0.037 A 
BRANCH  51  65
ATOM     65  C   UNL     1       2.365  -3.901  11.959  1.00  0.00     0.064 A 
ATOM     66  C   UNL     1       3.164  -4.806  11.243  1.00  0.00     0.173 A 
ATOM     67  C   UNL     1       1.612  -4.399  13.033  1.00  0.00     0.173 A 
ATOM     68  F   UNL     1       3.886  -4.385  10.193  1.00  0.00    -0.203 F 
ATOM     69  C   UNL     1       3.180  -6.160  11.567  1.00  0.00     0.198 A 
ATOM     70  C   UNL     1       1.657  -5.747  13.376  1.00  0.00     0.198 A 
ATOM     71  F   UNL     1       0.830  -3.578  13.750  1.00  0.00    -0.203 F 
ATOM     72  F   UNL     1       3.901  -7.015  10.830  1.00  0.00    -0.200 F 
ATOM     73  C   UNL     1       2.432  -6.628  12.637  1.00  0.00     0.200 A 
ATOM     74  F   UNL     1       0.941  -6.196  14.417  1.00  0.00    -0.200 F 
ATOM     75  F   UNL     1       2.449  -7.931  12.949  1.00  0.00    -0.200 F 
ENDBRANCH  51  65
BRANCH  52  76
ATOM     76  C   UNL     1       1.511   5.665   9.245  1.00  0.00     0.064 A 
ATOM     77  C   UNL     1       2.654   6.443   9.008  1.00  0.00     0.173 A 
ATOM     78  C   UNL     1       0.264   6.300   9.158  1.00  0.00     0.173 A 
ATOM     79  F   UNL     1       3.872   5.891   9.112  1.00  0.00    -0.203 F 
ATOM     80  C   UNL     1       2.554   7.803   8.719  1.00  0.00     0.198 A 
ATOM     81  C   UNL     1       0.164   7.654   8.840  1.00  0.00     0.198 A 
ATOM     82  F   UNL     1      -0.861   5.606   9.386  1.00  0.00    -0.203 F 
ATOM     83  F   UNL     1       3.666   8.534   8.553  1.00  0.00    -0.200 F 
ATOM     84  C   UNL     1       1.309   8.406   8.630  1.00  0.00     0.200 A 
ATOM     85  F   UNL     1      -1.042   8.231   8.750  1.00  0.00    -0.200 F 
ATOM     86  F   UNL     1       1.214   9.714   8.356  1.00  0.00    -0.200 F 
ENDBRANCH  52  76
BRANCH  64  87
ATOM     87  C   UNL     1       4.232   2.461  14.804  1.00  0.00     0.064 A 
ATOM     88  C   UNL     1       3.551   3.148  15.819  1.00  0.00     0.173 A 
ATOM     89  C   UNL     1       5.605   2.224  14.982  1.00  0.00     0.173 A 
ATOM     90  F   UNL     1       2.241   3.410  15.696  1.00  0.00    -0.203 F 
ATOM     91  C   UNL     1       4.224   3.609  16.949  1.00  0.00     0.198 A 
ATOM     92  C   UNL     1       6.267   2.654  16.128  1.00  0.00     0.198 A 
ATOM     93  F   UNL     1       6.304   1.560  14.048  1.00  0.00    -0.203 F 
ATOM     94  F   UNL     1       3.564   4.312  17.879  1.00  0.00    -0.200 F 
ATOM     95  C   UNL     1       5.579   3.355  17.106  1.00  0.00     0.200 A 
ATOM     96  F   UNL     1       7.572   2.391  16.286  1.00  0.00    -0.200 F 
ATOM     97  F   UNL     1       6.223   3.793  18.196  1.00  0.00    -0.200 F 
ENDBRANCH  64  87
ENDBRANCH  38  39
ENDBRANCH  31  33
ENDBRANCH  30  31
ENDBRANCH  29  30
ENDBRANCH  28  29
ENDBRANCH  27  28
ENDBRANCH  26  27
ENDBRANCH  25  26
ENDBRANCH   1  25
TORSDOF 23
