REMARK SMILES O=C(OCCOCCOCCOC(=O)[C@@H](c1ccccc1)[C@H](C(=O)c1ccccc1)c1ccccc1)c1ccc(-c2c3nc(c(-c4c(F)c(F)c(F)c(F)c4F)c4ccc([nH]4)c(-c4c(F)c(F)c(F)c(F)c4F)c4nc(c(-c5c(F)c(F)c(F)c(F)c5F)c5ccc2[nH]5)C=C4)C=C3)cc1
REMARK SMILES IDX 8 1 7 2 6 3 5 4 4 5 3 6 2 7 1 8 37 9 38 10 99 11 39 12 98 13
REMARK SMILES IDX 40 14 41 15 42 16 92 17 43 18 97 19 91 20 93 21 44 22 96 23
REMARK SMILES IDX 90 24 89 25 45 27 77 28 57 29 76 30 58 31 61 32 75 33 94 34
REMARK SMILES IDX 59 35 60 36 74 38 95 39 62 40 46 41 47 42 55 43 48 44 49 45
REMARK SMILES IDX 53 46 56 47 50 48 51 49 54 50 52 51 78 52 79 53 87 54 80 55
REMARK SMILES IDX 81 56 85 57 88 58 82 59 83 60 86 61 84 62 63 63 64 64 72 65
REMARK SMILES IDX 65 66 66 67 70 68 73 69 67 70 68 71 71 72 69 73 9 74 10 75
REMARK SMILES IDX 11 76 12 77 13 78 14 79 15 80 16 81 17 82 21 83 18 84 20 85
REMARK SMILES IDX 19 86 22 87 31 88 32 89 36 90 33 91 35 92 34 93 23 94 24 95
REMARK SMILES IDX 25 96 26 97 30 98 27 99 29 100 28 101
REMARK H PARENT 93 26 61 37
REMARK Flexibility Score: inf
ROOT
ATOM      1  C   UNL     1      -0.459   2.712   6.170  1.00  0.00     0.188 C 
ENDROOT
BRANCH   1   2
ATOM      2  C   UNL     1      -1.271   2.466   7.439  1.00  0.00     0.188 C 
BRANCH   2   3
ATOM      3  O   UNL     1      -1.549   1.078   7.677  1.00  0.00    -0.376 OA
BRANCH   3   4
ATOM      4  C   UNL     1      -2.936   0.835   7.939  1.00  0.00     0.202 C 
BRANCH   4   5
ATOM      5  C   UNL     1      -3.438   1.281   9.322  1.00  0.00     0.261 C 
BRANCH   5   6
ATOM      6  O   UNL     1      -2.617   2.270   9.960  1.00  0.00    -0.460 OA
BRANCH   6   7
ATOM      7  C   UNL     1      -1.507   2.119  10.718  1.00  0.00     0.338 C 
ATOM      8  O   UNL     1      -0.983   3.137  11.171  1.00  0.00    -0.246 OA
BRANCH   7   9
ATOM      9  C   UNL     1      -0.835   0.811  11.018  1.00  0.00     0.060 A 
ATOM     10  C   UNL     1      -1.091  -0.413  10.397  1.00  0.00     0.016 A 
ATOM     11  C   UNL     1       0.226   0.854  11.944  1.00  0.00     0.016 A 
ATOM     12  C   UNL     1      -0.313  -1.544  10.651  1.00  0.00     0.010 A 
ATOM     13  C   UNL     1       1.036  -0.265  12.177  1.00  0.00     0.010 A 
ATOM     14  C   UNL     1       0.766  -1.476  11.528  1.00  0.00    -0.014 A 
BRANCH  14  15
ATOM     15  C   UNL     1       1.472  -2.724  11.891  1.00  0.00     0.031 A 
ATOM     16  C   UNL     1       1.157  -3.321  13.221  1.00  0.00     0.074 A 
ATOM     17  C   UNL     1       2.312  -3.344  11.040  1.00  0.00     0.049 A 
ATOM     18  N   UNL     1       1.577  -4.440  13.743  1.00  0.00    -0.248 NA
ATOM     19  C   UNL     1       0.247  -2.550  14.085  1.00  0.00     0.031 C 
ATOM     20  C   UNL     1       2.670  -2.843   9.724  1.00  0.00     0.029 A 
ATOM     21  N   UNL     1       3.011  -4.522  11.138  1.00  0.00    -0.354 N 
ATOM     22  C   UNL     1       0.979  -4.505  14.988  1.00  0.00     0.074 A 
ATOM     23  C   UNL     1       0.230  -3.286  15.180  1.00  0.00     0.031 C 
ATOM     24  C   UNL     1       3.533  -3.686   9.138  1.00  0.00     0.029 A 
ATOM     25  C   UNL     1       3.754  -4.821  10.015  1.00  0.00     0.049 A 
ATOM     26  H   UNL     1       2.984  -5.100  11.934  1.00  0.00     0.167 HD
ATOM     27  C   UNL     1       1.026  -5.516  15.882  1.00  0.00     0.037 A 
ATOM     28  C   UNL     1       4.496  -5.906   9.718  1.00  0.00     0.037 A 
ATOM     29  C   UNL     1       1.798  -6.708  15.688  1.00  0.00     0.049 A 
ATOM     30  C   UNL     1       4.552  -7.003  10.749  1.00  0.00     0.074 A 
ATOM     31  C   UNL     1       1.983  -7.769  16.551  1.00  0.00     0.029 A 
ATOM     32  N   UNL     1       2.528  -6.986  14.538  1.00  0.00    -0.354 N 
ATOM     33  N   UNL     1       3.941  -7.076  11.909  1.00  0.00    -0.248 NA
ATOM     34  C   UNL     1       5.388  -8.169  10.436  1.00  0.00     0.031 C 
ATOM     35  C   UNL     1       2.862  -8.670  15.941  1.00  0.00     0.029 A 
ATOM     36  C   UNL     1       3.179  -8.198  14.675  1.00  0.00     0.049 A 
ATOM     37  H   UNL     1       2.574  -6.406  13.743  1.00  0.00     0.167 HD
ATOM     38  C   UNL     1       4.309  -8.294  12.456  1.00  0.00     0.074 A 
ATOM     39  C   UNL     1       5.148  -8.954  11.476  1.00  0.00     0.031 C 
ATOM     40  C   UNL     1       4.007  -8.816  13.670  1.00  0.00     0.037 A 
BRANCH  27  41
ATOM     41  C   UNL     1       0.243  -5.312  17.139  1.00  0.00     0.064 A 
ATOM     42  C   UNL     1      -1.162  -5.307  17.131  1.00  0.00     0.173 A 
ATOM     43  C   UNL     1       0.898  -5.005  18.338  1.00  0.00     0.173 A 
ATOM     44  F   UNL     1      -1.832  -5.545  15.992  1.00  0.00    -0.203 F 
ATOM     45  C   UNL     1      -1.881  -4.959  18.270  1.00  0.00     0.198 A 
ATOM     46  C   UNL     1       0.175  -4.687  19.483  1.00  0.00     0.198 A 
ATOM     47  F   UNL     1       2.238  -4.972  18.387  1.00  0.00    -0.203 F 
ATOM     48  F   UNL     1      -3.217  -4.872  18.217  1.00  0.00    -0.200 F 
ATOM     49  C   UNL     1      -1.212  -4.651  19.445  1.00  0.00     0.200 A 
ATOM     50  F   UNL     1       0.821  -4.381  20.616  1.00  0.00    -0.200 F 
ATOM     51  F   UNL     1      -1.903  -4.293  20.535  1.00  0.00    -0.200 F 
ENDBRANCH  27  41
BRANCH  28  52
ATOM     52  C   UNL     1       5.201  -6.049   8.408  1.00  0.00     0.064 A 
ATOM     53  C   UNL     1       4.900  -7.110   7.536  1.00  0.00     0.173 A 
ATOM     54  C   UNL     1       6.226  -5.175   8.014  1.00  0.00     0.173 A 
ATOM     55  F   UNL     1       3.928  -7.980   7.849  1.00  0.00    -0.203 F 
ATOM     56  C   UNL     1       5.622  -7.317   6.360  1.00  0.00     0.198 A 
ATOM     57  C   UNL     1       6.919  -5.358   6.816  1.00  0.00     0.198 A 
ATOM     58  F   UNL     1       6.569  -4.141   8.796  1.00  0.00    -0.203 F 
ATOM     59  F   UNL     1       5.346  -8.375   5.585  1.00  0.00    -0.200 F 
ATOM     60  C   UNL     1       6.628  -6.438   5.998  1.00  0.00     0.200 A 
ATOM     61  F   UNL     1       7.881  -4.495   6.460  1.00  0.00    -0.200 F 
ATOM     62  F   UNL     1       7.321  -6.635   4.867  1.00  0.00    -0.200 F 
ENDBRANCH  28  52
BRANCH  40  63
ATOM     63  C   UNL     1       4.593 -10.158  13.987  1.00  0.00     0.064 A 
ATOM     64  C   UNL     1       5.969 -10.320  14.207  1.00  0.00     0.173 A 
ATOM     65  C   UNL     1       3.766 -11.284  14.099  1.00  0.00     0.173 A 
ATOM     66  F   UNL     1       6.800  -9.273  14.093  1.00  0.00    -0.203 F 
ATOM     67  C   UNL     1       6.500 -11.572  14.496  1.00  0.00     0.198 A 
ATOM     68  C   UNL     1       4.297 -12.526  14.427  1.00  0.00     0.198 A 
ATOM     69  F   UNL     1       2.443 -11.175  13.902  1.00  0.00    -0.203 F 
ATOM     70  F   UNL     1       7.824 -11.716  14.643  1.00  0.00    -0.200 F 
ATOM     71  C   UNL     1       5.663 -12.671  14.614  1.00  0.00     0.200 A 
ATOM     72  F   UNL     1       3.486 -13.585  14.557  1.00  0.00    -0.200 F 
ATOM     73  F   UNL     1       6.176 -13.875  14.902  1.00  0.00    -0.200 F 
ENDBRANCH  40  63
ENDBRANCH  14  15
ENDBRANCH   7   9
ENDBRANCH   6   7
ENDBRANCH   5   6
ENDBRANCH   4   5
ENDBRANCH   3   4
ENDBRANCH   2   3
ENDBRANCH   1   2
BRANCH   1  74
ATOM     74  O   UNL     1      -1.087   2.411   4.928  1.00  0.00    -0.376 OA
BRANCH  74  75
ATOM     75  C   UNL     1      -1.534   1.083   4.697  1.00  0.00     0.202 C 
BRANCH  75  76
ATOM     76  C   UNL     1      -0.506  -0.028   4.465  1.00  0.00     0.261 C 
BRANCH  76  77
ATOM     77  O   UNL     1       0.548  -0.159   5.425  1.00  0.00    -0.463 OA
BRANCH  77  78
ATOM     78  C   UNL     1       1.687   0.499   5.085  1.00  0.00     0.314 C 
ATOM     79  O   UNL     1       1.720   1.452   4.324  1.00  0.00    -0.252 OA
BRANCH  78  80
ATOM     80  C   UNL     1       2.952  -0.126   5.656  1.00  0.00     0.144 C 
BRANCH  80  81
ATOM     81  C   UNL     1       3.232   0.038   7.139  1.00  0.00    -0.033 A 
ATOM     82  C   UNL     1       4.546  -0.148   7.620  1.00  0.00     0.004 A 
ATOM     83  C   UNL     1       2.265   0.483   8.040  1.00  0.00     0.004 A 
ATOM     84  C   UNL     1       4.865   0.060   8.964  1.00  0.00     0.000 A 
ATOM     85  C   UNL     1       2.607   0.751   9.363  1.00  0.00     0.000 A 
ATOM     86  C   UNL     1       3.889   0.506   9.842  1.00  0.00     0.000 A 
ENDBRANCH  80  81
BRANCH  80  87
ATOM     87  C   UNL     1       3.273  -1.498   4.985  1.00  0.00     0.110 C 
BRANCH  87  88
ATOM     88  C   UNL     1       2.664  -2.788   5.554  1.00  0.00    -0.036 A 
ATOM     89  C   UNL     1       1.575  -2.845   6.434  1.00  0.00     0.004 A 
ATOM     90  C   UNL     1       3.223  -4.015   5.138  1.00  0.00     0.004 A 
ATOM     91  C   UNL     1       1.073  -4.072   6.889  1.00  0.00     0.000 A 
ATOM     92  C   UNL     1       2.712  -5.237   5.580  1.00  0.00     0.000 A 
ATOM     93  C   UNL     1       1.647  -5.268   6.472  1.00  0.00     0.000 A 
ENDBRANCH  87  88
BRANCH  87  94
ATOM     94  C   UNL     1       3.011  -1.391   3.457  1.00  0.00     0.171 C 
ATOM     95  O   UNL     1       2.217  -2.108   2.851  1.00  0.00    -0.293 OA
BRANCH  94  96
ATOM     96  C   UNL     1       3.672  -0.291   2.698  1.00  0.00     0.018 A 
ATOM     97  C   UNL     1       2.874   0.454   1.820  1.00  0.00     0.012 A 
ATOM     98  C   UNL     1       4.985   0.109   2.963  1.00  0.00     0.012 A 
ATOM     99  C   UNL     1       3.357   1.643   1.278  1.00  0.00     0.001 A 
ATOM    100  C   UNL     1       5.470   1.292   2.402  1.00  0.00     0.001 A 
ATOM    101  C   UNL     1       4.651   2.066   1.578  1.00  0.00     0.000 A 
ENDBRANCH  94  96
ENDBRANCH  87  94
ENDBRANCH  80  87
ENDBRANCH  78  80
ENDBRANCH  77  78
ENDBRANCH  76  77
ENDBRANCH  75  76
ENDBRANCH  74  75
ENDBRANCH   1  74
TORSDOF 22
