REMARK SMILES CC[N@@H+]1CC[C@H](C[NH2+]Cc2cc(C(=O)OCCOCCOCCOC(=O)c3ccc(-c4c5nc(c(-c6c(F)c(F)c(F)c(F)c6F)c6ccc([nH]6)c(-c6c(F)c(F)c(F)c(F)c6F)c6nc(c(-c7c(F)c(F)c(F)c(F)c7F)c7ccc4[nH]7)C=C6)C=C5)cc3)cs2)C1
REMARK SMILES IDX 18 1 17 2 16 3 15 4 13 5 14 6 12 7 10 8 11 9 91 10 90 11
REMARK SMILES IDX 9 12 8 13 7 16 6 17 3 18 4 19 92 20 5 22 2 23 1 24 19 25
REMARK SMILES IDX 20 26 21 27 22 28 23 29 24 30 25 31 26 32 27 33 28 34 89 35
REMARK SMILES IDX 29 36 88 37 30 38 31 39 32 40 82 41 33 42 87 43 81 44 83 45
REMARK SMILES IDX 34 46 86 47 80 48 79 49 35 51 67 52 47 53 66 54 48 55 51 56
REMARK SMILES IDX 65 57 84 58 49 59 50 60 64 62 85 63 52 64 36 65 37 66 45 67
REMARK SMILES IDX 38 68 39 69 43 70 46 71 40 72 41 73 44 74 42 75 68 76 69 77
REMARK SMILES IDX 77 78 70 79 71 80 75 81 78 82 72 83 73 84 76 85 74 86 53 87
REMARK SMILES IDX 54 88 62 89 55 90 56 91 60 92 63 93 57 94 58 95 61 96 59 97
REMARK H PARENT 8 14 8 15 3 21 83 50 51 61
REMARK Flexibility Score: inf
ROOT
ATOM      1  O   UNL     1       0.245  -2.447   8.464  1.00  0.00    -0.376 OA
ENDROOT
BRANCH   1   2
ATOM      2  C   UNL     1      -0.641  -3.551   8.329  1.00  0.00     0.202 C 
BRANCH   2   3
ATOM      3  C   UNL     1      -1.457  -3.620   7.036  1.00  0.00     0.261 C 
BRANCH   3   4
ATOM      4  O   UNL     1      -0.626  -3.779   5.874  1.00  0.00    -0.460 OA
BRANCH   4   5
ATOM      5  C   UNL     1      -0.670  -2.756   4.973  1.00  0.00     0.339 C 
ATOM      6  O   UNL     1      -1.478  -1.836   4.991  1.00  0.00    -0.246 OA
BRANCH   5   7
ATOM      7  C   UNL     1       0.484  -2.766   4.082  1.00  0.00     0.071 A 
ATOM      8  C   UNL     1       2.147  -3.499   2.596  1.00  0.00     0.059 A 
ATOM      9  C   UNL     1       1.030  -3.862   3.333  1.00  0.00     0.037 A 
ATOM     10  S   UNL     1       2.656  -1.909   3.004  1.00  0.00    -0.142 S 
ATOM     11  C   UNL     1       1.234  -1.620   3.892  1.00  0.00     0.081 A 
BRANCH   8  12
ATOM     12  C   UNL     1       2.919  -4.301   1.579  1.00  0.00     0.308 C 
BRANCH  12  13
ATOM     13  N   UNL     1       2.377  -4.157   0.218  1.00  0.00    -0.341 N 
ATOM     14  H   UNL     1       2.776  -4.887  -0.373  1.00  0.00     0.346 HD
ATOM     15  H   UNL     1       1.362  -4.239   0.277  1.00  0.00     0.346 HD
BRANCH  13  16
ATOM     16  C   UNL     1       2.687  -2.851  -0.373  1.00  0.00     0.270 C 
BRANCH  16  17
ATOM     17  C   UNL     1       1.997  -2.602  -1.720  1.00  0.00     0.105 C 
ATOM     18  N   UNL     1       0.939  -0.550  -2.467  1.00  0.00    -0.335 N 
ATOM     19  C   UNL     1      -0.032  -1.637  -2.573  1.00  0.00     0.262 C 
ATOM     20  C   UNL     1       2.246  -1.166  -2.219  1.00  0.00     0.271 C 
ATOM     21  H   UNL     1       0.977  -0.029  -3.344  1.00  0.00     0.348 HD
ATOM     22  C   UNL     1       0.477  -2.736  -1.664  1.00  0.00     0.076 C 
BRANCH  18  23
ATOM     23  C   UNL     1       0.560   0.526  -1.546  1.00  0.00     0.258 C 
ATOM     24  C   UNL     1       0.640   0.267  -0.045  1.00  0.00     0.071 C 
ENDBRANCH  18  23
ENDBRANCH  16  17
ENDBRANCH  13  16
ENDBRANCH  12  13
ENDBRANCH   8  12
ENDBRANCH   5   7
ENDBRANCH   4   5
ENDBRANCH   3   4
ENDBRANCH   2   3
ENDBRANCH   1   2
BRANCH   1  25
ATOM     25  C   UNL     1       1.404  -2.364   7.642  1.00  0.00     0.188 C 
BRANCH  25  26
ATOM     26  C   UNL     1       2.179  -3.641   7.264  1.00  0.00     0.188 C 
BRANCH  26  27
ATOM     27  O   UNL     1       2.035  -4.695   8.205  1.00  0.00    -0.376 OA
BRANCH  27  28
ATOM     28  C   UNL     1       3.213  -5.071   8.903  1.00  0.00     0.202 C 
BRANCH  28  29
ATOM     29  C   UNL     1       3.507  -4.154  10.093  1.00  0.00     0.261 C 
BRANCH  29  30
ATOM     30  O   UNL     1       3.782  -2.789   9.740  1.00  0.00    -0.460 OA
BRANCH  30  31
ATOM     31  C   UNL     1       4.902  -2.559   9.020  1.00  0.00     0.338 C 
ATOM     32  O   UNL     1       5.709  -3.380   8.626  1.00  0.00    -0.246 OA
BRANCH  31  33
ATOM     33  C   UNL     1       4.927  -1.129   8.659  1.00  0.00     0.060 A 
ATOM     34  C   UNL     1       5.090  -0.770   7.316  1.00  0.00     0.016 A 
ATOM     35  C   UNL     1       4.815  -0.148   9.649  1.00  0.00     0.016 A 
ATOM     36  C   UNL     1       5.176   0.579   6.964  1.00  0.00     0.010 A 
ATOM     37  C   UNL     1       4.914   1.199   9.297  1.00  0.00     0.010 A 
ATOM     38  C   UNL     1       5.125   1.569   7.957  1.00  0.00    -0.014 A 
BRANCH  38  39
ATOM     39  C   UNL     1       5.462   2.976   7.634  1.00  0.00     0.031 A 
ATOM     40  C   UNL     1       6.879   3.438   7.832  1.00  0.00     0.074 A 
ATOM     41  C   UNL     1       4.529   3.836   7.193  1.00  0.00     0.049 A 
ATOM     42  N   UNL     1       7.395   4.631   7.679  1.00  0.00    -0.248 NA
ATOM     43  C   UNL     1       7.843   2.415   8.267  1.00  0.00     0.031 C 
ATOM     44  C   UNL     1       3.128   3.509   6.939  1.00  0.00     0.029 A 
ATOM     45  N   UNL     1       4.624   5.173   6.894  1.00  0.00    -0.354 N 
ATOM     46  C   UNL     1       8.740   4.501   7.996  1.00  0.00     0.074 A 
ATOM     47  C   UNL     1       8.958   3.122   8.376  1.00  0.00     0.031 C 
ATOM     48  C   UNL     1       2.489   4.621   6.536  1.00  0.00     0.029 A 
ATOM     49  C   UNL     1       3.429   5.741   6.530  1.00  0.00     0.049 A 
ATOM     50  H   UNL     1       5.470   5.676   6.936  1.00  0.00     0.167 HD
ATOM     51  C   UNL     1       9.710   5.445   7.967  1.00  0.00     0.037 A 
ATOM     52  C   UNL     1       3.129   7.024   6.246  1.00  0.00     0.037 A 
ATOM     53  C   UNL     1       9.499   6.820   7.601  1.00  0.00     0.049 A 
ATOM     54  C   UNL     1       4.213   8.071   6.287  1.00  0.00     0.074 A 
ATOM     55  C   UNL     1      10.424   7.846   7.529  1.00  0.00     0.029 A 
ATOM     56  N   UNL     1       8.271   7.361   7.256  1.00  0.00    -0.354 N 
ATOM     57  N   UNL     1       5.489   7.934   6.555  1.00  0.00    -0.248 NA
ATOM     58  C   UNL     1       3.812   9.454   5.986  1.00  0.00     0.031 C 
ATOM     59  C   UNL     1       9.747   9.020   7.179  1.00  0.00     0.029 A 
ATOM     60  C   UNL     1       8.409   8.714   6.991  1.00  0.00     0.049 A 
ATOM     61  H   UNL     1       7.425   6.859   7.207  1.00  0.00     0.167 HD
ATOM     62  C   UNL     1       6.045   9.201   6.428  1.00  0.00     0.074 A 
ATOM     63  C   UNL     1       4.971  10.095   6.052  1.00  0.00     0.031 C 
ATOM     64  C   UNL     1       7.332   9.588   6.606  1.00  0.00     0.037 A 
BRANCH  51  65
ATOM     65  C   UNL     1      11.092   5.020   8.363  1.00  0.00     0.064 A 
ATOM     66  C   UNL     1      11.885   4.230   7.518  1.00  0.00     0.173 A 
ATOM     67  C   UNL     1      11.636   5.425   9.590  1.00  0.00     0.173 A 
ATOM     68  F   UNL     1      11.401   3.804   6.341  1.00  0.00    -0.203 F 
ATOM     69  C   UNL     1      13.167   3.843   7.898  1.00  0.00     0.198 A 
ATOM     70  C   UNL     1      12.927   5.055   9.957  1.00  0.00     0.198 A 
ATOM     71  F   UNL     1      10.916   6.182  10.432  1.00  0.00    -0.203 F 
ATOM     72  F   UNL     1      13.892   3.053   7.094  1.00  0.00    -0.200 F 
ATOM     73  C   UNL     1      13.688   4.260   9.114  1.00  0.00     0.200 A 
ATOM     74  F   UNL     1      13.432   5.464  11.129  1.00  0.00    -0.200 F 
ATOM     75  F   UNL     1      14.923   3.888   9.477  1.00  0.00    -0.200 F 
ENDBRANCH  51  65
BRANCH  52  76
ATOM     76  C   UNL     1       1.734   7.402   5.904  1.00  0.00     0.064 A 
ATOM     77  C   UNL     1       1.390   7.793   4.603  1.00  0.00     0.173 A 
ATOM     78  C   UNL     1       0.725   7.411   6.878  1.00  0.00     0.173 A 
ATOM     79  F   UNL     1       2.329   7.830   3.646  1.00  0.00    -0.203 F 
ATOM     80  C   UNL     1       0.092   8.192   4.291  1.00  0.00     0.198 A 
ATOM     81  C   UNL     1      -0.578   7.788   6.560  1.00  0.00     0.198 A 
ATOM     82  F   UNL     1       1.006   7.054   8.139  1.00  0.00    -0.203 F 
ATOM     83  F   UNL     1      -0.200   8.605   3.050  1.00  0.00    -0.200 F 
ATOM     84  C   UNL     1      -0.892   8.185   5.268  1.00  0.00     0.200 A 
ATOM     85  F   UNL     1      -1.527   7.776   7.506  1.00  0.00    -0.200 F 
ATOM     86  F   UNL     1      -2.139   8.572   4.969  1.00  0.00    -0.200 F 
ENDBRANCH  52  76
BRANCH  64  87
ATOM     87  C   UNL     1       7.662  11.031   6.361  1.00  0.00     0.064 A 
ATOM     88  C   UNL     1       7.297  12.034   7.271  1.00  0.00     0.173 A 
ATOM     89  C   UNL     1       8.399  11.407   5.227  1.00  0.00     0.173 A 
ATOM     90  F   UNL     1       6.580  11.726   8.362  1.00  0.00    -0.203 F 
ATOM     91  C   UNL     1       7.642  13.364   7.045  1.00  0.00     0.198 A 
ATOM     92  C   UNL     1       8.763  12.734   5.017  1.00  0.00     0.198 A 
ATOM     93  F   UNL     1       8.777  10.484   4.330  1.00  0.00    -0.203 F 
ATOM     94  F   UNL     1       7.252  14.311   7.909  1.00  0.00    -0.200 F 
ATOM     95  C   UNL     1       8.381  13.712   5.923  1.00  0.00     0.200 A 
ATOM     96  F   UNL     1       9.486  13.067   3.939  1.00  0.00    -0.200 F 
ATOM     97  F   UNL     1       8.719  14.991   5.712  1.00  0.00    -0.200 F 
ENDBRANCH  64  87
ENDBRANCH  38  39
ENDBRANCH  31  33
ENDBRANCH  30  31
ENDBRANCH  29  30
ENDBRANCH  28  29
ENDBRANCH  27  28
ENDBRANCH  26  27
ENDBRANCH  25  26
ENDBRANCH   1  25
TORSDOF 22
