REMARK SMILES C[C@H]1CCCC[C@H]1[N@H+]1[C@@H](C(=O)OCCOCCOCCOC(=O)c2ccc(-c3c4nc(c(-c5c(F)c(F)c(F)c(F)c5F)c5ccc([nH]5)c(-c5c(F)c(F)c(F)c(F)c5F)c5nc(c(-c6c(F)c(F)c(F)c(F)c6F)c6ccc3[nH]6)C=C5)C=C4)cc2)CC[C@@H]2CCCC[C@@H]21
REMARK SMILES IDX 17 1 16 2 15 3 14 4 13 5 12 6 10 7 11 8 9 9 8 10 94 11 87 13
REMARK SMILES IDX 89 14 93 15 88 16 90 17 92 18 91 19 7 20 1 21 2 22 3 23 4 24
REMARK SMILES IDX 6 25 5 26 18 27 19 28 20 29 21 30 22 31 23 32 24 33 25 34
REMARK SMILES IDX 86 35 26 36 85 37 27 38 28 39 29 40 79 41 30 42 84 43 78 44
REMARK SMILES IDX 80 45 31 46 83 47 77 48 76 49 32 51 64 52 44 53 63 54 45 55
REMARK SMILES IDX 48 56 62 57 81 58 46 59 47 60 61 62 82 63 49 64 33 65 34 66
REMARK SMILES IDX 42 67 35 68 36 69 40 70 43 71 37 72 38 73 41 74 39 75 65 76
REMARK SMILES IDX 66 77 74 78 67 79 68 80 72 81 75 82 69 83 70 84 73 85 71 86
REMARK SMILES IDX 50 87 51 88 59 89 52 90 53 91 57 92 60 93 54 94 55 95 58 96
REMARK SMILES IDX 56 97
REMARK H PARENT 8 12 80 50 48 61
REMARK Flexibility Score: inf
ROOT
ATOM      1  C   UNL     1      -3.891  -0.436   1.640  1.00  0.00     0.188 C 
ENDROOT
BRANCH   1   2
ATOM      2  C   UNL     1      -4.255   0.631   0.575  1.00  0.00     0.188 C 
BRANCH   2   3
ATOM      3  O   UNL     1      -5.115   0.203  -0.472  1.00  0.00    -0.376 OA
BRANCH   3   4
ATOM      4  C   UNL     1      -4.599  -0.747  -1.424  1.00  0.00     0.202 C 
BRANCH   4   5
ATOM      5  C   UNL     1      -3.565  -0.252  -2.471  1.00  0.00     0.261 C 
BRANCH   5   6
ATOM      6  O   UNL     1      -2.158  -0.665  -2.318  1.00  0.00    -0.459 OA
BRANCH   6   7
ATOM      7  C   UNL     1      -1.237   0.255  -2.795  1.00  0.00     0.365 C 
ATOM      8  O   UNL     1      -1.611   1.371  -3.166  1.00  0.00    -0.245 OA
BRANCH   7   9
ATOM      9  C   UNL     1       0.261  -0.210  -2.962  1.00  0.00     0.295 C 
ATOM     10  N   UNL     1       1.338  -0.465  -1.907  1.00  0.00    -0.318 N 
ATOM     11  C   UNL     1       2.749  -0.459  -2.412  1.00  0.00     0.188 C 
ATOM     12  H   UNL     1       0.434  -0.905  -1.738  1.00  0.00     0.349 HD
ATOM     13  C   UNL     1       0.871   0.881  -3.890  1.00  0.00     0.078 C 
ATOM     14  C   UNL     1       2.852  -0.679  -3.930  1.00  0.00     0.048 C 
ATOM     15  C   UNL     1       3.804  -1.419  -1.774  1.00  0.00     0.065 C 
ATOM     16  C   UNL     1       2.103   0.426  -4.655  1.00  0.00     0.016 C 
ATOM     17  C   UNL     1       2.442  -2.111  -4.344  1.00  0.00     0.010 C 
ATOM     18  C   UNL     1       3.949  -2.781  -2.454  1.00  0.00     0.006 C 
ATOM     19  C   UNL     1       2.708  -3.146  -3.246  1.00  0.00     0.001 C 
BRANCH  10  20
ATOM     20  C   UNL     1       1.245  -0.590  -0.452  1.00  0.00     0.187 C 
ATOM     21  C   UNL     1       3.365   0.820   0.481  1.00  0.00     0.014 C 
ATOM     22  C   UNL     1       1.864   0.540   0.465  1.00  0.00     0.044 C 
ATOM     23  C   UNL     1       1.103   1.861   0.335  1.00  0.00     0.009 C 
ATOM     24  C   UNL     1      -0.351   1.694   0.723  1.00  0.00     0.001 C 
ATOM     25  C   UNL     1      -0.153  -0.834   0.069  1.00  0.00     0.065 C 
ATOM     26  C   UNL     1      -0.944   0.447   0.136  1.00  0.00     0.006 C 
ENDBRANCH  10  20
ENDBRANCH   7   9
ENDBRANCH   6   7
ENDBRANCH   5   6
ENDBRANCH   4   5
ENDBRANCH   3   4
ENDBRANCH   2   3
ENDBRANCH   1   2
BRANCH   1  27
ATOM     27  O   UNL     1      -3.557  -1.684   1.053  1.00  0.00    -0.376 OA
BRANCH  27  28
ATOM     28  C   UNL     1      -3.069  -2.746   1.868  1.00  0.00     0.202 C 
BRANCH  28  29
ATOM     29  C   UNL     1      -3.422  -2.736   3.363  1.00  0.00     0.261 C 
BRANCH  29  30
ATOM     30  O   UNL     1      -2.835  -1.615   4.058  1.00  0.00    -0.460 OA
BRANCH  30  31
ATOM     31  C   UNL     1      -1.487  -1.656   4.159  1.00  0.00     0.338 C 
ATOM     32  O   UNL     1      -0.775  -2.620   3.906  1.00  0.00    -0.246 OA
BRANCH  31  33
ATOM     33  C   UNL     1      -0.946  -0.296   4.395  1.00  0.00     0.060 A 
ATOM     34  C   UNL     1       0.242   0.014   3.735  1.00  0.00     0.016 A 
ATOM     35  C   UNL     1      -1.542   0.667   5.215  1.00  0.00     0.016 A 
ATOM     36  C   UNL     1       0.820   1.280   3.850  1.00  0.00     0.010 A 
ATOM     37  C   UNL     1      -0.937   1.933   5.366  1.00  0.00     0.010 A 
ATOM     38  C   UNL     1       0.247   2.252   4.674  1.00  0.00    -0.014 A 
BRANCH  38  39
ATOM     39  C   UNL     1       1.111   3.409   5.036  1.00  0.00     0.031 A 
ATOM     40  C   UNL     1       2.094   3.178   6.152  1.00  0.00     0.074 A 
ATOM     41  C   UNL     1       1.191   4.551   4.326  1.00  0.00     0.049 A 
ATOM     42  N   UNL     1       2.955   3.994   6.701  1.00  0.00    -0.248 NA
ATOM     43  C   UNL     1       2.125   1.811   6.697  1.00  0.00     0.031 C 
ATOM     44  C   UNL     1       0.461   4.855   3.099  1.00  0.00     0.029 A 
ATOM     45  N   UNL     1       1.968   5.670   4.537  1.00  0.00    -0.354 N 
ATOM     46  C   UNL     1       3.612   3.243   7.667  1.00  0.00     0.074 A 
ATOM     47  C   UNL     1       3.057   1.910   7.625  1.00  0.00     0.031 C 
ATOM     48  C   UNL     1       0.825   6.077   2.665  1.00  0.00     0.029 A 
ATOM     49  C   UNL     1       1.772   6.669   3.612  1.00  0.00     0.049 A 
ATOM     50  H   UNL     1       2.606   5.748   5.282  1.00  0.00     0.167 HD
ATOM     51  C   UNL     1       4.583   3.626   8.527  1.00  0.00     0.037 A 
ATOM     52  C   UNL     1       2.276   7.921   3.561  1.00  0.00     0.037 A 
ATOM     53  C   UNL     1       5.129   4.952   8.592  1.00  0.00     0.049 A 
ATOM     54  C   UNL     1       3.222   8.392   4.645  1.00  0.00     0.074 A 
ATOM     55  C   UNL     1       6.054   5.460   9.485  1.00  0.00     0.029 A 
ATOM     56  N   UNL     1       4.792   5.984   7.730  1.00  0.00    -0.354 N 
ATOM     57  N   UNL     1       3.766   7.716   5.627  1.00  0.00    -0.248 NA
ATOM     58  C   UNL     1       3.609   9.813   4.618  1.00  0.00     0.031 C 
ATOM     59  C   UNL     1       6.232   6.818   9.201  1.00  0.00     0.029 A 
ATOM     60  C   UNL     1       5.475   7.136   8.085  1.00  0.00     0.049 A 
ATOM     61  H   UNL     1       4.161   5.910   6.978  1.00  0.00     0.167 HD
ATOM     62  C   UNL     1       4.590   8.611   6.303  1.00  0.00     0.074 A 
ATOM     63  C   UNL     1       4.475   9.882   5.620  1.00  0.00     0.031 C 
ATOM     64  C   UNL     1       5.376   8.395   7.388  1.00  0.00     0.037 A 
BRANCH  51  65
ATOM     65  C   UNL     1       5.012   2.604   9.537  1.00  0.00     0.064 A 
ATOM     66  C   UNL     1       5.733   1.454   9.180  1.00  0.00     0.173 A 
ATOM     67  C   UNL     1       4.614   2.742  10.875  1.00  0.00     0.173 A 
ATOM     68  F   UNL     1       6.103   1.258   7.905  1.00  0.00    -0.203 F 
ATOM     69  C   UNL     1       5.987   0.454  10.114  1.00  0.00     0.198 A 
ATOM     70  C   UNL     1       4.906   1.759  11.815  1.00  0.00     0.198 A 
ATOM     71  F   UNL     1       3.916   3.819  11.266  1.00  0.00    -0.203 F 
ATOM     72  F   UNL     1       6.590  -0.681   9.731  1.00  0.00    -0.200 F 
ATOM     73  C   UNL     1       5.576   0.608  11.430  1.00  0.00     0.200 A 
ATOM     74  F   UNL     1       4.513   1.914  13.086  1.00  0.00    -0.200 F 
ATOM     75  F   UNL     1       5.805  -0.364  12.323  1.00  0.00    -0.200 F 
ENDBRANCH  51  65
BRANCH  52  76
ATOM     76  C   UNL     1       1.872   8.862   2.476  1.00  0.00     0.064 A 
ATOM     77  C   UNL     1       2.809   9.358   1.556  1.00  0.00     0.173 A 
ATOM     78  C   UNL     1       0.558   9.345   2.382  1.00  0.00     0.173 A 
ATOM     79  F   UNL     1       4.090   8.969   1.629  1.00  0.00    -0.203 F 
ATOM     80  C   UNL     1       2.450  10.305   0.596  1.00  0.00     0.198 A 
ATOM     81  C   UNL     1       0.193  10.269   1.404  1.00  0.00     0.198 A 
ATOM     82  F   UNL     1      -0.374   8.930   3.253  1.00  0.00    -0.203 F 
ATOM     83  F   UNL     1       3.378  10.803  -0.232  1.00  0.00    -0.200 F 
ATOM     84  C   UNL     1       1.141  10.754   0.516  1.00  0.00     0.200 A 
ATOM     85  F   UNL     1      -1.073  10.702   1.333  1.00  0.00    -0.200 F 
ATOM     86  F   UNL     1       0.796  11.667  -0.403  1.00  0.00    -0.200 F 
ENDBRANCH  52  76
BRANCH  64  87
ATOM     87  C   UNL     1       6.241   9.527   7.873  1.00  0.00     0.064 A 
ATOM     88  C   UNL     1       5.707  10.665   8.495  1.00  0.00     0.173 A 
ATOM     89  C   UNL     1       7.639   9.438   7.764  1.00  0.00     0.173 A 
ATOM     90  F   UNL     1       4.379  10.807   8.619  1.00  0.00    -0.203 F 
ATOM     91  C   UNL     1       6.537  11.682   8.963  1.00  0.00     0.198 A 
ATOM     92  C   UNL     1       8.467  10.440   8.264  1.00  0.00     0.198 A 
ATOM     93  F   UNL     1       8.207   8.367   7.189  1.00  0.00    -0.203 F 
ATOM     94  F   UNL     1       6.002  12.783   9.510  1.00  0.00    -0.200 F 
ATOM     95  C   UNL     1       7.915  11.565   8.855  1.00  0.00     0.200 A 
ATOM     96  F   UNL     1       9.798  10.314   8.177  1.00  0.00    -0.200 F 
ATOM     97  F   UNL     1       8.711  12.540   9.317  1.00  0.00    -0.200 F 
ENDBRANCH  64  87
ENDBRANCH  38  39
ENDBRANCH  31  33
ENDBRANCH  30  31
ENDBRANCH  29  30
ENDBRANCH  28  29
ENDBRANCH  27  28
ENDBRANCH   1  27
TORSDOF 18
