REMARK SMILES C[C@H](c1ccoc1)[NH+]1CC[NH+]([C@@H](C)C(=O)OCCOCCOCCOC(=O)c2ccc(-c3c4nc(c(-c5c(F)c(F)c(F)c(F)c5F)c5ccc([nH]5)c(-c5c(F)c(F)c(F)c(F)c5F)c5nc(c(-c6c(F)c(F)c(F)c(F)c6F)c6ccc3[nH]6)C=C5)C=C4)cc2)CC1
REMARK SMILES IDX 20 1 19 2 18 3 17 4 16 5 14 6 15 7 12 8 13 9 11 10 8 11 9 12
REMARK SMILES IDX 92 13 10 15 91 16 2 18 1 19 3 20 4 21 7 22 5 23 6 24 21 25
REMARK SMILES IDX 22 26 23 27 24 28 25 29 26 30 27 31 28 32 29 33 90 34 30 35
REMARK SMILES IDX 89 36 31 37 32 38 33 39 83 40 34 41 88 42 82 43 84 44 35 45
REMARK SMILES IDX 87 46 81 47 80 48 36 50 68 51 48 52 67 53 49 54 52 55 66 56
REMARK SMILES IDX 85 57 50 58 51 59 65 61 86 62 53 63 37 64 38 65 46 66 39 67
REMARK SMILES IDX 40 68 44 69 47 70 41 71 42 72 45 73 43 74 69 75 70 76 78 77
REMARK SMILES IDX 71 78 72 79 76 80 79 81 73 82 74 83 77 84 75 85 54 86 55 87
REMARK SMILES IDX 63 88 56 89 57 90 61 91 64 92 58 93 59 94 62 95 60 96
REMARK H PARENT 8 14 11 17 84 49 52 60
REMARK Flexibility Score: inf
ROOT
ATOM      1  C   UNL     1      -3.260   3.422   3.030  1.00  0.00     0.188 C 
ENDROOT
BRANCH   1   2
ATOM      2  O   UNL     1      -4.054   3.179   4.188  1.00  0.00    -0.376 OA
BRANCH   2   3
ATOM      3  C   UNL     1      -4.198   1.847   4.667  1.00  0.00     0.202 C 
BRANCH   3   4
ATOM      4  C   UNL     1      -4.667   0.754   3.699  1.00  0.00     0.261 C 
BRANCH   4   5
ATOM      5  O   UNL     1      -3.995   0.774   2.432  1.00  0.00    -0.459 OA
BRANCH   5   6
ATOM      6  C   UNL     1      -4.756   0.906   1.315  1.00  0.00     0.364 C 
ATOM      7  O   UNL     1      -5.981   1.002   1.337  1.00  0.00    -0.245 OA
BRANCH   6   8
ATOM      8  C   UNL     1      -3.954   0.970  -0.014  1.00  0.00     0.292 C 
ATOM      9  C   UNL     1      -4.546  -0.037  -0.992  1.00  0.00     0.088 C 
BRANCH   8  10
ATOM     10  N   UNL     1      -2.481   0.951   0.105  1.00  0.00    -0.314 N 
ATOM     11  N   UNL     1      -0.598  -0.981  -1.263  1.00  0.00    -0.320 N 
ATOM     12  C   UNL     1      -1.379  -1.347  -0.082  1.00  0.00     0.325 C 
ATOM     13  C   UNL     1      -1.187   0.162  -1.969  1.00  0.00     0.325 C 
ATOM     14  H   UNL     1      -0.690  -1.781  -1.889  1.00  0.00     0.348 HD
ATOM     15  C   UNL     1      -1.840  -0.172   0.795  1.00  0.00     0.325 C 
ATOM     16  C   UNL     1      -1.725   1.327  -1.099  1.00  0.00     0.325 C 
ATOM     17  H   UNL     1      -2.410   1.721   0.770  1.00  0.00     0.349 HD
BRANCH  11  18
ATOM     18  C   UNL     1       0.869  -0.989  -1.141  1.00  0.00     0.215 C 
ATOM     19  C   UNL     1       1.383  -2.435  -1.054  1.00  0.00     0.081 C 
BRANCH  18  20
ATOM     20  C   UNL     1       1.403  -0.118  -0.040  1.00  0.00     0.047 A 
ATOM     21  C   UNL     1       1.561  -0.420   1.349  1.00  0.00     0.052 A 
ATOM     22  C   UNL     1       1.918   1.158  -0.180  1.00  0.00     0.204 A 
ATOM     23  C   UNL     1       2.084   0.704   1.944  1.00  0.00     0.195 A 
ATOM     24  O   UNL     1       2.314   1.663   1.014  1.00  0.00    -0.472 OA
ENDBRANCH  18  20
ENDBRANCH  11  18
ENDBRANCH   8  10
ENDBRANCH   6   8
ENDBRANCH   5   6
ENDBRANCH   4   5
ENDBRANCH   3   4
ENDBRANCH   2   3
ENDBRANCH   1   2
BRANCH   1  25
ATOM     25  C   UNL     1      -1.863   2.782   2.900  1.00  0.00     0.188 C 
BRANCH  25  26
ATOM     26  O   UNL     1      -1.518   1.901   3.940  1.00  0.00    -0.376 OA
BRANCH  26  27
ATOM     27  C   UNL     1      -0.618   2.346   4.937  1.00  0.00     0.202 C 
BRANCH  27  28
ATOM     28  C   UNL     1      -0.493   3.817   5.393  1.00  0.00     0.261 C 
BRANCH  28  29
ATOM     29  O   UNL     1      -1.077   4.839   4.572  1.00  0.00    -0.460 OA
BRANCH  29  30
ATOM     30  C   UNL     1      -0.256   5.500   3.722  1.00  0.00     0.338 C 
ATOM     31  O   UNL     1       0.941   5.322   3.558  1.00  0.00    -0.246 OA
BRANCH  30  32
ATOM     32  C   UNL     1      -1.083   6.391   2.880  1.00  0.00     0.060 A 
ATOM     33  C   UNL     1      -1.300   6.066   1.532  1.00  0.00     0.016 A 
ATOM     34  C   UNL     1      -1.662   7.535   3.429  1.00  0.00     0.016 A 
ATOM     35  C   UNL     1      -2.117   6.877   0.736  1.00  0.00     0.010 A 
ATOM     36  C   UNL     1      -2.454   8.359   2.624  1.00  0.00     0.010 A 
ATOM     37  C   UNL     1      -2.685   8.040   1.273  1.00  0.00    -0.014 A 
BRANCH  37  38
ATOM     38  C   UNL     1      -3.445   8.990   0.421  1.00  0.00     0.031 A 
ATOM     39  C   UNL     1      -2.761  10.231  -0.077  1.00  0.00     0.074 A 
ATOM     40  C   UNL     1      -4.743   8.781   0.138  1.00  0.00     0.049 A 
ATOM     41  N   UNL     1      -3.265  11.271  -0.693  1.00  0.00    -0.248 NA
ATOM     42  C   UNL     1      -1.312  10.311   0.158  1.00  0.00     0.031 C 
ATOM     43  C   UNL     1      -5.512   7.600   0.521  1.00  0.00     0.029 A 
ATOM     44  N   UNL     1      -5.652   9.578  -0.517  1.00  0.00    -0.354 N 
ATOM     45  C   UNL     1      -2.199  12.135  -0.906  1.00  0.00     0.074 A 
ATOM     46  C   UNL     1      -1.025  11.507  -0.337  1.00  0.00     0.031 C 
ATOM     47  C   UNL     1      -6.785   7.760   0.121  1.00  0.00     0.029 A 
ATOM     48  C   UNL     1      -6.931   9.075  -0.503  1.00  0.00     0.049 A 
ATOM     49  H   UNL     1      -5.411  10.427  -0.952  1.00  0.00     0.167 HD
ATOM     50  C   UNL     1      -2.202  13.342  -1.521  1.00  0.00     0.037 A 
ATOM     51  C   UNL     1      -8.091   9.631  -0.908  1.00  0.00     0.037 A 
ATOM     52  C   UNL     1      -3.373  13.968  -2.078  1.00  0.00     0.049 A 
ATOM     53  C   UNL     1      -8.084  11.020  -1.498  1.00  0.00     0.074 A 
ATOM     54  C   UNL     1      -3.471  15.177  -2.745  1.00  0.00     0.029 A 
ATOM     55  N   UNL     1      -4.656  13.443  -2.016  1.00  0.00    -0.354 N 
ATOM     56  N   UNL     1      -7.071  11.821  -1.725  1.00  0.00    -0.248 NA
ATOM     57  C   UNL     1      -9.387  11.585  -1.880  1.00  0.00     0.031 C 
ATOM     58  C   UNL     1      -4.820  15.414  -3.028  1.00  0.00     0.029 A 
ATOM     59  C   UNL     1      -5.557  14.323  -2.596  1.00  0.00     0.049 A 
ATOM     60  H   UNL     1      -4.892  12.573  -1.619  1.00  0.00     0.167 HD
ATOM     61  C   UNL     1      -7.609  12.969  -2.296  1.00  0.00     0.074 A 
ATOM     62  C   UNL     1      -9.037  12.753  -2.400  1.00  0.00     0.031 C 
ATOM     63  C   UNL     1      -6.977  14.101  -2.694  1.00  0.00     0.037 A 
BRANCH  50  64
ATOM     64  C   UNL     1      -0.900  14.087  -1.595  1.00  0.00     0.064 A 
ATOM     65  C   UNL     1       0.154  13.658  -2.414  1.00  0.00     0.173 A 
ATOM     66  C   UNL     1      -0.721  15.273  -0.865  1.00  0.00     0.173 A 
ATOM     67  F   UNL     1       0.039  12.525  -3.125  1.00  0.00    -0.203 F 
ATOM     68  C   UNL     1       1.348  14.372  -2.479  1.00  0.00     0.198 A 
ATOM     69  C   UNL     1       0.461  16.002  -0.958  1.00  0.00     0.198 A 
ATOM     70  F   UNL     1      -1.699  15.733  -0.070  1.00  0.00    -0.203 F 
ATOM     71  F   UNL     1       2.359  13.917  -3.233  1.00  0.00    -0.200 F 
ATOM     72  C   UNL     1       1.498  15.547  -1.758  1.00  0.00     0.200 A 
ATOM     73  F   UNL     1       0.597  17.145  -0.272  1.00  0.00    -0.200 F 
ATOM     74  F   UNL     1       2.643  16.238  -1.830  1.00  0.00    -0.200 F 
ENDBRANCH  50  64
BRANCH  51  75
ATOM     75  C   UNL     1      -9.371   8.892  -0.739  1.00  0.00     0.064 A 
ATOM     76  C   UNL     1     -10.108   8.459  -1.851  1.00  0.00     0.173 A 
ATOM     77  C   UNL     1      -9.902   8.630   0.534  1.00  0.00     0.173 A 
ATOM     78  F   UNL     1      -9.661   8.714  -3.090  1.00  0.00    -0.203 F 
ATOM     79  C   UNL     1     -11.332   7.811  -1.697  1.00  0.00     0.198 A 
ATOM     80  C   UNL     1     -11.110   7.953   0.687  1.00  0.00     0.198 A 
ATOM     81  F   UNL     1      -9.244   9.033   1.631  1.00  0.00    -0.203 F 
ATOM     82  F   UNL     1     -12.041   7.459  -2.778  1.00  0.00    -0.200 F 
ATOM     83  C   UNL     1     -11.828   7.551  -0.428  1.00  0.00     0.200 A 
ATOM     84  F   UNL     1     -11.582   7.698   1.915  1.00  0.00    -0.200 F 
ATOM     85  F   UNL     1     -13.005   6.928  -0.282  1.00  0.00    -0.200 F 
ENDBRANCH  51  75
BRANCH  63  86
ATOM     86  C   UNL     1      -7.818  15.189  -3.303  1.00  0.00     0.064 A 
ATOM     87  C   UNL     1      -8.711  15.949  -2.533  1.00  0.00     0.173 A 
ATOM     88  C   UNL     1      -7.695  15.508  -4.665  1.00  0.00     0.173 A 
ATOM     89  F   UNL     1      -8.878  15.678  -1.230  1.00  0.00    -0.203 F 
ATOM     90  C   UNL     1      -9.466  16.969  -3.107  1.00  0.00     0.198 A 
ATOM     91  C   UNL     1      -8.426  16.551  -5.229  1.00  0.00     0.198 A 
ATOM     92  F   UNL     1      -6.850  14.820  -5.447  1.00  0.00    -0.203 F 
ATOM     93  F   UNL     1     -10.349  17.648  -2.361  1.00  0.00    -0.200 F 
ATOM     94  C   UNL     1      -9.317  17.275  -4.452  1.00  0.00     0.200 A 
ATOM     95  F   UNL     1      -8.267  16.855  -6.524  1.00  0.00    -0.200 F 
ATOM     96  F   UNL     1     -10.036  18.264  -5.000  1.00  0.00    -0.200 F 
ENDBRANCH  63  86
ENDBRANCH  37  38
ENDBRANCH  30  32
ENDBRANCH  29  30
ENDBRANCH  28  29
ENDBRANCH  27  28
ENDBRANCH  26  27
ENDBRANCH  25  26
ENDBRANCH   1  25
TORSDOF 20
