REMARK SMILES O=C(Cn1nc(C(=O)OCCOCCOCCOC(=O)c2ccc(-c3c4nc(c(-c5c(F)c(F)c(F)c(F)c5F)c5ccc([nH]5)c(-c5c(F)c(F)c(F)c(F)c5F)c5nc(c(-c6c(F)c(F)c(F)c(F)c6F)c6ccc3[nH]6)C=C5)C=C4)cc2)c2ccccc2c1=O)NCc1ccc(F)cc1
REMARK SMILES IDX 13 1 12 2 11 3 10 4 9 5 7 6 8 7 6 8 4 9 5 10 90 11 89 12
REMARK SMILES IDX 91 13 84 14 88 15 85 16 87 17 86 18 3 19 2 20 1 21 92 22
REMARK SMILES IDX 93 24 94 25 95 26 100 27 96 28 99 29 97 30 98 31 14 32 15 33
REMARK SMILES IDX 16 34 17 35 18 36 19 37 20 38 21 39 22 40 83 41 23 42 82 43
REMARK SMILES IDX 24 44 25 45 26 46 76 47 27 48 81 49 75 50 77 51 28 52 80 53
REMARK SMILES IDX 74 54 73 55 29 57 61 58 41 59 60 60 42 61 45 62 59 63 78 64
REMARK SMILES IDX 43 65 44 66 58 68 79 69 46 70 30 71 31 72 39 73 32 74 33 75
REMARK SMILES IDX 37 76 40 77 34 78 35 79 38 80 36 81 62 82 63 83 71 84 64 85
REMARK SMILES IDX 65 86 69 87 72 88 66 89 67 90 70 91 68 92 47 93 48 94 56 95
REMARK SMILES IDX 49 96 50 97 54 98 57 99 51 100 52 101 55 102 53 103
REMARK H PARENT 92 23 77 56 45 67
REMARK Flexibility Score: inf
ROOT
ATOM      1  C   UNL     1       5.478  -2.872  -6.228  1.00  0.00     0.188 C 
ENDROOT
BRANCH   1   2
ATOM      2  O   UNL     1       6.133  -4.049  -6.632  1.00  0.00    -0.376 OA
BRANCH   2   3
ATOM      3  C   UNL     1       6.755  -4.901  -5.684  1.00  0.00     0.202 C 
BRANCH   3   4
ATOM      4  C   UNL     1       6.986  -4.563  -4.197  1.00  0.00     0.261 C 
BRANCH   4   5
ATOM      5  O   UNL     1       6.211  -3.497  -3.643  1.00  0.00    -0.458 OA
BRANCH   5   6
ATOM      6  C   UNL     1       6.892  -2.427  -3.176  1.00  0.00     0.359 C 
ATOM      7  O   UNL     1       8.095  -2.250  -3.171  1.00  0.00    -0.244 OA
BRANCH   6   8
ATOM      8  C   UNL     1       5.907  -1.326  -2.790  1.00  0.00     0.176 A 
ATOM      9  N   UNL     1       4.112  -0.635  -1.486  1.00  0.00    -0.219 N 
ATOM     10  N   UNL     1       5.090  -1.569  -1.805  1.00  0.00    -0.161 NA
ATOM     11  C   UNL     1       3.897   0.515  -2.245  1.00  0.00     0.275 A 
ATOM     12  C   UNL     1       4.932   0.866  -3.224  1.00  0.00     0.051 A 
ATOM     13  O   UNL     1       2.924   1.255  -2.144  1.00  0.00    -0.267 OA
ATOM     14  C   UNL     1       5.905  -0.066  -3.558  1.00  0.00     0.022 A 
ATOM     15  C   UNL     1       4.898   2.123  -3.845  1.00  0.00     0.014 A 
ATOM     16  C   UNL     1       6.813   0.236  -4.581  1.00  0.00     0.011 A 
ATOM     17  C   UNL     1       5.817   2.430  -4.842  1.00  0.00     0.001 A 
ATOM     18  C   UNL     1       6.760   1.478  -5.222  1.00  0.00     0.001 A 
BRANCH   9  19
ATOM     19  C   UNL     1       3.039  -1.140  -0.617  1.00  0.00     0.248 C 
BRANCH  19  20
ATOM     20  C   UNL     1       2.205  -0.120   0.169  1.00  0.00     0.242 C 
ATOM     21  O   UNL     1       1.028  -0.348   0.451  1.00  0.00    -0.273 OA
ATOM     22  N   UNL     1       2.884   0.969   0.668  1.00  0.00    -0.350 N 
ATOM     23  H   UNL     1       3.868   0.966   0.671  1.00  0.00     0.163 HD
BRANCH  22  24
ATOM     24  C   UNL     1       2.176   2.118   1.188  1.00  0.00     0.151 C 
BRANCH  24  25
ATOM     25  C   UNL     1       2.673   2.554   2.542  1.00  0.00    -0.029 A 
ATOM     26  C   UNL     1       2.614   3.913   2.898  1.00  0.00     0.008 A 
ATOM     27  C   UNL     1       3.117   1.623   3.494  1.00  0.00     0.008 A 
ATOM     28  C   UNL     1       3.024   4.332   4.165  1.00  0.00     0.039 A 
ATOM     29  C   UNL     1       3.534   2.043   4.757  1.00  0.00     0.039 A 
ATOM     30  C   UNL     1       3.486   3.393   5.080  1.00  0.00     0.123 A 
ATOM     31  F   UNL     1       3.882   3.796   6.294  1.00  0.00    -0.207 F 
ENDBRANCH  24  25
ENDBRANCH  22  24
ENDBRANCH  19  20
ENDBRANCH   9  19
ENDBRANCH   6   8
ENDBRANCH   5   6
ENDBRANCH   4   5
ENDBRANCH   3   4
ENDBRANCH   2   3
ENDBRANCH   1   2
BRANCH   1  32
ATOM     32  C   UNL     1       4.088  -2.981  -5.567  1.00  0.00     0.188 C 
BRANCH  32  33
ATOM     33  O   UNL     1       3.534  -4.248  -5.280  1.00  0.00    -0.376 OA
BRANCH  33  34
ATOM     34  C   UNL     1       3.373  -5.202  -6.317  1.00  0.00     0.202 C 
BRANCH  34  35
ATOM     35  C   UNL     1       2.871  -4.819  -7.719  1.00  0.00     0.261 C 
BRANCH  35  36
ATOM     36  O   UNL     1       3.461  -3.650  -8.303  1.00  0.00    -0.460 OA
BRANCH  36  37
ATOM     37  C   UNL     1       2.632  -2.589  -8.472  1.00  0.00     0.338 C 
ATOM     38  O   UNL     1       1.455  -2.506  -8.163  1.00  0.00    -0.246 OA
BRANCH  37  39
ATOM     39  C   UNL     1       3.434  -1.442  -8.938  1.00  0.00     0.060 A 
ATOM     40  C   UNL     1       4.068  -1.487 -10.179  1.00  0.00     0.016 A 
ATOM     41  C   UNL     1       3.571  -0.321  -8.107  1.00  0.00     0.016 A 
ATOM     42  C   UNL     1       4.855  -0.407 -10.585  1.00  0.00     0.010 A 
ATOM     43  C   UNL     1       4.378   0.747  -8.506  1.00  0.00     0.010 A 
ATOM     44  C   UNL     1       5.023   0.713  -9.751  1.00  0.00    -0.014 A 
BRANCH  44  45
ATOM     45  C   UNL     1       5.804   1.880 -10.227  1.00  0.00     0.031 A 
ATOM     46  C   UNL     1       7.226   2.094  -9.803  1.00  0.00     0.074 A 
ATOM     47  C   UNL     1       5.214   2.752 -11.065  1.00  0.00     0.049 A 
ATOM     48  N   UNL     1       8.056   3.048 -10.147  1.00  0.00    -0.248 NA
ATOM     49  C   UNL     1       7.789   1.117  -8.862  1.00  0.00     0.031 C 
ATOM     50  C   UNL     1       3.834   2.652 -11.539  1.00  0.00     0.029 A 
ATOM     51  N   UNL     1       5.699   3.882 -11.672  1.00  0.00    -0.354 N 
ATOM     52  C   UNL     1       9.242   2.783  -9.477  1.00  0.00     0.074 A 
ATOM     53  C   UNL     1       9.009   1.605  -8.666  1.00  0.00     0.031 C 
ATOM     54  C   UNL     1       3.589   3.667 -12.382  1.00  0.00     0.029 A 
ATOM     55  C   UNL     1       4.784   4.501 -12.486  1.00  0.00     0.049 A 
ATOM     56  H   UNL     1       6.615   4.217 -11.537  1.00  0.00     0.167 HD
ATOM     57  C   UNL     1      10.420   3.450  -9.555  1.00  0.00     0.037 A 
ATOM     58  C   UNL     1       4.895   5.615 -13.235  1.00  0.00     0.037 A 
ATOM     59  C   UNL     1      10.651   4.609 -10.383  1.00  0.00     0.049 A 
ATOM     60  C   UNL     1       6.205   6.354 -13.272  1.00  0.00     0.074 A 
ATOM     61  C   UNL     1      11.828   5.316 -10.564  1.00  0.00     0.029 A 
ATOM     62  N   UNL     1       9.691   5.234 -11.166  1.00  0.00    -0.354 N 
ATOM     63  N   UNL     1       7.337   6.064 -12.679  1.00  0.00    -0.248 NA
ATOM     64  C   UNL     1       6.253   7.574 -14.091  1.00  0.00     0.031 C 
ATOM     65  C   UNL     1      11.568   6.398 -11.411  1.00  0.00     0.029 A 
ATOM     66  C   UNL     1      10.242   6.335 -11.805  1.00  0.00     0.049 A 
ATOM     67  H   UNL     1       8.756   4.939 -11.255  1.00  0.00     0.167 HD
ATOM     68  C   UNL     1       8.234   7.051 -13.065  1.00  0.00     0.074 A 
ATOM     69  C   UNL     1       7.523   7.932 -13.967  1.00  0.00     0.031 C 
ATOM     70  C   UNL     1       9.528   7.216 -12.695  1.00  0.00     0.037 A 
BRANCH  57  71
ATOM     71  C   UNL     1      11.576   2.943  -8.739  1.00  0.00     0.064 A 
ATOM     72  C   UNL     1      12.233   1.747  -9.063  1.00  0.00     0.173 A 
ATOM     73  C   UNL     1      12.104   3.715  -7.691  1.00  0.00     0.173 A 
ATOM     74  F   UNL     1      11.767   0.969 -10.052  1.00  0.00    -0.203 F 
ATOM     75  C   UNL     1      13.365   1.337  -8.364  1.00  0.00     0.198 A 
ATOM     76  C   UNL     1      13.254   3.317  -7.014  1.00  0.00     0.198 A 
ATOM     77  F   UNL     1      11.521   4.873  -7.344  1.00  0.00    -0.203 F 
ATOM     78  F   UNL     1      13.957   0.175  -8.675  1.00  0.00    -0.200 F 
ATOM     79  C   UNL     1      13.882   2.127  -7.349  1.00  0.00     0.200 A 
ATOM     80  F   UNL     1      13.762   4.093  -6.046  1.00  0.00    -0.200 F 
ATOM     81  F   UNL     1      14.986   1.743  -6.694  1.00  0.00    -0.200 F 
ENDBRANCH  57  71
BRANCH  58  82
ATOM     82  C   UNL     1       3.732   6.081 -14.034  1.00  0.00     0.064 A 
ATOM     83  C   UNL     1       3.754   6.028 -15.434  1.00  0.00     0.173 A 
ATOM     84  C   UNL     1       2.574   6.575 -13.416  1.00  0.00     0.173 A 
ATOM     85  F   UNL     1       4.848   5.584 -16.070  1.00  0.00    -0.203 F 
ATOM     86  C   UNL     1       2.666   6.465 -16.187  1.00  0.00     0.198 A 
ATOM     87  C   UNL     1       1.475   6.981 -14.168  1.00  0.00     0.198 A 
ATOM     88  F   UNL     1       2.503   6.644 -12.078  1.00  0.00    -0.203 F 
ATOM     89  F   UNL     1       2.730   6.444 -17.525  1.00  0.00    -0.200 F 
ATOM     90  C   UNL     1       1.524   6.933 -15.553  1.00  0.00     0.200 A 
ATOM     91  F   UNL     1       0.368   7.417 -13.552  1.00  0.00    -0.200 F 
ATOM     92  F   UNL     1       0.474   7.342 -16.278  1.00  0.00    -0.200 F 
ENDBRANCH  58  82
BRANCH  70  93
ATOM     93  C   UNL     1      10.267   8.396 -13.264  1.00  0.00     0.064 A 
ATOM     94  C   UNL     1       9.959   9.709 -12.874  1.00  0.00     0.173 A 
ATOM     95  C   UNL     1      11.324   8.215 -14.169  1.00  0.00     0.173 A 
ATOM     96  F   UNL     1       8.950   9.940 -12.021  1.00  0.00    -0.203 F 
ATOM     97  C   UNL     1      10.663  10.795 -13.389  1.00  0.00     0.198 A 
ATOM     98  C   UNL     1      12.049   9.301 -14.656  1.00  0.00     0.198 A 
ATOM     99  F   UNL     1      11.668   6.981 -14.570  1.00  0.00    -0.203 F 
ATOM    100  F   UNL     1      10.317  12.041 -13.039  1.00  0.00    -0.200 F 
ATOM    101  C   UNL     1      11.713  10.590 -14.272  1.00  0.00     0.200 A 
ATOM    102  F   UNL     1      13.074   9.099 -15.495  1.00  0.00    -0.200 F 
ATOM    103  F   UNL     1      12.397  11.635 -14.757  1.00  0.00    -0.200 F 
ENDBRANCH  70  93
ENDBRANCH  44  45
ENDBRANCH  37  39
ENDBRANCH  36  37
ENDBRANCH  35  36
ENDBRANCH  34  35
ENDBRANCH  33  34
ENDBRANCH  32  33
ENDBRANCH   1  32
TORSDOF 21
