REMARK SMILES O=C1OC(c2ccc(Cl)cc2)=N/C1=C/Nc1ccc(O)c(C(=O)OCCOCCOCCOC(=O)c2ccc(-c3c4nc(c(-c5c(F)c(F)c(F)c(F)c5F)c5ccc([nH]5)c(-c5c(F)c(F)c(F)c(F)c5F)c5nc(c(-c6c(F)c(F)c(F)c(F)c6F)c6ccc3[nH]6)C=C5)C=C4)cc2)c1
REMARK SMILES IDX 28 1 27 2 26 3 25 4 24 5 22 6 23 7 21 8 16 9 17 10 99 11
REMARK SMILES IDX 18 12 19 13 15 14 14 16 1 17 2 18 3 19 13 20 4 21 12 22 5 23
REMARK SMILES IDX 6 24 11 25 7 26 10 27 8 28 9 29 20 30 29 32 30 33 31 34
REMARK SMILES IDX 32 35 33 36 34 37 35 38 36 39 37 40 98 41 38 42 97 43 39 44
REMARK SMILES IDX 40 45 41 46 91 47 42 48 96 49 90 50 92 51 43 52 95 53 89 54
REMARK SMILES IDX 88 55 44 57 76 58 56 59 75 60 57 61 60 62 74 63 93 64 58 65
REMARK SMILES IDX 59 66 73 68 94 69 61 70 45 71 46 72 54 73 47 74 48 75 52 76
REMARK SMILES IDX 55 77 49 78 50 79 53 80 51 81 77 82 78 83 86 84 79 85 80 86
REMARK SMILES IDX 84 87 87 88 81 89 82 90 85 91 83 92 62 93 63 94 71 95 64 96
REMARK SMILES IDX 65 97 69 98 72 99 66 100 67 101 70 102 68 103
REMARK H PARENT 15 15 20 31 92 56 60 67
REMARK Flexibility Score: inf
ROOT
ATOM      1  C   UNL     1      -4.779  -6.745  -1.634  1.00  0.00     0.188 C 
ENDROOT
BRANCH   1   2
ATOM      2  O   UNL     1      -5.406  -7.585  -2.577  1.00  0.00    -0.376 OA
BRANCH   2   3
ATOM      3  C   UNL     1      -4.728  -8.718  -3.097  1.00  0.00     0.202 C 
BRANCH   3   4
ATOM      4  C   UNL     1      -3.198  -8.877  -3.138  1.00  0.00     0.261 C 
BRANCH   4   5
ATOM      5  O   UNL     1      -2.466  -8.266  -2.073  1.00  0.00    -0.460 OA
BRANCH   5   6
ATOM      6  C   UNL     1      -1.634  -7.255  -2.432  1.00  0.00     0.342 C 
ATOM      7  O   UNL     1      -1.477  -6.811  -3.559  1.00  0.00    -0.246 OA
BRANCH   6   8
ATOM      8  C   UNL     1      -1.107  -6.566  -1.234  1.00  0.00     0.103 A 
ATOM      9  C   UNL     1      -0.714  -4.427  -0.130  1.00  0.00     0.039 A 
ATOM     10  C   UNL     1      -0.104  -5.117   0.925  1.00  0.00     0.030 A 
ATOM     11  C   UNL     1      -1.209  -5.162  -1.210  1.00  0.00     0.045 A 
ATOM     12  C   UNL     1      -0.040  -6.514   0.932  1.00  0.00     0.049 A 
ATOM     13  C   UNL     1      -0.545  -7.238  -0.147  1.00  0.00     0.130 A 
BRANCH   9  14
ATOM     14  N   UNL     1      -0.754  -3.027  -0.156  1.00  0.00    -0.360 N 
ATOM     15  H   UNL     1      -1.633  -2.596  -0.264  1.00  0.00     0.166 HD
BRANCH  14  16
ATOM     16  C   UNL     1       0.347  -2.212  -0.043  1.00  0.00     0.119 C 
ATOM     17  O   UNL     1      -1.924  -0.223  -0.046  1.00  0.00    -0.244 OA
ATOM     18  C   UNL     1      -0.736   0.043  -0.006  1.00  0.00     0.365 C 
ATOM     19  O   UNL     1      -0.153   1.275   0.059  1.00  0.00    -0.402 OA
ATOM     20  C   UNL     1       0.430  -0.877  -0.021  1.00  0.00     0.168 C 
ATOM     21  C   UNL     1       1.182   1.054   0.034  1.00  0.00     0.231 C 
ATOM     22  N   UNL     1       1.601  -0.167  -0.013  1.00  0.00    -0.204 NA
BRANCH  21  23
ATOM     23  C   UNL     1       2.011   2.256  -0.003  1.00  0.00     0.037 A 
ATOM     24  C   UNL     1       1.907   3.223   1.000  1.00  0.00     0.015 A 
ATOM     25  C   UNL     1       2.943   2.397  -1.037  1.00  0.00     0.015 A 
ATOM     26  C   UNL     1       2.750   4.338   0.968  1.00  0.00     0.021 A 
ATOM     27  C   UNL     1       3.769   3.522  -1.076  1.00  0.00     0.021 A 
ATOM     28  C   UNL     1       3.673   4.484  -0.070  1.00  0.00     0.041 A 
ATOM     29  Cl  UNL     1       4.707   5.859  -0.106  1.00  0.00    -0.084 Cl
ENDBRANCH  21  23
ENDBRANCH  14  16
ENDBRANCH   9  14
BRANCH  13  30
ATOM     30  O   UNL     1      -0.466  -8.600  -0.133  1.00  0.00    -0.507 OA
ATOM     31  H   UNL     1      -0.087  -9.040   0.602  1.00  0.00     0.293 HD
ENDBRANCH  13  30
ENDBRANCH   6   8
ENDBRANCH   5   6
ENDBRANCH   4   5
ENDBRANCH   3   4
ENDBRANCH   2   3
ENDBRANCH   1   2
BRANCH   1  32
ATOM     32  C   UNL     1      -4.486  -7.277  -0.215  1.00  0.00     0.188 C 
BRANCH  32  33
ATOM     33  O   UNL     1      -4.670  -8.641   0.088  1.00  0.00    -0.376 OA
BRANCH  33  34
ATOM     34  C   UNL     1      -5.962  -9.219   0.046  1.00  0.00     0.202 C 
BRANCH  34  35
ATOM     35  C   UNL     1      -7.277  -8.449   0.272  1.00  0.00     0.261 C 
BRANCH  35  36
ATOM     36  O   UNL     1      -7.313  -7.071  -0.115  1.00  0.00    -0.460 OA
BRANCH  36  37
ATOM     37  C   UNL     1      -7.330  -6.182   0.909  1.00  0.00     0.338 C 
ATOM     38  O   UNL     1      -7.307  -6.423   2.103  1.00  0.00    -0.246 OA
BRANCH  37  39
ATOM     39  C   UNL     1      -7.202  -4.817   0.366  1.00  0.00     0.060 A 
ATOM     40  C   UNL     1      -6.030  -4.093   0.627  1.00  0.00     0.016 A 
ATOM     41  C   UNL     1      -8.251  -4.238  -0.347  1.00  0.00     0.016 A 
ATOM     42  C   UNL     1      -5.910  -2.775   0.191  1.00  0.00     0.010 A 
ATOM     43  C   UNL     1      -8.140  -2.908  -0.761  1.00  0.00     0.010 A 
ATOM     44  C   UNL     1      -6.983  -2.162  -0.468  1.00  0.00    -0.014 A 
BRANCH  44  45
ATOM     45  C   UNL     1      -6.971  -0.695  -0.681  1.00  0.00     0.031 A 
ATOM     46  C   UNL     1      -7.729   0.176   0.283  1.00  0.00     0.074 A 
ATOM     47  C   UNL     1      -6.292  -0.142  -1.700  1.00  0.00     0.049 A 
ATOM     48  N   UNL     1      -7.921   1.470   0.266  1.00  0.00    -0.248 NA
ATOM     49  C   UNL     1      -8.362  -0.512   1.420  1.00  0.00     0.031 C 
ATOM     50  C   UNL     1      -5.483  -0.872  -2.672  1.00  0.00     0.029 A 
ATOM     51  N   UNL     1      -6.187   1.171  -2.090  1.00  0.00    -0.354 N 
ATOM     52  C   UNL     1      -8.703   1.748   1.380  1.00  0.00     0.074 A 
ATOM     53  C   UNL     1      -8.980   0.487   2.031  1.00  0.00     0.031 C 
ATOM     54  C   UNL     1      -4.973   0.003  -3.557  1.00  0.00     0.029 A 
ATOM     55  C   UNL     1      -5.449   1.347  -3.234  1.00  0.00     0.049 A 
ATOM     56  H   UNL     1      -6.602   1.915  -1.595  1.00  0.00     0.167 HD
ATOM     57  C   UNL     1      -9.141   2.950   1.824  1.00  0.00     0.037 A 
ATOM     58  C   UNL     1      -5.212   2.463  -3.950  1.00  0.00     0.037 A 
ATOM     59  C   UNL     1      -8.863   4.203   1.172  1.00  0.00     0.049 A 
ATOM     60  C   UNL     1      -5.783   3.779  -3.481  1.00  0.00     0.074 A 
ATOM     61  C   UNL     1      -9.246   5.477   1.554  1.00  0.00     0.029 A 
ATOM     62  N   UNL     1      -8.141   4.338  -0.005  1.00  0.00    -0.354 N 
ATOM     63  N   UNL     1      -6.497   4.043  -2.413  1.00  0.00    -0.248 NA
ATOM     64  C   UNL     1      -5.511   4.956  -4.319  1.00  0.00     0.031 C 
ATOM     65  C   UNL     1      -8.814   6.375   0.573  1.00  0.00     0.029 A 
ATOM     66  C   UNL     1      -8.097   5.671  -0.382  1.00  0.00     0.049 A 
ATOM     67  H   UNL     1      -7.722   3.597  -0.499  1.00  0.00     0.167 HD
ATOM     68  C   UNL     1      -6.729   5.413  -2.433  1.00  0.00     0.074 A 
ATOM     69  C   UNL     1      -6.067   5.930  -3.612  1.00  0.00     0.031 C 
ATOM     70  C   UNL     1      -7.425   6.175  -1.553  1.00  0.00     0.037 A 
BRANCH  57  71
ATOM     71  C   UNL     1      -9.998   2.963   3.057  1.00  0.00     0.064 A 
ATOM     72  C   UNL     1      -9.481   2.651   4.324  1.00  0.00     0.173 A 
ATOM     73  C   UNL     1     -11.352   3.324   2.973  1.00  0.00     0.173 A 
ATOM     74  F   UNL     1      -8.197   2.288   4.459  1.00  0.00    -0.203 F 
ATOM     75  C   UNL     1     -10.295   2.669   5.454  1.00  0.00     0.198 A 
ATOM     76  C   UNL     1     -12.153   3.375   4.111  1.00  0.00     0.198 A 
ATOM     77  F   UNL     1     -11.898   3.636   1.788  1.00  0.00    -0.203 F 
ATOM     78  F   UNL     1      -9.792   2.316   6.645  1.00  0.00    -0.200 F 
ATOM     79  C   UNL     1     -11.627   3.039   5.348  1.00  0.00     0.200 A 
ATOM     80  F   UNL     1     -13.436   3.749   4.008  1.00  0.00    -0.200 F 
ATOM     81  F   UNL     1     -12.406   3.065   6.439  1.00  0.00    -0.200 F 
ENDBRANCH  57  71
BRANCH  58  82
ATOM     82  C   UNL     1      -4.409   2.391  -5.200  1.00  0.00     0.064 A 
ATOM     83  C   UNL     1      -3.159   3.018  -5.296  1.00  0.00     0.173 A 
ATOM     84  C   UNL     1      -4.890   1.721  -6.336  1.00  0.00     0.173 A 
ATOM     85  F   UNL     1      -2.666   3.695  -4.248  1.00  0.00    -0.203 F 
ATOM     86  C   UNL     1      -2.433   2.999  -6.486  1.00  0.00     0.198 A 
ATOM     87  C   UNL     1      -4.148   1.675  -7.514  1.00  0.00     0.198 A 
ATOM     88  F   UNL     1      -6.083   1.109  -6.301  1.00  0.00    -0.203 F 
ATOM     89  F   UNL     1      -1.268   3.656  -6.566  1.00  0.00    -0.200 F 
ATOM     90  C   UNL     1      -2.925   2.322  -7.591  1.00  0.00     0.200 A 
ATOM     91  F   UNL     1      -4.622   1.010  -8.577  1.00  0.00    -0.200 F 
ATOM     92  F   UNL     1      -2.226   2.306  -8.735  1.00  0.00    -0.200 F 
ENDBRANCH  58  82
BRANCH  70  93
ATOM     93  C   UNL     1      -7.471   7.659  -1.798  1.00  0.00     0.064 A 
ATOM     94  C   UNL     1      -8.191   8.213  -2.867  1.00  0.00     0.173 A 
ATOM     95  C   UNL     1      -6.823   8.541  -0.919  1.00  0.00     0.173 A 
ATOM     96  F   UNL     1      -8.819   7.415  -3.744  1.00  0.00    -0.203 F 
ATOM     97  C   UNL     1      -8.237   9.591  -3.062  1.00  0.00     0.198 A 
ATOM     98  C   UNL     1      -6.901   9.920  -1.096  1.00  0.00     0.198 A 
ATOM     99  F   UNL     1      -6.127   8.067   0.125  1.00  0.00    -0.203 F 
ATOM    100  F   UNL     1      -8.887  10.095  -4.120  1.00  0.00    -0.200 F 
ATOM    101  C   UNL     1      -7.600  10.444  -2.172  1.00  0.00     0.200 A 
ATOM    102  F   UNL     1      -6.302  10.741  -0.223  1.00  0.00    -0.200 F 
ATOM    103  F   UNL     1      -7.656  11.770  -2.355  1.00  0.00    -0.200 F 
ENDBRANCH  70  93
ENDBRANCH  44  45
ENDBRANCH  37  39
ENDBRANCH  36  37
ENDBRANCH  35  36
ENDBRANCH  34  35
ENDBRANCH  33  34
ENDBRANCH  32  33
ENDBRANCH   1  32
TORSDOF 21
