REMARK SMILES CCOc1cccc(-c2ccc([C@@H](C)C(=O)OCCOCCOCCOC(=O)c3ccc(-c4c5nc(c(-c6c(F)c(F)c(F)c(F)c6F)c6ccc([nH]6)c(-c6c(F)c(F)c(F)c(F)c6F)c6nc(c(-c7c(F)c(F)c(F)c(F)c7F)c7ccc4[nH]7)C=C6)C=C5)cc3)cc2F)c1
REMARK SMILES IDX 21 1 20 2 19 3 18 4 17 5 15 6 16 7 13 8 14 9 12 10 9 11
REMARK SMILES IDX 10 12 93 13 11 14 92 15 94 16 8 17 4 18 5 19 95 20 6 21 7 22
REMARK SMILES IDX 3 23 2 24 1 25 22 26 23 27 24 28 25 29 26 30 27 31 28 32
REMARK SMILES IDX 29 33 30 34 91 35 31 36 90 37 32 38 33 39 34 40 84 41 35 42
REMARK SMILES IDX 89 43 83 44 85 45 36 46 88 47 82 48 81 49 37 51 69 52 49 53
REMARK SMILES IDX 68 54 50 55 53 56 67 57 86 58 51 59 52 60 66 62 87 63 54 64
REMARK SMILES IDX 38 65 39 66 47 67 40 68 41 69 45 70 48 71 42 72 43 73 46 74
REMARK SMILES IDX 44 75 70 76 71 77 79 78 72 79 73 80 77 81 80 82 74 83 75 84
REMARK SMILES IDX 78 85 76 86 55 87 56 88 64 89 57 90 58 91 62 92 65 93 59 94
REMARK SMILES IDX 60 95 63 96 61 97
REMARK H PARENT 85 50 53 61
REMARK Flexibility Score: inf
ROOT
ATOM      1  C   UNL     1       6.254   4.793   1.157  1.00  0.00     0.188 C 
ENDROOT
BRANCH   1   2
ATOM      2  O   UNL     1       7.017   5.729   0.405  1.00  0.00    -0.376 OA
BRANCH   2   3
ATOM      3  C   UNL     1       8.084   5.262  -0.412  1.00  0.00     0.202 C 
BRANCH   3   4
ATOM      4  C   UNL     1       9.202   4.436   0.246  1.00  0.00     0.261 C 
BRANCH   4   5
ATOM      5  O   UNL     1       8.771   3.270   0.988  1.00  0.00    -0.463 OA
BRANCH   5   6
ATOM      6  C   UNL     1       9.068   3.256   2.312  1.00  0.00     0.313 C 
ATOM      7  O   UNL     1       9.701   4.152   2.870  1.00  0.00    -0.252 OA
BRANCH   6   8
ATOM      8  C   UNL     1       8.549   2.062   3.117  1.00  0.00     0.126 C 
ATOM      9  C   UNL     1       9.738   1.341   3.750  1.00  0.00     0.025 C 
BRANCH   8  10
ATOM     10  C   UNL     1       7.572   1.049   2.523  1.00  0.00    -0.031 A 
ATOM     11  C   UNL     1       5.661  -0.863   1.539  1.00  0.00     0.018 A 
ATOM     12  C   UNL     1       6.870  -0.605   0.863  1.00  0.00     0.012 A 
ATOM     13  C   UNL     1       5.440  -0.140   2.717  1.00  0.00     0.131 A 
ATOM     14  C   UNL     1       7.813   0.326   1.348  1.00  0.00     0.005 A 
ATOM     15  C   UNL     1       6.370   0.785   3.206  1.00  0.00     0.044 A 
ATOM     16  F   UNL     1       4.316  -0.324   3.427  1.00  0.00    -0.206 F 
BRANCH  11  17
ATOM     17  C   UNL     1       4.689  -1.865   1.043  1.00  0.00    -0.012 A 
ATOM     18  C   UNL     1       2.401  -2.537   0.496  1.00  0.00     0.119 A 
ATOM     19  C   UNL     1       2.829  -3.823   0.187  1.00  0.00     0.046 A 
ATOM     20  C   UNL     1       3.316  -1.573   0.934  1.00  0.00     0.055 A 
ATOM     21  C   UNL     1       4.182  -4.139   0.289  1.00  0.00     0.004 A 
ATOM     22  C   UNL     1       5.100  -3.169   0.709  1.00  0.00     0.009 A 
BRANCH  18  23
ATOM     23  O   UNL     1       1.053  -2.303   0.515  1.00  0.00    -0.494 OA
BRANCH  23  24
ATOM     24  C   UNL     1       0.598  -1.472  -0.559  1.00  0.00     0.226 C 
ATOM     25  C   UNL     1       0.579  -0.014  -0.144  1.00  0.00     0.049 C 
ENDBRANCH  23  24
ENDBRANCH  18  23
ENDBRANCH  11  17
ENDBRANCH   8  10
ENDBRANCH   6   8
ENDBRANCH   5   6
ENDBRANCH   4   5
ENDBRANCH   3   4
ENDBRANCH   2   3
ENDBRANCH   1   2
BRANCH   1  26
ATOM     26  C   UNL     1       5.951   3.407   0.567  1.00  0.00     0.188 C 
BRANCH  26  27
ATOM     27  O   UNL     1       6.293   3.253  -0.794  1.00  0.00    -0.376 OA
BRANCH  27  28
ATOM     28  C   UNL     1       5.237   2.916  -1.673  1.00  0.00     0.202 C 
BRANCH  28  29
ATOM     29  C   UNL     1       4.164   4.002  -1.846  1.00  0.00     0.261 C 
BRANCH  29  30
ATOM     30  O   UNL     1       3.602   4.523  -0.624  1.00  0.00    -0.460 OA
BRANCH  30  31
ATOM     31  C   UNL     1       2.765   3.705   0.047  1.00  0.00     0.338 C 
ATOM     32  O   UNL     1       2.414   2.585  -0.301  1.00  0.00    -0.246 OA
BRANCH  31  33
ATOM     33  C   UNL     1       2.484   4.274   1.380  1.00  0.00     0.060 A 
ATOM     34  C   UNL     1       2.843   3.547   2.526  1.00  0.00     0.016 A 
ATOM     35  C   UNL     1       1.841   5.507   1.503  1.00  0.00     0.016 A 
ATOM     36  C   UNL     1       2.534   4.040   3.796  1.00  0.00     0.010 A 
ATOM     37  C   UNL     1       1.513   5.988   2.776  1.00  0.00     0.010 A 
ATOM     38  C   UNL     1       1.829   5.244   3.927  1.00  0.00    -0.014 A 
BRANCH  38  39
ATOM     39  C   UNL     1       1.268   5.634   5.247  1.00  0.00     0.031 A 
ATOM     40  C   UNL     1      -0.183   5.349   5.527  1.00  0.00     0.074 A 
ATOM     41  C   UNL     1       2.030   6.214   6.191  1.00  0.00     0.049 A 
ATOM     42  N   UNL     1      -0.903   5.636   6.583  1.00  0.00    -0.248 NA
ATOM     43  C   UNL     1      -0.925   4.649   4.466  1.00  0.00     0.031 C 
ATOM     44  C   UNL     1       3.453   6.514   6.063  1.00  0.00     0.029 A 
ATOM     45  N   UNL     1       1.702   6.663   7.448  1.00  0.00    -0.354 N 
ATOM     46  C   UNL     1      -2.179   5.159   6.311  1.00  0.00     0.074 A 
ATOM     47  C   UNL     1      -2.145   4.595   4.978  1.00  0.00     0.031 C 
ATOM     48  C   UNL     1       3.877   7.109   7.192  1.00  0.00     0.029 A 
ATOM     49  C   UNL     1       2.747   7.261   8.109  1.00  0.00     0.049 A 
ATOM     50  H   UNL     1       0.803   6.566   7.838  1.00  0.00     0.167 HD
ATOM     51  C   UNL     1      -3.277   5.179   7.103  1.00  0.00     0.037 A 
ATOM     52  C   UNL     1       2.781   7.879   9.307  1.00  0.00     0.037 A 
ATOM     53  C   UNL     1      -3.312   5.738   8.429  1.00  0.00     0.049 A 
ATOM     54  C   UNL     1       1.526   7.948  10.143  1.00  0.00     0.074 A 
ATOM     55  C   UNL     1      -4.372   5.785   9.318  1.00  0.00     0.029 A 
ATOM     56  N   UNL     1      -2.240   6.358   9.054  1.00  0.00    -0.354 N 
ATOM     57  N   UNL     1       0.332   7.467   9.893  1.00  0.00    -0.248 NA
ATOM     58  C   UNL     1       1.629   8.643  11.435  1.00  0.00     0.031 C 
ATOM     59  C   UNL     1      -3.960   6.487  10.456  1.00  0.00     0.029 A 
ATOM     60  C   UNL     1      -2.623   6.817  10.306  1.00  0.00     0.049 A 
ATOM     61  H   UNL     1      -1.341   6.457   8.667  1.00  0.00     0.167 HD
ATOM     62  C   UNL     1      -0.445   7.770  11.005  1.00  0.00     0.074 A 
ATOM     63  C   UNL     1       0.417   8.461  11.939  1.00  0.00     0.031 C 
ATOM     64  C   UNL     1      -1.755   7.499  11.232  1.00  0.00     0.037 A 
BRANCH  51  65
ATOM     65  C   UNL     1      -4.548   4.604   6.544  1.00  0.00     0.064 A 
ATOM     66  C   UNL     1      -4.707   3.226   6.331  1.00  0.00     0.173 A 
ATOM     67  C   UNL     1      -5.635   5.442   6.251  1.00  0.00     0.173 A 
ATOM     68  F   UNL     1      -3.694   2.382   6.581  1.00  0.00    -0.203 F 
ATOM     69  C   UNL     1      -5.897   2.712   5.821  1.00  0.00     0.198 A 
ATOM     70  C   UNL     1      -6.835   4.921   5.774  1.00  0.00     0.198 A 
ATOM     71  F   UNL     1      -5.538   6.766   6.440  1.00  0.00    -0.203 F 
ATOM     72  F   UNL     1      -6.009   1.399   5.579  1.00  0.00    -0.200 F 
ATOM     73  C   UNL     1      -6.962   3.559   5.551  1.00  0.00     0.200 A 
ATOM     74  F   UNL     1      -7.867   5.739   5.528  1.00  0.00    -0.200 F 
ATOM     75  F   UNL     1      -8.110   3.062   5.071  1.00  0.00    -0.200 F 
ENDBRANCH  51  65
BRANCH  52  76
ATOM     76  C   UNL     1       4.044   8.499   9.792  1.00  0.00     0.064 A 
ATOM     77  C   UNL     1       4.714   7.997  10.916  1.00  0.00     0.173 A 
ATOM     78  C   UNL     1       4.586   9.630   9.163  1.00  0.00     0.173 A 
ATOM     79  F   UNL     1       4.220   6.936  11.572  1.00  0.00    -0.203 F 
ATOM     80  C   UNL     1       5.863   8.614  11.407  1.00  0.00     0.198 A 
ATOM     81  C   UNL     1       5.754  10.227   9.635  1.00  0.00     0.198 A 
ATOM     82  F   UNL     1       3.982  10.156   8.088  1.00  0.00    -0.203 F 
ATOM     83  F   UNL     1       6.449   8.148  12.518  1.00  0.00    -0.200 F 
ATOM     84  C   UNL     1       6.386   9.725  10.762  1.00  0.00     0.200 A 
ATOM     85  F   UNL     1       6.261  11.294   9.002  1.00  0.00    -0.200 F 
ATOM     86  F   UNL     1       7.490  10.319  11.234  1.00  0.00    -0.200 F 
ENDBRANCH  52  76
BRANCH  64  87
ATOM     87  C   UNL     1      -2.327   7.910  12.561  1.00  0.00     0.064 A 
ATOM     88  C   UNL     1      -2.518   9.257  12.904  1.00  0.00     0.173 A 
ATOM     89  C   UNL     1      -2.716   6.937  13.497  1.00  0.00     0.173 A 
ATOM     90  F   UNL     1      -2.154  10.228  12.052  1.00  0.00    -0.203 F 
ATOM     91  C   UNL     1      -3.037   9.616  14.146  1.00  0.00     0.198 A 
ATOM     92  C   UNL     1      -3.270   7.298  14.722  1.00  0.00     0.198 A 
ATOM     93  F   UNL     1      -2.568   5.633  13.219  1.00  0.00    -0.203 F 
ATOM     94  F   UNL     1      -3.151  10.910  14.474  1.00  0.00    -0.200 F 
ATOM     95  C   UNL     1      -3.419   8.636  15.051  1.00  0.00     0.200 A 
ATOM     96  F   UNL     1      -3.655   6.350  15.587  1.00  0.00    -0.200 F 
ATOM     97  F   UNL     1      -3.922   8.983  16.244  1.00  0.00    -0.200 F 
ENDBRANCH  64  87
ENDBRANCH  38  39
ENDBRANCH  31  33
ENDBRANCH  30  31
ENDBRANCH  29  30
ENDBRANCH  28  29
ENDBRANCH  27  28
ENDBRANCH  26  27
ENDBRANCH   1  26
TORSDOF 21
