REMARK SMILES COc1ccc([C@H]2CC(c3ccc(S(C)(=O)=O)cc3)=NN2c2ccc(C(=O)OCCOCCOCCOC(=O)c3ccc(-c4c5nc(c(-c6c(F)c(F)c(F)c(F)c6F)c6ccc([nH]6)c(-c6c(F)c(F)c(F)c(F)c6F)c6nc(c(-c7c(F)c(F)c(F)c(F)c7F)c7ccc4[nH]7)C=C6)C=C5)cc3)cc2)cc1OC
REMARK SMILES IDX 32 1 31 2 30 3 29 4 28 5 26 6 27 7 25 8 22 9 23 10 104 11
REMARK SMILES IDX 24 12 103 13 21 14 7 15 8 16 9 17 20 18 6 19 3 20 4 21
REMARK SMILES IDX 106 22 5 23 105 24 2 25 1 26 107 27 108 28 10 29 11 30 19 31
REMARK SMILES IDX 12 32 18 33 13 34 14 35 15 36 16 37 17 38 33 39 34 40 35 41
REMARK SMILES IDX 36 42 37 43 38 44 39 45 40 46 41 47 102 48 42 49 101 50
REMARK SMILES IDX 43 51 44 52 45 53 95 54 46 55 100 56 94 57 96 58 47 59 99 60
REMARK SMILES IDX 93 61 92 62 48 64 80 65 60 66 79 67 61 68 64 69 78 70 97 71
REMARK SMILES IDX 62 72 63 73 77 75 98 76 65 77 49 78 50 79 58 80 51 81 52 82
REMARK SMILES IDX 56 83 59 84 53 85 54 86 57 87 55 88 81 89 82 90 90 91 83 92
REMARK SMILES IDX 84 93 88 94 91 95 85 96 86 97 89 98 87 99 66 100 67 101
REMARK SMILES IDX 75 102 68 103 69 104 73 105 76 106 70 107 71 108 74 109
REMARK SMILES IDX 72 110
REMARK H PARENT 96 63 64 74
REMARK Flexibility Score: inf
ROOT
ATOM      1  C   UNL     1       3.770  -0.153  -9.724  1.00  0.00     0.188 C 
ENDROOT
BRANCH   1   2
ATOM      2  O   UNL     1       3.131  -1.276 -10.322  1.00  0.00    -0.376 OA
BRANCH   2   3
ATOM      3  C   UNL     1       1.733  -1.245 -10.583  1.00  0.00     0.202 C 
BRANCH   3   4
ATOM      4  C   UNL     1       0.755  -0.931  -9.443  1.00  0.00     0.261 C 
BRANCH   4   5
ATOM      5  O   UNL     1       1.036   0.286  -8.735  1.00  0.00    -0.460 OA
BRANCH   5   6
ATOM      6  C   UNL     1       1.425   0.130  -7.446  1.00  0.00     0.338 C 
ATOM      7  O   UNL     1       1.509  -0.921  -6.828  1.00  0.00    -0.246 OA
BRANCH   6   8
ATOM      8  C   UNL     1       1.913   1.415  -6.902  1.00  0.00     0.060 A 
ATOM      9  C   UNL     1       2.808   3.759  -5.643  1.00  0.00     0.060 A 
ATOM     10  C   UNL     1       3.556   2.579  -5.554  1.00  0.00     0.029 A 
ATOM     11  C   UNL     1       1.667   3.772  -6.462  1.00  0.00     0.029 A 
ATOM     12  C   UNL     1       3.092   1.403  -6.146  1.00  0.00     0.018 A 
ATOM     13  C   UNL     1       1.225   2.613  -7.106  1.00  0.00     0.018 A 
BRANCH   9  14
ATOM     14  N   UNL     1       3.078   4.844  -4.805  1.00  0.00    -0.257 N 
ATOM     15  C   UNL     1       2.192   5.117  -3.660  1.00  0.00     0.144 C 
ATOM     16  C   UNL     1       3.013   6.102  -2.827  1.00  0.00     0.091 C 
ATOM     17  C   UNL     1       4.305   6.099  -3.599  1.00  0.00     0.071 C 
ATOM     18  N   UNL     1       4.331   5.364  -4.670  1.00  0.00    -0.176 NA
BRANCH  15  19
ATOM     19  C   UNL     1       1.802   3.853  -2.899  1.00  0.00    -0.019 A 
ATOM     20  C   UNL     1       1.105   1.388  -1.714  1.00  0.00     0.160 A 
ATOM     21  C   UNL     1       0.130   2.181  -2.333  1.00  0.00     0.051 A 
ATOM     22  C   UNL     1       2.438   1.810  -1.687  1.00  0.00     0.161 A 
ATOM     23  C   UNL     1       0.474   3.404  -2.917  1.00  0.00     0.010 A 
ATOM     24  C   UNL     1       2.766   3.044  -2.269  1.00  0.00     0.056 A 
BRANCH  20  25
ATOM     25  O   UNL     1       0.732   0.153  -1.255  1.00  0.00    -0.493 OA
ATOM     26  C   UNL     1      -0.034   0.239  -0.054  1.00  0.00     0.278 C 
ENDBRANCH  20  25
BRANCH  22  27
ATOM     27  O   UNL     1       3.533   1.160  -1.182  1.00  0.00    -0.493 OA
ATOM     28  C   UNL     1       3.334  -0.036  -0.446  1.00  0.00     0.278 C 
ENDBRANCH  22  27
ENDBRANCH  15  19
BRANCH  17  29
ATOM     29  C   UNL     1       5.416   6.967  -3.175  1.00  0.00    -0.002 A 
ATOM     30  C   UNL     1       5.978   7.842  -4.112  1.00  0.00     0.011 A 
ATOM     31  C   UNL     1       5.845   6.982  -1.844  1.00  0.00     0.011 A 
ATOM     32  C   UNL     1       6.957   8.755  -3.714  1.00  0.00     0.021 A 
ATOM     33  C   UNL     1       6.843   7.878  -1.448  1.00  0.00     0.021 A 
ATOM     34  C   UNL     1       7.390   8.762  -2.384  1.00  0.00     0.067 A 
BRANCH  34  35
ATOM     35  S   UNL     1       8.614   9.949  -1.874  1.00  0.00     0.175 S 
ATOM     36  C   UNL     1      10.048   9.544  -2.835  1.00  0.00     0.163 C 
ATOM     37  O   UNL     1       8.132  11.251  -2.293  1.00  0.00    -0.224 OA
ATOM     38  O   UNL     1       8.930   9.682  -0.483  1.00  0.00    -0.224 OA
ENDBRANCH  34  35
ENDBRANCH  17  29
ENDBRANCH   9  14
ENDBRANCH   6   8
ENDBRANCH   5   6
ENDBRANCH   4   5
ENDBRANCH   3   4
ENDBRANCH   2   3
ENDBRANCH   1   2
BRANCH   1  39
ATOM     39  C   UNL     1       3.466   1.274 -10.230  1.00  0.00     0.188 C 
BRANCH  39  40
ATOM     40  O   UNL     1       2.556   1.326 -11.302  1.00  0.00    -0.376 OA
BRANCH  40  41
ATOM     41  C   UNL     1       3.023   1.429 -12.634  1.00  0.00     0.202 C 
BRANCH  41  42
ATOM     42  C   UNL     1       4.359   0.854 -13.143  1.00  0.00     0.261 C 
BRANCH  42  43
ATOM     43  O   UNL     1       5.356   0.504 -12.181  1.00  0.00    -0.460 OA
BRANCH  43  44
ATOM     44  C   UNL     1       6.307   1.431 -11.927  1.00  0.00     0.338 C 
ATOM     45  O   UNL     1       6.385   2.559 -12.377  1.00  0.00    -0.246 OA
BRANCH  44  46
ATOM     46  C   UNL     1       7.195   0.898 -10.874  1.00  0.00     0.060 A 
ATOM     47  C   UNL     1       7.210   1.524  -9.622  1.00  0.00     0.016 A 
ATOM     48  C   UNL     1       8.024  -0.196 -11.132  1.00  0.00     0.016 A 
ATOM     49  C   UNL     1       8.081   1.073  -8.629  1.00  0.00     0.010 A 
ATOM     50  C   UNL     1       8.907  -0.636 -10.142  1.00  0.00     0.010 A 
ATOM     51  C   UNL     1       8.960   0.014  -8.896  1.00  0.00    -0.014 A 
BRANCH  51  52
ATOM     52  C   UNL     1      10.043  -0.310  -7.934  1.00  0.00     0.031 A 
ATOM     53  C   UNL     1      11.415   0.256  -8.175  1.00  0.00     0.074 A 
ATOM     54  C   UNL     1       9.814  -1.093  -6.865  1.00  0.00     0.049 A 
ATOM     55  N   UNL     1      12.523   0.070  -7.503  1.00  0.00    -0.248 NA
ATOM     56  C   UNL     1      11.559   1.150  -9.335  1.00  0.00     0.031 C 
ATOM     57  C   UNL     1       8.526  -1.683  -6.510  1.00  0.00     0.029 A 
ATOM     58  N   UNL     1      10.671  -1.538  -5.888  1.00  0.00    -0.354 N 
ATOM     59  C   UNL     1      13.493   0.814  -8.162  1.00  0.00     0.074 A 
ATOM     60  C   UNL     1      12.852   1.437  -9.300  1.00  0.00     0.031 C 
ATOM     61  C   UNL     1       8.681  -2.433  -5.404  1.00  0.00     0.029 A 
ATOM     62  C   UNL     1      10.084  -2.397  -4.992  1.00  0.00     0.049 A 
ATOM     63  H   UNL     1      11.616  -1.267  -5.836  1.00  0.00     0.167 HD
ATOM     64  C   UNL     1      14.800   0.966  -7.843  1.00  0.00     0.037 A 
ATOM     65  C   UNL     1      10.626  -3.094  -3.974  1.00  0.00     0.037 A 
ATOM     66  C   UNL     1      15.436   0.354  -6.707  1.00  0.00     0.049 A 
ATOM     67  C   UNL     1      12.096  -2.942  -3.670  1.00  0.00     0.074 A 
ATOM     68  C   UNL     1      16.745   0.485  -6.278  1.00  0.00     0.029 A 
ATOM     69  N   UNL     1      14.811  -0.515  -5.826  1.00  0.00    -0.354 N 
ATOM     70  N   UNL     1      12.995  -2.197  -4.266  1.00  0.00    -0.248 NA
ATOM     71  C   UNL     1      12.625  -3.727  -2.544  1.00  0.00     0.031 C 
ATOM     72  C   UNL     1      16.927  -0.347  -5.169  1.00  0.00     0.029 A 
ATOM     73  C   UNL     1      15.716  -0.952  -4.873  1.00  0.00     0.049 A 
ATOM     74  H   UNL     1      13.864  -0.783  -5.872  1.00  0.00     0.167 HD
ATOM     75  C   UNL     1      14.182  -2.399  -3.573  1.00  0.00     0.074 A 
ATOM     76  C   UNL     1      13.888  -3.325  -2.501  1.00  0.00     0.031 C 
ATOM     77  C   UNL     1      15.407  -1.865  -3.803  1.00  0.00     0.037 A 
BRANCH  64  78
ATOM     78  C   UNL     1      15.644   1.812  -8.749  1.00  0.00     0.064 A 
ATOM     79  C   UNL     1      15.524   3.209  -8.778  1.00  0.00     0.173 A 
ATOM     80  C   UNL     1      16.629   1.219  -9.554  1.00  0.00     0.173 A 
ATOM     81  F   UNL     1      14.590   3.823  -8.036  1.00  0.00    -0.203 F 
ATOM     82  C   UNL     1      16.349   3.981  -9.592  1.00  0.00     0.198 A 
ATOM     83  C   UNL     1      17.470   1.996 -10.346  1.00  0.00     0.198 A 
ATOM     84  F   UNL     1      16.786  -0.113  -9.559  1.00  0.00    -0.203 F 
ATOM     85  F   UNL     1      16.196   5.312  -9.630  1.00  0.00    -0.200 F 
ATOM     86  C   UNL     1      17.327   3.375 -10.368  1.00  0.00     0.200 A 
ATOM     87  F   UNL     1      18.422   1.409 -11.084  1.00  0.00    -0.200 F 
ATOM     88  F   UNL     1      18.130   4.120 -11.139  1.00  0.00    -0.200 F 
ENDBRANCH  64  78
BRANCH  65  89
ATOM     89  C   UNL     1       9.785  -4.025  -3.175  1.00  0.00     0.064 A 
ATOM     90  C   UNL     1       9.505  -3.774  -1.824  1.00  0.00     0.173 A 
ATOM     91  C   UNL     1       9.283  -5.209  -3.736  1.00  0.00     0.173 A 
ATOM     92  F   UNL     1       9.989  -2.672  -1.233  1.00  0.00    -0.203 F 
ATOM     93  C   UNL     1       8.779  -4.685  -1.058  1.00  0.00     0.198 A 
ATOM     94  C   UNL     1       8.531  -6.104  -2.977  1.00  0.00     0.198 A 
ATOM     95  F   UNL     1       9.528  -5.500  -5.021  1.00  0.00    -0.203 F 
ATOM     96  F   UNL     1       8.579  -4.451   0.246  1.00  0.00    -0.200 F 
ATOM     97  C   UNL     1       8.289  -5.847  -1.637  1.00  0.00     0.200 A 
ATOM     98  F   UNL     1       8.055  -7.222  -3.541  1.00  0.00    -0.200 F 
ATOM     99  F   UNL     1       7.598  -6.725  -0.898  1.00  0.00    -0.200 F 
ENDBRANCH  65  89
BRANCH  77 100
ATOM    100  C   UNL     1      16.514  -2.234  -2.857  1.00  0.00     0.064 A 
ATOM    101  C   UNL     1      17.085  -3.515  -2.852  1.00  0.00     0.173 A 
ATOM    102  C   UNL     1      17.041  -1.277  -1.976  1.00  0.00     0.173 A 
ATOM    103  F   UNL     1      16.610  -4.469  -3.667  1.00  0.00    -0.203 F 
ATOM    104  C   UNL     1      18.124  -3.832  -1.980  1.00  0.00     0.198 A 
ATOM    105  C   UNL     1      18.100  -1.588  -1.128  1.00  0.00     0.198 A 
ATOM    106  F   UNL     1      16.538  -0.034  -1.947  1.00  0.00    -0.203 F 
ATOM    107  F   UNL     1      18.622  -5.076  -1.959  1.00  0.00    -0.200 F 
ATOM    108  C   UNL     1      18.635  -2.867  -1.125  1.00  0.00     0.200 A 
ATOM    109  F   UNL     1      18.603  -0.650  -0.314  1.00  0.00    -0.200 F 
ATOM    110  F   UNL     1      19.640  -3.172  -0.293  1.00  0.00    -0.200 F 
ENDBRANCH  77 100
ENDBRANCH  51  52
ENDBRANCH  44  46
ENDBRANCH  43  44
ENDBRANCH  42  43
ENDBRANCH  41  42
ENDBRANCH  40  41
ENDBRANCH  39  40
ENDBRANCH   1  39
TORSDOF 23
