REMARK SMILES CC(C)(C)c1cc2c(cc1Cl)C=C(C(=O)OCCOCCOCCOC(=O)c1ccc(-c3c4nc(c(-c5c(F)c(F)c(F)c(F)c5F)c5ccc([nH]5)c(-c5c(F)c(F)c(F)c(F)c5F)c5nc(c(-c6c(F)c(F)c(F)c(F)c6F)c6ccc3[nH]6)C=C5)C=C4)cc1)[C@@H](C(F)(F)F)O2
REMARK SMILES IDX 21 1 20 2 19 3 18 4 17 5 16 6 14 7 15 8 13 9 5 10 6 11 10 12
REMARK SMILES IDX 7 13 9 14 11 15 8 16 96 17 12 18 91 19 2 20 1 21 3 22 4 23
REMARK SMILES IDX 92 24 93 25 94 26 95 27 22 28 23 29 24 30 25 31 26 32 27 33
REMARK SMILES IDX 28 34 29 35 90 36 30 37 89 38 31 39 32 40 33 41 83 42 34 43
REMARK SMILES IDX 88 44 82 45 84 46 35 47 87 48 81 49 80 50 36 52 68 53 48 54
REMARK SMILES IDX 67 55 49 56 52 57 66 58 85 59 50 60 51 61 65 63 86 64 53 65
REMARK SMILES IDX 37 66 38 67 46 68 39 69 40 70 44 71 47 72 41 73 42 74 45 75
REMARK SMILES IDX 43 76 69 77 70 78 78 79 71 80 72 81 76 82 79 83 73 84 74 85
REMARK SMILES IDX 77 86 75 87 54 88 55 89 63 90 56 91 57 92 61 93 64 94 58 95
REMARK SMILES IDX 59 96 62 97 60 98
REMARK H PARENT 84 51 52 62
REMARK Flexibility Score: inf
ROOT
ATOM      1  C   UNL     1       0.557   4.582   8.416  1.00  0.00     0.188 C 
ENDROOT
BRANCH   1   2
ATOM      2  C   UNL     1       1.720   3.891   9.159  1.00  0.00     0.188 C 
BRANCH   2   3
ATOM      3  O   UNL     1       2.444   4.547  10.184  1.00  0.00    -0.376 OA
BRANCH   3   4
ATOM      4  C   UNL     1       2.983   5.845   9.981  1.00  0.00     0.202 C 
BRANCH   4   5
ATOM      5  C   UNL     1       3.863   6.118   8.763  1.00  0.00     0.261 C 
BRANCH   5   6
ATOM      6  O   UNL     1       3.225   5.774   7.525  1.00  0.00    -0.460 OA
BRANCH   6   7
ATOM      7  C   UNL     1       3.905   4.889   6.763  1.00  0.00     0.338 C 
ATOM      8  O   UNL     1       5.001   4.404   6.999  1.00  0.00    -0.246 OA
BRANCH   7   9
ATOM      9  C   UNL     1       3.062   4.457   5.635  1.00  0.00     0.087 C 
ATOM     10  C   UNL     1       1.080   1.765   1.842  1.00  0.00    -0.020 A 
ATOM     11  C   UNL     1       1.066   3.129   2.242  1.00  0.00     0.053 A 
ATOM     12  C   UNL     1       1.600   0.856   2.785  1.00  0.00     0.045 A 
ATOM     13  C   UNL     1       1.660   3.578   3.425  1.00  0.00     0.128 A 
ATOM     14  C   UNL     1       2.205   1.310   3.971  1.00  0.00     0.032 A 
ATOM     15  Cl  UNL     1       1.532  -0.866   2.658  1.00  0.00    -0.084 Cl
ATOM     16  C   UNL     1       2.274   2.669   4.270  1.00  0.00     0.019 A 
ATOM     17  O   UNL     1       1.609   4.922   3.660  1.00  0.00    -0.475 OA
ATOM     18  C   UNL     1       3.014   3.136   5.424  1.00  0.00     0.027 C 
ATOM     19  C   UNL     1       2.338   5.473   4.794  1.00  0.00     0.316 C 
BRANCH  10  20
ATOM     20  C   UNL     1       0.534   1.429   0.430  1.00  0.00    -0.012 C 
ATOM     21  C   UNL     1       0.953   0.067  -0.168  1.00  0.00     0.016 C 
ATOM     22  C   UNL     1       1.038   2.476  -0.607  1.00  0.00     0.016 C 
ATOM     23  C   UNL     1      -1.006   1.475   0.470  1.00  0.00     0.016 C 
ENDBRANCH  10  20
BRANCH  19  24
ATOM     24  C   UNL     1       3.269   6.580   4.275  1.00  0.00     0.430 C 
ATOM     25  F   UNL     1       2.595   7.467   3.505  1.00  0.00    -0.167 F 
ATOM     26  F   UNL     1       3.821   7.288   5.288  1.00  0.00    -0.167 F 
ATOM     27  F   UNL     1       4.282   6.080   3.532  1.00  0.00    -0.167 F 
ENDBRANCH  19  24
ENDBRANCH   7   9
ENDBRANCH   6   7
ENDBRANCH   5   6
ENDBRANCH   4   5
ENDBRANCH   3   4
ENDBRANCH   2   3
ENDBRANCH   1   2
BRANCH   1  28
ATOM     28  O   UNL     1       0.038   5.817   8.870  1.00  0.00    -0.376 OA
BRANCH  28  29
ATOM     29  C   UNL     1      -0.414   5.927  10.215  1.00  0.00     0.202 C 
BRANCH  29  30
ATOM     30  C   UNL     1      -1.499   4.969  10.704  1.00  0.00     0.261 C 
BRANCH  30  31
ATOM     31  O   UNL     1      -1.051   3.605  10.706  1.00  0.00    -0.460 OA
BRANCH  31  32
ATOM     32  C   UNL     1      -1.798   2.749   9.969  1.00  0.00     0.338 C 
ATOM     33  O   UNL     1      -2.820   2.995   9.354  1.00  0.00    -0.246 OA
BRANCH  32  34
ATOM     34  C   UNL     1      -1.075   1.469   9.844  1.00  0.00     0.060 A 
ATOM     35  C   UNL     1      -0.635   0.772  10.970  1.00  0.00     0.016 A 
ATOM     36  C   UNL     1      -0.859   0.958   8.557  1.00  0.00     0.016 A 
ATOM     37  C   UNL     1      -0.011  -0.467  10.806  1.00  0.00     0.010 A 
ATOM     38  C   UNL     1      -0.223  -0.272   8.394  1.00  0.00     0.010 A 
ATOM     39  C   UNL     1       0.181  -1.003   9.519  1.00  0.00    -0.014 A 
BRANCH  39  40
ATOM     40  C   UNL     1       0.647  -2.400   9.366  1.00  0.00     0.031 A 
ATOM     41  C   UNL     1       2.078  -2.729   9.080  1.00  0.00     0.074 A 
ATOM     42  C   UNL     1      -0.263  -3.384   9.488  1.00  0.00     0.049 A 
ATOM     43  N   UNL     1       2.653  -3.903   9.023  1.00  0.00    -0.248 NA
ATOM     44  C   UNL     1       2.980  -1.599   8.818  1.00  0.00     0.031 C 
ATOM     45  C   UNL     1      -1.692  -3.175   9.730  1.00  0.00     0.029 A 
ATOM     46  N   UNL     1      -0.127  -4.747   9.434  1.00  0.00    -0.354 N 
ATOM     47  C   UNL     1       3.990  -3.658   8.751  1.00  0.00     0.074 A 
ATOM     48  C   UNL     1       4.132  -2.223   8.601  1.00  0.00     0.031 C 
ATOM     49  C   UNL     1      -2.297  -4.369   9.827  1.00  0.00     0.029 A 
ATOM     50  C   UNL     1      -1.303  -5.422   9.644  1.00  0.00     0.049 A 
ATOM     51  H   UNL     1       0.732  -5.197   9.262  1.00  0.00     0.167 HD
ATOM     52  C   UNL     1       5.004  -4.552   8.659  1.00  0.00     0.037 A 
ATOM     53  C   UNL     1      -1.550  -6.744   9.698  1.00  0.00     0.037 A 
ATOM     54  C   UNL     1       4.849  -5.980   8.791  1.00  0.00     0.049 A 
ATOM     55  C   UNL     1      -0.413  -7.713   9.548  1.00  0.00     0.074 A 
ATOM     56  C   UNL     1       5.827  -6.960   8.761  1.00  0.00     0.029 A 
ATOM     57  N   UNL     1       3.637  -6.634   8.960  1.00  0.00    -0.354 N 
ATOM     58  N   UNL     1       0.863  -7.468   9.383  1.00  0.00    -0.248 NA
ATOM     59  C   UNL     1      -0.750  -9.142   9.601  1.00  0.00     0.031 C 
ATOM     60  C   UNL     1       5.203  -8.207   8.863  1.00  0.00     0.029 A 
ATOM     61  C   UNL     1       3.840  -8.005   9.004  1.00  0.00     0.049 A 
ATOM     62  H   UNL     1       2.761  -6.190   9.037  1.00  0.00     0.167 HD
ATOM     63  C   UNL     1       1.485  -8.707   9.332  1.00  0.00     0.074 A 
ATOM     64  C   UNL     1       0.447  -9.704   9.499  1.00  0.00     0.031 C 
ATOM     65  C   UNL     1       2.799  -8.990   9.162  1.00  0.00     0.037 A 
BRANCH  52  66
ATOM     66  C   UNL     1       6.388  -4.022   8.426  1.00  0.00     0.064 A 
ATOM     67  C   UNL     1       7.095  -3.371   9.447  1.00  0.00     0.173 A 
ATOM     68  C   UNL     1       7.050  -4.253   7.211  1.00  0.00     0.173 A 
ATOM     69  F   UNL     1       6.505  -3.125  10.627  1.00  0.00    -0.203 F 
ATOM     70  C   UNL     1       8.413  -2.963   9.258  1.00  0.00     0.198 A 
ATOM     71  C   UNL     1       8.376  -3.864   7.033  1.00  0.00     0.198 A 
ATOM     72  F   UNL     1       6.421  -4.882   6.207  1.00  0.00    -0.203 F 
ATOM     73  F   UNL     1       9.064  -2.327  10.242  1.00  0.00    -0.200 F 
ATOM     74  C   UNL     1       9.055  -3.219   8.056  1.00  0.00     0.200 A 
ATOM     75  F   UNL     1       9.000  -4.125   5.877  1.00  0.00    -0.200 F 
ATOM     76  F   UNL     1      10.330  -2.844   7.883  1.00  0.00    -0.200 F 
ENDBRANCH  52  66
BRANCH  53  77
ATOM     77  C   UNL     1      -2.932  -7.214   9.962  1.00  0.00     0.064 A 
ATOM     78  C   UNL     1      -3.274  -7.771  11.201  1.00  0.00     0.173 A 
ATOM     79  C   UNL     1      -3.944  -7.081   9.000  1.00  0.00     0.173 A 
ATOM     80  F   UNL     1      -2.334  -7.931  12.145  1.00  0.00    -0.203 F 
ATOM     81  C   UNL     1      -4.577  -8.184  11.467  1.00  0.00     0.198 A 
ATOM     82  C   UNL     1      -5.251  -7.474   9.276  1.00  0.00     0.198 A 
ATOM     83  F   UNL     1      -3.665  -6.548   7.802  1.00  0.00    -0.203 F 
ATOM     84  F   UNL     1      -4.873  -8.738  12.651  1.00  0.00    -0.200 F 
ATOM     85  C   UNL     1      -5.566  -8.028  10.507  1.00  0.00     0.200 A 
ATOM     86  F   UNL     1      -6.207  -7.308   8.352  1.00  0.00    -0.200 F 
ATOM     87  F   UNL     1      -6.822  -8.414  10.769  1.00  0.00    -0.200 F 
ENDBRANCH  53  77
BRANCH  65  88
ATOM     88  C   UNL     1       3.198 -10.436   9.149  1.00  0.00     0.064 A 
ATOM     89  C   UNL     1       2.910 -11.264   8.054  1.00  0.00     0.173 A 
ATOM     90  C   UNL     1       3.925 -10.987  10.216  1.00  0.00     0.173 A 
ATOM     91  F   UNL     1       2.204 -10.789   7.017  1.00  0.00    -0.203 F 
ATOM     92  C   UNL     1       3.322 -12.594   8.034  1.00  0.00     0.198 A 
ATOM     93  C   UNL     1       4.358 -12.309  10.181  1.00  0.00     0.198 A 
ATOM     94  F   UNL     1       4.230 -10.236  11.285  1.00  0.00    -0.203 F 
ATOM     95  F   UNL     1       3.004 -13.376   6.993  1.00  0.00    -0.200 F 
ATOM     96  C   UNL     1       4.053 -13.113   9.092  1.00  0.00     0.200 A 
ATOM     97  F   UNL     1       5.074 -12.806  11.199  1.00  0.00    -0.200 F 
ATOM     98  F   UNL     1       4.459 -14.389   9.065  1.00  0.00    -0.200 F 
ENDBRANCH  65  88
ENDBRANCH  39  40
ENDBRANCH  32  34
ENDBRANCH  31  32
ENDBRANCH  30  31
ENDBRANCH  29  30
ENDBRANCH  28  29
ENDBRANCH   1  28
TORSDOF 19
