REMARK SMILES COc1cccc([C@@H]2[NH2+][C@@](C)(C(=O)OCCOCCOCCOC(=O)c3ccc(-c4c5nc(c(-c6c(F)c(F)c(F)c(F)c6F)c6ccc([nH]6)c(-c6c(F)c(F)c(F)c(F)c6F)c6nc(c(-c7c(F)c(F)c(F)c(F)c7F)c7ccc4[nH]7)C=C6)C=C5)cc3)[C@@H]3C(=O)N(C)C(=O)[C@@H]32)c1O
REMARK SMILES IDX 18 1 17 2 16 3 15 4 14 5 12 6 13 7 10 8 8 9 9 10 96 11 89 14
REMARK SMILES IDX 94 15 11 16 90 17 92 18 95 19 91 20 93 21 7 22 3 23 4 24
REMARK SMILES IDX 97 25 5 26 6 27 2 28 1 29 98 30 19 32 20 33 21 34 22 35
REMARK SMILES IDX 23 36 24 37 25 38 26 39 27 40 88 41 28 42 87 43 29 44 30 45
REMARK SMILES IDX 31 46 81 47 32 48 86 49 80 50 82 51 33 52 85 53 79 54 78 55
REMARK SMILES IDX 34 57 66 58 46 59 65 60 47 61 50 62 64 63 83 64 48 65 49 66
REMARK SMILES IDX 63 68 84 69 51 70 35 71 36 72 44 73 37 74 38 75 42 76 45 77
REMARK SMILES IDX 39 78 40 79 43 80 41 81 67 82 68 83 76 84 69 85 70 86 74 87
REMARK SMILES IDX 77 88 71 89 72 90 75 91 73 92 52 93 53 94 61 95 54 96 55 97
REMARK SMILES IDX 59 98 62 99 56 100 57 101 60 102 58 103
REMARK H PARENT 9 12 9 13 98 31 82 56 50 67
REMARK Flexibility Score: inf
ROOT
ATOM      1  C   UNL     1       7.924  -2.892   3.687  1.00  0.00     0.188 C 
ENDROOT
BRANCH   1   2
ATOM      2  O   UNL     1       8.883  -2.286   4.548  1.00  0.00    -0.376 OA
BRANCH   2   3
ATOM      3  C   UNL     1       8.518  -1.962   5.881  1.00  0.00     0.202 C 
BRANCH   3   4
ATOM      4  C   UNL     1       7.386  -0.947   6.097  1.00  0.00     0.261 C 
BRANCH   4   5
ATOM      5  O   UNL     1       6.187  -1.139   5.315  1.00  0.00    -0.459 OA
BRANCH   5   6
ATOM      6  C   UNL     1       6.003  -0.261   4.294  1.00  0.00     0.368 C 
ATOM      7  O   UNL     1       6.800   0.641   4.037  1.00  0.00    -0.245 OA
BRANCH   6   8
ATOM      8  C   UNL     1       4.676  -0.424   3.480  1.00  0.00     0.204 C 
ATOM      9  C   UNL     1       4.104  -2.465   2.257  1.00  0.00     0.232 C 
ATOM     10  N   UNL     1       4.031  -1.778   3.573  1.00  0.00    -0.325 N 
ATOM     11  C   UNL     1       5.078  -1.653   1.413  1.00  0.00     0.161 C 
ATOM     12  H   UNL     1       4.518  -2.337   4.273  1.00  0.00     0.347 HD
ATOM     13  H   UNL     1       3.053  -1.667   3.839  1.00  0.00     0.347 HD
ATOM     14  C   UNL     1       5.082  -0.257   2.015  1.00  0.00     0.170 C 
ATOM     15  C   UNL     1       4.709  -1.408  -0.020  1.00  0.00     0.239 C 
ATOM     16  C   UNL     1       3.764   0.638   4.106  1.00  0.00     0.093 C 
ATOM     17  C   UNL     1       4.233   0.538   1.059  1.00  0.00     0.240 C 
ATOM     18  N   UNL     1       4.248  -0.129  -0.138  1.00  0.00    -0.285 N 
ATOM     19  O   UNL     1       4.787  -2.240  -0.911  1.00  0.00    -0.274 OA
ATOM     20  O   UNL     1       3.696   1.609   1.286  1.00  0.00    -0.274 OA
ATOM     21  C   UNL     1       3.755   0.399  -1.385  1.00  0.00     0.156 C 
BRANCH   9  22
ATOM     22  C   UNL     1       2.783  -2.812   1.571  1.00  0.00     0.056 A 
ATOM     23  C   UNL     1       0.714  -2.137   0.442  1.00  0.00     0.161 A 
ATOM     24  C   UNL     1       0.609  -3.413  -0.117  1.00  0.00     0.050 A 
ATOM     25  C   UNL     1       1.772  -1.867   1.321  1.00  0.00     0.166 A 
ATOM     26  C   UNL     1       1.553  -4.395   0.177  1.00  0.00     0.005 A 
ATOM     27  C   UNL     1       2.636  -4.095   1.005  1.00  0.00     0.014 A 
BRANCH  23  28
ATOM     28  O   UNL     1      -0.308  -1.288   0.112  1.00  0.00    -0.493 OA
ATOM     29  C   UNL     1       0.034   0.050  -0.231  1.00  0.00     0.278 C 
ENDBRANCH  23  28
BRANCH  25  30
ATOM     30  O   UNL     1       1.891  -0.695   1.998  1.00  0.00    -0.504 OA
ATOM     31  H   UNL     1       1.252  -0.019   1.880  1.00  0.00     0.293 HD
ENDBRANCH  25  30
ENDBRANCH   9  22
ENDBRANCH   6   8
ENDBRANCH   5   6
ENDBRANCH   4   5
ENDBRANCH   3   4
ENDBRANCH   2   3
ENDBRANCH   1   2
BRANCH   1  32
ATOM     32  C   UNL     1       6.801  -3.770   4.272  1.00  0.00     0.188 C 
BRANCH  32  33
ATOM     33  O   UNL     1       7.147  -4.290   5.535  1.00  0.00    -0.376 OA
BRANCH  33  34
ATOM     34  C   UNL     1       7.144  -5.686   5.699  1.00  0.00     0.202 C 
BRANCH  34  35
ATOM     35  C   UNL     1       8.157  -6.485   4.866  1.00  0.00     0.261 C 
BRANCH  35  36
ATOM     36  O   UNL     1       8.424  -6.014   3.532  1.00  0.00    -0.460 OA
BRANCH  36  37
ATOM     37  C   UNL     1       7.607  -6.456   2.544  1.00  0.00     0.338 C 
ATOM     38  O   UNL     1       6.631  -7.163   2.665  1.00  0.00    -0.246 OA
BRANCH  37  39
ATOM     39  C   UNL     1       7.989  -5.776   1.281  1.00  0.00     0.060 A 
ATOM     40  C   UNL     1       7.062  -4.925   0.670  1.00  0.00     0.016 A 
ATOM     41  C   UNL     1       9.230  -6.000   0.681  1.00  0.00     0.016 A 
ATOM     42  C   UNL     1       7.373  -4.298  -0.540  1.00  0.00     0.010 A 
ATOM     43  C   UNL     1       9.528  -5.388  -0.546  1.00  0.00     0.010 A 
ATOM     44  C   UNL     1       8.597  -4.541  -1.172  1.00  0.00    -0.014 A 
BRANCH  44  45
ATOM     45  C   UNL     1       8.821  -4.060  -2.562  1.00  0.00     0.031 A 
ATOM     46  C   UNL     1       8.569  -5.012  -3.698  1.00  0.00     0.074 A 
ATOM     47  C   UNL     1       9.219  -2.802  -2.830  1.00  0.00     0.049 A 
ATOM     48  N   UNL     1       8.847  -4.889  -4.971  1.00  0.00    -0.248 NA
ATOM     49  C   UNL     1       7.908  -6.279  -3.345  1.00  0.00     0.031 C 
ATOM     50  C   UNL     1       9.399  -1.740  -1.844  1.00  0.00     0.029 A 
ATOM     51  N   UNL     1       9.563  -2.212  -4.026  1.00  0.00    -0.354 N 
ATOM     52  C   UNL     1       8.428  -6.073  -5.563  1.00  0.00     0.074 A 
ATOM     53  C   UNL     1       7.873  -6.900  -4.513  1.00  0.00     0.031 C 
ATOM     54  C   UNL     1       9.853  -0.638  -2.469  1.00  0.00     0.029 A 
ATOM     55  C   UNL     1      10.049  -0.934  -3.888  1.00  0.00     0.049 A 
ATOM     56  H   UNL     1       9.470  -2.663  -4.896  1.00  0.00     0.167 HD
ATOM     57  C   UNL     1       8.510  -6.440  -6.864  1.00  0.00     0.037 A 
ATOM     58  C   UNL     1      10.634  -0.120  -4.792  1.00  0.00     0.037 A 
ATOM     59  C   UNL     1       9.044  -5.609  -7.910  1.00  0.00     0.049 A 
ATOM     60  C   UNL     1      10.809  -0.592  -6.218  1.00  0.00     0.074 A 
ATOM     61  C   UNL     1       9.153  -5.891  -9.261  1.00  0.00     0.029 A 
ATOM     62  N   UNL     1       9.566  -4.338  -7.723  1.00  0.00    -0.354 N 
ATOM     63  N   UNL     1      10.427  -1.717  -6.774  1.00  0.00    -0.248 NA
ATOM     64  C   UNL     1      11.507   0.317  -7.142  1.00  0.00     0.031 C 
ATOM     65  C   UNL     1       9.807  -4.821  -9.879  1.00  0.00     0.029 A 
ATOM     66  C   UNL     1      10.034  -3.840  -8.928  1.00  0.00     0.049 A 
ATOM     67  H   UNL     1       9.598  -3.862  -6.862  1.00  0.00     0.167 HD
ATOM     68  C   UNL     1      10.805  -1.634  -8.111  1.00  0.00     0.074 A 
ATOM     69  C   UNL     1      11.436  -0.345  -8.288  1.00  0.00     0.031 C 
ATOM     70  C   UNL     1      10.641  -2.545  -9.101  1.00  0.00     0.037 A 
BRANCH  57  71
ATOM     71  C   UNL     1       8.070  -7.828  -7.226  1.00  0.00     0.064 A 
ATOM     72  C   UNL     1       6.721  -8.209  -7.233  1.00  0.00     0.173 A 
ATOM     73  C   UNL     1       9.024  -8.779  -7.621  1.00  0.00     0.173 A 
ATOM     74  F   UNL     1       5.772  -7.342  -6.850  1.00  0.00    -0.203 F 
ATOM     75  C   UNL     1       6.346  -9.498  -7.602  1.00  0.00     0.198 A 
ATOM     76  C   UNL     1       8.642 -10.056  -8.021  1.00  0.00     0.198 A 
ATOM     77  F   UNL     1      10.329  -8.464  -7.635  1.00  0.00    -0.203 F 
ATOM     78  F   UNL     1       5.054  -9.855  -7.560  1.00  0.00    -0.200 F 
ATOM     79  C   UNL     1       7.304 -10.416  -8.005  1.00  0.00     0.200 A 
ATOM     80  F   UNL     1       9.570 -10.935  -8.425  1.00  0.00    -0.200 F 
ATOM     81  F   UNL     1       6.939 -11.652  -8.374  1.00  0.00    -0.200 F 
ENDBRANCH  57  71
BRANCH  58  82
ATOM     82  C   UNL     1      11.171   1.207  -4.377  1.00  0.00     0.064 A 
ATOM     83  C   UNL     1      10.656   2.400  -4.905  1.00  0.00     0.173 A 
ATOM     84  C   UNL     1      12.259   1.306  -3.496  1.00  0.00     0.173 A 
ATOM     85  F   UNL     1       9.639   2.362  -5.778  1.00  0.00    -0.203 F 
ATOM     86  C   UNL     1      11.227   3.634  -4.592  1.00  0.00     0.198 A 
ATOM     87  C   UNL     1      12.805   2.542  -3.155  1.00  0.00     0.198 A 
ATOM     88  F   UNL     1      12.802   0.198  -2.970  1.00  0.00    -0.203 F 
ATOM     89  F   UNL     1      10.760   4.750  -5.168  1.00  0.00    -0.200 F 
ATOM     90  C   UNL     1      12.297   3.704  -3.713  1.00  0.00     0.200 A 
ATOM     91  F   UNL     1      13.834   2.604  -2.298  1.00  0.00    -0.200 F 
ATOM     92  F   UNL     1      12.849   4.889  -3.419  1.00  0.00    -0.200 F 
ENDBRANCH  58  82
BRANCH  70  93
ATOM     93  C   UNL     1      11.094  -2.170 -10.486  1.00  0.00     0.064 A 
ATOM     94  C   UNL     1      12.452  -2.066 -10.822  1.00  0.00     0.173 A 
ATOM     95  C   UNL     1      10.151  -1.978 -11.508  1.00  0.00     0.173 A 
ATOM     96  F   UNL     1      13.395  -2.228  -9.882  1.00  0.00    -0.203 F 
ATOM     97  C   UNL     1      12.847  -1.764 -12.123  1.00  0.00     0.198 A 
ATOM     98  C   UNL     1      10.550  -1.710 -12.815  1.00  0.00     0.198 A 
ATOM     99  F   UNL     1       8.839  -2.074 -11.245  1.00  0.00    -0.203 F 
ATOM    100  F   UNL     1      14.149  -1.626 -12.412  1.00  0.00    -0.200 F 
ATOM    101  C   UNL     1      11.897  -1.596 -13.120  1.00  0.00     0.200 A 
ATOM    102  F   UNL     1       9.630  -1.569 -13.780  1.00  0.00    -0.200 F 
ATOM    103  F   UNL     1      12.280  -1.322 -14.375  1.00  0.00    -0.200 F 
ENDBRANCH  70  93
ENDBRANCH  44  45
ENDBRANCH  37  39
ENDBRANCH  36  37
ENDBRANCH  35  36
ENDBRANCH  34  35
ENDBRANCH  33  34
ENDBRANCH  32  33
ENDBRANCH   1  32
TORSDOF 20
