REMARK SMILES C[C@H]([NH2+]CC1CCCC1)[C@H](C)C(=O)OCCOCCOCCOC(=O)c1ccc(-c2c3nc(c(-c4c(F)c(F)c(F)c(F)c4F)c4ccc([nH]4)c(-c4c(F)c(F)c(F)c(F)c4F)c4nc(c(-c5c(F)c(F)c(F)c(F)c5F)c5ccc2[nH]5)C=C4)C=C3)cc1
REMARK SMILES IDX 18 1 17 2 16 3 15 4 14 5 12 6 13 7 10 8 11 9 2 10 1 11 3 12
REMARK SMILES IDX 4 15 5 16 6 17 9 18 7 19 8 20 19 21 20 22 21 23 22 24 23 25
REMARK SMILES IDX 24 26 25 27 26 28 27 29 88 30 28 31 87 32 29 33 30 34 31 35
REMARK SMILES IDX 81 36 32 37 86 38 80 39 82 40 33 41 85 42 79 43 78 44 34 46
REMARK SMILES IDX 66 47 46 48 65 49 47 50 50 51 64 52 83 53 48 54 49 55 63 57
REMARK SMILES IDX 84 58 51 59 35 60 36 61 44 62 37 63 38 64 42 65 45 66 39 67
REMARK SMILES IDX 40 68 43 69 41 70 67 71 68 72 76 73 69 74 70 75 74 76 77 77
REMARK SMILES IDX 71 78 72 79 75 80 73 81 52 82 53 83 61 84 54 85 55 86 59 87
REMARK SMILES IDX 62 88 56 89 57 90 60 91 58 92
REMARK H PARENT 3 13 3 14 82 45 50 56
REMARK Flexibility Score: inf
ROOT
ATOM      1  C   UNL     1      -0.726  -4.415   2.429  1.00  0.00     0.188 C 
ENDROOT
BRANCH   1   2
ATOM      2  O   UNL     1      -1.387  -5.630   2.112  1.00  0.00    -0.376 OA
BRANCH   2   3
ATOM      3  C   UNL     1      -1.656  -5.866   0.741  1.00  0.00     0.202 C 
BRANCH   3   4
ATOM      4  C   UNL     1      -2.257  -4.710  -0.050  1.00  0.00     0.261 C 
BRANCH   4   5
ATOM      5  O   UNL     1      -1.407  -3.560  -0.258  1.00  0.00    -0.463 OA
BRANCH   5   6
ATOM      6  C   UNL     1      -1.916  -2.330   0.047  1.00  0.00     0.314 C 
ATOM      7  O   UNL     1      -2.894  -2.153   0.764  1.00  0.00    -0.252 OA
BRANCH   6   8
ATOM      8  C   UNL     1      -1.203  -1.187  -0.680  1.00  0.00     0.154 C 
ATOM      9  C   UNL     1       0.270  -1.453  -1.004  1.00  0.00     0.026 C 
BRANCH   8  10
ATOM     10  C   UNL     1      -2.002  -0.620  -1.905  1.00  0.00     0.193 C 
ATOM     11  C   UNL     1      -3.191   0.222  -1.420  1.00  0.00     0.076 C 
BRANCH  10  12
ATOM     12  N   UNL     1      -2.444  -1.465  -3.046  1.00  0.00    -0.343 N 
ATOM     13  H   UNL     1      -1.663  -1.556  -3.696  1.00  0.00     0.346 HD
ATOM     14  H   UNL     1      -3.253  -0.998  -3.455  1.00  0.00     0.346 HD
BRANCH  12  15
ATOM     15  C   UNL     1      -2.885  -2.803  -2.675  1.00  0.00     0.264 C 
BRANCH  15  16
ATOM     16  C   UNL     1      -3.623  -3.659  -3.708  1.00  0.00     0.044 C 
ATOM     17  C   UNL     1      -3.814  -5.078  -3.154  1.00  0.00     0.009 C 
ATOM     18  C   UNL     1      -5.066  -3.250  -3.984  1.00  0.00     0.009 C 
ATOM     19  C   UNL     1      -4.891  -5.702  -4.011  1.00  0.00     0.001 C 
ATOM     20  C   UNL     1      -5.754  -4.532  -4.471  1.00  0.00     0.001 C 
ENDBRANCH  15  16
ENDBRANCH  12  15
ENDBRANCH  10  12
ENDBRANCH   8  10
ENDBRANCH   6   8
ENDBRANCH   5   6
ENDBRANCH   4   5
ENDBRANCH   3   4
ENDBRANCH   2   3
ENDBRANCH   1   2
BRANCH   1  21
ATOM     21  C   UNL     1       0.593  -4.093   1.694  1.00  0.00     0.188 C 
BRANCH  21  22
ATOM     22  O   UNL     1       1.029  -5.082   0.774  1.00  0.00    -0.376 OA
BRANCH  22  23
ATOM     23  C   UNL     1       2.146  -5.861   1.192  1.00  0.00     0.202 C 
BRANCH  23  24
ATOM     24  C   UNL     1       1.903  -6.779   2.401  1.00  0.00     0.261 C 
BRANCH  24  25
ATOM     25  O   UNL     1       1.490  -6.110   3.608  1.00  0.00    -0.460 OA
BRANCH  25  26
ATOM     26  C   UNL     1       2.340  -5.214   4.158  1.00  0.00     0.338 C 
ATOM     27  O   UNL     1       3.485  -4.980   3.812  1.00  0.00    -0.246 OA
BRANCH  26  28
ATOM     28  C   UNL     1       1.544  -4.351   5.068  1.00  0.00     0.060 A 
ATOM     29  C   UNL     1       1.600  -2.961   4.884  1.00  0.00     0.016 A 
ATOM     30  C   UNL     1       0.668  -4.899   6.011  1.00  0.00     0.016 A 
ATOM     31  C   UNL     1       0.805  -2.117   5.659  1.00  0.00     0.010 A 
ATOM     32  C   UNL     1      -0.106  -4.051   6.811  1.00  0.00     0.010 A 
ATOM     33  C   UNL     1      -0.010  -2.656   6.665  1.00  0.00    -0.014 A 
BRANCH  33  34
ATOM     34  C   UNL     1      -0.488  -1.755   7.742  1.00  0.00     0.031 A 
ATOM     35  C   UNL     1       0.425  -1.564   8.925  1.00  0.00     0.074 A 
ATOM     36  C   UNL     1      -1.647  -1.078   7.666  1.00  0.00     0.049 A 
ATOM     37  N   UNL     1       0.287  -0.795   9.974  1.00  0.00    -0.248 NA
ATOM     38  C   UNL     1       1.671  -2.349   8.914  1.00  0.00     0.031 C 
ATOM     39  C   UNL     1      -2.603  -1.145   6.565  1.00  0.00     0.029 A 
ATOM     40  N   UNL     1      -2.209  -0.187   8.549  1.00  0.00    -0.354 N 
ATOM     41  C   UNL     1       1.431  -0.996  10.735  1.00  0.00     0.074 A 
ATOM     42  C   UNL     1       2.233  -1.987  10.054  1.00  0.00     0.031 C 
ATOM     43  C   UNL     1      -3.639  -0.331   6.840  1.00  0.00     0.029 A 
ATOM     44  C   UNL     1      -3.425   0.303   8.141  1.00  0.00     0.049 A 
ATOM     45  H   UNL     1      -1.780   0.075   9.395  1.00  0.00     0.167 HD
ATOM     46  C   UNL     1       1.794  -0.400  11.894  1.00  0.00     0.037 A 
ATOM     47  C   UNL     1      -4.264   1.161   8.756  1.00  0.00     0.037 A 
ATOM     48  C   UNL     1       0.992   0.568  12.589  1.00  0.00     0.049 A 
ATOM     49  C   UNL     1      -3.871   1.760  10.086  1.00  0.00     0.074 A 
ATOM     50  C   UNL     1       1.264   1.223  13.776  1.00  0.00     0.029 A 
ATOM     51  N   UNL     1      -0.251   1.011  12.161  1.00  0.00    -0.354 N 
ATOM     52  N   UNL     1      -2.773   1.591  10.783  1.00  0.00    -0.248 NA
ATOM     53  C   UNL     1      -4.834   2.682  10.706  1.00  0.00     0.031 C 
ATOM     54  C   UNL     1       0.164   2.028  14.091  1.00  0.00     0.029 A 
ATOM     55  C   UNL     1      -0.767   1.918  13.070  1.00  0.00     0.049 A 
ATOM     56  H   UNL     1      -0.699   0.723  11.333  1.00  0.00     0.167 HD
ATOM     57  C   UNL     1      -2.897   2.410  11.900  1.00  0.00     0.074 A 
ATOM     58  C   UNL     1      -4.172   3.085  11.782  1.00  0.00     0.031 C 
ATOM     59  C   UNL     1      -2.033   2.590  12.931  1.00  0.00     0.037 A 
BRANCH  46  60
ATOM     60  C   UNL     1       3.108  -0.810  12.489  1.00  0.00     0.064 A 
ATOM     61  C   UNL     1       4.328  -0.439  11.903  1.00  0.00     0.173 A 
ATOM     62  C   UNL     1       3.147  -1.587  13.655  1.00  0.00     0.173 A 
ATOM     63  F   UNL     1       4.343   0.281  10.771  1.00  0.00    -0.203 F 
ATOM     64  C   UNL     1       5.539  -0.855  12.449  1.00  0.00     0.198 A 
ATOM     65  C   UNL     1       4.360  -1.975  14.215  1.00  0.00     0.198 A 
ATOM     66  F   UNL     1       2.008  -1.973  14.249  1.00  0.00    -0.203 F 
ATOM     67  F   UNL     1       6.691  -0.536  11.842  1.00  0.00    -0.200 F 
ATOM     68  C   UNL     1       5.554  -1.616  13.608  1.00  0.00     0.200 A 
ATOM     69  F   UNL     1       4.374  -2.706  15.338  1.00  0.00    -0.200 F 
ATOM     70  F   UNL     1       6.721  -2.014  14.134  1.00  0.00    -0.200 F 
ENDBRANCH  46  60
BRANCH  47  71
ATOM     71  C   UNL     1      -5.563   1.521   8.126  1.00  0.00     0.064 A 
ATOM     72  C   UNL     1      -5.806   2.819   7.654  1.00  0.00     0.173 A 
ATOM     73  C   UNL     1      -6.604   0.587   8.025  1.00  0.00     0.173 A 
ATOM     74  F   UNL     1      -4.854   3.759   7.759  1.00  0.00    -0.203 F 
ATOM     75  C   UNL     1      -7.046   3.174   7.126  1.00  0.00     0.198 A 
ATOM     76  C   UNL     1      -7.835   0.936   7.471  1.00  0.00     0.198 A 
ATOM     77  F   UNL     1      -6.429  -0.665   8.472  1.00  0.00    -0.203 F 
ATOM     78  F   UNL     1      -7.269   4.437   6.735  1.00  0.00    -0.200 F 
ATOM     79  C   UNL     1      -8.058   2.231   7.030  1.00  0.00     0.200 A 
ATOM     80  F   UNL     1      -8.809   0.020   7.378  1.00  0.00    -0.200 F 
ATOM     81  F   UNL     1      -9.252   2.574   6.527  1.00  0.00    -0.200 F 
ENDBRANCH  47  71
BRANCH  59  82
ATOM     82  C   UNL     1      -2.412   3.591  13.985  1.00  0.00     0.064 A 
ATOM     83  C   UNL     1      -3.453   3.353  14.894  1.00  0.00     0.173 A 
ATOM     84  C   UNL     1      -1.700   4.795  14.104  1.00  0.00     0.173 A 
ATOM     85  F   UNL     1      -4.170   2.221  14.818  1.00  0.00    -0.203 F 
ATOM     86  C   UNL     1      -3.792   4.299  15.858  1.00  0.00     0.198 A 
ATOM     87  C   UNL     1      -2.020   5.724  15.091  1.00  0.00     0.198 A 
ATOM     88  F   UNL     1      -0.687   5.068  13.269  1.00  0.00    -0.203 F 
ATOM     89  F   UNL     1      -4.828   4.074  16.679  1.00  0.00    -0.200 F 
ATOM     90  C   UNL     1      -3.073   5.480  15.960  1.00  0.00     0.200 A 
ATOM     91  F   UNL     1      -1.313   6.857  15.197  1.00  0.00    -0.200 F 
ATOM     92  F   UNL     1      -3.400   6.388  16.889  1.00  0.00    -0.200 F 
ENDBRANCH  59  82
ENDBRANCH  33  34
ENDBRANCH  26  28
ENDBRANCH  25  26
ENDBRANCH  24  25
ENDBRANCH  23  24
ENDBRANCH  22  23
ENDBRANCH  21  22
ENDBRANCH   1  21
TORSDOF 21
