REMARK SMILES CC[C@@](C)(NC(=O)N1CCC[C@H]1C1CCCC1)C(=O)OCCOCCOCCOC(=O)c1ccc(-c2c3nc(c(-c4c(F)c(F)c(F)c(F)c4F)c4ccc([nH]4)c(-c4c(F)c(F)c(F)c(F)c4F)c4nc(c(-c5c(F)c(F)c(F)c(F)c5F)c5ccc2[nH]5)C=C4)C=C3)cc1
REMARK SMILES IDX 24 1 23 2 22 3 21 4 20 5 18 6 19 7 3 8 4 9 2 10 1 11 5 12
REMARK SMILES IDX 6 13 7 15 8 16 9 17 12 18 10 19 11 20 13 21 14 22 17 23
REMARK SMILES IDX 15 24 16 25 25 26 26 27 27 28 28 29 29 30 30 31 31 32 32 33
REMARK SMILES IDX 33 34 94 35 34 36 93 37 35 38 36 39 37 40 87 41 38 42 92 43
REMARK SMILES IDX 86 44 88 45 39 46 91 47 85 48 84 49 40 51 72 52 52 53 71 54
REMARK SMILES IDX 53 55 56 56 70 57 89 58 54 59 55 60 69 62 90 63 57 64 41 65
REMARK SMILES IDX 42 66 50 67 43 68 44 69 48 70 51 71 45 72 46 73 49 74 47 75
REMARK SMILES IDX 73 76 74 77 82 78 75 79 76 80 80 81 83 82 77 83 78 84 81 85
REMARK SMILES IDX 79 86 58 87 59 88 67 89 60 90 61 91 65 92 68 93 62 94 63 95
REMARK SMILES IDX 66 96 64 97
REMARK H PARENT 5 14 88 50 56 61
REMARK Flexibility Score: inf
ROOT
ATOM      1  C   UNL     1       2.428   2.964   0.899  1.00  0.00     0.188 C 
ENDROOT
BRANCH   1   2
ATOM      2  O   UNL     1       2.823   1.763   0.158  1.00  0.00    -0.376 OA
BRANCH   2   3
ATOM      3  C   UNL     1       4.097   1.052   0.109  1.00  0.00     0.202 C 
BRANCH   3   4
ATOM      4  C   UNL     1       4.474   0.528  -1.340  1.00  0.00     0.261 C 
BRANCH   4   5
ATOM      5  O   UNL     1       3.483   0.922  -2.268  1.00  0.00    -0.462 OA
BRANCH   5   6
ATOM      6  C   UNL     1       2.349   0.283  -1.909  1.00  0.00     0.331 C 
ATOM      7  O   UNL     1       2.326  -0.929  -1.718  1.00  0.00    -0.249 OA
BRANCH   6   8
ATOM      8  C   UNL     1       1.160   1.242  -1.742  1.00  0.00     0.136 C 
ATOM      9  C   UNL     1       0.332   0.852  -2.994  1.00  0.00     0.047 C 
BRANCH   8  10
ATOM     10  C   UNL     1       0.233   0.910  -0.506  1.00  0.00     0.037 C 
ATOM     11  C   UNL     1       0.345  -0.486   0.116  1.00  0.00     0.007 C 
ENDBRANCH   8  10
BRANCH   8  12
ATOM     12  N   UNL     1       1.432   2.737  -1.940  1.00  0.00    -0.322 N 
ATOM     13  C   UNL     1       2.349   3.750  -1.854  1.00  0.00     0.318 C 
ATOM     14  H   UNL     1       0.595   3.138  -2.268  1.00  0.00     0.166 HD
ATOM     15  O   UNL     1       1.953   4.755  -2.467  1.00  0.00    -0.249 OA
BRANCH  13  16
ATOM     16  N   UNL     1       3.591   3.716  -1.056  1.00  0.00    -0.322 N 
ATOM     17  C   UNL     1       4.643   3.776  -2.020  1.00  0.00     0.122 C 
ATOM     18  C   UNL     1       4.184   4.634   0.509  1.00  0.00     0.090 C 
ATOM     19  C   UNL     1       5.885   3.486  -1.227  1.00  0.00     0.024 C 
ATOM     20  C   UNL     1       5.696   3.928   0.256  1.00  0.00     0.027 C 
BRANCH  18  21
ATOM     21  C   UNL     1       3.501   6.550   1.013  1.00  0.00     0.012 C 
ATOM     22  C   UNL     1       3.712   8.038  -0.076  1.00  0.00     0.006 C 
ATOM     23  C   UNL     1       2.012   7.227   1.359  1.00  0.00     0.006 C 
ATOM     24  C   UNL     1       2.415   8.540  -0.669  1.00  0.00     0.000 C 
ATOM     25  C   UNL     1       1.342   7.888   0.135  1.00  0.00     0.000 C 
ENDBRANCH  18  21
ENDBRANCH  13  16
ENDBRANCH   8  12
ENDBRANCH   6   8
ENDBRANCH   5   6
ENDBRANCH   4   5
ENDBRANCH   3   4
ENDBRANCH   2   3
ENDBRANCH   1   2
BRANCH   1  26
ATOM     26  C   UNL     1       2.171   4.761   0.257  1.00  0.00     0.188 C 
BRANCH  26  27
ATOM     27  O   UNL     1       3.405   5.830  -0.748  1.00  0.00    -0.376 OA
BRANCH  27  28
ATOM     28  C   UNL     1       5.196   6.229  -0.260  1.00  0.00     0.202 C 
BRANCH  28  29
ATOM     29  C   UNL     1       5.846   6.219   1.531  1.00  0.00     0.261 C 
BRANCH  29  30
ATOM     30  O   UNL     1       5.286   5.154   2.656  1.00  0.00    -0.460 OA
BRANCH  30  31
ATOM     31  C   UNL     1       4.360   5.352   3.692  1.00  0.00     0.338 C 
ATOM     32  O   UNL     1       3.966   6.457   4.046  1.00  0.00    -0.246 OA
BRANCH  31  33
ATOM     33  C   UNL     1       3.663   4.123   4.352  1.00  0.00     0.060 A 
ATOM     34  C   UNL     1       2.294   3.832   4.119  1.00  0.00     0.016 A 
ATOM     35  C   UNL     1       4.221   3.436   5.439  1.00  0.00     0.016 A 
ATOM     36  C   UNL     1       1.552   2.845   4.855  1.00  0.00     0.010 A 
ATOM     37  C   UNL     1       3.465   2.482   6.213  1.00  0.00     0.010 A 
ATOM     38  C   UNL     1       2.114   2.167   5.944  1.00  0.00    -0.014 A 
BRANCH  38  39
ATOM     39  C   UNL     1       1.258   1.347   6.912  1.00  0.00     0.031 A 
ATOM     40  C   UNL     1       0.754   2.014   8.186  1.00  0.00     0.074 A 
ATOM     41  C   UNL     1       0.883   0.058   6.720  1.00  0.00     0.049 A 
ATOM     42  N   UNL     1       0.081   1.520   9.203  1.00  0.00    -0.248 NA
ATOM     43  C   UNL     1       1.059   3.443   8.319  1.00  0.00     0.031 C 
ATOM     44  C   UNL     1       1.185  -0.746   5.542  1.00  0.00     0.029 A 
ATOM     45  N   UNL     1       0.163  -0.813   7.528  1.00  0.00    -0.354 N 
ATOM     46  C   UNL     1      -0.095   2.572  10.100  1.00  0.00     0.074 A 
ATOM     47  C   UNL     1       0.560   3.723   9.514  1.00  0.00     0.031 C 
ATOM     48  C   UNL     1       0.676  -1.984   5.704  1.00  0.00     0.029 A 
ATOM     49  C   UNL     1       0.034  -2.090   7.016  1.00  0.00     0.049 A 
ATOM     50  H   UNL     1      -0.223  -0.544   8.393  1.00  0.00     0.167 HD
ATOM     51  C   UNL     1      -0.736   2.596  11.299  1.00  0.00     0.037 A 
ATOM     52  C   UNL     1      -0.512  -3.216   7.537  1.00  0.00     0.037 A 
ATOM     53  C   UNL     1      -1.400   1.468  11.908  1.00  0.00     0.049 A 
ATOM     54  C   UNL     1      -1.144  -3.195   8.916  1.00  0.00     0.074 A 
ATOM     55  C   UNL     1      -2.083   1.414  13.114  1.00  0.00     0.029 A 
ATOM     56  N   UNL     1      -1.456   0.193  11.368  1.00  0.00    -0.354 N 
ATOM     57  N   UNL     1      -1.300  -2.191   9.745  1.00  0.00    -0.248 NA
ATOM     58  C   UNL     1      -1.682  -4.469   9.430  1.00  0.00     0.031 C 
ATOM     59  C   UNL     1      -2.482   0.092  13.339  1.00  0.00     0.029 A 
ATOM     60  C   UNL     1      -2.132  -0.659  12.231  1.00  0.00     0.049 A 
ATOM     61  H   UNL     1      -1.073  -0.070  10.500  1.00  0.00     0.167 HD
ATOM     62  C   UNL     1      -1.992  -2.697  10.843  1.00  0.00     0.074 A 
ATOM     63  C   UNL     1      -2.234  -4.097  10.576  1.00  0.00     0.031 C 
ATOM     64  C   UNL     1      -2.394  -2.052  11.967  1.00  0.00     0.037 A 
BRANCH  51  65
ATOM     65  C   UNL     1      -0.711   3.889  12.077  1.00  0.00     0.064 A 
ATOM     66  C   UNL     1      -1.395   5.036  11.646  1.00  0.00     0.173 A 
ATOM     67  C   UNL     1      -0.007   3.971  13.291  1.00  0.00     0.173 A 
ATOM     68  F   UNL     1      -2.082   5.019  10.493  1.00  0.00    -0.203 F 
ATOM     69  C   UNL     1      -1.337   6.224  12.372  1.00  0.00     0.198 A 
ATOM     70  C   UNL     1       0.014   5.148  14.035  1.00  0.00     0.198 A 
ATOM     71  F   UNL     1       0.653   2.903  13.764  1.00  0.00    -0.203 F 
ATOM     72  F   UNL     1      -1.943   7.324  11.903  1.00  0.00    -0.200 F 
ATOM     73  C   UNL     1      -0.638   6.278  13.569  1.00  0.00     0.200 A 
ATOM     74  F   UNL     1       0.673   5.190  15.202  1.00  0.00    -0.200 F 
ATOM     75  F   UNL     1      -0.586   7.420  14.267  1.00  0.00    -0.200 F 
ENDBRANCH  51  65
BRANCH  52  76
ATOM     76  C   UNL     1      -0.487  -4.506   6.773  1.00  0.00     0.064 A 
ATOM     77  C   UNL     1      -1.671  -5.133   6.350  1.00  0.00     0.173 A 
ATOM     78  C   UNL     1       0.718  -5.177   6.513  1.00  0.00     0.173 A 
ATOM     79  F   UNL     1      -2.859  -4.568   6.615  1.00  0.00    -0.203 F 
ATOM     80  C   UNL     1      -1.652  -6.378   5.717  1.00  0.00     0.198 A 
ATOM     81  C   UNL     1       0.740  -6.404   5.847  1.00  0.00     0.198 A 
ATOM     82  F   UNL     1       1.882  -4.646   6.914  1.00  0.00    -0.203 F 
ATOM     83  F   UNL     1      -2.804  -6.979   5.387  1.00  0.00    -0.200 F 
ATOM     84  C   UNL     1      -0.446  -7.008   5.458  1.00  0.00     0.200 A 
ATOM     85  F   UNL     1       1.910  -7.007   5.596  1.00  0.00    -0.200 F 
ATOM     86  F   UNL     1      -0.426  -8.202   4.848  1.00  0.00    -0.200 F 
ENDBRANCH  52  76
BRANCH  64  87
ATOM     87  C   UNL     1      -3.214  -2.824  12.971  1.00  0.00     0.064 A 
ATOM     88  C   UNL     1      -2.684  -3.887  13.720  1.00  0.00     0.173 A 
ATOM     89  C   UNL     1      -4.556  -2.475  13.203  1.00  0.00     0.173 A 
ATOM     90  F   UNL     1      -1.411  -4.270  13.542  1.00  0.00    -0.203 F 
ATOM     91  C   UNL     1      -3.476  -4.598  14.622  1.00  0.00     0.198 A 
ATOM     92  C   UNL     1      -5.332  -3.160  14.135  1.00  0.00     0.198 A 
ATOM     93  F   UNL     1      -5.117  -1.459  12.529  1.00  0.00    -0.203 F 
ATOM     94  F   UNL     1      -2.966  -5.653  15.271  1.00  0.00    -0.200 F 
ATOM     95  C   UNL     1      -4.796  -4.230  14.832  1.00  0.00     0.200 A 
ATOM     96  F   UNL     1      -6.601  -2.787  14.352  1.00  0.00    -0.200 F 
ATOM     97  F   UNL     1      -5.555  -4.914  15.701  1.00  0.00    -0.200 F 
ENDBRANCH  64  87
ENDBRANCH  38  39
ENDBRANCH  31  33
ENDBRANCH  30  31
ENDBRANCH  29  30
ENDBRANCH  28  29
ENDBRANCH  27  28
ENDBRANCH  26  27
ENDBRANCH   1  26
TORSDOF 21
