REMARK SMILES Cc1cc(C(=O)OCCOCCOCCOC(=O)c2ccc(-c3c4nc(c(-c5c(F)c(F)c(F)c(F)c5F)c5ccc([nH]5)c(-c5c(F)c(F)c(F)c(F)c5F)c5nc(c(-c6c(F)c(F)c(F)c(F)c6F)c6ccc3[nH]6)C=C5)C=C4)cc2)c(C)n1[C@@H]1C[N@H+]2CC[C@@H]1CC2
REMARK SMILES IDX 12 1 11 2 10 3 9 4 8 5 7 6 5 7 6 8 4 9 1 10 2 11 3 12 84 13
REMARK SMILES IDX 82 14 83 15 85 16 86 17 90 18 87 19 91 20 89 21 92 22 88 23
REMARK SMILES IDX 13 25 14 26 15 27 16 28 17 29 18 30 19 31 20 32 81 33 21 34
REMARK SMILES IDX 80 35 22 36 23 37 24 38 74 39 25 40 79 41 73 42 75 43 26 44
REMARK SMILES IDX 78 45 72 46 71 47 27 49 59 50 39 51 58 52 40 53 43 54 57 55
REMARK SMILES IDX 76 56 41 57 42 58 56 60 77 61 44 62 28 63 29 64 37 65 30 66
REMARK SMILES IDX 31 67 35 68 38 69 32 70 33 71 36 72 34 73 60 74 61 75 69 76
REMARK SMILES IDX 62 77 63 78 67 79 70 80 64 81 65 82 68 83 66 84 45 85 46 86
REMARK SMILES IDX 54 87 47 88 48 89 52 90 55 91 49 92 50 93 53 94 51 95
REMARK H PARENT 87 24 75 48 43 59
REMARK Flexibility Score: inf
ROOT
ATOM      1  C   UNL     1       0.293   4.522   4.193  1.00  0.00     0.188 C 
ENDROOT
BRANCH   1   2
ATOM      2  C   UNL     1      -0.527   5.646   3.540  1.00  0.00     0.188 C 
BRANCH   2   3
ATOM      3  O   UNL     1      -1.640   6.099   4.272  1.00  0.00    -0.376 OA
BRANCH   3   4
ATOM      4  C   UNL     1      -2.973   5.689   4.010  1.00  0.00     0.202 C 
BRANCH   4   5
ATOM      5  C   UNL     1      -3.450   4.499   3.157  1.00  0.00     0.261 C 
BRANCH   5   6
ATOM      6  O   UNL     1      -2.465   3.650   2.596  1.00  0.00    -0.460 OA
BRANCH   6   7
ATOM      7  C   UNL     1      -2.104   3.945   1.320  1.00  0.00     0.340 C 
ATOM      8  O   UNL     1      -2.541   4.897   0.667  1.00  0.00    -0.246 OA
BRANCH   7   9
ATOM      9  C   UNL     1      -1.062   3.056   0.851  1.00  0.00     0.081 A 
ATOM     10  C   UNL     1       0.176  -0.295   0.014  1.00  0.00     0.064 C 
ATOM     11  C   UNL     1       0.018   1.155   0.295  1.00  0.00     0.016 A 
ATOM     12  C   UNL     1      -1.043   1.662   1.015  1.00  0.00     0.038 A 
ATOM     13  N   UNL     1       0.791   2.226  -0.148  1.00  0.00    -0.339 N 
ATOM     14  C   UNL     1       0.118   3.408   0.204  1.00  0.00     0.030 A 
ATOM     15  C   UNL     1       0.604   4.806  -0.034  1.00  0.00     0.065 C 
BRANCH  13  16
ATOM     16  C   UNL     1       1.999   2.203  -0.980  1.00  0.00     0.145 C 
ATOM     17  C   UNL     1       1.829   1.526  -2.358  1.00  0.00     0.288 C 
ATOM     18  C   UNL     1       3.357   1.768  -0.354  1.00  0.00     0.029 C 
ATOM     19  N   UNL     1       2.994   0.667  -2.697  1.00  0.00    -0.333 N 
ATOM     20  C   UNL     1       4.458   2.199  -1.361  1.00  0.00     0.067 C 
ATOM     21  C   UNL     1       3.502   0.245  -0.284  1.00  0.00     0.067 C 
ATOM     22  C   UNL     1       4.219   1.498  -2.714  1.00  0.00     0.262 C 
ATOM     23  C   UNL     1       3.143  -0.368  -1.649  1.00  0.00     0.262 C 
ATOM     24  H   UNL     1       2.851   0.234  -3.610  1.00  0.00     0.348 HD
ENDBRANCH  13  16
ENDBRANCH   7   9
ENDBRANCH   6   7
ENDBRANCH   5   6
ENDBRANCH   4   5
ENDBRANCH   3   4
ENDBRANCH   2   3
ENDBRANCH   1   2
BRANCH   1  25
ATOM     25  O   UNL     1      -0.272   3.859   5.308  1.00  0.00    -0.376 OA
BRANCH  25  26
ATOM     26  C   UNL     1      -0.619   4.646   6.449  1.00  0.00     0.202 C 
BRANCH  26  27
ATOM     27  C   UNL     1       0.441   5.559   7.143  1.00  0.00     0.261 C 
BRANCH  27  28
ATOM     28  O   UNL     1       0.659   6.973   6.760  1.00  0.00    -0.460 OA
BRANCH  28  29
ATOM     29  C   UNL     1       1.974   7.397   6.685  1.00  0.00     0.338 C 
ATOM     30  O   UNL     1       2.898   6.635   6.421  1.00  0.00    -0.246 OA
BRANCH  29  31
ATOM     31  C   UNL     1       2.277   8.891   6.965  1.00  0.00     0.060 A 
ATOM     32  C   UNL     1       2.602   9.751   5.926  1.00  0.00     0.016 A 
ATOM     33  C   UNL     1       2.576   9.427   8.243  1.00  0.00     0.016 A 
ATOM     34  C   UNL     1       3.105  11.094   6.171  1.00  0.00     0.010 A 
ATOM     35  C   UNL     1       3.147  10.788   8.484  1.00  0.00     0.010 A 
ATOM     36  C   UNL     1       3.432  11.701   7.453  1.00  0.00    -0.014 A 
BRANCH  36  37
ATOM     37  C   UNL     1       4.378  13.100   7.452  1.00  0.00     0.031 A 
ATOM     38  C   UNL     1       5.288  12.827   6.300  1.00  0.00     0.074 A 
ATOM     39  C   UNL     1       4.730  14.293   8.142  1.00  0.00     0.049 A 
ATOM     40  N   UNL     1       6.049  11.765   6.327  1.00  0.00    -0.248 NA
ATOM     41  C   UNL     1       5.106  13.414   4.971  1.00  0.00     0.031 C 
ATOM     42  C   UNL     1       4.274  14.751   9.471  1.00  0.00     0.029 A 
ATOM     43  N   UNL     1       5.610  15.421   7.832  1.00  0.00    -0.354 N 
ATOM     44  C   UNL     1       6.676  11.711   5.108  1.00  0.00     0.074 A 
ATOM     45  C   UNL     1       5.887  12.593   4.257  1.00  0.00     0.031 C 
ATOM     46  C   UNL     1       4.703  16.017   9.779  1.00  0.00     0.029 A 
ATOM     47  C   UNL     1       5.556  16.584   8.730  1.00  0.00     0.049 A 
ATOM     48  H   UNL     1       6.213  15.402   7.055  1.00  0.00     0.167 HD
ATOM     49  C   UNL     1       8.034  11.590   5.169  1.00  0.00     0.037 A 
ATOM     50  C   UNL     1       6.186  17.850   8.707  1.00  0.00     0.037 A 
ATOM     51  C   UNL     1       8.684  12.859   5.003  1.00  0.00     0.049 A 
ATOM     52  C   UNL     1       7.405  17.677   7.916  1.00  0.00     0.074 A 
ATOM     53  C   UNL     1       8.463  13.909   4.133  1.00  0.00     0.029 A 
ATOM     54  N   UNL     1       9.354  13.378   6.088  1.00  0.00    -0.354 N 
ATOM     55  N   UNL     1       8.475  17.170   8.444  1.00  0.00    -0.248 NA
ATOM     56  C   UNL     1       7.547  18.176   6.555  1.00  0.00     0.031 C 
ATOM     57  C   UNL     1       8.485  15.050   4.958  1.00  0.00     0.029 A 
ATOM     58  C   UNL     1       9.156  14.738   6.132  1.00  0.00     0.049 A 
ATOM     59  H   UNL     1       9.889  12.858   6.730  1.00  0.00     0.167 HD
ATOM     60  C   UNL     1       9.175  16.772   7.357  1.00  0.00     0.074 A 
ATOM     61  C   UNL     1       8.739  17.641   6.278  1.00  0.00     0.031 C 
ATOM     62  C   UNL     1       9.470  15.451   7.338  1.00  0.00     0.037 A 
BRANCH  49  63
ATOM     63  C   UNL     1       8.478  10.507   6.111  1.00  0.00     0.064 A 
ATOM     64  C   UNL     1       8.936   9.301   5.576  1.00  0.00     0.173 A 
ATOM     65  C   UNL     1       8.266  10.560   7.505  1.00  0.00     0.173 A 
ATOM     66  F   UNL     1       9.222   9.212   4.268  1.00  0.00    -0.203 F 
ATOM     67  C   UNL     1       9.088   8.172   6.381  1.00  0.00     0.198 A 
ATOM     68  C   UNL     1       8.346   9.416   8.291  1.00  0.00     0.198 A 
ATOM     69  F   UNL     1       7.966  11.723   8.109  1.00  0.00    -0.203 F 
ATOM     70  F   UNL     1       9.542   7.029   5.848  1.00  0.00    -0.200 F 
ATOM     71  C   UNL     1       8.748   8.219   7.726  1.00  0.00     0.200 A 
ATOM     72  F   UNL     1       8.022   9.474   9.591  1.00  0.00    -0.200 F 
ATOM     73  F   UNL     1       8.826   7.114   8.480  1.00  0.00    -0.200 F 
ENDBRANCH  49  63
BRANCH  50  74
ATOM     74  C   UNL     1       6.266  19.322   9.315  1.00  0.00     0.064 A 
ATOM     75  C   UNL     1       7.517  20.057   9.382  1.00  0.00     0.173 A 
ATOM     76  C   UNL     1       5.152  20.170   9.408  1.00  0.00     0.173 A 
ATOM     77  F   UNL     1       8.702  19.433   9.371  1.00  0.00    -0.203 F 
ATOM     78  C   UNL     1       7.625  21.464   9.398  1.00  0.00     0.198 A 
ATOM     79  C   UNL     1       5.266  21.593   9.466  1.00  0.00     0.198 A 
ATOM     80  F   UNL     1       3.918  19.653   9.359  1.00  0.00    -0.203 F 
ATOM     81  F   UNL     1       8.832  22.054   9.322  1.00  0.00    -0.200 F 
ATOM     82  C   UNL     1       6.494  22.237   9.420  1.00  0.00     0.200 A 
ATOM     83  F   UNL     1       4.159  22.352   9.496  1.00  0.00    -0.200 F 
ATOM     84  F   UNL     1       6.583  23.576   9.366  1.00  0.00    -0.200 F 
ENDBRANCH  50  74
BRANCH  62  85
ATOM     85  C   UNL     1       9.947  14.838   8.644  1.00  0.00     0.064 A 
ATOM     86  C   UNL     1       9.322  14.927   9.914  1.00  0.00     0.173 A 
ATOM     87  C   UNL     1      11.186  14.185   8.616  1.00  0.00     0.173 A 
ATOM     88  F   UNL     1       8.083  15.414  10.070  1.00  0.00    -0.203 F 
ATOM     89  C   UNL     1       9.954  14.479  11.078  1.00  0.00     0.198 A 
ATOM     90  C   UNL     1      11.786  13.684   9.770  1.00  0.00     0.198 A 
ATOM     91  F   UNL     1      11.822  14.010   7.447  1.00  0.00    -0.203 F 
ATOM     92  F   UNL     1       9.364  14.647  12.271  1.00  0.00    -0.200 F 
ATOM     93  C   UNL     1      11.186  13.858  11.004  1.00  0.00     0.200 A 
ATOM     94  F   UNL     1      12.951  13.031   9.678  1.00  0.00    -0.200 F 
ATOM     95  F   UNL     1      11.785  13.408  12.115  1.00  0.00    -0.200 F 
ENDBRANCH  62  85
ENDBRANCH  36  37
ENDBRANCH  29  31
ENDBRANCH  28  29
ENDBRANCH  27  28
ENDBRANCH  26  27
ENDBRANCH  25  26
ENDBRANCH   1  25
TORSDOF 18
