REMARK SMILES Cc1oc2c(C)c3oc(=O)c(CC(=O)N[C@@H](CC(C)C)C(=O)OCCOCCOCCOC(=O)c4ccc(-c5c6nc(c(-c7c(F)c(F)c(F)c(F)c7F)c7ccc([nH]7)c(-c7c(F)c(F)c(F)c(F)c7F)c7nc(c(-c8c(F)c(F)c(F)c(F)c8F)c8ccc5[nH]8)C=C7)C=C6)cc4)c(C)c3cc2c1C
REMARK SMILES IDX 27 1 26 2 25 3 24 4 23 5 21 6 22 7 16 8 15 9 13 10 14 11
REMARK SMILES IDX 12 13 11 14 1 15 2 16 3 17 103 18 4 19 102 20 104 21 5 22
REMARK SMILES IDX 101 23 6 24 7 25 100 26 8 27 98 28 9 29 99 30 10 31 17 32
REMARK SMILES IDX 18 33 19 34 20 35 28 36 29 37 30 38 31 39 32 40 33 41 34 42
REMARK SMILES IDX 35 43 36 44 97 45 37 46 96 47 38 48 39 49 40 50 90 51 41 52
REMARK SMILES IDX 95 53 89 54 91 55 42 56 94 57 88 58 87 59 43 61 75 62 55 63
REMARK SMILES IDX 74 64 56 65 59 66 73 67 92 68 57 69 58 70 72 72 93 73 60 74
REMARK SMILES IDX 44 75 45 76 53 77 46 78 47 79 51 80 54 81 48 82 49 83 52 84
REMARK SMILES IDX 50 85 76 86 77 87 85 88 78 89 79 90 83 91 86 92 80 93 81 94
REMARK SMILES IDX 84 95 82 96 61 97 62 98 70 99 63 100 64 101 68 102 71 103
REMARK SMILES IDX 65 104 66 105 69 106 67 107
REMARK H PARENT 15 12 91 60 59 71
REMARK Flexibility Score: inf
ROOT
ATOM      1  C   UNL     1      -1.777  13.360   2.542  1.00  0.00     0.188 C 
ENDROOT
BRANCH   1   2
ATOM      2  O   UNL     1      -2.729  13.960   3.417  1.00  0.00    -0.376 OA
BRANCH   2   3
ATOM      3  C   UNL     1      -2.659  13.676   4.809  1.00  0.00     0.202 C 
BRANCH   3   4
ATOM      4  C   UNL     1      -2.864  12.215   5.208  1.00  0.00     0.261 C 
BRANCH   4   5
ATOM      5  O   UNL     1      -1.888  11.343   4.613  1.00  0.00    -0.462 OA
BRANCH   5   6
ATOM      6  C   UNL     1      -2.344  10.121   4.241  1.00  0.00     0.328 C 
ATOM      7  O   UNL     1      -3.488   9.723   4.434  1.00  0.00    -0.250 OA
BRANCH   6   8
ATOM      8  C   UNL     1      -1.258   9.233   3.595  1.00  0.00     0.192 C 
BRANCH   8   9
ATOM      9  N   UNL     1       0.060   9.792   3.270  1.00  0.00    -0.342 N 
ATOM     10  C   UNL     1       0.699   9.941   2.075  1.00  0.00     0.225 C 
ATOM     11  O   UNL     1       1.839  10.412   2.084  1.00  0.00    -0.275 OA
ATOM     12  H   UNL     1       0.570  10.115   4.048  1.00  0.00     0.164 HD
BRANCH  10  13
ATOM     13  C   UNL     1       0.017   9.611   0.752  1.00  0.00     0.143 C 
BRANCH  13  14
ATOM     14  C   UNL     1      -0.217   8.135   0.558  1.00  0.00     0.051 A 
ATOM     15  C   UNL     1       0.452  -0.287   0.144  1.00  0.00     0.088 C 
ATOM     16  C   UNL     1       0.494   1.181   0.298  1.00  0.00     0.105 A 
ATOM     17  O   UNL     1      -0.718   1.789   0.426  1.00  0.00    -0.461 OA
ATOM     18  C   UNL     1       1.512   2.119   0.319  1.00  0.00    -0.002 A 
ATOM     19  C   UNL     1      -0.498   3.131   0.483  1.00  0.00     0.141 A 
ATOM     20  C   UNL     1       0.862   3.389   0.411  1.00  0.00     0.025 A 
ATOM     21  C   UNL     1       2.975   1.892   0.227  1.00  0.00     0.049 C 
ATOM     22  C   UNL     1      -1.491   4.107   0.580  1.00  0.00     0.036 A 
ATOM     23  C   UNL     1       1.298   4.728   0.433  1.00  0.00     0.024 A 
ATOM     24  C   UNL     1      -2.943   3.765   0.691  1.00  0.00     0.052 C 
ATOM     25  C   UNL     1      -1.002   5.429   0.532  1.00  0.00     0.145 A 
ATOM     26  C   UNL     1       0.356   5.769   0.467  1.00  0.00     0.022 A 
ATOM     27  O   UNL     1      -1.980   6.443   0.524  1.00  0.00    -0.422 OA
ATOM     28  C   UNL     1       0.748   7.194   0.484  1.00  0.00    -0.029 A 
ATOM     29  C   UNL     1      -1.651   7.775   0.417  1.00  0.00     0.340 A 
ATOM     30  C   UNL     1       2.221   7.521   0.438  1.00  0.00     0.046 C 
ATOM     31  O   UNL     1      -2.517   8.630   0.262  1.00  0.00    -0.246 OA
ENDBRANCH  13  14
ENDBRANCH  10  13
ENDBRANCH   8   9
BRANCH   8  32
ATOM     32  C   UNL     1      -1.091   7.952   4.429  1.00  0.00     0.040 C 
BRANCH  32  33
ATOM     33  C   UNL     1      -0.206   8.049   5.696  1.00  0.00    -0.015 C 
ATOM     34  C   UNL     1      -0.552   9.207   6.632  1.00  0.00     0.007 C 
ATOM     35  C   UNL     1      -0.299   6.730   6.469  1.00  0.00     0.007 C 
ENDBRANCH  32  33
ENDBRANCH   8  32
ENDBRANCH   6   8
ENDBRANCH   5   6
ENDBRANCH   4   5
ENDBRANCH   3   4
ENDBRANCH   2   3
ENDBRANCH   1   2
BRANCH   1  36
ATOM     36  C   UNL     1      -0.321  13.194   3.011  1.00  0.00     0.188 C 
BRANCH  36  37
ATOM     37  O   UNL     1       0.077  14.075   4.048  1.00  0.00    -0.376 OA
BRANCH  37  38
ATOM     38  C   UNL     1       1.101  14.995   3.696  1.00  0.00     0.202 C 
BRANCH  38  39
ATOM     39  C   UNL     1       0.567  16.089   2.771  1.00  0.00     0.261 C 
BRANCH  39  40
ATOM     40  O   UNL     1       0.333  15.605   1.437  1.00  0.00    -0.460 OA
BRANCH  40  41
ATOM     41  C   UNL     1       1.457  15.288   0.756  1.00  0.00     0.338 C 
ATOM     42  O   UNL     1       2.610  15.424   1.115  1.00  0.00    -0.246 OA
BRANCH  41  43
ATOM     43  C   UNL     1       1.068  14.667  -0.509  1.00  0.00     0.060 A 
ATOM     44  C   UNL     1       0.987  13.274  -0.607  1.00  0.00     0.016 A 
ATOM     45  C   UNL     1       0.922  15.483  -1.625  1.00  0.00     0.016 A 
ATOM     46  C   UNL     1       0.773  12.688  -1.849  1.00  0.00     0.010 A 
ATOM     47  C   UNL     1       0.753  14.891  -2.871  1.00  0.00     0.010 A 
ATOM     48  C   UNL     1       0.706  13.492  -2.995  1.00  0.00    -0.014 A 
BRANCH  48  49
ATOM     49  C   UNL     1       0.726  12.844  -4.324  1.00  0.00     0.031 A 
ATOM     50  C   UNL     1      -0.134  13.453  -5.375  1.00  0.00     0.074 A 
ATOM     51  C   UNL     1       1.843  12.194  -4.724  1.00  0.00     0.049 A 
ATOM     52  N   UNL     1       0.212  14.552  -5.978  1.00  0.00    -0.248 NA
ATOM     53  C   UNL     1      -1.504  13.030  -5.656  1.00  0.00     0.031 C 
ATOM     54  C   UNL     1       3.155  12.349  -4.076  1.00  0.00     0.029 A 
ATOM     55  N   UNL     1       2.116  11.479  -5.868  1.00  0.00    -0.354 N 
ATOM     56  C   UNL     1      -0.911  15.045  -6.602  1.00  0.00     0.074 A 
ATOM     57  C   UNL     1      -1.937  14.039  -6.433  1.00  0.00     0.031 C 
ATOM     58  C   UNL     1       4.111  11.911  -4.916  1.00  0.00     0.029 A 
ATOM     59  C   UNL     1       3.482  11.314  -6.088  1.00  0.00     0.049 A 
ATOM     60  H   UNL     1       1.421  11.123  -6.467  1.00  0.00     0.167 HD
ATOM     61  C   UNL     1      -0.934  16.279  -7.166  1.00  0.00     0.037 A 
ATOM     62  C   UNL     1       4.096  11.259  -7.299  1.00  0.00     0.037 A 
ATOM     63  C   UNL     1       0.270  17.047  -7.042  1.00  0.00     0.049 A 
ATOM     64  C   UNL     1       3.772  12.607  -7.887  1.00  0.00     0.074 A 
ATOM     65  C   UNL     1       0.764  17.997  -6.174  1.00  0.00     0.029 A 
ATOM     66  N   UNL     1       1.302  16.793  -7.914  1.00  0.00    -0.354 N 
ATOM     67  N   UNL     1       4.395  13.725  -7.621  1.00  0.00    -0.248 NA
ATOM     68  C   UNL     1       2.487  12.772  -8.568  1.00  0.00     0.031 C 
ATOM     69  C   UNL     1       2.187  17.929  -6.300  1.00  0.00     0.029 A 
ATOM     70  C   UNL     1       2.467  16.898  -7.196  1.00  0.00     0.049 A 
ATOM     71  H   UNL     1       1.220  16.576  -8.871  1.00  0.00     0.167 HD
ATOM     72  C   UNL     1       3.460  14.735  -7.863  1.00  0.00     0.074 A 
ATOM     73  C   UNL     1       2.325  14.085  -8.482  1.00  0.00     0.031 C 
ATOM     74  C   UNL     1       3.586  16.003  -7.377  1.00  0.00     0.037 A 
BRANCH  61  75
ATOM     75  C   UNL     1      -2.065  16.837  -7.920  1.00  0.00     0.064 A 
ATOM     76  C   UNL     1      -1.958  16.895  -9.316  1.00  0.00     0.173 A 
ATOM     77  C   UNL     1      -3.129  17.498  -7.302  1.00  0.00     0.173 A 
ATOM     78  F   UNL     1      -0.936  16.281  -9.935  1.00  0.00    -0.203 F 
ATOM     79  C   UNL     1      -2.866  17.625 -10.071  1.00  0.00     0.198 A 
ATOM     80  C   UNL     1      -4.042  18.225  -8.062  1.00  0.00     0.198 A 
ATOM     81  F   UNL     1      -3.254  17.480  -5.967  1.00  0.00    -0.203 F 
ATOM     82  F   UNL     1      -2.716  17.702 -11.400  1.00  0.00    -0.200 F 
ATOM     83  C   UNL     1      -3.902  18.299  -9.443  1.00  0.00     0.200 A 
ATOM     84  F   UNL     1      -5.041  18.884  -7.459  1.00  0.00    -0.200 F 
ATOM     85  F   UNL     1      -4.757  19.033 -10.168  1.00  0.00    -0.200 F 
ENDBRANCH  61  75
BRANCH  62  86
ATOM     86  C   UNL     1       3.929   9.959  -8.020  1.00  0.00     0.064 A 
ATOM     87  C   UNL     1       4.186   8.758  -7.320  1.00  0.00     0.173 A 
ATOM     88  C   UNL     1       3.544   9.817  -9.360  1.00  0.00     0.173 A 
ATOM     89  F   UNL     1       4.671   8.794  -6.069  1.00  0.00    -0.203 F 
ATOM     90  C   UNL     1       3.949   7.505  -7.885  1.00  0.00     0.198 A 
ATOM     91  C   UNL     1       3.282   8.563  -9.918  1.00  0.00     0.198 A 
ATOM     92  F   UNL     1       3.403  10.884 -10.157  1.00  0.00    -0.203 F 
ATOM     93  F   UNL     1       4.174   6.395  -7.169  1.00  0.00    -0.200 F 
ATOM     94  C   UNL     1       3.467   7.410  -9.177  1.00  0.00     0.200 A 
ATOM     95  F   UNL     1       2.830   8.481 -11.178  1.00  0.00    -0.200 F 
ATOM     96  F   UNL     1       3.191   6.212  -9.709  1.00  0.00    -0.200 F 
ENDBRANCH  62  86
BRANCH  74  97
ATOM     97  C   UNL     1       4.910  16.333  -6.780  1.00  0.00     0.064 A 
ATOM     98  C   UNL     1       6.019  16.535  -7.612  1.00  0.00     0.173 A 
ATOM     99  C   UNL     1       5.083  16.491  -5.397  1.00  0.00     0.173 A 
ATOM    100  F   UNL     1       5.899  16.408  -8.943  1.00  0.00    -0.203 F 
ATOM    101  C   UNL     1       7.252  16.902  -7.081  1.00  0.00     0.198 A 
ATOM    102  C   UNL     1       6.312  16.881  -4.872  1.00  0.00     0.198 A 
ATOM    103  F   UNL     1       4.059  16.298  -4.551  1.00  0.00    -0.203 F 
ATOM    104  F   UNL     1       8.298  17.102  -7.895  1.00  0.00    -0.200 F 
ATOM    105  C   UNL     1       7.394  17.087  -5.714  1.00  0.00     0.200 A 
ATOM    106  F   UNL     1       6.444  17.080  -3.553  1.00  0.00    -0.200 F 
ATOM    107  F   UNL     1       8.573  17.478  -5.208  1.00  0.00    -0.200 F 
ENDBRANCH  74  97
ENDBRANCH  48  49
ENDBRANCH  41  43
ENDBRANCH  40  41
ENDBRANCH  39  40
ENDBRANCH  38  39
ENDBRANCH  37  38
ENDBRANCH  36  37
ENDBRANCH   1  36
TORSDOF 22
