REMARK SMILES COc1ncccc1C[C@H](C(=O)OCCOCCOCCOC(=O)c1ccc(-c2c3nc(c(-c4c(F)c(F)c(F)c(F)c4F)c4ccc([nH]4)c(-c4c(F)c(F)c(F)c(F)c4F)c4nc(c(-c5c(F)c(F)c(F)c(F)c5F)c5ccc2[nH]5)C=C4)C=C3)cc1)c1ccc(F)cc1
REMARK SMILES IDX 17 1 16 2 15 3 14 4 13 5 11 6 12 7 10 8 9 9 8 10 3 11 4 12
REMARK SMILES IDX 5 13 7 14 6 15 2 16 1 17 88 18 89 19 94 20 90 21 93 22 91 23
REMARK SMILES IDX 92 24 18 25 19 26 20 27 21 28 22 29 23 30 24 31 25 32 26 33
REMARK SMILES IDX 87 34 27 35 86 36 28 37 29 38 30 39 80 40 31 41 85 42 79 43
REMARK SMILES IDX 81 44 32 45 84 46 78 47 77 48 33 50 65 51 45 52 64 53 46 54
REMARK SMILES IDX 49 55 63 56 82 57 47 58 48 59 62 61 83 62 50 63 34 64 35 65
REMARK SMILES IDX 43 66 36 67 37 68 41 69 44 70 38 71 39 72 42 73 40 74 66 75
REMARK SMILES IDX 67 76 75 77 68 78 69 79 73 80 76 81 70 82 71 83 74 84 72 85
REMARK SMILES IDX 51 86 52 87 60 88 53 89 54 90 58 91 61 92 55 93 56 94 59 95
REMARK SMILES IDX 57 96
REMARK H PARENT 81 49 49 60
REMARK Flexibility Score: inf
ROOT
ATOM      1  C   UNL     1       3.529  -0.531  -3.731  1.00  0.00     0.188 C 
ENDROOT
BRANCH   1   2
ATOM      2  O   UNL     1       3.467  -1.855  -4.229  1.00  0.00    -0.376 OA
BRANCH   2   3
ATOM      3  C   UNL     1       3.715  -2.893  -3.290  1.00  0.00     0.202 C 
BRANCH   3   4
ATOM      4  C   UNL     1       2.797  -2.998  -2.058  1.00  0.00     0.261 C 
BRANCH   4   5
ATOM      5  O   UNL     1       2.530  -1.769  -1.356  1.00  0.00    -0.463 OA
BRANCH   5   6
ATOM      6  C   UNL     1       3.501  -1.306  -0.526  1.00  0.00     0.313 C 
ATOM      7  O   UNL     1       4.573  -1.879  -0.373  1.00  0.00    -0.252 OA
BRANCH   6   8
ATOM      8  C   UNL     1       3.131   0.082   0.052  1.00  0.00     0.134 C 
BRANCH   8   9
ATOM      9  C   UNL     1       1.681   0.139   0.618  1.00  0.00     0.061 C 
BRANCH   9  10
ATOM     10  C   UNL     1       0.742   1.133  -0.051  1.00  0.00     0.015 A 
ATOM     11  C   UNL     1       0.729   2.487   0.281  1.00  0.00     0.216 A 
ATOM     12  N   UNL     1      -0.092   3.416  -0.265  1.00  0.00    -0.222 NA
ATOM     13  C   UNL     1      -0.975   2.973  -1.186  1.00  0.00     0.115 A 
ATOM     14  C   UNL     1      -0.186   0.726  -1.018  1.00  0.00     0.011 A 
ATOM     15  C   UNL     1      -1.057   1.653  -1.593  1.00  0.00     0.021 A 
BRANCH  11  16
ATOM     16  O   UNL     1       1.523   2.897   1.323  1.00  0.00    -0.481 OA
ATOM     17  C   UNL     1       2.478   3.847   0.872  1.00  0.00     0.280 C 
ENDBRANCH  11  16
ENDBRANCH   9  10
ENDBRANCH   8   9
BRANCH   8  18
ATOM     18  C   UNL     1       4.184   0.508   1.077  1.00  0.00    -0.033 A 
ATOM     19  C   UNL     1       4.386  -0.245   2.246  1.00  0.00     0.007 A 
ATOM     20  C   UNL     1       5.017   1.614   0.832  1.00  0.00     0.007 A 
ATOM     21  C   UNL     1       5.383   0.108   3.155  1.00  0.00     0.039 A 
ATOM     22  C   UNL     1       5.995   1.984   1.758  1.00  0.00     0.039 A 
ATOM     23  C   UNL     1       6.169   1.226   2.909  1.00  0.00     0.123 A 
ATOM     24  F   UNL     1       7.117   1.572   3.790  1.00  0.00    -0.207 F 
ENDBRANCH   8  18
ENDBRANCH   6   8
ENDBRANCH   5   6
ENDBRANCH   4   5
ENDBRANCH   3   4
ENDBRANCH   2   3
ENDBRANCH   1   2
BRANCH   1  25
ATOM     25  C   UNL     1       2.144   0.110  -3.522  1.00  0.00     0.188 C 
BRANCH  25  26
ATOM     26  O   UNL     1       0.963  -0.631  -3.786  1.00  0.00    -0.376 OA
BRANCH  26  27
ATOM     27  C   UNL     1       0.862  -1.341  -5.013  1.00  0.00     0.202 C 
BRANCH  27  28
ATOM     28  C   UNL     1       1.179  -0.634  -6.344  1.00  0.00     0.261 C 
BRANCH  28  29
ATOM     29  O   UNL     1       2.360   0.188  -6.362  1.00  0.00    -0.460 OA
BRANCH  29  30
ATOM     30  C   UNL     1       2.141   1.528  -6.404  1.00  0.00     0.338 C 
ATOM     31  O   UNL     1       1.068   2.101  -6.455  1.00  0.00    -0.246 OA
BRANCH  30  32
ATOM     32  C   UNL     1       3.415   2.248  -6.182  1.00  0.00     0.060 A 
ATOM     33  C   UNL     1       3.531   3.079  -5.056  1.00  0.00     0.016 A 
ATOM     34  C   UNL     1       4.460   2.160  -7.101  1.00  0.00     0.016 A 
ATOM     35  C   UNL     1       4.682   3.842  -4.859  1.00  0.00     0.010 A 
ATOM     36  C   UNL     1       5.601   2.950  -6.919  1.00  0.00     0.010 A 
ATOM     37  C   UNL     1       5.704   3.817  -5.814  1.00  0.00    -0.014 A 
BRANCH  37  38
ATOM     38  C   UNL     1       6.781   4.836  -5.769  1.00  0.00     0.031 A 
ATOM     39  C   UNL     1       6.637   6.069  -6.618  1.00  0.00     0.074 A 
ATOM     40  C   UNL     1       7.862   4.683  -4.984  1.00  0.00     0.049 A 
ATOM     41  N   UNL     1       7.474   7.057  -6.805  1.00  0.00    -0.248 NA
ATOM     42  C   UNL     1       5.374   6.201  -7.362  1.00  0.00     0.031 C 
ATOM     43  C   UNL     1       8.099   3.561  -4.080  1.00  0.00     0.029 A 
ATOM     44  N   UNL     1       8.974   5.476  -4.838  1.00  0.00    -0.354 N 
ATOM     45  C   UNL     1       6.845   7.921  -7.693  1.00  0.00     0.074 A 
ATOM     46  C   UNL     1       5.569   7.328  -8.030  1.00  0.00     0.031 C 
ATOM     47  C   UNL     1       9.294   3.727  -3.486  1.00  0.00     0.029 A 
ATOM     48  C   UNL     1       9.919   4.947  -3.995  1.00  0.00     0.049 A 
ATOM     49  H   UNL     1       9.082   6.342  -5.295  1.00  0.00     0.167 HD
ATOM     50  C   UNL     1       7.289   9.104  -8.179  1.00  0.00     0.037 A 
ATOM     51  C   UNL     1      11.158   5.386  -3.693  1.00  0.00     0.037 A 
ATOM     52  C   UNL     1       8.560   9.691  -7.847  1.00  0.00     0.049 A 
ATOM     53  C   UNL     1      11.663   6.667  -4.312  1.00  0.00     0.074 A 
ATOM     54  C   UNL     1       9.094  10.894  -8.277  1.00  0.00     0.029 A 
ATOM     55  N   UNL     1       9.503   9.112  -7.010  1.00  0.00    -0.354 N 
ATOM     56  N   UNL     1      11.056   7.490  -5.133  1.00  0.00    -0.248 NA
ATOM     57  C   UNL     1      13.029   7.080  -3.957  1.00  0.00     0.031 C 
ATOM     58  C   UNL     1      10.382  11.015  -7.746  1.00  0.00     0.029 A 
ATOM     59  C   UNL     1      10.626   9.920  -6.933  1.00  0.00     0.049 A 
ATOM     60  H   UNL     1       9.390   8.255  -6.541  1.00  0.00     0.167 HD
ATOM     61  C   UNL     1      11.949   8.530  -5.364  1.00  0.00     0.074 A 
ATOM     62  C   UNL     1      13.136   8.241  -4.588  1.00  0.00     0.031 C 
ATOM     63  C   UNL     1      11.798   9.628  -6.147  1.00  0.00     0.037 A 
BRANCH  50  64
ATOM     64  C   UNL     1       6.403   9.829  -9.149  1.00  0.00     0.064 A 
ATOM     65  C   UNL     1       5.203  10.434  -8.745  1.00  0.00     0.173 A 
ATOM     66  C   UNL     1       6.774   9.945 -10.498  1.00  0.00     0.173 A 
ATOM     67  F   UNL     1       4.795  10.339  -7.471  1.00  0.00    -0.203 F 
ATOM     68  C   UNL     1       4.395  11.104  -9.660  1.00  0.00     0.198 A 
ATOM     69  C   UNL     1       5.980  10.643 -11.403  1.00  0.00     0.198 A 
ATOM     70  F   UNL     1       7.913   9.388 -10.936  1.00  0.00    -0.203 F 
ATOM     71  F   UNL     1       3.229  11.631  -9.262  1.00  0.00    -0.200 F 
ATOM     72  C   UNL     1       4.787  11.215 -10.986  1.00  0.00     0.200 A 
ATOM     73  F   UNL     1       6.367  10.760 -12.681  1.00  0.00    -0.200 F 
ATOM     74  F   UNL     1       4.012  11.867 -11.864  1.00  0.00    -0.200 F 
ENDBRANCH  50  64
BRANCH  51  75
ATOM     75  C   UNL     1      12.023   4.603  -2.772  1.00  0.00     0.064 A 
ATOM     76  C   UNL     1      12.380   5.105  -1.512  1.00  0.00     0.173 A 
ATOM     77  C   UNL     1      12.538   3.352  -3.144  1.00  0.00     0.173 A 
ATOM     78  F   UNL     1      11.937   6.309  -1.122  1.00  0.00    -0.203 F 
ATOM     79  C   UNL     1      13.235   4.396  -0.670  1.00  0.00     0.198 A 
ATOM     80  C   UNL     1      13.368   2.631  -2.289  1.00  0.00     0.198 A 
ATOM     81  F   UNL     1      12.233   2.829  -4.341  1.00  0.00    -0.203 F 
ATOM     82  F   UNL     1      13.604   4.925   0.504  1.00  0.00    -0.200 F 
ATOM     83  C   UNL     1      13.724   3.158  -1.057  1.00  0.00     0.200 A 
ATOM     84  F   UNL     1      13.831   1.430  -2.663  1.00  0.00    -0.200 F 
ATOM     85  F   UNL     1      14.547   2.477  -0.248  1.00  0.00    -0.200 F 
ENDBRANCH  51  75
BRANCH  63  86
ATOM     86  C   UNL     1      12.921  10.627  -6.169  1.00  0.00     0.064 A 
ATOM     87  C   UNL     1      14.145  10.352  -6.795  1.00  0.00     0.173 A 
ATOM     88  C   UNL     1      12.751  11.895  -5.591  1.00  0.00     0.173 A 
ATOM     89  F   UNL     1      14.365   9.151  -7.351  1.00  0.00    -0.203 F 
ATOM     90  C   UNL     1      15.167  11.299  -6.818  1.00  0.00     0.198 A 
ATOM     91  C   UNL     1      13.762  12.851  -5.645  1.00  0.00     0.198 A 
ATOM     92  F   UNL     1      11.596  12.214  -4.987  1.00  0.00    -0.203 F 
ATOM     93  F   UNL     1      16.346  10.996  -7.378  1.00  0.00    -0.200 F 
ATOM     94  C   UNL     1      14.972  12.549  -6.250  1.00  0.00     0.200 A 
ATOM     95  F   UNL     1      13.565  14.064  -5.111  1.00  0.00    -0.200 F 
ATOM     96  F   UNL     1      15.953  13.461  -6.282  1.00  0.00    -0.200 F 
ENDBRANCH  63  86
ENDBRANCH  37  38
ENDBRANCH  30  32
ENDBRANCH  29  30
ENDBRANCH  28  29
ENDBRANCH  27  28
ENDBRANCH  26  27
ENDBRANCH  25  26
ENDBRANCH   1  25
TORSDOF 21
