REMARK SMILES C[N@H+]1CCO[C@@H](CNS(=O)(=O)N2CCC(C(=O)OCCOCCOCCOC(=O)c3ccc(-c4c5nc(c(-c6c(F)c(F)c(F)c(F)c6F)c6ccc([nH]6)c(-c6c(F)c(F)c(F)c(F)c6F)c6nc(c(-c7c(F)c(F)c(F)c(F)c7F)c7ccc4[nH]7)C=C6)C=C5)cc3)CC2)C1
REMARK SMILES IDX 22 1 21 2 20 3 19 4 18 5 16 6 17 7 15 8 12 9 13 10 94 11
REMARK SMILES IDX 14 12 93 13 9 14 10 15 11 16 8 17 7 19 6 20 1 21 2 22 3 23
REMARK SMILES IDX 95 24 4 26 5 27 23 28 24 29 25 30 26 31 27 32 28 33 29 34
REMARK SMILES IDX 30 35 31 36 92 37 32 38 91 39 33 40 34 41 35 42 85 43 36 44
REMARK SMILES IDX 90 45 84 46 86 47 37 48 89 49 83 50 82 51 38 53 70 54 50 55
REMARK SMILES IDX 69 56 51 57 54 58 68 59 87 60 52 61 53 62 67 64 88 65 55 66
REMARK SMILES IDX 39 67 40 68 48 69 41 70 42 71 46 72 49 73 43 74 44 75 47 76
REMARK SMILES IDX 45 77 71 78 72 79 80 80 73 81 74 82 78 83 81 84 75 85 76 86
REMARK SMILES IDX 79 87 77 88 56 89 57 90 65 91 58 92 59 93 63 94 66 95 60 96
REMARK SMILES IDX 61 97 64 98 62 99
REMARK H PARENT 8 18 2 25 86 52 54 63
REMARK Flexibility Score: inf
ROOT
ATOM      1  C   UNL     1       7.435  -2.306  -7.991  1.00  0.00     0.188 C 
ENDROOT
BRANCH   1   2
ATOM      2  O   UNL     1       8.661  -1.596  -7.980  1.00  0.00    -0.376 OA
BRANCH   2   3
ATOM      3  C   UNL     1       9.120  -1.085  -6.734  1.00  0.00     0.202 C 
BRANCH   3   4
ATOM      4  C   UNL     1       8.179  -0.168  -5.936  1.00  0.00     0.261 C 
BRANCH   4   5
ATOM      5  O   UNL     1       6.812  -0.620  -5.809  1.00  0.00    -0.463 OA
BRANCH   5   6
ATOM      6  C   UNL     1       5.890   0.099  -6.501  1.00  0.00     0.309 C 
ATOM      7  O   UNL     1       6.155   1.058  -7.220  1.00  0.00    -0.252 OA
BRANCH   6   8
ATOM      8  C   UNL     1       4.447  -0.369  -6.331  1.00  0.00     0.102 C 
ATOM      9  N   UNL     1       2.333  -0.856  -4.392  1.00  0.00    -0.189 NA
ATOM     10  C   UNL     1       2.309   0.370  -5.213  1.00  0.00     0.104 C 
ATOM     11  C   UNL     1       2.817  -2.010  -5.171  1.00  0.00     0.104 C 
ATOM     12  C   UNL     1       3.722   0.760  -5.593  1.00  0.00     0.032 C 
ATOM     13  C   UNL     1       4.220  -1.765  -5.726  1.00  0.00     0.032 C 
BRANCH   9  14
ATOM     14  S   UNL     1       2.929  -0.687  -2.829  1.00  0.00     0.279 S 
ATOM     15  O   UNL     1       2.405   0.526  -2.256  1.00  0.00    -0.195 OA
ATOM     16  O   UNL     1       4.342  -0.974  -2.802  1.00  0.00    -0.195 OA
BRANCH  14  17
ATOM     17  N   UNL     1       2.160  -1.980  -2.086  1.00  0.00    -0.199 NA
ATOM     18  H   UNL     1       2.407  -2.829  -2.595  1.00  0.00     0.142 HD
BRANCH  17  19
ATOM     19  C   UNL     1       0.681  -1.892  -2.032  1.00  0.00     0.138 C 
BRANCH  19  20
ATOM     20  C   UNL     1       0.059  -2.612  -0.822  1.00  0.00     0.188 C 
ATOM     21  C   UNL     1       1.104   0.094   0.631  1.00  0.00     0.332 C 
ATOM     22  N   UNL     1       0.353  -1.027   1.184  1.00  0.00    -0.333 N 
ATOM     23  C   UNL     1      -1.102  -0.810   1.109  1.00  0.00     0.290 C 
ATOM     24  C   UNL     1       0.675  -2.324   0.570  1.00  0.00     0.295 C 
ATOM     25  H   UNL     1       0.646  -1.066   2.160  1.00  0.00     0.348 HD
ATOM     26  C   UNL     1      -1.710  -1.081  -0.279  1.00  0.00     0.222 C 
ATOM     27  O   UNL     1      -1.369  -2.384  -0.782  1.00  0.00    -0.365 OA
ENDBRANCH  19  20
ENDBRANCH  17  19
ENDBRANCH  14  17
ENDBRANCH   9  14
ENDBRANCH   6   8
ENDBRANCH   5   6
ENDBRANCH   4   5
ENDBRANCH   3   4
ENDBRANCH   2   3
ENDBRANCH   1   2
BRANCH   1  28
ATOM     28  C   UNL     1       7.189  -3.381  -6.927  1.00  0.00     0.188 C 
BRANCH  28  29
ATOM     29  O   UNL     1       8.171  -3.497  -5.920  1.00  0.00    -0.376 OA
BRANCH  29  30
ATOM     30  C   UNL     1       8.279  -4.773  -5.299  1.00  0.00     0.202 C 
BRANCH  30  31
ATOM     31  C   UNL     1       8.966  -5.836  -6.181  1.00  0.00     0.261 C 
BRANCH  31  32
ATOM     32  O   UNL     1       8.363  -6.099  -7.471  1.00  0.00    -0.460 OA
BRANCH  32  33
ATOM     33  C   UNL     1       7.088  -6.563  -7.492  1.00  0.00     0.338 C 
ATOM     34  O   UNL     1       6.437  -6.926  -6.527  1.00  0.00    -0.246 OA
BRANCH  33  35
ATOM     35  C   UNL     1       6.495  -6.270  -8.834  1.00  0.00     0.060 A 
ATOM     36  C   UNL     1       5.235  -5.647  -8.887  1.00  0.00     0.016 A 
ATOM     37  C   UNL     1       7.181  -6.528 -10.022  1.00  0.00     0.016 A 
ATOM     38  C   UNL     1       4.642  -5.334 -10.118  1.00  0.00     0.010 A 
ATOM     39  C   UNL     1       6.578  -6.233 -11.255  1.00  0.00     0.010 A 
ATOM     40  C   UNL     1       5.289  -5.668 -11.314  1.00  0.00    -0.014 A 
BRANCH  40  41
ATOM     41  C   UNL     1       4.551  -5.638 -12.610  1.00  0.00     0.031 A 
ATOM     42  C   UNL     1       3.986  -6.934 -13.135  1.00  0.00     0.074 A 
ATOM     43  C   UNL     1       4.372  -4.509 -13.322  1.00  0.00     0.049 A 
ATOM     44  N   UNL     1       3.394  -7.193 -14.274  1.00  0.00    -0.248 NA
ATOM     45  C   UNL     1       4.116  -8.100 -12.247  1.00  0.00     0.031 C 
ATOM     46  C   UNL     1       4.814  -3.176 -12.925  1.00  0.00     0.029 A 
ATOM     47  N   UNL     1       3.779  -4.316 -14.550  1.00  0.00    -0.354 N 
ATOM     48  C   UNL     1       3.098  -8.550 -14.246  1.00  0.00     0.074 A 
ATOM     49  C   UNL     1       3.599  -9.066 -12.990  1.00  0.00     0.031 C 
ATOM     50  C   UNL     1       4.498  -2.304 -13.901  1.00  0.00     0.029 A 
ATOM     51  C   UNL     1       3.866  -3.022 -15.009  1.00  0.00     0.049 A 
ATOM     52  H   UNL     1       3.335  -5.036 -15.053  1.00  0.00     0.167 HD
ATOM     53  C   UNL     1       2.462  -9.302 -15.176  1.00  0.00     0.037 A 
ATOM     54  C   UNL     1       3.508  -2.488 -16.195  1.00  0.00     0.037 A 
ATOM     55  C   UNL     1       1.962  -8.798 -16.428  1.00  0.00     0.049 A 
ATOM     56  C   UNL     1       2.876  -3.361 -17.255  1.00  0.00     0.074 A 
ATOM     57  C   UNL     1       1.285  -9.482 -17.424  1.00  0.00     0.029 A 
ATOM     58  N   UNL     1       2.096  -7.489 -16.864  1.00  0.00    -0.354 N 
ATOM     59  N   UNL     1       2.577  -4.637 -17.211  1.00  0.00    -0.248 NA
ATOM     60  C   UNL     1       2.533  -2.716 -18.533  1.00  0.00     0.031 C 
ATOM     61  C   UNL     1       1.067  -8.603 -18.489  1.00  0.00     0.029 A 
ATOM     62  C   UNL     1       1.543  -7.354 -18.129  1.00  0.00     0.049 A 
ATOM     63  H   UNL     1       2.521  -6.763 -16.352  1.00  0.00     0.167 HD
ATOM     64  C   UNL     1       1.982  -4.937 -18.432  1.00  0.00     0.074 A 
ATOM     65  C   UNL     1       1.952  -3.708 -19.194  1.00  0.00     0.031 C 
ATOM     66  C   UNL     1       1.504  -6.124 -18.880  1.00  0.00     0.037 A 
BRANCH  53  67
ATOM     67  C   UNL     1       2.301 -10.768 -14.889  1.00  0.00     0.064 A 
ATOM     68  C   UNL     1       1.440 -11.237 -13.885  1.00  0.00     0.173 A 
ATOM     69  C   UNL     1       3.000 -11.718 -15.649  1.00  0.00     0.173 A 
ATOM     70  F   UNL     1       0.759 -10.371 -13.120  1.00  0.00    -0.203 F 
ATOM     71  C   UNL     1       1.311 -12.601 -13.632  1.00  0.00     0.198 A 
ATOM     72  C   UNL     1       2.842 -13.082 -15.416  1.00  0.00     0.198 A 
ATOM     73  F   UNL     1       3.833 -11.325 -16.624  1.00  0.00    -0.203 F 
ATOM     74  F   UNL     1       0.526 -13.022 -12.630  1.00  0.00    -0.200 F 
ATOM     75  C   UNL     1       2.005 -13.521 -14.402  1.00  0.00     0.200 A 
ATOM     76  F   UNL     1       3.502 -13.970 -16.172  1.00  0.00    -0.200 F 
ATOM     77  F   UNL     1       1.874 -14.833 -14.161  1.00  0.00    -0.200 F 
ENDBRANCH  53  67
BRANCH  54  78
ATOM     78  C   UNL     1       3.759  -1.045 -16.472  1.00  0.00     0.064 A 
ATOM     79  C   UNL     1       2.699  -0.143 -16.645  1.00  0.00     0.173 A 
ATOM     80  C   UNL     1       5.063  -0.547 -16.610  1.00  0.00     0.173 A 
ATOM     81  F   UNL     1       1.432  -0.574 -16.559  1.00  0.00    -0.203 F 
ATOM     82  C   UNL     1       2.934   1.194 -16.963  1.00  0.00     0.198 A 
ATOM     83  C   UNL     1       5.298   0.796 -16.896  1.00  0.00     0.198 A 
ATOM     84  F   UNL     1       6.114  -1.369 -16.468  1.00  0.00    -0.203 F 
ATOM     85  F   UNL     1       1.901   2.020 -17.179  1.00  0.00    -0.200 F 
ATOM     86  C   UNL     1       4.233   1.665 -17.081  1.00  0.00     0.200 A 
ATOM     87  F   UNL     1       6.555   1.247 -17.001  1.00  0.00    -0.200 F 
ATOM     88  F   UNL     1       4.458   2.950 -17.386  1.00  0.00    -0.200 F 
ENDBRANCH  54  78
BRANCH  66  89
ATOM     89  C   UNL     1       0.856  -6.154 -20.238  1.00  0.00     0.064 A 
ATOM     90  C   UNL     1       1.597  -6.007 -21.419  1.00  0.00     0.173 A 
ATOM     91  C   UNL     1      -0.524  -6.386 -20.358  1.00  0.00     0.173 A 
ATOM     92  F   UNL     1       2.917  -5.772 -21.363  1.00  0.00    -0.203 F 
ATOM     93  C   UNL     1       0.979  -6.063 -22.667  1.00  0.00     0.198 A 
ATOM     94  C   UNL     1      -1.133  -6.477 -21.608  1.00  0.00     0.198 A 
ATOM     95  F   UNL     1      -1.282  -6.545 -19.263  1.00  0.00    -0.203 F 
ATOM     96  F   UNL     1       1.700  -5.870 -23.780  1.00  0.00    -0.200 F 
ATOM     97  C   UNL     1      -0.383  -6.307 -22.760  1.00  0.00     0.200 A 
ATOM     98  F   UNL     1      -2.447  -6.731 -21.695  1.00  0.00    -0.200 F 
ATOM     99  F   UNL     1      -0.974  -6.372 -23.962  1.00  0.00    -0.200 F 
ENDBRANCH  66  89
ENDBRANCH  40  41
ENDBRANCH  33  35
ENDBRANCH  32  33
ENDBRANCH  31  32
ENDBRANCH  30  31
ENDBRANCH  29  30
ENDBRANCH  28  29
ENDBRANCH   1  28
TORSDOF 21
