REMARK SMILES CS(=O)(=O)c1ccc(C2=NN(c3ccc(C(=O)OCCOCCOCCOC(=O)c4ccc(-c5c6nc(c(-c7c(F)c(F)c(F)c(F)c7F)c7ccc([nH]7)c(-c7c(F)c(F)c(F)c(F)c7F)c7nc(c(-c8c(F)c(F)c(F)c(F)c8F)c8ccc5[nH]8)C=C7)C=C6)cc4)cc3)[C@H](c3ccccc3)C2)cc1
REMARK SMILES IDX 22 1 21 2 20 3 19 4 18 5 16 6 17 7 15 8 12 9 13 10 94 11
REMARK SMILES IDX 14 12 93 13 11 14 9 15 10 16 102 17 95 18 8 19 5 20 6 21
REMARK SMILES IDX 104 22 7 23 103 24 2 25 1 26 3 27 4 28 96 29 97 30 101 31
REMARK SMILES IDX 98 32 100 33 99 34 23 35 24 36 25 37 26 38 27 39 28 40 29 41
REMARK SMILES IDX 30 42 31 43 92 44 32 45 91 46 33 47 34 48 35 49 85 50 36 51
REMARK SMILES IDX 90 52 84 53 86 54 37 55 89 56 83 57 82 58 38 60 70 61 50 62
REMARK SMILES IDX 69 63 51 64 54 65 68 66 87 67 52 68 53 69 67 71 88 72 55 73
REMARK SMILES IDX 39 74 40 75 48 76 41 77 42 78 46 79 49 80 43 81 44 82 47 83
REMARK SMILES IDX 45 84 71 85 72 86 80 87 73 88 74 89 78 90 81 91 75 92 76 93
REMARK SMILES IDX 79 94 77 95 56 96 57 97 65 98 58 99 59 100 63 101 66 102
REMARK SMILES IDX 60 103 61 104 64 105 62 106
REMARK H PARENT 86 59 54 70
REMARK Flexibility Score: inf
ROOT
ATOM      1  C   UNL     1       7.721  10.582  -7.587  1.00  0.00     0.188 C 
ENDROOT
BRANCH   1   2
ATOM      2  O   UNL     1       8.364  11.720  -8.134  1.00  0.00    -0.376 OA
BRANCH   2   3
ATOM      3  C   UNL     1       8.862  12.739  -7.282  1.00  0.00     0.202 C 
BRANCH   3   4
ATOM      4  C   UNL     1       8.048  13.269  -6.092  1.00  0.00     0.261 C 
BRANCH   4   5
ATOM      5  O   UNL     1       7.472  12.259  -5.254  1.00  0.00    -0.460 OA
BRANCH   5   6
ATOM      6  C   UNL     1       6.118  12.194  -5.260  1.00  0.00     0.338 C 
ATOM      7  O   UNL     1       5.356  12.940  -5.855  1.00  0.00    -0.246 OA
BRANCH   6   8
ATOM      8  C   UNL     1       5.651  10.977  -4.551  1.00  0.00     0.060 A 
ATOM      9  C   UNL     1       4.560   8.805  -3.145  1.00  0.00     0.060 A 
ATOM     10  C   UNL     1       3.926   9.288  -4.294  1.00  0.00     0.029 A 
ATOM     11  C   UNL     1       5.814   9.330  -2.796  1.00  0.00     0.029 A 
ATOM     12  C   UNL     1       4.464  10.374  -4.991  1.00  0.00     0.018 A 
ATOM     13  C   UNL     1       6.352  10.425  -3.478  1.00  0.00     0.018 A 
BRANCH   9  14
ATOM     14  N   UNL     1       3.892   7.977  -2.235  1.00  0.00    -0.257 N 
ATOM     15  C   UNL     1       2.544   6.375  -1.835  1.00  0.00     0.071 C 
ATOM     16  N   UNL     1       3.565   6.700  -2.569  1.00  0.00    -0.176 NA
ATOM     17  C   UNL     1       1.956   7.478  -0.999  1.00  0.00     0.091 C 
ATOM     18  C   UNL     1       2.950   8.609  -1.289  1.00  0.00     0.144 C 
BRANCH  15  19
ATOM     19  C   UNL     1       1.992   5.007  -1.781  1.00  0.00    -0.002 A 
ATOM     20  C   UNL     1       1.031   2.395  -1.616  1.00  0.00     0.067 A 
ATOM     21  C   UNL     1       2.409   2.620  -1.683  1.00  0.00     0.021 A 
ATOM     22  C   UNL     1       0.130   3.465  -1.644  1.00  0.00     0.021 A 
ATOM     23  C   UNL     1       2.887   3.930  -1.769  1.00  0.00     0.011 A 
ATOM     24  C   UNL     1       0.613   4.777  -1.716  1.00  0.00     0.011 A 
BRANCH  20  25
ATOM     25  S   UNL     1       0.427   0.721  -1.563  1.00  0.00     0.175 S 
ATOM     26  C   UNL     1       1.013   0.088  -0.013  1.00  0.00     0.163 C 
ATOM     27  O   UNL     1       1.093   0.001  -2.630  1.00  0.00    -0.224 OA
ATOM     28  O   UNL     1      -1.021   0.780  -1.488  1.00  0.00    -0.224 OA
ENDBRANCH  20  25
ENDBRANCH  15  19
BRANCH  18  29
ATOM     29  C   UNL     1       3.698   9.235  -0.117  1.00  0.00    -0.023 A 
ATOM     30  C   UNL     1       3.919   8.589   1.106  1.00  0.00     0.006 A 
ATOM     31  C   UNL     1       4.280  10.508  -0.298  1.00  0.00     0.006 A 
ATOM     32  C   UNL     1       4.708   9.186   2.098  1.00  0.00     0.000 A 
ATOM     33  C   UNL     1       5.109  11.078   0.668  1.00  0.00     0.000 A 
ATOM     34  C   UNL     1       5.320  10.416   1.871  1.00  0.00     0.000 A 
ENDBRANCH  18  29
ENDBRANCH   9  14
ENDBRANCH   6   8
ENDBRANCH   5   6
ENDBRANCH   4   5
ENDBRANCH   3   4
ENDBRANCH   2   3
ENDBRANCH   1   2
BRANCH   1  35
ATOM     35  C   UNL     1       8.412   9.735  -6.498  1.00  0.00     0.188 C 
BRANCH  35  36
ATOM     36  O   UNL     1       9.622  10.217  -5.969  1.00  0.00    -0.376 OA
BRANCH  36  37
ATOM     37  C   UNL     1      10.847   9.981  -6.641  1.00  0.00     0.202 C 
BRANCH  37  38
ATOM     38  C   UNL     1      11.033   9.187  -7.950  1.00  0.00     0.261 C 
BRANCH  38  39
ATOM     39  O   UNL     1       9.874   8.834  -8.707  1.00  0.00    -0.460 OA
BRANCH  39  40
ATOM     40  C   UNL     1       9.495   7.537  -8.633  1.00  0.00     0.338 C 
ATOM     41  O   UNL     1      10.008   6.646  -7.968  1.00  0.00    -0.246 OA
BRANCH  40  42
ATOM     42  C   UNL     1       8.233   7.372  -9.372  1.00  0.00     0.060 A 
ATOM     43  C   UNL     1       7.056   7.097  -8.662  1.00  0.00     0.016 A 
ATOM     44  C   UNL     1       8.222   7.459 -10.764  1.00  0.00     0.016 A 
ATOM     45  C   UNL     1       5.859   6.893  -9.350  1.00  0.00     0.010 A 
ATOM     46  C   UNL     1       7.028   7.231 -11.451  1.00  0.00     0.010 A 
ATOM     47  C   UNL     1       5.848   6.922 -10.750  1.00  0.00    -0.014 A 
BRANCH  47  48
ATOM     48  C   UNL     1       4.657   6.456 -11.500  1.00  0.00     0.031 A 
ATOM     49  C   UNL     1       4.651   5.049 -12.027  1.00  0.00     0.074 A 
ATOM     50  C   UNL     1       3.611   7.269 -11.727  1.00  0.00     0.049 A 
ATOM     51  N   UNL     1       3.787   4.454 -12.808  1.00  0.00    -0.248 NA
ATOM     52  C   UNL     1       5.784   4.200 -11.623  1.00  0.00     0.031 C 
ATOM     53  C   UNL     1       3.478   8.636 -11.232  1.00  0.00     0.029 A 
ATOM     54  N   UNL     1       2.467   7.060 -12.458  1.00  0.00    -0.354 N 
ATOM     55  C   UNL     1       4.277   3.169 -13.000  1.00  0.00     0.074 A 
ATOM     56  C   UNL     1       5.527   3.078 -12.277  1.00  0.00     0.031 C 
ATOM     57  C   UNL     1       2.326   9.154 -11.693  1.00  0.00     0.029 A 
ATOM     58  C   UNL     1       1.663   8.169 -12.547  1.00  0.00     0.049 A 
ATOM     59  H   UNL     1       2.244   6.198 -12.878  1.00  0.00     0.167 HD
ATOM     60  C   UNL     1       3.730   2.156 -13.712  1.00  0.00     0.037 A 
ATOM     61  C   UNL     1       0.540   8.373 -13.264  1.00  0.00     0.037 A 
ATOM     62  C   UNL     1       2.487   2.253 -14.431  1.00  0.00     0.049 A 
ATOM     63  C   UNL     1      -0.008   7.254 -14.116  1.00  0.00     0.074 A 
ATOM     64  C   UNL     1       1.838   1.277 -15.166  1.00  0.00     0.029 A 
ATOM     65  N   UNL     1       1.710   3.399 -14.512  1.00  0.00    -0.354 N 
ATOM     66  N   UNL     1       0.445   6.034 -14.277  1.00  0.00    -0.248 NA
ATOM     67  C   UNL     1      -1.227   7.542 -14.887  1.00  0.00     0.031 C 
ATOM     68  C   UNL     1       0.701   1.849 -15.743  1.00  0.00     0.029 A 
ATOM     69  C   UNL     1       0.603   3.162 -15.311  1.00  0.00     0.049 A 
ATOM     70  H   UNL     1       1.914   4.253 -14.068  1.00  0.00     0.167 HD
ATOM     71  C   UNL     1      -0.449   5.401 -15.133  1.00  0.00     0.074 A 
ATOM     72  C   UNL     1      -1.476   6.369 -15.453  1.00  0.00     0.031 C 
ATOM     73  C   UNL     1      -0.422   4.131 -15.607  1.00  0.00     0.037 A 
BRANCH  60  74
ATOM     74  C   UNL     1       4.492   0.865 -13.780  1.00  0.00     0.064 A 
ATOM     75  C   UNL     1       4.629   0.026 -12.663  1.00  0.00     0.173 A 
ATOM     76  C   UNL     1       5.067   0.445 -14.989  1.00  0.00     0.173 A 
ATOM     77  F   UNL     1       4.111   0.387 -11.479  1.00  0.00    -0.203 F 
ATOM     78  C   UNL     1       5.336  -1.171 -12.749  1.00  0.00     0.198 A 
ATOM     79  C   UNL     1       5.744  -0.768 -15.079  1.00  0.00     0.198 A 
ATOM     80  F   UNL     1       4.963   1.207 -16.088  1.00  0.00    -0.203 F 
ATOM     81  F   UNL     1       5.497  -1.932 -11.658  1.00  0.00    -0.200 F 
ATOM     82  C   UNL     1       5.885  -1.571 -13.958  1.00  0.00     0.200 A 
ATOM     83  F   UNL     1       6.261  -1.159 -16.252  1.00  0.00    -0.200 F 
ATOM     84  F   UNL     1       6.557  -2.727 -14.041  1.00  0.00    -0.200 F 
ENDBRANCH  60  74
BRANCH  61  85
ATOM     85  C   UNL     1      -0.138   9.696 -13.228  1.00  0.00     0.064 A 
ATOM     86  C   UNL     1      -1.408   9.843 -12.654  1.00  0.00     0.173 A 
ATOM     87  C   UNL     1       0.458  10.835 -13.791  1.00  0.00     0.173 A 
ATOM     88  F   UNL     1      -2.033   8.779 -12.128  1.00  0.00    -0.203 F 
ATOM     89  C   UNL     1      -2.065  11.072 -12.663  1.00  0.00     0.198 A 
ATOM     90  C   UNL     1      -0.187  12.070 -13.771  1.00  0.00     0.198 A 
ATOM     91  F   UNL     1       1.669  10.749 -14.359  1.00  0.00    -0.203 F 
ATOM     92  F   UNL     1      -3.302  11.172 -12.156  1.00  0.00    -0.200 F 
ATOM     93  C   UNL     1      -1.452  12.186 -13.216  1.00  0.00     0.200 A 
ATOM     94  F   UNL     1       0.414  13.146 -14.299  1.00  0.00    -0.200 F 
ATOM     95  F   UNL     1      -2.084  13.367 -13.224  1.00  0.00    -0.200 F 
ENDBRANCH  61  85
BRANCH  73  96
ATOM     96  C   UNL     1      -1.563   3.687 -16.481  1.00  0.00     0.064 A 
ATOM     97  C   UNL     1      -1.720   4.157 -17.792  1.00  0.00     0.173 A 
ATOM     98  C   UNL     1      -2.476   2.727 -16.015  1.00  0.00     0.173 A 
ATOM     99  F   UNL     1      -0.883   5.084 -18.283  1.00  0.00    -0.203 F 
ATOM    100  C   UNL     1      -2.761   3.699 -18.597  1.00  0.00     0.198 A 
ATOM    101  C   UNL     1      -3.494   2.247 -16.833  1.00  0.00     0.198 A 
ATOM    102  F   UNL     1      -2.366   2.237 -14.771  1.00  0.00    -0.203 F 
ATOM    103  F   UNL     1      -2.918   4.194 -19.832  1.00  0.00    -0.200 F 
ATOM    104  C   UNL     1      -3.640   2.738 -18.121  1.00  0.00     0.200 A 
ATOM    105  F   UNL     1      -4.331   1.305 -16.376  1.00  0.00    -0.200 F 
ATOM    106  F   UNL     1      -4.631   2.288 -18.902  1.00  0.00    -0.200 F 
ENDBRANCH  73  96
ENDBRANCH  47  48
ENDBRANCH  40  42
ENDBRANCH  39  40
ENDBRANCH  38  39
ENDBRANCH  37  38
ENDBRANCH  36  37
ENDBRANCH  35  36
ENDBRANCH   1  35
TORSDOF 21
