REMARK SMILES CCN1C(=O)/C(=C/c2ccccc2O[C@H](C)C(=O)OCCOCCOCCOC(=O)c2ccc(-c3c4nc(c(-c5c(F)c(F)c(F)c(F)c5F)c5ccc([nH]5)c(-c5c(F)c(F)c(F)c(F)c5F)c5nc(c(-c6c(F)c(F)c(F)c(F)c6F)c6ccc3[nH]6)C=C5)C=C4)cc2)S/C1=[NH+]\c1ccc(C)cc1O
REMARK SMILES IDX 22 1 21 2 20 3 19 4 17 5 18 6 15 7 16 8 14 9 13 10 8 11 9 12
REMARK SMILES IDX 10 13 12 14 11 15 7 16 3 17 4 18 95 19 5 20 6 21 94 22 96 23
REMARK SMILES IDX 2 25 1 26 97 27 98 28 103 29 99 30 102 31 100 32 101 33
REMARK SMILES IDX 104 34 23 36 24 37 25 38 26 39 27 40 28 41 29 42 30 43 31 44
REMARK SMILES IDX 32 45 93 46 33 47 92 48 34 49 35 50 36 51 86 52 37 53 91 54
REMARK SMILES IDX 85 55 87 56 38 57 90 58 84 59 83 60 39 62 71 63 51 64 70 65
REMARK SMILES IDX 52 66 55 67 69 68 88 69 53 70 54 71 68 73 89 74 56 75 40 76
REMARK SMILES IDX 41 77 49 78 42 79 43 80 47 81 50 82 44 83 45 84 48 85 46 86
REMARK SMILES IDX 72 87 73 88 81 89 74 90 75 91 79 92 82 93 76 94 77 95 80 96
REMARK SMILES IDX 78 97 57 98 58 99 66 100 59 101 60 102 64 103 67 104 61 105
REMARK SMILES IDX 62 106 65 107 63 108
REMARK H PARENT 96 24 104 35 87 61 55 72
REMARK Flexibility Score: inf
ROOT
ATOM      1  O   UNL     1      -2.178  -6.405   2.201  1.00  0.00    -0.376 OA
ENDROOT
BRANCH   1   2
ATOM      2  C   UNL     1      -0.906  -7.060   2.172  1.00  0.00     0.202 C 
BRANCH   2   3
ATOM      3  C   UNL     1       0.330  -6.144   2.191  1.00  0.00     0.261 C 
BRANCH   3   4
ATOM      4  O   UNL     1       0.434  -5.402   3.422  1.00  0.00    -0.461 OA
BRANCH   4   5
ATOM      5  C   UNL     1       0.712  -4.066   3.311  1.00  0.00     0.347 C 
ATOM      6  O   UNL     1       1.056  -3.526   2.267  1.00  0.00    -0.248 OA
BRANCH   5   7
ATOM      7  C   UNL     1       0.326  -3.312   4.606  1.00  0.00     0.279 C 
ATOM      8  C   UNL     1       0.552  -4.110   5.891  1.00  0.00     0.066 C 
BRANCH   7   9
ATOM      9  O   UNL     1       0.722  -1.937   4.644  1.00  0.00    -0.478 OA
BRANCH   9  10
ATOM     10  C   UNL     1       1.905  -1.649   5.264  1.00  0.00     0.127 A 
ATOM     11  C   UNL     1       3.095  -1.452   4.547  1.00  0.00     0.018 A 
ATOM     12  C   UNL     1       4.266  -1.162   5.267  1.00  0.00     0.012 A 
ATOM     13  C   UNL     1       4.232  -0.997   6.655  1.00  0.00     0.001 A 
ATOM     14  C   UNL     1       1.861  -1.401   6.641  1.00  0.00     0.047 A 
ATOM     15  C   UNL     1       3.025  -1.094   7.340  1.00  0.00     0.004 A 
BRANCH  11  16
ATOM     16  C   UNL     1       3.200  -1.500   3.078  1.00  0.00     0.036 C 
ATOM     17  N   UNL     1       1.741  -0.066   0.075  1.00  0.00    -0.186 N 
ATOM     18  C   UNL     1       2.648  -0.886   0.735  1.00  0.00     0.348 C 
ATOM     19  C   UNL     1       0.884   0.651   0.876  1.00  0.00     0.324 C 
ATOM     20  O   UNL     1       3.500  -1.590   0.203  1.00  0.00    -0.240 OA
ATOM     21  C   UNL     1       2.469  -0.786   2.208  1.00  0.00     0.110 C 
ATOM     22  S   UNL     1       1.225   0.337   2.559  1.00  0.00     0.007 SA
ATOM     23  N   UNL     1      -0.012   1.465   0.420  1.00  0.00    -0.231 N 
ATOM     24  H   UNL     1      -0.052   1.639  -0.548  1.00  0.00     0.313 HD
BRANCH  17  25
ATOM     25  C   UNL     1       1.686  -0.161  -1.383  1.00  0.00     0.244 C 
ATOM     26  C   UNL     1       1.042   0.977  -2.159  1.00  0.00     0.055 C 
ENDBRANCH  17  25
BRANCH  23  27
ATOM     27  C   UNL     1      -0.934   2.110   1.270  1.00  0.00     0.167 A 
ATOM     28  C   UNL     1      -2.286   1.775   1.154  1.00  0.00     0.056 A 
ATOM     29  C   UNL     1      -0.581   3.114   2.185  1.00  0.00     0.162 A 
ATOM     30  C   UNL     1      -3.247   2.374   1.975  1.00  0.00     0.008 A 
ATOM     31  C   UNL     1      -1.525   3.691   3.033  1.00  0.00     0.054 A 
ATOM     32  C   UNL     1      -2.869   3.314   2.942  1.00  0.00    -0.047 A 
ATOM     33  C   UNL     1      -3.903   3.943   3.828  1.00  0.00     0.044 C 
BRANCH  29  34
ATOM     34  O   UNL     1       0.706   3.572   2.281  1.00  0.00    -0.504 OA
ATOM     35  H   UNL     1       1.374   3.213   1.731  1.00  0.00     0.293 HD
ENDBRANCH  29  34
ENDBRANCH  23  27
ENDBRANCH  11  16
ENDBRANCH   9  10
ENDBRANCH   7   9
ENDBRANCH   5   7
ENDBRANCH   4   5
ENDBRANCH   3   4
ENDBRANCH   2   3
ENDBRANCH   1   2
BRANCH   1  36
ATOM     36  C   UNL     1      -2.455  -5.602   3.341  1.00  0.00     0.188 C 
BRANCH  36  37
ATOM     37  C   UNL     1      -2.545  -6.327   4.687  1.00  0.00     0.188 C 
BRANCH  37  38
ATOM     38  O   UNL     1      -1.480  -7.225   4.972  1.00  0.00    -0.376 OA
BRANCH  38  39
ATOM     39  C   UNL     1      -1.478  -7.783   6.293  1.00  0.00     0.202 C 
BRANCH  39  40
ATOM     40  C   UNL     1      -2.744  -8.569   6.689  1.00  0.00     0.261 C 
BRANCH  40  41
ATOM     41  O   UNL     1      -3.949  -7.778   6.733  1.00  0.00    -0.460 OA
BRANCH  41  42
ATOM     42  C   UNL     1      -3.942  -6.682   7.531  1.00  0.00     0.338 C 
ATOM     43  O   UNL     1      -3.126  -6.410   8.386  1.00  0.00    -0.246 OA
BRANCH  42  44
ATOM     44  C   UNL     1      -4.956  -5.725   7.009  1.00  0.00     0.060 A 
ATOM     45  C   UNL     1      -4.645  -4.358   7.028  1.00  0.00     0.016 A 
ATOM     46  C   UNL     1      -6.163  -6.156   6.449  1.00  0.00     0.016 A 
ATOM     47  C   UNL     1      -5.555  -3.420   6.534  1.00  0.00     0.010 A 
ATOM     48  C   UNL     1      -7.077  -5.217   5.960  1.00  0.00     0.010 A 
ATOM     49  C   UNL     1      -6.794  -3.842   6.034  1.00  0.00    -0.014 A 
BRANCH  49  50
ATOM     50  C   UNL     1      -7.873  -2.852   5.788  1.00  0.00     0.031 A 
ATOM     51  C   UNL     1      -8.904  -2.643   6.864  1.00  0.00     0.074 A 
ATOM     52  C   UNL     1      -7.944  -2.140   4.649  1.00  0.00     0.049 A 
ATOM     53  N   UNL     1      -9.963  -1.874   6.869  1.00  0.00    -0.248 NA
ATOM     54  C   UNL     1      -8.713  -3.414   8.102  1.00  0.00     0.031 C 
ATOM     55  C   UNL     1      -6.997  -2.214   3.541  1.00  0.00     0.029 A 
ATOM     56  N   UNL     1      -8.875  -1.215   4.239  1.00  0.00    -0.354 N 
ATOM     57  C   UNL     1     -10.565  -2.073   8.105  1.00  0.00     0.074 A 
ATOM     58  C   UNL     1      -9.774  -3.060   8.809  1.00  0.00     0.031 C 
ATOM     59  C   UNL     1      -7.402  -1.379   2.567  1.00  0.00     0.029 A 
ATOM     60  C   UNL     1      -8.652  -0.734   2.973  1.00  0.00     0.049 A 
ATOM     61  H   UNL     1      -9.630  -0.926   4.800  1.00  0.00     0.167 HD
ATOM     62  C   UNL     1     -11.670  -1.481   8.615  1.00  0.00     0.037 A 
ATOM     63  C   UNL     1      -9.386   0.112   2.221  1.00  0.00     0.037 A 
ATOM     64  C   UNL     1     -12.463  -0.503   7.921  1.00  0.00     0.049 A 
ATOM     65  C   UNL     1     -10.658   0.701   2.779  1.00  0.00     0.074 A 
ATOM     66  C   UNL     1     -13.587   0.170   8.367  1.00  0.00     0.029 A 
ATOM     67  N   UNL     1     -12.224  -0.067   6.626  1.00  0.00    -0.354 N 
ATOM     68  N   UNL     1     -11.202   0.535   3.960  1.00  0.00    -0.248 NA
ATOM     69  C   UNL     1     -11.417   1.600   1.895  1.00  0.00     0.031 C 
ATOM     70  C   UNL     1     -14.061   0.971   7.323  1.00  0.00     0.029 A 
ATOM     71  C   UNL     1     -13.198   0.844   6.247  1.00  0.00     0.049 A 
ATOM     72  H   UNL     1     -11.473  -0.360   6.061  1.00  0.00     0.167 HD
ATOM     73  C   UNL     1     -12.345   1.327   3.972  1.00  0.00     0.074 A 
ATOM     74  C   UNL     1     -12.412   1.982   2.683  1.00  0.00     0.031 C 
ATOM     75  C   UNL     1     -13.255   1.497   4.963  1.00  0.00     0.037 A 
BRANCH  62  76
ATOM     76  C   UNL     1     -12.103  -1.906   9.987  1.00  0.00     0.064 A 
ATOM     77  C   UNL     1     -11.371  -1.559  11.133  1.00  0.00     0.173 A 
ATOM     78  C   UNL     1     -13.272  -2.663  10.157  1.00  0.00     0.173 A 
ATOM     79  F   UNL     1     -10.236  -0.853  11.021  1.00  0.00    -0.203 F 
ATOM     80  C   UNL     1     -11.777  -1.983  12.396  1.00  0.00     0.198 A 
ATOM     81  C   UNL     1     -13.691  -3.058  11.424  1.00  0.00     0.198 A 
ATOM     82  F   UNL     1     -14.008  -3.019   9.094  1.00  0.00    -0.203 F 
ATOM     83  F   UNL     1     -11.031  -1.690  13.470  1.00  0.00    -0.200 F 
ATOM     84  C   UNL     1     -12.939  -2.726  12.541  1.00  0.00     0.200 A 
ATOM     85  F   UNL     1     -14.820  -3.766  11.564  1.00  0.00    -0.200 F 
ATOM     86  F   UNL     1     -13.328  -3.132  13.757  1.00  0.00    -0.200 F 
ENDBRANCH  62  76
BRANCH  63  87
ATOM     87  C   UNL     1      -8.944   0.449   0.842  1.00  0.00     0.064 A 
ATOM     88  C   UNL     1      -8.493   1.736   0.520  1.00  0.00     0.173 A 
ATOM     89  C   UNL     1      -8.987  -0.504  -0.187  1.00  0.00     0.173 A 
ATOM     90  F   UNL     1      -8.462   2.690   1.462  1.00  0.00    -0.203 F 
ATOM     91  C   UNL     1      -8.117   2.062  -0.782  1.00  0.00     0.198 A 
ATOM     92  C   UNL     1      -8.584  -0.185  -1.482  1.00  0.00     0.198 A 
ATOM     93  F   UNL     1      -9.419  -1.748   0.068  1.00  0.00    -0.203 F 
ATOM     94  F   UNL     1      -7.734   3.313  -1.073  1.00  0.00    -0.200 F 
ATOM     95  C   UNL     1      -8.156   1.100  -1.780  1.00  0.00     0.200 A 
ATOM     96  F   UNL     1      -8.616  -1.120  -2.441  1.00  0.00    -0.200 F 
ATOM     97  F   UNL     1      -7.791   1.413  -3.030  1.00  0.00    -0.200 F 
ENDBRANCH  63  87
BRANCH  75  98
ATOM     98  C   UNL     1     -14.386   2.456   4.718  1.00  0.00     0.064 A 
ATOM     99  C   UNL     1     -15.433   2.155   3.835  1.00  0.00     0.173 A 
ATOM    100  C   UNL     1     -14.450   3.671   5.419  1.00  0.00     0.173 A 
ATOM    101  F   UNL     1     -15.415   1.013   3.131  1.00  0.00    -0.203 F 
ATOM    102  C   UNL     1     -16.489   3.044   3.645  1.00  0.00     0.198 A 
ATOM    103  C   UNL     1     -15.523   4.543   5.250  1.00  0.00     0.198 A 
ATOM    104  F   UNL     1     -13.480   4.005   6.284  1.00  0.00    -0.203 F 
ATOM    105  F   UNL     1     -17.456   2.754   2.763  1.00  0.00    -0.200 F 
ATOM    106  C   UNL     1     -16.537   4.232   4.359  1.00  0.00     0.200 A 
ATOM    107  F   UNL     1     -15.575   5.683   5.953  1.00  0.00    -0.200 F 
ATOM    108  F   UNL     1     -17.559   5.081   4.183  1.00  0.00    -0.200 F 
ENDBRANCH  75  98
ENDBRANCH  49  50
ENDBRANCH  42  44
ENDBRANCH  41  42
ENDBRANCH  40  41
ENDBRANCH  39  40
ENDBRANCH  38  39
ENDBRANCH  37  38
ENDBRANCH  36  37
ENDBRANCH   1  36
TORSDOF 23
