REMARK SMILES O=C(/C=C/[C@@]12C=C(O)C(=O)C=C1C(=O)C1=Cc3cc(O)c(O)cc3O[C@@H](c3ccc(O)c(O)c3)[C@@H]12)OCCOCCOCCOC(=O)c1ccc(-c2c3nc(c(-c4c(F)c(F)c(F)c(F)c4F)c4ccc([nH]4)c(-c4c(F)c(F)c(F)c(F)c4F)c4nc(c(-c5c(F)c(F)c(F)c(F)c5F)c5ccc2[nH]5)C=C4)C=C3)cc1
REMARK SMILES IDX 38 1 37 2 36 3 2 4 1 5 3 6 4 7 5 8 6 9 12 10 35 11 7 12
REMARK SMILES IDX 11 13 13 14 15 15 9 17 14 18 16 19 10 20 8 21 17 23 18 24
REMARK SMILES IDX 24 25 19 26 23 27 21 28 25 29 26 30 27 32 28 33 34 34 29 35
REMARK SMILES IDX 32 36 30 37 33 38 31 40 20 42 22 44 39 46 40 47 41 48 42 49
REMARK SMILES IDX 43 50 44 51 45 52 46 53 47 54 48 55 49 56 110 57 50 58
REMARK SMILES IDX 109 59 51 60 52 61 53 62 103 63 54 64 108 65 102 66 104 67
REMARK SMILES IDX 55 68 107 69 101 70 100 71 56 73 88 74 68 75 87 76 69 77
REMARK SMILES IDX 72 78 86 79 105 80 70 81 71 82 85 84 106 85 73 86 57 87
REMARK SMILES IDX 58 88 66 89 59 90 60 91 64 92 67 93 61 94 62 95 65 96 63 97
REMARK SMILES IDX 89 98 90 99 98 100 91 101 92 102 96 103 99 104 93 105 94 106
REMARK SMILES IDX 97 107 95 108 74 109 75 110 83 111 76 112 77 113 81 114
REMARK SMILES IDX 84 115 78 116 79 117 82 118 80 119
REMARK H PARENT 8 22 33 39 31 41 20 43 22 45 104 72 72 83
REMARK Flexibility Score: 80.00
ROOT
ATOM      1  C   UNL     1       4.930   1.125  -0.884  1.00  0.00     0.202 C 
ENDROOT
BRANCH   1   2
ATOM      2  C   UNL     1       4.370   0.099  -1.878  1.00  0.00     0.261 C 
BRANCH   2   3
ATOM      3  O   UNL     1       3.164  -0.643  -1.648  1.00  0.00    -0.460 OA
BRANCH   3   4
ATOM      4  C   UNL     1       2.818  -1.481  -0.657  1.00  0.00     0.330 C 
ATOM      5  O   UNL     1       1.835  -2.209  -0.764  1.00  0.00    -0.247 OA
BRANCH   4   6
ATOM      6  C   UNL     1       3.439  -1.339   0.666  1.00  0.00     0.090 C 
ATOM      7  C   UNL     1       4.739  -1.194   0.985  1.00  0.00    -0.003 C 
BRANCH   7   8
ATOM      8  C   UNL     1       5.292  -1.162   2.429  1.00  0.00     0.051 C 
ATOM      9  C   UNL     1       4.286  -0.530   3.317  1.00  0.00     0.040 C 
ATOM     10  C   UNL     1       5.545  -2.616   2.710  1.00  0.00     0.018 C 
ATOM     11  C   UNL     1       6.719  -0.576   2.698  1.00  0.00     0.087 CG0
ATOM     12  C   UNL     1       3.521  -1.260   4.122  1.00  0.00     0.160 C 
ATOM     13  C   UNL     1       4.772  -3.400   3.470  1.00  0.00     0.065 C 
ATOM     14  C   UNL     1       6.829  -2.900   2.001  1.00  0.00     0.186 C 
ATOM     15  C   UNL     1       7.546  -1.583   1.928  1.00  0.00     0.009 C 
ATOM     16  G   UNL     1       7.314  -0.631   4.171  1.00  0.00     0.000 G0
ATOM     17  C   UNL     1       3.640  -2.755   4.193  1.00  0.00     0.220 C 
ATOM     18  O   UNL     1       7.207  -3.973   1.572  1.00  0.00    -0.289 OA
ATOM     19  C   UNL     1       8.761  -1.317   1.436  1.00  0.00     0.020 C 
ATOM     20  O   UNL     1       2.864  -3.386   4.902  1.00  0.00    -0.286 OA
BRANCH  12  21
ATOM     21  O   UNL     1       2.699  -0.616   5.000  1.00  0.00    -0.504 OA
ATOM     22  H   UNL     1       2.616   0.317   4.966  1.00  0.00     0.293 HD
ENDBRANCH  12  21
BRANCH  19  23
ATOM     23  C   UNL     1       9.455  -0.113   1.942  1.00  0.00     0.021 A 
ATOM     24  C   UNL     1      10.220   0.704   1.094  1.00  0.00     0.062 A 
ATOM     25  C   UNL     1       9.468   0.147   3.333  1.00  0.00     0.131 A 
ATOM     26  C   UNL     1      11.013   1.714   1.647  1.00  0.00     0.158 A 
ATOM     27  C   UNL     1      10.328   1.103   3.874  1.00  0.00     0.097 A 
ATOM     28  C   UNL     1      11.080   1.893   3.026  1.00  0.00     0.161 A 
BRANCH  25  29
ATOM     29  O   UNL     1       8.771  -0.589   4.255  1.00  0.00    -0.484 OA
BRANCH  29  30
ATOM     30  C   UNL     1       7.314  -0.631   4.171  1.00  0.00     0.213 CG0
ATOM     31  G   UNL     1       6.719  -0.576   2.698  1.00  0.00     0.000 G0
BRANCH  30  32
ATOM     32  C   UNL     1       6.747   0.269   5.271  1.00  0.00    -0.003 A 
ATOM     33  C   UNL     1       5.755  -0.228   6.139  1.00  0.00     0.011 A 
ATOM     34  C   UNL     1       7.254   1.546   5.551  1.00  0.00     0.057 A 
ATOM     35  C   UNL     1       5.205   0.547   7.167  1.00  0.00     0.050 A 
ATOM     36  C   UNL     1       6.776   2.281   6.642  1.00  0.00     0.157 A 
ATOM     37  C   UNL     1       5.726   1.805   7.420  1.00  0.00     0.157 A 
BRANCH  36  38
ATOM     38  O   UNL     1       7.363   3.475   6.956  1.00  0.00    -0.504 OA
ATOM     39  H   UNL     1       7.049   3.974   7.684  1.00  0.00     0.293 HD
ENDBRANCH  36  38
BRANCH  37  40
ATOM     40  O   UNL     1       5.223   2.574   8.431  1.00  0.00    -0.504 OA
ATOM     41  H   UNL     1       4.516   2.253   8.956  1.00  0.00     0.293 HD
ENDBRANCH  37  40
ENDBRANCH  30  32
ENDBRANCH  29  30
ENDBRANCH  25  29
BRANCH  26  42
ATOM     42  O   UNL     1      11.782   2.546   0.879  1.00  0.00    -0.504 OA
ATOM     43  H   UNL     1      11.771   2.466  -0.054  1.00  0.00     0.293 HD
ENDBRANCH  26  42
BRANCH  28  44
ATOM     44  O   UNL     1      11.895   2.843   3.568  1.00  0.00    -0.504 OA
ATOM     45  H   UNL     1      12.414   3.389   3.009  1.00  0.00     0.293 HD
ENDBRANCH  28  44
ENDBRANCH  19  23
ENDBRANCH   7   8
ENDBRANCH   4   6
ENDBRANCH   3   4
ENDBRANCH   2   3
ENDBRANCH   1   2
BRANCH   1  46
ATOM     46  O   UNL     1       4.203   1.721   0.176  1.00  0.00    -0.376 OA
BRANCH  46  47
ATOM     47  C   UNL     1       2.793   1.740   0.216  1.00  0.00     0.188 C 
BRANCH  47  48
ATOM     48  C   UNL     1       2.014   2.936  -0.338  1.00  0.00     0.188 C 
BRANCH  48  49
ATOM     49  O   UNL     1       2.630   3.869  -1.196  1.00  0.00    -0.376 OA
BRANCH  49  50
ATOM     50  C   UNL     1       3.899   4.396  -0.859  1.00  0.00     0.202 C 
BRANCH  50  51
ATOM     51  C   UNL     1       4.197   4.974   0.534  1.00  0.00     0.261 C 
BRANCH  51  52
ATOM     52  O   UNL     1       3.795   4.188   1.669  1.00  0.00    -0.460 OA
BRANCH  52  53
ATOM     53  C   UNL     1       2.707   4.652   2.332  1.00  0.00     0.338 C 
ATOM     54  O   UNL     1       1.996   5.590   2.011  1.00  0.00    -0.246 OA
BRANCH  53  55
ATOM     55  C   UNL     1       2.407   3.799   3.499  1.00  0.00     0.060 A 
ATOM     56  C   UNL     1       3.263   3.794   4.594  1.00  0.00     0.016 A 
ATOM     57  C   UNL     1       1.179   3.128   3.572  1.00  0.00     0.016 A 
ATOM     58  C   UNL     1       2.866   3.138   5.766  1.00  0.00     0.010 A 
ATOM     59  C   UNL     1       0.790   2.472   4.753  1.00  0.00     0.010 A 
ATOM     60  C   UNL     1       1.620   2.480   5.880  1.00  0.00    -0.014 A 
BRANCH  60  61
ATOM     61  C   UNL     1       1.186   1.980   7.222  1.00  0.00     0.031 A 
ATOM     62  C   UNL     1       0.971   0.533   7.557  1.00  0.00     0.074 A 
ATOM     63  C   UNL     1       1.032   2.857   8.233  1.00  0.00     0.049 A 
ATOM     64  N   UNL     1       1.221  -0.076   8.693  1.00  0.00    -0.248 NA
ATOM     65  C   UNL     1       0.445  -0.355   6.518  1.00  0.00     0.031 C 
ATOM     66  C   UNL     1       1.079   4.310   8.100  1.00  0.00     0.029 A 
ATOM     67  N   UNL     1       0.812   2.646   9.573  1.00  0.00    -0.354 N 
ATOM     68  C   UNL     1       1.056  -1.429   8.442  1.00  0.00     0.074 A 
ATOM     69  C   UNL     1       0.596  -1.552   7.079  1.00  0.00     0.031 C 
ATOM     70  C   UNL     1       0.919   4.863   9.311  1.00  0.00     0.029 A 
ATOM     71  C   UNL     1       0.747   3.804  10.304  1.00  0.00     0.049 A 
ATOM     72  H   UNL     1       0.711   1.751   9.969  1.00  0.00     0.167 HD
ATOM     73  C   UNL     1       1.290  -2.472   9.271  1.00  0.00     0.037 A 
ATOM     74  C   UNL     1       0.574   3.997  11.626  1.00  0.00     0.037 A 
ATOM     75  C   UNL     1       1.360  -2.355  10.702  1.00  0.00     0.049 A 
ATOM     76  C   UNL     1       0.516   2.815  12.554  1.00  0.00     0.074 A 
ATOM     77  C   UNL     1       1.494  -3.357  11.647  1.00  0.00     0.029 A 
ATOM     78  N   UNL     1       1.139  -1.177  11.398  1.00  0.00    -0.354 N 
ATOM     79  N   UNL     1       0.715   1.547  12.289  1.00  0.00    -0.248 NA
ATOM     80  C   UNL     1       0.217   3.092  13.966  1.00  0.00     0.031 C 
ATOM     81  C   UNL     1       1.216  -2.806  12.904  1.00  0.00     0.029 A 
ATOM     82  C   UNL     1       1.008  -1.444  12.751  1.00  0.00     0.049 A 
ATOM     83  H   UNL     1       1.083  -0.282  10.991  1.00  0.00     0.167 HD
ATOM     84  C   UNL     1       0.579   0.876  13.500  1.00  0.00     0.074 A 
ATOM     85  C   UNL     1       0.295   1.881  14.503  1.00  0.00     0.031 C 
ATOM     86  C   UNL     1       0.689  -0.453  13.749  1.00  0.00     0.037 A 
BRANCH  73  87
ATOM     87  C   UNL     1       1.432  -3.832   8.658  1.00  0.00     0.064 A 
ATOM     88  C   UNL     1       2.632  -4.197   8.024  1.00  0.00     0.173 A 
ATOM     89  C   UNL     1       0.436  -4.806   8.791  1.00  0.00     0.173 A 
ATOM     90  F   UNL     1       3.622  -3.299   7.884  1.00  0.00    -0.203 F 
ATOM     91  C   UNL     1       2.825  -5.490   7.542  1.00  0.00     0.198 A 
ATOM     92  C   UNL     1       0.635  -6.101   8.318  1.00  0.00     0.198 A 
ATOM     93  F   UNL     1      -0.719  -4.508   9.404  1.00  0.00    -0.203 F 
ATOM     94  F   UNL     1       3.981  -5.821   6.949  1.00  0.00    -0.200 F 
ATOM     95  C   UNL     1       1.827  -6.442   7.695  1.00  0.00     0.200 A 
ATOM     96  F   UNL     1      -0.322  -7.025   8.483  1.00  0.00    -0.200 F 
ATOM     97  F   UNL     1       2.019  -7.693   7.253  1.00  0.00    -0.200 F 
ENDBRANCH  73  87
BRANCH  74  98
ATOM     98  C   UNL     1       0.457   5.388  12.132  1.00  0.00     0.064 A 
ATOM     99  C   UNL     1       1.463   5.967  12.914  1.00  0.00     0.173 A 
ATOM    100  C   UNL     1      -0.647   6.184  11.787  1.00  0.00     0.173 A 
ATOM    101  F   UNL     1       2.524   5.237  13.288  1.00  0.00    -0.203 F 
ATOM    102  C   UNL     1       1.375   7.296  13.323  1.00  0.00     0.198 A 
ATOM    103  C   UNL     1      -0.719   7.520  12.173  1.00  0.00     0.198 A 
ATOM    104  F   UNL     1      -1.638   5.672  11.042  1.00  0.00    -0.203 F 
ATOM    105  F   UNL     1       2.341   7.824  14.087  1.00  0.00    -0.200 F 
ATOM    106  C   UNL     1       0.292   8.074  12.941  1.00  0.00     0.200 A 
ATOM    107  F   UNL     1      -1.760   8.270  11.787  1.00  0.00    -0.200 F 
ATOM    108  F   UNL     1       0.221   9.359  13.316  1.00  0.00    -0.200 F 
ENDBRANCH  74  98
BRANCH  86 109
ATOM    109  C   UNL     1       0.470  -0.932  15.157  1.00  0.00     0.064 A 
ATOM    110  C   UNL     1      -0.805  -0.927  15.742  1.00  0.00     0.173 A 
ATOM    111  C   UNL     1       1.524  -1.498  15.891  1.00  0.00     0.173 A 
ATOM    112  F   UNL     1      -1.846  -0.388  15.089  1.00  0.00    -0.203 F 
ATOM    113  C   UNL     1      -1.015  -1.468  17.009  1.00  0.00     0.198 A 
ATOM    114  C   UNL     1       1.304  -2.066  17.143  1.00  0.00     0.198 A 
ATOM    115  F   UNL     1       2.763  -1.534  15.377  1.00  0.00    -0.203 F 
ATOM    116  F   UNL     1      -2.237  -1.429  17.558  1.00  0.00    -0.200 F 
ATOM    117  C   UNL     1       0.036  -2.049  17.702  1.00  0.00     0.200 A 
ATOM    118  F   UNL     1       2.318  -2.646  17.801  1.00  0.00    -0.200 F 
ATOM    119  F   UNL     1      -0.174  -2.595  18.908  1.00  0.00    -0.200 F 
ENDBRANCH  86 109
ENDBRANCH  60  61
ENDBRANCH  53  55
ENDBRANCH  52  53
ENDBRANCH  51  52
ENDBRANCH  50  51
ENDBRANCH  49  50
ENDBRANCH  48  49
ENDBRANCH  47  48
ENDBRANCH  46  47
ENDBRANCH   1  46
TORSDOF 24
