REMARK SMILES CC[C@](O)(C(=O)OCCOCCOCCOC(=O)c1ccc(-c2c3nc(c(-c4c(F)c(F)c(F)c(F)c4F)c4ccc([nH]4)c(-c4c(F)c(F)c(F)c(F)c4F)c4nc(c(-c5c(F)c(F)c(F)c(F)c5F)c5ccc2[nH]5)C=C4)C=C3)cc1)[C@@H](C)c1ccc(C)s1
REMARK SMILES IDX 11 1 10 2 9 3 8 4 7 5 5 6 6 7 3 8 2 9 1 10 82 11 83 12 84 13
REMARK SMILES IDX 85 14 89 15 86 16 87 17 88 18 4 19 12 21 13 22 14 23 15 24
REMARK SMILES IDX 16 25 17 26 18 27 19 28 20 29 81 30 21 31 80 32 22 33 23 34
REMARK SMILES IDX 24 35 74 36 25 37 79 38 73 39 75 40 26 41 78 42 72 43 71 44
REMARK SMILES IDX 27 46 59 47 39 48 58 49 40 50 43 51 57 52 76 53 41 54 42 55
REMARK SMILES IDX 56 57 77 58 44 59 28 60 29 61 37 62 30 63 31 64 35 65 38 66
REMARK SMILES IDX 32 67 33 68 36 69 34 70 60 71 61 72 69 73 62 74 63 75 67 76
REMARK SMILES IDX 70 77 64 78 65 79 68 80 66 81 45 82 46 83 54 84 47 85 48 86
REMARK SMILES IDX 52 87 55 88 49 89 50 90 53 91 51 92
REMARK H PARENT 4 20 75 45 43 56
REMARK Flexibility Score: inf
ROOT
ATOM      1  C   UNL     1       0.801   5.077   1.498  1.00  0.00     0.188 C 
ENDROOT
BRANCH   1   2
ATOM      2  O   UNL     1       0.048   6.261   1.358  1.00  0.00    -0.376 OA
BRANCH   2   3
ATOM      3  C   UNL     1      -1.029   6.284   0.433  1.00  0.00     0.202 C 
BRANCH   3   4
ATOM      4  C   UNL     1      -0.998   5.521  -0.902  1.00  0.00     0.261 C 
BRANCH   4   5
ATOM      5  O   UNL     1      -0.556   4.157  -0.846  1.00  0.00    -0.461 OA
BRANCH   5   6
ATOM      6  C   UNL     1       0.524   3.822  -1.616  1.00  0.00     0.338 C 
ATOM      7  O   UNL     1       1.156   4.619  -2.302  1.00  0.00    -0.249 OA
BRANCH   6   8
ATOM      8  C   UNL     1       0.861   2.298  -1.554  1.00  0.00     0.168 C 
BRANCH   8   9
ATOM      9  C   UNL     1       0.297   1.744  -2.888  1.00  0.00     0.044 C 
ATOM     10  C   UNL     1       0.237   0.232  -3.045  1.00  0.00     0.007 C 
ENDBRANCH   8   9
BRANCH   8  11
ATOM     11  C   UNL     1       2.427   2.160  -1.384  1.00  0.00     0.070 C 
ATOM     12  C   UNL     1       3.017   2.879  -0.159  1.00  0.00     0.017 C 
BRANCH  11  13
ATOM     13  C   UNL     1       2.957   0.736  -1.372  1.00  0.00     0.011 A 
ATOM     14  C   UNL     1       4.021   0.240  -2.103  1.00  0.00     0.016 A 
ATOM     15  S   UNL     1       2.347  -0.470  -0.313  1.00  0.00    -0.145 S 
ATOM     16  C   UNL     1       4.164  -1.169  -1.960  1.00  0.00     0.015 A 
ATOM     17  C   UNL     1       3.215  -1.700  -1.113  1.00  0.00     0.002 A 
ATOM     18  C   UNL     1       2.913  -3.132  -0.843  1.00  0.00     0.056 C 
ENDBRANCH  11  13
ENDBRANCH   8  11
BRANCH   8  19
ATOM     19  O   UNL     1       0.151   1.656  -0.495  1.00  0.00    -0.378 OA
ATOM     20  H   UNL     1       0.480   1.981   0.358  1.00  0.00     0.212 HD
ENDBRANCH   8  19
ENDBRANCH   6   8
ENDBRANCH   5   6
ENDBRANCH   4   5
ENDBRANCH   3   4
ENDBRANCH   2   3
ENDBRANCH   1   2
BRANCH   1  21
ATOM     21  C   UNL     1       0.130   3.788   2.006  1.00  0.00     0.188 C 
BRANCH  21  22
ATOM     22  O   UNL     1      -1.225   3.771   2.386  1.00  0.00    -0.376 OA
BRANCH  22  23
ATOM     23  C   UNL     1      -1.671   4.637   3.410  1.00  0.00     0.202 C 
BRANCH  23  24
ATOM     24  C   UNL     1      -0.829   4.941   4.661  1.00  0.00     0.261 C 
BRANCH  24  25
ATOM     25  O   UNL     1       0.592   5.049   4.477  1.00  0.00    -0.460 OA
BRANCH  25  26
ATOM     26  C   UNL     1       1.332   4.062   5.034  1.00  0.00     0.338 C 
ATOM     27  O   UNL     1       0.925   3.112   5.698  1.00  0.00    -0.246 OA
BRANCH  26  28
ATOM     28  C   UNL     1       2.733   4.165   4.582  1.00  0.00     0.060 A 
ATOM     29  C   UNL     1       3.266   3.133   3.797  1.00  0.00     0.016 A 
ATOM     30  C   UNL     1       3.536   5.236   4.975  1.00  0.00     0.016 A 
ATOM     31  C   UNL     1       4.607   3.161   3.409  1.00  0.00     0.010 A 
ATOM     32  C   UNL     1       4.889   5.247   4.612  1.00  0.00     0.010 A 
ATOM     33  C   UNL     1       5.438   4.199   3.848  1.00  0.00    -0.014 A 
BRANCH  33  34
ATOM     34  C   UNL     1       6.910   4.098   3.673  1.00  0.00     0.031 A 
ATOM     35  C   UNL     1       7.732   3.543   4.804  1.00  0.00     0.074 A 
ATOM     36  C   UNL     1       7.516   4.482   2.535  1.00  0.00     0.049 A 
ATOM     37  N   UNL     1       9.032   3.439   4.920  1.00  0.00    -0.248 NA
ATOM     38  C   UNL     1       6.980   3.034   5.962  1.00  0.00     0.031 C 
ATOM     39  C   UNL     1       6.839   4.974   1.339  1.00  0.00     0.029 A 
ATOM     40  N   UNL     1       8.852   4.527   2.212  1.00  0.00    -0.354 N 
ATOM     41  C   UNL     1       9.254   2.866   6.166  1.00  0.00     0.074 A 
ATOM     42  C   UNL     1       7.957   2.662   6.776  1.00  0.00     0.031 C 
ATOM     43  C   UNL     1       7.765   5.292   0.416  1.00  0.00     0.029 A 
ATOM     44  C   UNL     1       9.099   5.062   0.971  1.00  0.00     0.049 A 
ATOM     45  H   UNL     1       9.563   4.206   2.812  1.00  0.00     0.167 HD
ATOM     46  C   UNL     1      10.431   2.539   6.750  1.00  0.00     0.037 A 
ATOM     47  C   UNL     1      10.269   5.361   0.369  1.00  0.00     0.037 A 
ATOM     48  C   UNL     1      11.723   2.749   6.150  1.00  0.00     0.049 A 
ATOM     49  C   UNL     1      11.570   5.083   1.085  1.00  0.00     0.074 A 
ATOM     50  C   UNL     1      12.972   2.438   6.662  1.00  0.00     0.029 A 
ATOM     51  N   UNL     1      11.935   3.336   4.912  1.00  0.00    -0.354 N 
ATOM     52  N   UNL     1      11.775   4.525   2.253  1.00  0.00    -0.248 NA
ATOM     53  C   UNL     1      12.806   5.481   0.392  1.00  0.00     0.031 C 
ATOM     54  C   UNL     1      13.940   2.897   5.764  1.00  0.00     0.029 A 
ATOM     55  C   UNL     1      13.295   3.429   4.659  1.00  0.00     0.049 A 
ATOM     56  H   UNL     1      11.224   3.642   4.303  1.00  0.00     0.167 HD
ATOM     57  C   UNL     1      13.155   4.471   2.417  1.00  0.00     0.074 A 
ATOM     58  C   UNL     1      13.740   5.043   1.224  1.00  0.00     0.031 C 
ATOM     59  C   UNL     1      13.872   3.986   3.462  1.00  0.00     0.037 A 
BRANCH  46  60
ATOM     60  C   UNL     1      10.379   1.960   8.134  1.00  0.00     0.064 A 
ATOM     61  C   UNL     1       9.887   0.669   8.380  1.00  0.00     0.173 A 
ATOM     62  C   UNL     1      10.854   2.700   9.227  1.00  0.00     0.173 A 
ATOM     63  F   UNL     1       9.408  -0.075   7.372  1.00  0.00    -0.203 F 
ATOM     64  C   UNL     1       9.845   0.154   9.673  1.00  0.00     0.198 A 
ATOM     65  C   UNL     1      10.842   2.169  10.513  1.00  0.00     0.198 A 
ATOM     66  F   UNL     1      11.340   3.937   9.046  1.00  0.00    -0.203 F 
ATOM     67  F   UNL     1       9.322  -1.061   9.892  1.00  0.00    -0.200 F 
ATOM     68  C   UNL     1      10.329   0.901  10.737  1.00  0.00     0.200 A 
ATOM     69  F   UNL     1      11.325   2.887  11.537  1.00  0.00    -0.200 F 
ATOM     70  F   UNL     1      10.294   0.401  11.980  1.00  0.00    -0.200 F 
ENDBRANCH  46  60
BRANCH  47  71
ATOM     71  C   UNL     1      10.279   5.985  -0.982  1.00  0.00     0.064 A 
ATOM     72  C   UNL     1      10.804   5.304  -2.089  1.00  0.00     0.173 A 
ATOM     73  C   UNL     1       9.810   7.292  -1.185  1.00  0.00     0.173 A 
ATOM     74  F   UNL     1      11.295   4.064  -1.941  1.00  0.00    -0.203 F 
ATOM     75  C   UNL     1      10.881   5.913  -3.341  1.00  0.00     0.198 A 
ATOM     76  C   UNL     1       9.858   7.888  -2.444  1.00  0.00     0.198 A 
ATOM     77  F   UNL     1       9.308   7.993  -0.158  1.00  0.00    -0.203 F 
ATOM     78  F   UNL     1      11.443   5.260  -4.367  1.00  0.00    -0.200 F 
ATOM     79  C   UNL     1      10.403   7.202  -3.518  1.00  0.00     0.200 A 
ATOM     80  F   UNL     1       9.388   9.131  -2.612  1.00  0.00    -0.200 F 
ATOM     81  F   UNL     1      10.480   7.788  -4.721  1.00  0.00    -0.200 F 
ENDBRANCH  47  71
BRANCH  59  82
ATOM     82  C   UNL     1      15.373   3.999   3.349  1.00  0.00     0.064 A 
ATOM     83  C   UNL     1      16.112   5.191   3.388  1.00  0.00     0.173 A 
ATOM     84  C   UNL     1      16.084   2.792   3.249  1.00  0.00     0.173 A 
ATOM     85  F   UNL     1      15.483   6.373   3.470  1.00  0.00    -0.203 F 
ATOM     86  C   UNL     1      17.503   5.175   3.304  1.00  0.00     0.198 A 
ATOM     87  C   UNL     1      17.476   2.779   3.201  1.00  0.00     0.198 A 
ATOM     88  F   UNL     1      15.430   1.621   3.216  1.00  0.00    -0.203 F 
ATOM     89  F   UNL     1      18.184   6.329   3.293  1.00  0.00    -0.200 F 
ATOM     90  C   UNL     1      18.184   3.970   3.220  1.00  0.00     0.200 A 
ATOM     91  F   UNL     1      18.131   1.611   3.139  1.00  0.00    -0.200 F 
ATOM     92  F   UNL     1      19.522   3.957   3.152  1.00  0.00    -0.200 F 
ENDBRANCH  59  82
ENDBRANCH  33  34
ENDBRANCH  26  28
ENDBRANCH  25  26
ENDBRANCH  24  25
ENDBRANCH  23  24
ENDBRANCH  22  23
ENDBRANCH  21  22
ENDBRANCH   1  21
TORSDOF 21
