REMARK SMILES CC1CC[NH+]([C@H](c2ccc(F)cc2)c2ccc([C@@H](C)C(=O)OCCOCCOCCOC(=O)c3ccc(-c4c5nc(c(-c6c(F)c(F)c(F)c(F)c6F)c6ccc([nH]6)c(-c6c(F)c(F)c(F)c(F)c6F)c6nc(c(-c7c(F)c(F)c(F)c(F)c7F)c7ccc4[nH]7)C=C6)C=C5)cc3)cc2-c2ccc(C(F)(F)F)cc2)CC1
REMARK SMILES IDX 26 1 25 2 24 3 23 4 22 5 20 6 21 7 18 8 19 9 17 10 14 11
REMARK SMILES IDX 15 12 98 13 16 14 97 15 6 16 5 17 1 18 2 19 3 20 110 21 4 22
REMARK SMILES IDX 109 23 7 25 8 26 13 27 9 28 12 29 10 30 11 31 99 32 100 33
REMARK SMILES IDX 108 34 101 35 107 36 102 37 103 38 104 39 105 40 106 41
REMARK SMILES IDX 27 42 28 43 29 44 30 45 31 46 32 47 33 48 34 49 35 50 96 51
REMARK SMILES IDX 36 52 95 53 37 54 38 55 39 56 89 57 40 58 94 59 88 60 90 61
REMARK SMILES IDX 41 62 93 63 87 64 86 65 42 67 74 68 54 69 73 70 55 71 58 72
REMARK SMILES IDX 72 73 91 74 56 75 57 76 71 78 92 79 59 80 43 81 44 82 52 83
REMARK SMILES IDX 45 84 46 85 50 86 53 87 47 88 48 89 51 90 49 91 75 92 76 93
REMARK SMILES IDX 84 94 77 95 78 96 82 97 85 98 79 99 80 100 83 101 81 102
REMARK SMILES IDX 60 103 61 104 69 105 62 106 63 107 67 108 70 109 64 110
REMARK SMILES IDX 65 111 68 112 66 113
REMARK H PARENT 5 24 90 66 58 77
REMARK Flexibility Score: inf
ROOT
ATOM      1  C   UNL     1       3.908   6.542  -1.039  1.00  0.00     0.188 C 
ENDROOT
BRANCH   1   2
ATOM      2  O   UNL     1       3.560   7.866  -1.425  1.00  0.00    -0.376 OA
BRANCH   2   3
ATOM      3  C   UNL     1       2.635   8.053  -2.486  1.00  0.00     0.202 C 
BRANCH   3   4
ATOM      4  C   UNL     1       3.080   7.590  -3.876  1.00  0.00     0.261 C 
BRANCH   4   5
ATOM      5  O   UNL     1       3.401   6.184  -3.964  1.00  0.00    -0.463 OA
BRANCH   5   6
ATOM      6  C   UNL     1       4.676   5.870  -4.311  1.00  0.00     0.313 C 
ATOM      7  O   UNL     1       5.537   6.713  -4.557  1.00  0.00    -0.252 OA
BRANCH   6   8
ATOM      8  C   UNL     1       4.985   4.376  -4.442  1.00  0.00     0.126 C 
ATOM      9  C   UNL     1       5.127   4.052  -5.929  1.00  0.00     0.025 C 
BRANCH   8  10
ATOM     10  C   UNL     1       4.111   3.338  -3.740  1.00  0.00    -0.033 A 
ATOM     11  C   UNL     1       2.514   1.320  -2.415  1.00  0.00     0.022 A 
ATOM     12  C   UNL     1       1.965   2.308  -3.266  1.00  0.00     0.011 A 
ATOM     13  C   UNL     1       3.927   1.340  -2.253  1.00  0.00    -0.009 A 
ATOM     14  C   UNL     1       2.738   3.263  -3.942  1.00  0.00     0.005 A 
ATOM     15  C   UNL     1       4.686   2.359  -2.902  1.00  0.00     0.013 A 
BRANCH  11  16
ATOM     16  C   UNL     1       1.624   0.200  -1.784  1.00  0.00     0.247 C 
BRANCH  16  17
ATOM     17  N   UNL     1       0.185   0.119  -2.205  1.00  0.00    -0.325 N 
ATOM     18  C   UNL     1      -3.441   1.357  -4.359  1.00  0.00     0.008 C 
ATOM     19  C   UNL     1      -2.049   1.196  -3.758  1.00  0.00    -0.003 C 
ATOM     20  C   UNL     1      -1.405  -0.127  -4.169  1.00  0.00     0.065 C 
ATOM     21  C   UNL     1      -2.100   1.218  -2.236  1.00  0.00     0.065 C 
ATOM     22  C   UNL     1       0.016  -0.249  -3.613  1.00  0.00     0.263 C 
ATOM     23  C   UNL     1      -0.695   1.144  -1.641  1.00  0.00     0.263 C 
ATOM     24  H   UNL     1      -0.205  -0.693  -1.726  1.00  0.00     0.348 HD
ENDBRANCH  16  17
BRANCH  16  25
ATOM     25  C   UNL     1       1.744   0.032  -0.256  1.00  0.00     0.014 A 
ATOM     26  C   UNL     1       1.514   1.092   0.635  1.00  0.00     0.013 A 
ATOM     27  C   UNL     1       2.026  -1.237   0.292  1.00  0.00     0.013 A 
ATOM     28  C   UNL     1       1.521   0.882   2.017  1.00  0.00     0.040 A 
ATOM     29  C   UNL     1       2.090  -1.431   1.676  1.00  0.00     0.040 A 
ATOM     30  C   UNL     1       1.824  -0.369   2.526  1.00  0.00     0.123 A 
ATOM     31  F   UNL     1       1.852  -0.556   3.852  1.00  0.00    -0.207 F 
ENDBRANCH  16  25
ENDBRANCH  11  16
BRANCH  13  32
ATOM     32  C   UNL     1       4.661   0.359  -1.425  1.00  0.00    -0.018 A 
ATOM     33  C   UNL     1       5.152   0.732  -0.166  1.00  0.00     0.009 A 
ATOM     34  C   UNL     1       4.884  -0.961  -1.841  1.00  0.00     0.009 A 
ATOM     35  C   UNL     1       5.815  -0.170   0.667  1.00  0.00     0.014 A 
ATOM     36  C   UNL     1       5.538  -1.879  -1.004  1.00  0.00     0.014 A 
ATOM     37  C   UNL     1       5.998  -1.495   0.265  1.00  0.00     0.056 A 
BRANCH  37  38
ATOM     38  C   UNL     1       6.685  -2.468   1.192  1.00  0.00     0.416 C 
ATOM     39  F   UNL     1       8.031  -2.275   1.240  1.00  0.00    -0.166 F 
ATOM     40  F   UNL     1       6.247  -2.363   2.479  1.00  0.00    -0.166 F 
ATOM     41  F   UNL     1       6.502  -3.771   0.844  1.00  0.00    -0.166 F 
ENDBRANCH  37  38
ENDBRANCH  13  32
ENDBRANCH   8  10
ENDBRANCH   6   8
ENDBRANCH   5   6
ENDBRANCH   4   5
ENDBRANCH   3   4
ENDBRANCH   2   3
ENDBRANCH   1   2
BRANCH   1  42
ATOM     42  C   UNL     1       2.854   5.426  -1.124  1.00  0.00     0.188 C 
BRANCH  42  43
ATOM     43  O   UNL     1       1.512   5.872  -1.011  1.00  0.00    -0.376 OA
BRANCH  43  44
ATOM     44  C   UNL     1       0.777   5.282   0.047  1.00  0.00     0.202 C 
BRANCH  44  45
ATOM     45  C   UNL     1       1.106   5.936   1.389  1.00  0.00     0.261 C 
BRANCH  45  46
ATOM     46  O   UNL     1       2.512   5.905   1.702  1.00  0.00    -0.460 OA
BRANCH  46  47
ATOM     47  C   UNL     1       2.964   4.763   2.260  1.00  0.00     0.338 C 
ATOM     48  O   UNL     1       2.304   3.792   2.570  1.00  0.00    -0.246 OA
BRANCH  47  49
ATOM     49  C   UNL     1       4.430   4.819   2.377  1.00  0.00     0.060 A 
ATOM     50  C   UNL     1       5.226   4.187   1.417  1.00  0.00     0.016 A 
ATOM     51  C   UNL     1       5.008   5.404   3.497  1.00  0.00     0.016 A 
ATOM     52  C   UNL     1       6.605   4.083   1.598  1.00  0.00     0.010 A 
ATOM     53  C   UNL     1       6.391   5.320   3.673  1.00  0.00     0.010 A 
ATOM     54  C   UNL     1       7.192   4.627   2.745  1.00  0.00    -0.014 A 
BRANCH  54  55
ATOM     55  C   UNL     1       8.620   4.386   3.057  1.00  0.00     0.031 A 
ATOM     56  C   UNL     1       8.972   3.413   4.145  1.00  0.00     0.074 A 
ATOM     57  C   UNL     1       9.589   5.051   2.407  1.00  0.00     0.049 A 
ATOM     58  N   UNL     1      10.127   3.187   4.716  1.00  0.00    -0.248 NA
ATOM     59  C   UNL     1       7.869   2.591   4.666  1.00  0.00     0.031 C 
ATOM     60  C   UNL     1       9.377   5.972   1.294  1.00  0.00     0.029 A 
ATOM     61  N   UNL     1      10.946   5.070   2.611  1.00  0.00    -0.354 N 
ATOM     62  C   UNL     1       9.883   2.225   5.686  1.00  0.00     0.074 A 
ATOM     63  C   UNL     1       8.471   1.913   5.631  1.00  0.00     0.031 C 
ATOM     64  C   UNL     1      10.561   6.487   0.925  1.00  0.00     0.029 A 
ATOM     65  C   UNL     1      11.603   5.971   1.812  1.00  0.00     0.049 A 
ATOM     66  H   UNL     1      11.403   4.494   3.266  1.00  0.00     0.167 HD
ATOM     67  C   UNL     1      10.762   1.660   6.548  1.00  0.00     0.037 A 
ATOM     68  C   UNL     1      12.890   6.370   1.824  1.00  0.00     0.037 A 
ATOM     69  C   UNL     1      12.169   1.962   6.580  1.00  0.00     0.049 A 
ATOM     70  C   UNL     1      13.840   5.779   2.830  1.00  0.00     0.074 A 
ATOM     71  C   UNL     1      13.150   1.413   7.386  1.00  0.00     0.029 A 
ATOM     72  N   UNL     1      12.793   2.901   5.771  1.00  0.00    -0.354 N 
ATOM     73  N   UNL     1      13.607   4.878   3.754  1.00  0.00    -0.248 NA
ATOM     74  C   UNL     1      15.227   6.264   2.802  1.00  0.00     0.031 C 
ATOM     75  C   UNL     1      14.358   2.059   7.103  1.00  0.00     0.029 A 
ATOM     76  C   UNL     1      14.141   2.971   6.082  1.00  0.00     0.049 A 
ATOM     77  H   UNL     1      12.344   3.439   5.079  1.00  0.00     0.167 HD
ATOM     78  C   UNL     1      14.815   4.677   4.408  1.00  0.00     0.074 A 
ATOM     79  C   UNL     1      15.784   5.544   3.769  1.00  0.00     0.031 C 
ATOM     80  C   UNL     1      15.093   3.845   5.442  1.00  0.00     0.037 A 
BRANCH  67  81
ATOM     81  C   UNL     1      10.220   0.691   7.557  1.00  0.00     0.064 A 
ATOM     82  C   UNL     1      10.171   1.043   8.915  1.00  0.00     0.173 A 
ATOM     83  C   UNL     1       9.779  -0.590   7.195  1.00  0.00     0.173 A 
ATOM     84  F   UNL     1      10.584   2.256   9.314  1.00  0.00    -0.203 F 
ATOM     85  C   UNL     1       9.704   0.148   9.872  1.00  0.00     0.198 A 
ATOM     86  C   UNL     1       9.286  -1.474   8.153  1.00  0.00     0.198 A 
ATOM     87  F   UNL     1       9.792  -0.970   5.909  1.00  0.00    -0.203 F 
ATOM     88  F   UNL     1       9.687   0.500  11.165  1.00  0.00    -0.200 F 
ATOM     89  C   UNL     1       9.255  -1.107   9.490  1.00  0.00     0.200 A 
ATOM     90  F   UNL     1       8.828  -2.677   7.779  1.00  0.00    -0.200 F 
ATOM     91  F   UNL     1       8.787  -1.961  10.411  1.00  0.00    -0.200 F 
ENDBRANCH  67  81
BRANCH  68  92
ATOM     92  C   UNL     1      13.332   7.402   0.853  1.00  0.00     0.064 A 
ATOM     93  C   UNL     1      12.912   8.736   0.969  1.00  0.00     0.173 A 
ATOM     94  C   UNL     1      14.120   7.057  -0.252  1.00  0.00     0.173 A 
ATOM     95  F   UNL     1      12.157   9.114   2.011  1.00  0.00    -0.203 F 
ATOM     96  C   UNL     1      13.235   9.678  -0.005  1.00  0.00     0.198 A 
ATOM     97  C   UNL     1      14.460   8.006  -1.214  1.00  0.00     0.198 A 
ATOM     98  F   UNL     1      14.563   5.799  -0.391  1.00  0.00    -0.203 F 
ATOM     99  F   UNL     1      12.785  10.935   0.106  1.00  0.00    -0.200 F 
ATOM    100  C   UNL     1      14.008   9.312  -1.097  1.00  0.00     0.200 A 
ATOM    101  F   UNL     1      15.223   7.653  -2.258  1.00  0.00    -0.200 F 
ATOM    102  F   UNL     1      14.313  10.216  -2.037  1.00  0.00    -0.200 F 
ENDBRANCH  68  92
BRANCH  80 103
ATOM    103  C   UNL     1      16.505   3.813   5.952  1.00  0.00     0.064 A 
ATOM    104  C   UNL     1      17.313   2.687   5.733  1.00  0.00     0.173 A 
ATOM    105  C   UNL     1      17.024   4.854   6.734  1.00  0.00     0.173 A 
ATOM    106  F   UNL     1      16.858   1.661   4.998  1.00  0.00    -0.203 F 
ATOM    107  C   UNL     1      18.583   2.596   6.295  1.00  0.00     0.198 A 
ATOM    108  C   UNL     1      18.306   4.771   7.274  1.00  0.00     0.198 A 
ATOM    109  F   UNL     1      16.295   5.956   6.962  1.00  0.00    -0.203 F 
ATOM    110  F   UNL     1      19.322   1.494   6.104  1.00  0.00    -0.200 F 
ATOM    111  C   UNL     1      19.079   3.638   7.064  1.00  0.00     0.200 A 
ATOM    112  F   UNL     1      18.793   5.787   7.998  1.00  0.00    -0.200 F 
ATOM    113  F   UNL     1      20.303   3.551   7.602  1.00  0.00    -0.200 F 
ENDBRANCH  80 103
ENDBRANCH  54  55
ENDBRANCH  47  49
ENDBRANCH  46  47
ENDBRANCH  45  46
ENDBRANCH  44  45
ENDBRANCH  43  44
ENDBRANCH  42  43
ENDBRANCH   1  42
TORSDOF 23
