REMARK SMILES O=C(OCCOCCOCCOC(=O)[C@@H]1CCCC[C@H]1C(=O)Nc1cccc(O)c1)c1ccc(-c2c3nc(c(-c4c(F)c(F)c(F)c(F)c4F)c4ccc([nH]4)c(-c4c(F)c(F)c(F)c(F)c4F)c4nc(c(-c5c(F)c(F)c(F)c(F)c5F)c5ccc2[nH]5)C=C4)C=C3)cc1
REMARK SMILES IDX 8 1 7 2 6 3 5 4 4 5 3 6 2 7 1 8 31 9 32 10 93 11 33 12 92 13
REMARK SMILES IDX 34 14 35 15 36 16 86 17 37 18 91 19 85 20 87 21 38 22 90 23
REMARK SMILES IDX 84 24 83 25 39 27 71 28 51 29 70 30 52 31 55 32 69 33 88 34
REMARK SMILES IDX 53 35 54 36 68 38 89 39 56 40 40 41 41 42 49 43 42 44 43 45
REMARK SMILES IDX 47 46 50 47 44 48 45 49 48 50 46 51 72 52 73 53 81 54 74 55
REMARK SMILES IDX 75 56 79 57 82 58 76 59 77 60 80 61 78 62 57 63 58 64 66 65
REMARK SMILES IDX 59 66 60 67 64 68 67 69 61 70 62 71 65 72 63 73 9 74 10 75
REMARK SMILES IDX 11 76 12 77 13 78 14 79 15 80 16 81 20 82 17 83 19 84 18 85
REMARK SMILES IDX 21 86 22 87 23 88 24 90 25 91 30 92 26 93 28 94 27 95 29 96
REMARK H PARENT 87 26 55 37 23 89 29 97
REMARK Flexibility Score: inf
ROOT
ATOM      1  C   UNL     1       1.908  -2.746  -1.059  1.00  0.00     0.188 C 
ENDROOT
BRANCH   1   2
ATOM      2  C   UNL     1       2.504  -1.727  -0.086  1.00  0.00     0.188 C 
BRANCH   2   3
ATOM      3  O   UNL     1       3.806  -1.262  -0.465  1.00  0.00    -0.376 OA
BRANCH   3   4
ATOM      4  C   UNL     1       4.752  -1.287   0.610  1.00  0.00     0.202 C 
BRANCH   4   5
ATOM      5  C   UNL     1       4.627  -0.136   1.617  1.00  0.00     0.261 C 
BRANCH   5   6
ATOM      6  O   UNL     1       3.305   0.412   1.708  1.00  0.00    -0.460 OA
BRANCH   6   7
ATOM      7  C   UNL     1       2.704   1.330   0.915  1.00  0.00     0.338 C 
ATOM      8  O   UNL     1       1.544   1.644   1.189  1.00  0.00    -0.246 OA
BRANCH   7   9
ATOM      9  C   UNL     1       3.334   1.989  -0.279  1.00  0.00     0.060 A 
ATOM     10  C   UNL     1       4.555   1.653  -0.878  1.00  0.00     0.016 A 
ATOM     11  C   UNL     1       2.600   3.038  -0.860  1.00  0.00     0.016 A 
ATOM     12  C   UNL     1       5.061   2.346  -1.978  1.00  0.00     0.010 A 
ATOM     13  C   UNL     1       3.095   3.741  -1.959  1.00  0.00     0.010 A 
ATOM     14  C   UNL     1       4.343   3.406  -2.509  1.00  0.00    -0.014 A 
BRANCH  14  15
ATOM     15  C   UNL     1       4.987   4.329  -3.459  1.00  0.00     0.031 A 
ATOM     16  C   UNL     1       5.482   5.615  -2.887  1.00  0.00     0.074 A 
ATOM     17  C   UNL     1       5.134   4.046  -4.764  1.00  0.00     0.049 A 
ATOM     18  N   UNL     1       5.947   6.668  -3.494  1.00  0.00    -0.248 NA
ATOM     19  C   UNL     1       5.486   5.706  -1.415  1.00  0.00     0.031 C 
ATOM     20  C   UNL     1       4.878   2.757  -5.393  1.00  0.00     0.029 A 
ATOM     21  N   UNL     1       5.468   4.860  -5.815  1.00  0.00    -0.354 N 
ATOM     22  C   UNL     1       6.329   7.531  -2.480  1.00  0.00     0.074 A 
ATOM     23  C   UNL     1       5.974   6.917  -1.222  1.00  0.00     0.031 C 
ATOM     24  C   UNL     1       4.875   2.904  -6.728  1.00  0.00     0.029 A 
ATOM     25  C   UNL     1       5.177   4.294  -7.035  1.00  0.00     0.049 A 
ATOM     26  H   UNL     1       5.871   5.752  -5.709  1.00  0.00     0.167 HD
ATOM     27  C   UNL     1       6.953   8.722  -2.601  1.00  0.00     0.037 A 
ATOM     28  C   UNL     1       5.123   4.863  -8.252  1.00  0.00     0.037 A 
ATOM     29  C   UNL     1       7.237   9.319  -3.874  1.00  0.00     0.049 A 
ATOM     30  C   UNL     1       5.609   6.275  -8.380  1.00  0.00     0.074 A 
ATOM     31  C   UNL     1       7.837  10.531  -4.150  1.00  0.00     0.029 A 
ATOM     32  N   UNL     1       6.900   8.744  -5.095  1.00  0.00    -0.354 N 
ATOM     33  N   UNL     1       5.996   7.094  -7.431  1.00  0.00    -0.248 NA
ATOM     34  C   UNL     1       5.723   6.822  -9.736  1.00  0.00     0.031 C 
ATOM     35  C   UNL     1       7.796  10.721  -5.535  1.00  0.00     0.029 A 
ATOM     36  C   UNL     1       7.241   9.595  -6.129  1.00  0.00     0.049 A 
ATOM     37  H   UNL     1       6.480   7.860  -5.206  1.00  0.00     0.167 HD
ATOM     38  C   UNL     1       6.472   8.224  -8.072  1.00  0.00     0.074 A 
ATOM     39  C   UNL     1       6.288   7.998  -9.495  1.00  0.00     0.031 C 
ATOM     40  C   UNL     1       7.047   9.328  -7.535  1.00  0.00     0.037 A 
BRANCH  27  41
ATOM     41  C   UNL     1       7.279   9.436  -1.325  1.00  0.00     0.064 A 
ATOM     42  C   UNL     1       8.217   8.927  -0.410  1.00  0.00     0.173 A 
ATOM     43  C   UNL     1       6.567  10.587  -0.962  1.00  0.00     0.173 A 
ATOM     44  F   UNL     1       8.899   7.806  -0.693  1.00  0.00    -0.203 F 
ATOM     45  C   UNL     1       8.386   9.512   0.842  1.00  0.00     0.198 A 
ATOM     46  C   UNL     1       6.765  11.189   0.277  1.00  0.00     0.198 A 
ATOM     47  F   UNL     1       5.651  11.106  -1.793  1.00  0.00    -0.203 F 
ATOM     48  F   UNL     1       9.214   8.952   1.736  1.00  0.00    -0.200 F 
ATOM     49  C   UNL     1       7.660  10.642   1.185  1.00  0.00     0.200 A 
ATOM     50  F   UNL     1       6.063  12.282   0.607  1.00  0.00    -0.200 F 
ATOM     51  F   UNL     1       7.804  11.190   2.399  1.00  0.00    -0.200 F 
ENDBRANCH  27  41
BRANCH  28  52
ATOM     52  C   UNL     1       4.614   4.092  -9.412  1.00  0.00     0.064 A 
ATOM     53  C   UNL     1       5.481   3.559 -10.372  1.00  0.00     0.173 A 
ATOM     54  C   UNL     1       3.240   3.843  -9.559  1.00  0.00     0.173 A 
ATOM     55  F   UNL     1       6.801   3.774 -10.276  1.00  0.00    -0.203 F 
ATOM     56  C   UNL     1       4.995   2.805 -11.439  1.00  0.00     0.198 A 
ATOM     57  C   UNL     1       2.756   3.085 -10.623  1.00  0.00     0.198 A 
ATOM     58  F   UNL     1       2.370   4.323  -8.658  1.00  0.00    -0.203 F 
ATOM     59  F   UNL     1       5.844   2.296 -12.341  1.00  0.00    -0.200 F 
ATOM     60  C   UNL     1       3.635   2.564 -11.559  1.00  0.00     0.200 A 
ATOM     61  F   UNL     1       1.443   2.842 -10.733  1.00  0.00    -0.200 F 
ATOM     62  F   UNL     1       3.177   1.786 -12.552  1.00  0.00    -0.200 F 
ENDBRANCH  28  52
BRANCH  40  63
ATOM     63  C   UNL     1       7.582  10.349  -8.488  1.00  0.00     0.064 A 
ATOM     64  C   UNL     1       6.738  11.202  -9.209  1.00  0.00     0.173 A 
ATOM     65  C   UNL     1       8.969  10.531  -8.601  1.00  0.00     0.173 A 
ATOM     66  F   UNL     1       5.407  11.049  -9.146  1.00  0.00    -0.203 F 
ATOM     67  C   UNL     1       7.266  12.205 -10.015  1.00  0.00     0.198 A 
ATOM     68  C   UNL     1       9.492  11.555  -9.380  1.00  0.00     0.198 A 
ATOM     69  F   UNL     1       9.813   9.735  -7.926  1.00  0.00    -0.203 F 
ATOM     70  F   UNL     1       6.446  12.993 -10.722  1.00  0.00    -0.200 F 
ATOM     71  C   UNL     1       8.640  12.390 -10.088  1.00  0.00     0.200 A 
ATOM     72  F   UNL     1      10.817  11.743  -9.434  1.00  0.00    -0.200 F 
ATOM     73  F   UNL     1       9.145  13.376 -10.842  1.00  0.00    -0.200 F 
ENDBRANCH  40  63
ENDBRANCH  14  15
ENDBRANCH   7   9
ENDBRANCH   6   7
ENDBRANCH   5   6
ENDBRANCH   4   5
ENDBRANCH   3   4
ENDBRANCH   2   3
ENDBRANCH   1   2
BRANCH   1  74
ATOM     74  O   UNL     1       2.597  -3.979  -1.238  1.00  0.00    -0.376 OA
BRANCH  74  75
ATOM     75  C   UNL     1       3.991  -3.947  -1.506  1.00  0.00     0.202 C 
BRANCH  75  76
ATOM     76  C   UNL     1       4.491  -3.326  -2.821  1.00  0.00     0.261 C 
BRANCH  76  77
ATOM     77  O   UNL     1       3.884  -2.078  -3.202  1.00  0.00    -0.463 OA
BRANCH  77  78
ATOM     78  C   UNL     1       2.873  -2.213  -4.096  1.00  0.00     0.309 C 
ATOM     79  O   UNL     1       2.522  -3.303  -4.545  1.00  0.00    -0.252 OA
BRANCH  78  80
ATOM     80  C   UNL     1       2.279  -0.896  -4.586  1.00  0.00     0.111 C 
ATOM     81  C   UNL     1       2.533   0.356  -3.748  1.00  0.00     0.016 C 
ATOM     82  C   UNL     1       0.775  -1.040  -4.863  1.00  0.00     0.093 C 
ATOM     83  C   UNL     1       2.007   1.567  -4.532  1.00  0.00     0.001 C 
ATOM     84  C   UNL     1       0.128   0.225  -5.461  1.00  0.00     0.014 C 
ATOM     85  C   UNL     1       0.507   1.500  -4.723  1.00  0.00     0.001 C 
BRANCH  82  86
ATOM     86  C   UNL     1       0.326  -2.253  -5.681  1.00  0.00     0.228 C 
ATOM     87  O   UNL     1      -0.574  -2.971  -5.223  1.00  0.00    -0.274 OA
ATOM     88  N   UNL     1       0.722  -2.495  -6.966  1.00  0.00    -0.326 N 
ATOM     89  H   UNL     1       0.264  -3.257  -7.388  1.00  0.00     0.169 HD
BRANCH  88  90
ATOM     90  C   UNL     1       1.657  -1.865  -7.796  1.00  0.00     0.044 A 
ATOM     91  C   UNL     1       3.021  -1.809  -7.511  1.00  0.00     0.026 A 
ATOM     92  C   UNL     1       1.212  -1.383  -9.023  1.00  0.00     0.072 A 
ATOM     93  C   UNL     1       3.904  -1.115  -8.344  1.00  0.00     0.006 A 
ATOM     94  C   UNL     1       2.101  -0.739  -9.879  1.00  0.00     0.117 A 
ATOM     95  C   UNL     1       3.438  -0.569  -9.534  1.00  0.00     0.046 A 
BRANCH  94  96
ATOM     96  O   UNL     1       1.607  -0.289 -11.066  1.00  0.00    -0.508 OA
ATOM     97  H   UNL     1       2.171   0.150 -11.672  1.00  0.00     0.293 HD
ENDBRANCH  94  96
ENDBRANCH  88  90
ENDBRANCH  82  86
ENDBRANCH  78  80
ENDBRANCH  77  78
ENDBRANCH  76  77
ENDBRANCH  75  76
ENDBRANCH  74  75
ENDBRANCH   1  74
TORSDOF 20
