REMARK SMILES CC[C@@H](C)[C@@H](C(=O)OCCOCCOCCOC(=O)c1ccc(-c2c3nc(c(-c4c(F)c(F)c(F)c(F)c4F)c4ccc([nH]4)c(-c4c(F)c(F)c(F)c(F)c4F)c4nc(c(-c5c(F)c(F)c(F)c(F)c5F)c5ccc2[nH]5)C=C4)C=C3)cc1)N1C(=O)/C(=C/c2ccc(O)cc2)SC1=S
REMARK SMILES IDX 12 1 11 2 10 3 9 4 8 5 6 6 7 7 5 8 3 9 4 10 2 11 1 12 83 13
REMARK SMILES IDX 84 14 96 15 85 16 86 17 95 18 97 19 87 20 88 21 89 22 94 23
REMARK SMILES IDX 90 24 93 25 91 26 92 27 13 29 14 30 15 31 16 32 17 33 18 34
REMARK SMILES IDX 19 35 20 36 21 37 82 38 22 39 81 40 23 41 24 42 25 43 75 44
REMARK SMILES IDX 26 45 80 46 74 47 76 48 27 49 79 50 73 51 72 52 28 54 60 55
REMARK SMILES IDX 40 56 59 57 41 58 44 59 58 60 77 61 42 62 43 63 57 65 78 66
REMARK SMILES IDX 45 67 29 68 30 69 38 70 31 71 32 72 36 73 39 74 33 75 34 76
REMARK SMILES IDX 37 77 35 78 61 79 62 80 70 81 63 82 64 83 68 84 71 85 65 86
REMARK SMILES IDX 66 87 69 88 67 89 46 90 47 91 55 92 48 93 49 94 53 95 56 96
REMARK SMILES IDX 50 97 51 98 54 99 52 100
REMARK H PARENT 92 28 76 53 44 64
REMARK Flexibility Score: inf
ROOT
ATOM      1  C   UNL     1       2.867   2.917  -4.505  1.00  0.00     0.188 C 
ENDROOT
BRANCH   1   2
ATOM      2  O   UNL     1       2.517   4.289  -4.599  1.00  0.00    -0.376 OA
BRANCH   2   3
ATOM      3  C   UNL     1       1.553   4.730  -3.639  1.00  0.00     0.202 C 
BRANCH   3   4
ATOM      4  C   UNL     1       0.168   4.054  -3.706  1.00  0.00     0.261 C 
BRANCH   4   5
ATOM      5  O   UNL     1       0.183   2.641  -3.379  1.00  0.00    -0.462 OA
BRANCH   5   6
ATOM      6  C   UNL     1      -0.547   1.798  -4.164  1.00  0.00     0.329 C 
ATOM      7  O   UNL     1      -1.280   2.170  -5.077  1.00  0.00    -0.250 OA
BRANCH   6   8
ATOM      8  C   UNL     1      -0.393   0.292  -3.792  1.00  0.00     0.204 C 
BRANCH   8   9
ATOM      9  C   UNL     1       0.511  -0.078  -2.553  1.00  0.00     0.020 C 
ATOM     10  C   UNL     1       0.539  -1.599  -2.304  1.00  0.00     0.010 C 
BRANCH   9  11
ATOM     11  C   UNL     1       0.010   0.619  -1.250  1.00  0.00     0.002 C 
ATOM     12  C   UNL     1       0.705   0.185   0.039  1.00  0.00     0.004 C 
ENDBRANCH   9  11
ENDBRANCH   8   9
BRANCH   8  13
ATOM     13  N   UNL     1      -0.135  -0.543  -5.026  1.00  0.00    -0.278 N 
ATOM     14  C   UNL     1       0.823  -0.185  -5.959  1.00  0.00     0.267 C 
ATOM     15  C   UNL     1      -0.788  -1.730  -5.316  1.00  0.00     0.149 C 
ATOM     16  O   UNL     1       1.502   0.832  -5.963  1.00  0.00    -0.268 OA
ATOM     17  C   UNL     1       0.945  -1.195  -7.046  1.00  0.00     0.081 C 
ATOM     18  S   UNL     1       0.011  -2.566  -6.649  1.00  0.00    -0.054 SA
ATOM     19  S   UNL     1      -2.134  -2.395  -4.588  1.00  0.00    -0.052 S 
ATOM     20  C   UNL     1       1.681  -0.985  -8.149  1.00  0.00     0.029 C 
BRANCH  20  21
ATOM     21  C   UNL     1       1.893  -1.932  -9.253  1.00  0.00    -0.024 A 
ATOM     22  C   UNL     1       3.177  -2.442  -9.474  1.00  0.00     0.012 A 
ATOM     23  C   UNL     1       0.856  -2.316 -10.111  1.00  0.00     0.012 A 
ATOM     24  C   UNL     1       3.430  -3.312 -10.537  1.00  0.00     0.047 A 
ATOM     25  C   UNL     1       1.101  -3.208 -11.162  1.00  0.00     0.047 A 
ATOM     26  C   UNL     1       2.388  -3.696 -11.366  1.00  0.00     0.115 A 
BRANCH  26  27
ATOM     27  O   UNL     1       2.671  -4.564 -12.379  1.00  0.00    -0.508 OA
ATOM     28  H   UNL     1       3.545  -4.878 -12.495  1.00  0.00     0.293 HD
ENDBRANCH  26  27
ENDBRANCH  20  21
ENDBRANCH   8  13
ENDBRANCH   6   8
ENDBRANCH   5   6
ENDBRANCH   4   5
ENDBRANCH   3   4
ENDBRANCH   2   3
ENDBRANCH   1   2
BRANCH   1  29
ATOM     29  C   UNL     1       3.717   2.530  -3.308  1.00  0.00     0.188 C 
BRANCH  29  30
ATOM     30  O   UNL     1       3.251   3.030  -2.068  1.00  0.00    -0.376 OA
BRANCH  30  31
ATOM     31  C   UNL     1       4.058   2.764  -0.920  1.00  0.00     0.202 C 
BRANCH  31  32
ATOM     32  C   UNL     1       5.589   2.886  -1.064  1.00  0.00     0.261 C 
BRANCH  32  33
ATOM     33  O   UNL     1       6.224   2.064  -2.071  1.00  0.00    -0.460 OA
BRANCH  33  34
ATOM     34  C   UNL     1       5.930   0.745  -2.141  1.00  0.00     0.338 C 
ATOM     35  O   UNL     1       5.343   0.086  -1.304  1.00  0.00    -0.246 OA
BRANCH  34  36
ATOM     36  C   UNL     1       6.193   0.290  -3.542  1.00  0.00     0.060 A 
ATOM     37  C   UNL     1       5.300  -0.619  -4.130  1.00  0.00     0.016 A 
ATOM     38  C   UNL     1       7.232   0.826  -4.312  1.00  0.00     0.016 A 
ATOM     39  C   UNL     1       5.446  -0.993  -5.473  1.00  0.00     0.010 A 
ATOM     40  C   UNL     1       7.391   0.435  -5.649  1.00  0.00     0.010 A 
ATOM     41  C   UNL     1       6.508  -0.486  -6.236  1.00  0.00    -0.014 A 
BRANCH  41  42
ATOM     42  C   UNL     1       6.800  -1.035  -7.587  1.00  0.00     0.031 A 
ATOM     43  C   UNL     1       7.722  -2.218  -7.697  1.00  0.00     0.074 A 
ATOM     44  C   UNL     1       6.247  -0.518  -8.700  1.00  0.00     0.049 A 
ATOM     45  N   UNL     1       8.138  -2.860  -8.759  1.00  0.00    -0.248 NA
ATOM     46  C   UNL     1       8.249  -2.745  -6.429  1.00  0.00     0.031 C 
ATOM     47  C   UNL     1       5.273   0.569  -8.729  1.00  0.00     0.029 A 
ATOM     48  N   UNL     1       6.383  -0.884 -10.020  1.00  0.00    -0.354 N 
ATOM     49  C   UNL     1       9.008  -3.837  -8.292  1.00  0.00     0.074 A 
ATOM     50  C   UNL     1       9.045  -3.715  -6.850  1.00  0.00     0.031 C 
ATOM     51  C   UNL     1       4.844   0.735  -9.994  1.00  0.00     0.029 A 
ATOM     52  C   UNL     1       5.548  -0.200 -10.874  1.00  0.00     0.049 A 
ATOM     53  H   UNL     1       7.018  -1.571 -10.325  1.00  0.00     0.167 HD
ATOM     54  C   UNL     1       9.731  -4.737  -9.000  1.00  0.00     0.037 A 
ATOM     55  C   UNL     1       5.362  -0.335 -12.205  1.00  0.00     0.037 A 
ATOM     56  C   UNL     1       9.701  -4.859 -10.434  1.00  0.00     0.049 A 
ATOM     57  C   UNL     1       6.204  -1.329 -12.974  1.00  0.00     0.074 A 
ATOM     58  C   UNL     1      10.426  -5.718 -11.242  1.00  0.00     0.029 A 
ATOM     59  N   UNL     1       8.905  -4.097 -11.275  1.00  0.00    -0.354 N 
ATOM     60  N   UNL     1       7.044  -2.231 -12.528  1.00  0.00    -0.248 NA
ATOM     61  C   UNL     1       6.093  -1.293 -14.442  1.00  0.00     0.031 C 
ATOM     62  C   UNL     1      10.114  -5.433 -12.575  1.00  0.00     0.029 A 
ATOM     63  C   UNL     1       9.149  -4.440 -12.595  1.00  0.00     0.049 A 
ATOM     64  H   UNL     1       8.261  -3.413 -10.978  1.00  0.00     0.167 HD
ATOM     65  C   UNL     1       7.552  -2.872 -13.655  1.00  0.00     0.074 A 
ATOM     66  C   UNL     1       6.898  -2.283 -14.803  1.00  0.00     0.031 C 
ATOM     67  C   UNL     1       8.494  -3.845 -13.732  1.00  0.00     0.037 A 
BRANCH  54  68
ATOM     68  C   UNL     1      10.684  -5.608  -8.233  1.00  0.00     0.064 A 
ATOM     69  C   UNL     1      10.242  -6.638  -7.391  1.00  0.00     0.173 A 
ATOM     70  C   UNL     1      12.068  -5.403  -8.350  1.00  0.00     0.173 A 
ATOM     71  F   UNL     1       8.929  -6.862  -7.229  1.00  0.00    -0.203 F 
ATOM     72  C   UNL     1      11.150  -7.409  -6.668  1.00  0.00     0.198 A 
ATOM     73  C   UNL     1      12.973  -6.197  -7.652  1.00  0.00     0.198 A 
ATOM     74  F   UNL     1      12.544  -4.432  -9.144  1.00  0.00    -0.203 F 
ATOM     75  F   UNL     1      10.704  -8.348  -5.822  1.00  0.00    -0.200 F 
ATOM     76  C   UNL     1      12.513  -7.192  -6.803  1.00  0.00     0.200 A 
ATOM     77  F   UNL     1      14.290  -5.993  -7.794  1.00  0.00    -0.200 F 
ATOM     78  F   UNL     1      13.384  -7.933  -6.106  1.00  0.00    -0.200 F 
ENDBRANCH  54  68
BRANCH  55  79
ATOM     79  C   UNL     1       4.322   0.466 -12.914  1.00  0.00     0.064 A 
ATOM     80  C   UNL     1       3.247  -0.167 -13.561  1.00  0.00     0.173 A 
ATOM     81  C   UNL     1       4.388   1.864 -12.998  1.00  0.00     0.173 A 
ATOM     82  F   UNL     1       3.160  -1.504 -13.567  1.00  0.00    -0.203 F 
ATOM     83  C   UNL     1       2.288   0.563 -14.261  1.00  0.00     0.198 A 
ATOM     84  C   UNL     1       3.410   2.596 -13.671  1.00  0.00     0.198 A 
ATOM     85  F   UNL     1       5.404   2.525 -12.425  1.00  0.00    -0.203 F 
ATOM     86  F   UNL     1       1.305  -0.076 -14.911  1.00  0.00    -0.200 F 
ATOM     87  C   UNL     1       2.365   1.945 -14.307  1.00  0.00     0.200 A 
ATOM     88  F   UNL     1       3.487   3.934 -13.711  1.00  0.00    -0.200 F 
ATOM     89  F   UNL     1       1.442   2.648 -14.978  1.00  0.00    -0.200 F 
ENDBRANCH  55  79
BRANCH  67  90
ATOM     90  C   UNL     1       8.895  -4.329 -15.099  1.00  0.00     0.064 A 
ATOM     91  C   UNL     1       9.651  -3.524 -15.965  1.00  0.00     0.173 A 
ATOM     92  C   UNL     1       8.594  -5.635 -15.516  1.00  0.00     0.173 A 
ATOM     93  F   UNL     1       9.960  -2.265 -15.620  1.00  0.00    -0.203 F 
ATOM     94  C   UNL     1      10.075  -4.002 -17.203  1.00  0.00     0.198 A 
ATOM     95  C   UNL     1       9.046  -6.119 -16.742  1.00  0.00     0.198 A 
ATOM     96  F   UNL     1       7.886  -6.453 -14.723  1.00  0.00    -0.203 F 
ATOM     97  F   UNL     1      10.767  -3.202 -18.027  1.00  0.00    -0.200 F 
ATOM     98  C   UNL     1       9.781  -5.302 -17.586  1.00  0.00     0.200 A 
ATOM     99  F   UNL     1       8.777  -7.382 -17.103  1.00  0.00    -0.200 F 
ATOM    100  F   UNL     1      10.206  -5.766 -18.769  1.00  0.00    -0.200 F 
ENDBRANCH  67  90
ENDBRANCH  41  42
ENDBRANCH  34  36
ENDBRANCH  33  34
ENDBRANCH  32  33
ENDBRANCH  31  32
ENDBRANCH  30  31
ENDBRANCH  29  30
ENDBRANCH   1  29
TORSDOF 22
