REMARK SMILES Nc1oc2ccc(F)cc2c(=O)c1[C@@H]1[NH2+][C@H](C(=O)OCCOCCOCCOC(=O)c2ccc(-c3c4nc(c(-c5c(F)c(F)c(F)c(F)c5F)c5ccc([nH]5)c(-c5c(F)c(F)c(F)c(F)c5F)c5nc(c(-c6c(F)c(F)c(F)c(F)c6F)c6ccc3[nH]6)C=C5)C=C4)cc2)CS1
REMARK SMILES IDX 23 1 22 2 21 3 20 4 19 5 17 6 18 7 16 8 14 9 15 10 95 11
REMARK SMILES IDX 94 14 13 15 2 16 3 17 4 18 11 19 5 20 10 21 12 22 6 23 9 24
REMARK SMILES IDX 7 25 8 26 1 27 24 30 25 31 26 32 27 33 28 34 29 35 30 36
REMARK SMILES IDX 31 37 32 38 93 39 33 40 92 41 34 42 35 43 36 44 86 45 37 46
REMARK SMILES IDX 91 47 85 48 87 49 38 50 90 51 84 52 83 53 39 55 71 56 51 57
REMARK SMILES IDX 70 58 52 59 55 60 69 61 88 62 53 63 54 64 68 66 89 67 56 68
REMARK SMILES IDX 40 69 41 70 49 71 42 72 43 73 47 74 50 75 44 76 45 77 48 78
REMARK SMILES IDX 46 79 72 80 73 81 81 82 74 83 75 84 79 85 82 86 76 87 77 88
REMARK SMILES IDX 80 89 78 90 57 91 58 92 66 93 59 94 60 95 64 96 67 97 61 98
REMARK SMILES IDX 62 99 65 100 63 101
REMARK H PARENT 15 12 15 13 1 28 1 29 87 54 55 65
REMARK Flexibility Score: inf
ROOT
ATOM      1  C   UNL     1      -1.509   1.759  -1.779  1.00  0.00     0.188 C 
ENDROOT
BRANCH   1   2
ATOM      2  O   UNL     1      -1.858   0.580  -2.491  1.00  0.00    -0.376 OA
BRANCH   2   3
ATOM      3  C   UNL     1      -1.273  -0.651  -2.083  1.00  0.00     0.202 C 
BRANCH   3   4
ATOM      4  C   UNL     1       0.251  -0.700  -2.057  1.00  0.00     0.261 C 
BRANCH   4   5
ATOM      5  O   UNL     1       0.794   0.247  -1.123  1.00  0.00    -0.459 OA
BRANCH   5   6
ATOM      6  C   UNL     1       2.076   0.617  -1.352  1.00  0.00     0.365 C 
ATOM      7  O   UNL     1       2.741   0.206  -2.302  1.00  0.00    -0.245 OA
BRANCH   6   8
ATOM      8  C   UNL     1       2.627   1.674  -0.384  1.00  0.00     0.304 C 
ATOM      9  C   UNL     1       2.156   1.174   1.952  1.00  0.00     0.283 C 
ATOM     10  N   UNL     1       1.792   2.015   0.796  1.00  0.00    -0.319 N 
ATOM     11  S   UNL     1       3.838   0.548   1.702  1.00  0.00    -0.087 SA
ATOM     12  H   UNL     1       1.937   2.995   1.036  1.00  0.00     0.348 HD
ATOM     13  H   UNL     1       0.813   1.848   0.564  1.00  0.00     0.348 HD
ATOM     14  C   UNL     1       4.028   1.292   0.067  1.00  0.00     0.153 C 
BRANCH   9  15
ATOM     15  C   UNL     1       1.116   0.128   2.270  1.00  0.00     0.128 A 
ATOM     16  C   UNL     1       0.980  -1.113   1.750  1.00  0.00     0.205 A 
ATOM     17  O   UNL     1      -0.097  -1.946   2.008  1.00  0.00    -0.440 OA
ATOM     18  C   UNL     1      -1.022  -1.585   2.944  1.00  0.00     0.140 A 
ATOM     19  C   UNL     1       0.141   0.536   3.328  1.00  0.00     0.205 A 
ATOM     20  C   UNL     1      -2.067  -2.481   3.182  1.00  0.00     0.051 A 
ATOM     21  C   UNL     1      -0.931  -0.407   3.669  1.00  0.00     0.068 A 
ATOM     22  O   UNL     1       0.234   1.598   3.936  1.00  0.00    -0.288 OA
ATOM     23  C   UNL     1      -2.991  -2.211   4.191  1.00  0.00     0.043 A 
ATOM     24  C   UNL     1      -1.840  -0.140   4.697  1.00  0.00     0.055 A 
ATOM     25  C   UNL     1      -2.857  -1.053   4.951  1.00  0.00     0.124 A 
ATOM     26  F   UNL     1      -3.725  -0.819   5.944  1.00  0.00    -0.207 F 
BRANCH  16  27
ATOM     27  N   UNL     1       1.871  -1.700   0.898  1.00  0.00    -0.369 N 
ATOM     28  H   UNL     1       1.703  -2.610   0.560  1.00  0.00     0.159 HD
ATOM     29  H   UNL     1       2.681  -1.214   0.622  1.00  0.00     0.159 HD
ENDBRANCH  16  27
ENDBRANCH   9  15
ENDBRANCH   6   8
ENDBRANCH   5   6
ENDBRANCH   4   5
ENDBRANCH   3   4
ENDBRANCH   2   3
ENDBRANCH   1   2
BRANCH   1  30
ATOM     30  C   UNL     1      -1.571   1.781  -0.236  1.00  0.00     0.188 C 
BRANCH  30  31
ATOM     31  O   UNL     1      -2.266   0.765   0.468  1.00  0.00    -0.376 OA
BRANCH  31  32
ATOM     32  C   UNL     1      -3.635   0.547   0.149  1.00  0.00     0.202 C 
BRANCH  32  33
ATOM     33  C   UNL     1      -4.575   1.726   0.392  1.00  0.00     0.261 C 
BRANCH  33  34
ATOM     34  O   UNL     1      -4.370   2.745  -0.604  1.00  0.00    -0.460 OA
BRANCH  34  35
ATOM     35  C   UNL     1      -4.107   3.989  -0.138  1.00  0.00     0.338 C 
ATOM     36  O   UNL     1      -4.140   4.376   1.018  1.00  0.00    -0.246 OA
BRANCH  35  37
ATOM     37  C   UNL     1      -3.534   4.777  -1.246  1.00  0.00     0.060 A 
ATOM     38  C   UNL     1      -4.197   4.889  -2.470  1.00  0.00     0.016 A 
ATOM     39  C   UNL     1      -2.280   5.373  -1.057  1.00  0.00     0.016 A 
ATOM     40  C   UNL     1      -3.610   5.624  -3.502  1.00  0.00     0.010 A 
ATOM     41  C   UNL     1      -1.685   6.088  -2.096  1.00  0.00     0.010 A 
ATOM     42  C   UNL     1      -2.357   6.234  -3.318  1.00  0.00    -0.014 A 
BRANCH  42  43
ATOM     43  C   UNL     1      -1.836   7.168  -4.341  1.00  0.00     0.031 A 
ATOM     44  C   UNL     1      -0.864   6.736  -5.392  1.00  0.00     0.074 A 
ATOM     45  C   UNL     1      -2.256   8.445  -4.289  1.00  0.00     0.049 A 
ATOM     46  N   UNL     1      -0.379   7.426  -6.394  1.00  0.00    -0.248 NA
ATOM     47  C   UNL     1      -0.363   5.358  -5.307  1.00  0.00     0.031 C 
ATOM     48  C   UNL     1      -3.175   8.979  -3.283  1.00  0.00     0.029 A 
ATOM     49  N   UNL     1      -1.969   9.519  -5.089  1.00  0.00    -0.354 N 
ATOM     50  C   UNL     1       0.467   6.563  -7.076  1.00  0.00     0.074 A 
ATOM     51  C   UNL     1       0.462   5.310  -6.347  1.00  0.00     0.031 C 
ATOM     52  C   UNL     1      -3.380  10.281  -3.528  1.00  0.00     0.029 A 
ATOM     53  C   UNL     1      -2.602  10.672  -4.700  1.00  0.00     0.049 A 
ATOM     54  H   UNL     1      -1.368   9.468  -5.867  1.00  0.00     0.167 HD
ATOM     55  C   UNL     1       1.166   6.800  -8.213  1.00  0.00     0.037 A 
ATOM     56  C   UNL     1      -2.564  11.907  -5.231  1.00  0.00     0.037 A 
ATOM     57  C   UNL     1       1.176   8.059  -8.918  1.00  0.00     0.049 A 
ATOM     58  C   UNL     1      -1.764  12.147  -6.477  1.00  0.00     0.074 A 
ATOM     59  C   UNL     1       1.804   8.375 -10.112  1.00  0.00     0.029 A 
ATOM     60  N   UNL     1       0.546   9.218  -8.484  1.00  0.00    -0.354 N 
ATOM     61  N   UNL     1      -1.038  11.301  -7.167  1.00  0.00    -0.248 NA
ATOM     62  C   UNL     1      -1.791  13.508  -7.027  1.00  0.00     0.031 C 
ATOM     63  C   UNL     1       1.601   9.736 -10.370  1.00  0.00     0.029 A 
ATOM     64  C   UNL     1       0.802  10.258  -9.367  1.00  0.00     0.049 A 
ATOM     65  H   UNL     1      -0.001   9.291  -7.670  1.00  0.00     0.167 HD
ATOM     66  C   UNL     1      -0.525  12.022  -8.234  1.00  0.00     0.074 A 
ATOM     67  C   UNL     1      -1.048  13.369  -8.116  1.00  0.00     0.031 C 
ATOM     68  C   UNL     1       0.306  11.605  -9.221  1.00  0.00     0.037 A 
BRANCH  55  69
ATOM     69  C   UNL     1       1.984   5.675  -8.777  1.00  0.00     0.064 A 
ATOM     70  C   UNL     1       1.380   4.571  -9.398  1.00  0.00     0.173 A 
ATOM     71  C   UNL     1       3.386   5.737  -8.770  1.00  0.00     0.173 A 
ATOM     72  F   UNL     1       0.043   4.462  -9.429  1.00  0.00    -0.203 F 
ATOM     73  C   UNL     1       2.149   3.563  -9.976  1.00  0.00     0.198 A 
ATOM     74  C   UNL     1       4.152   4.740  -9.370  1.00  0.00     0.198 A 
ATOM     75  F   UNL     1       4.014   6.775  -8.198  1.00  0.00    -0.203 F 
ATOM     76  F   UNL     1       1.550   2.505 -10.539  1.00  0.00    -0.200 F 
ATOM     77  C   UNL     1       3.533   3.653  -9.969  1.00  0.00     0.200 A 
ATOM     78  F   UNL     1       5.488   4.835  -9.375  1.00  0.00    -0.200 F 
ATOM     79  F   UNL     1       4.271   2.690 -10.539  1.00  0.00    -0.200 F 
ENDBRANCH  55  69
BRANCH  56  80
ATOM     80  C   UNL     1      -3.349  12.989  -4.590  1.00  0.00     0.064 A 
ATOM     81  C   UNL     1      -4.526  13.469  -5.179  1.00  0.00     0.173 A 
ATOM     82  C   UNL     1      -2.972  13.518  -3.347  1.00  0.00     0.173 A 
ATOM     83  F   UNL     1      -4.915  13.002  -6.374  1.00  0.00    -0.203 F 
ATOM     84  C   UNL     1      -5.297  14.441  -4.548  1.00  0.00     0.198 A 
ATOM     85  C   UNL     1      -3.757  14.473  -2.706  1.00  0.00     0.198 A 
ATOM     86  F   UNL     1      -1.858  13.081  -2.742  1.00  0.00    -0.203 F 
ATOM     87  F   UNL     1      -6.408  14.900  -5.140  1.00  0.00    -0.200 F 
ATOM     88  C   UNL     1      -4.918  14.935  -3.308  1.00  0.00     0.200 A 
ATOM     89  F   UNL     1      -3.396  14.934  -1.501  1.00  0.00    -0.200 F 
ATOM     90  F   UNL     1      -5.672  15.856  -2.692  1.00  0.00    -0.200 F 
ENDBRANCH  56  80
BRANCH  68  91
ATOM     91  C   UNL     1       0.718  12.628 -10.241  1.00  0.00     0.064 A 
ATOM     92  C   UNL     1       1.597  13.672  -9.914  1.00  0.00     0.173 A 
ATOM     93  C   UNL     1       0.244  12.558 -11.560  1.00  0.00     0.173 A 
ATOM     94  F   UNL     1       2.065  13.793  -8.662  1.00  0.00    -0.203 F 
ATOM     95  C   UNL     1       1.963  14.624 -10.861  1.00  0.00     0.198 A 
ATOM     96  C   UNL     1       0.636  13.495 -12.513  1.00  0.00     0.198 A 
ATOM     97  F   UNL     1      -0.594  11.578 -11.927  1.00  0.00    -0.203 F 
ATOM     98  F   UNL     1       2.761  15.643 -10.511  1.00  0.00    -0.200 F 
ATOM     99  C   UNL     1       1.487  14.532 -12.161  1.00  0.00     0.200 A 
ATOM    100  F   UNL     1       0.185  13.399 -13.771  1.00  0.00    -0.200 F 
ATOM    101  F   UNL     1       1.841  15.449 -13.072  1.00  0.00    -0.200 F 
ENDBRANCH  68  91
ENDBRANCH  42  43
ENDBRANCH  35  37
ENDBRANCH  34  35
ENDBRANCH  33  34
ENDBRANCH  32  33
ENDBRANCH  31  32
ENDBRANCH  30  31
ENDBRANCH   1  30
TORSDOF 19
