REMARK SMILES O=C(CCCN1C(=O)/C(=C\c2ccc(O)c(O)c2)SC1=S)OCCOCCOCCOC(=O)c1ccc(-c2c3nc(c(-c4c(F)c(F)c(F)c(F)c4F)c4ccc([nH]4)c(-c4c(F)c(F)c(F)c(F)c4F)c4nc(c(-c5c(F)c(F)c(F)c(F)c5F)c5ccc2[nH]5)C=C4)C=C3)cc1
REMARK SMILES IDX 25 1 24 2 23 3 22 4 2 5 1 6 3 7 4 8 5 9 6 10 7 11 20 12 8 13
REMARK SMILES IDX 9 14 19 15 21 16 10 17 11 18 12 19 18 20 13 21 16 22 14 23
REMARK SMILES IDX 17 24 15 26 26 28 27 29 28 30 29 31 30 32 31 33 32 34 33 35
REMARK SMILES IDX 34 36 35 37 96 38 36 39 95 40 37 41 38 42 39 43 89 44 40 45
REMARK SMILES IDX 94 46 88 47 90 48 41 49 93 50 87 51 86 52 42 54 74 55 54 56
REMARK SMILES IDX 73 57 55 58 58 59 72 60 91 61 56 62 57 63 71 65 92 66 59 67
REMARK SMILES IDX 43 68 44 69 52 70 45 71 46 72 50 73 53 74 47 75 48 76 51 77
REMARK SMILES IDX 49 78 75 79 76 80 84 81 77 82 78 83 82 84 85 85 79 86 80 87
REMARK SMILES IDX 83 88 81 89 60 90 61 91 69 92 62 93 63 94 67 95 70 96 64 97
REMARK SMILES IDX 65 98 68 99 66 100
REMARK H PARENT 17 25 15 27 90 53 58 64
REMARK Flexibility Score: inf
ROOT
ATOM      1  O   UNL     1       3.079   0.053  -1.520  1.00  0.00    -0.376 OA
ENDROOT
BRANCH   1   2
ATOM      2  C   UNL     1       4.069  -0.760  -0.897  1.00  0.00     0.202 C 
BRANCH   2   3
ATOM      3  C   UNL     1       3.643  -1.509   0.362  1.00  0.00     0.261 C 
BRANCH   3   4
ATOM      4  O   UNL     1       3.064  -0.780   1.471  1.00  0.00    -0.463 OA
BRANCH   4   5
ATOM      5  C   UNL     1       2.568   0.473   1.420  1.00  0.00     0.305 C 
ATOM      6  O   UNL     1       1.411   0.706   1.760  1.00  0.00    -0.252 OA
BRANCH   5   7
ATOM      7  C   UNL     1       3.555   1.584   1.166  1.00  0.00     0.124 C 
BRANCH   7   8
ATOM      8  C   UNL     1       4.613   1.728   2.257  1.00  0.00     0.034 C 
BRANCH   8   9
ATOM      9  C   UNL     1       5.813   0.767   2.191  1.00  0.00     0.128 C 
BRANCH   9  10
ATOM     10  N   UNL     1       6.620   0.692   0.960  1.00  0.00    -0.293 N 
ATOM     11  C   UNL     1       6.756   1.776   0.108  1.00  0.00     0.266 C 
ATOM     12  C   UNL     1       7.388  -0.415   0.638  1.00  0.00     0.148 C 
ATOM     13  O   UNL     1       6.248   2.874   0.276  1.00  0.00    -0.268 OA
ATOM     14  C   UNL     1       7.609   1.424  -1.071  1.00  0.00     0.081 C 
ATOM     15  S   UNL     1       8.081  -0.228  -0.969  1.00  0.00    -0.054 SA
ATOM     16  S   UNL     1       7.670  -1.781   1.553  1.00  0.00    -0.052 S 
ATOM     17  C   UNL     1       8.021   2.235  -2.058  1.00  0.00     0.029 C 
BRANCH  17  18
ATOM     18  C   UNL     1       7.798   3.683  -2.072  1.00  0.00    -0.020 A 
ATOM     19  C   UNL     1       8.341   4.467  -1.038  1.00  0.00     0.012 A 
ATOM     20  C   UNL     1       7.048   4.292  -3.082  1.00  0.00     0.058 A 
ATOM     21  C   UNL     1       8.075   5.833  -0.959  1.00  0.00     0.051 A 
ATOM     22  C   UNL     1       6.803   5.658  -3.005  1.00  0.00     0.157 A 
ATOM     23  C   UNL     1       7.294   6.418  -1.944  1.00  0.00     0.157 A 
BRANCH  22  24
ATOM     24  O   UNL     1       6.051   6.258  -3.976  1.00  0.00    -0.504 OA
ATOM     25  H   UNL     1       5.880   7.179  -3.934  1.00  0.00     0.293 HD
ENDBRANCH  22  24
BRANCH  23  26
ATOM     26  O   UNL     1       6.972   7.746  -1.904  1.00  0.00    -0.504 OA
ATOM     27  H   UNL     1       7.286   8.284  -1.204  1.00  0.00     0.293 HD
ENDBRANCH  23  26
ENDBRANCH  17  18
ENDBRANCH   9  10
ENDBRANCH   8   9
ENDBRANCH   7   8
ENDBRANCH   5   7
ENDBRANCH   4   5
ENDBRANCH   3   4
ENDBRANCH   2   3
ENDBRANCH   1   2
BRANCH   1  28
ATOM     28  C   UNL     1       1.817  -0.559  -1.758  1.00  0.00     0.188 C 
BRANCH  28  29
ATOM     29  C   UNL     1       1.787  -1.598  -2.882  1.00  0.00     0.188 C 
BRANCH  29  30
ATOM     30  O   UNL     1       2.956  -2.412  -2.917  1.00  0.00    -0.376 OA
BRANCH  30  31
ATOM     31  C   UNL     1       3.562  -2.474  -4.212  1.00  0.00     0.202 C 
BRANCH  31  32
ATOM     32  C   UNL     1       4.495  -1.294  -4.547  1.00  0.00     0.261 C 
BRANCH  32  33
ATOM     33  O   UNL     1       3.927   0.022  -4.409  1.00  0.00    -0.460 OA
BRANCH  33  34
ATOM     34  C   UNL     1       3.045   0.407  -5.352  1.00  0.00     0.338 C 
ATOM     35  O   UNL     1       2.609  -0.274  -6.274  1.00  0.00    -0.246 OA
BRANCH  34  36
ATOM     36  C   UNL     1       2.613   1.788  -5.076  1.00  0.00     0.060 A 
ATOM     37  C   UNL     1       1.318   2.026  -4.603  1.00  0.00     0.016 A 
ATOM     38  C   UNL     1       3.463   2.856  -5.372  1.00  0.00     0.016 A 
ATOM     39  C   UNL     1       0.864   3.340  -4.444  1.00  0.00     0.010 A 
ATOM     40  C   UNL     1       3.003   4.170  -5.223  1.00  0.00     0.010 A 
ATOM     41  C   UNL     1       1.691   4.420  -4.786  1.00  0.00    -0.014 A 
BRANCH  41  42
ATOM     42  C   UNL     1       1.140   5.799  -4.832  1.00  0.00     0.031 A 
ATOM     43  C   UNL     1       0.589   6.322  -6.130  1.00  0.00     0.074 A 
ATOM     44  C   UNL     1       1.128   6.582  -3.738  1.00  0.00     0.049 A 
ATOM     45  N   UNL     1       0.092   7.501  -6.412  1.00  0.00    -0.248 NA
ATOM     46  C   UNL     1       0.596   5.385  -7.266  1.00  0.00     0.031 C 
ATOM     47  C   UNL     1       1.602   6.189  -2.414  1.00  0.00     0.029 A 
ATOM     48  N   UNL     1       0.707   7.880  -3.576  1.00  0.00    -0.354 N 
ATOM     49  C   UNL     1      -0.273   7.447  -7.751  1.00  0.00     0.074 A 
ATOM     50  C   UNL     1       0.078   6.128  -8.233  1.00  0.00     0.031 C 
ATOM     51  C   UNL     1       1.461   7.231  -1.575  1.00  0.00     0.029 A 
ATOM     52  C   UNL     1       0.915   8.372  -2.311  1.00  0.00     0.049 A 
ATOM     53  H   UNL     1       0.294   8.407  -4.298  1.00  0.00     0.167 HD
ATOM     54  C   UNL     1      -0.853   8.408  -8.510  1.00  0.00     0.037 A 
ATOM     55  C   UNL     1       0.712   9.608  -1.813  1.00  0.00     0.037 A 
ATOM     56  C   UNL     1      -1.187   9.727  -8.040  1.00  0.00     0.049 A 
ATOM     57  C   UNL     1       0.139  10.685  -2.701  1.00  0.00     0.074 A 
ATOM     58  C   UNL     1      -1.789  10.763  -8.733  1.00  0.00     0.029 A 
ATOM     59  N   UNL     1      -0.934  10.196  -6.760  1.00  0.00    -0.354 N 
ATOM     60  N   UNL     1      -0.241  10.615  -3.954  1.00  0.00    -0.248 NA
ATOM     61  C   UNL     1      -0.035  12.018  -2.102  1.00  0.00     0.031 C 
ATOM     62  C   UNL     1      -1.853  11.876  -7.889  1.00  0.00     0.029 A 
ATOM     63  C   UNL     1      -1.342  11.516  -6.653  1.00  0.00     0.049 A 
ATOM     64  H   UNL     1      -0.526   9.670  -6.036  1.00  0.00     0.167 HD
ATOM     65  C   UNL     1      -0.725  11.876  -4.281  1.00  0.00     0.074 A 
ATOM     66  C   UNL     1      -0.602  12.692  -3.093  1.00  0.00     0.031 C 
ATOM     67  C   UNL     1      -1.227  12.317  -5.461  1.00  0.00     0.037 A 
BRANCH  54  68
ATOM     68  C   UNL     1      -1.143   8.078  -9.944  1.00  0.00     0.064 A 
ATOM     69  C   UNL     1      -2.185   7.210 -10.302  1.00  0.00     0.173 A 
ATOM     70  C   UNL     1      -0.402   8.676 -10.974  1.00  0.00     0.173 A 
ATOM     71  F   UNL     1      -2.916   6.605  -9.354  1.00  0.00    -0.203 F 
ATOM     72  C   UNL     1      -2.463   6.939 -11.640  1.00  0.00     0.198 A 
ATOM     73  C   UNL     1      -0.699   8.423 -12.311  1.00  0.00     0.198 A 
ATOM     74  F   UNL     1       0.601   9.518 -10.685  1.00  0.00    -0.203 F 
ATOM     75  F   UNL     1      -3.440   6.079 -11.959  1.00  0.00    -0.200 F 
ATOM     76  C   UNL     1      -1.725   7.551 -12.642  1.00  0.00     0.200 A 
ATOM     77  F   UNL     1       0.007   9.025 -13.278  1.00  0.00    -0.200 F 
ATOM     78  F   UNL     1      -2.000   7.298 -13.929  1.00  0.00    -0.200 F 
ENDBRANCH  54  68
BRANCH  55  79
ATOM     79  C   UNL     1       1.070   9.913  -0.402  1.00  0.00     0.064 A 
ATOM     80  C   UNL     1       0.084  10.213   0.548  1.00  0.00     0.173 A 
ATOM     81  C   UNL     1       2.409   9.953   0.014  1.00  0.00     0.173 A 
ATOM     82  F   UNL     1      -1.209  10.221   0.191  1.00  0.00    -0.203 F 
ATOM     83  C   UNL     1       0.424  10.563   1.853  1.00  0.00     0.198 A 
ATOM     84  C   UNL     1       2.747  10.274   1.327  1.00  0.00     0.198 A 
ATOM     85  F   UNL     1       3.393   9.687  -0.857  1.00  0.00    -0.203 F 
ATOM     86  F   UNL     1      -0.535  10.903   2.725  1.00  0.00    -0.200 F 
ATOM     87  C   UNL     1       1.755  10.588   2.243  1.00  0.00     0.200 A 
ATOM     88  F   UNL     1       4.034  10.292   1.700  1.00  0.00    -0.200 F 
ATOM     89  F   UNL     1       2.082  10.931   3.497  1.00  0.00    -0.200 F 
ENDBRANCH  55  79
BRANCH  67  90
ATOM     90  C   UNL     1      -1.722  13.734  -5.520  1.00  0.00     0.064 A 
ATOM     91  C   UNL     1      -0.841  14.825  -5.511  1.00  0.00     0.173 A 
ATOM     92  C   UNL     1      -3.095  14.001  -5.634  1.00  0.00     0.173 A 
ATOM     93  F   UNL     1       0.480  14.625  -5.390  1.00  0.00    -0.203 F 
ATOM     94  C   UNL     1      -1.318  16.131  -5.591  1.00  0.00     0.198 A 
ATOM     95  C   UNL     1      -3.566  15.306  -5.744  1.00  0.00     0.198 A 
ATOM     96  F   UNL     1      -3.981  12.993  -5.655  1.00  0.00    -0.203 F 
ATOM     97  F   UNL     1      -0.460  17.160  -5.537  1.00  0.00    -0.200 F 
ATOM     98  C   UNL     1      -2.678  16.370  -5.715  1.00  0.00     0.200 A 
ATOM     99  F   UNL     1      -4.880  15.534  -5.878  1.00  0.00    -0.200 F 
ATOM    100  F   UNL     1      -3.134  17.628  -5.801  1.00  0.00    -0.200 F 
ENDBRANCH  67  90
ENDBRANCH  41  42
ENDBRANCH  34  36
ENDBRANCH  33  34
ENDBRANCH  32  33
ENDBRANCH  31  32
ENDBRANCH  30  31
ENDBRANCH  29  30
ENDBRANCH  28  29
ENDBRANCH   1  28
TORSDOF 23
