REMARK SMILES O=C(OCCOCCOCCOC(=O)c1ccc(-c2c3nc(c(-c4c(F)c(F)c(F)c(F)c4F)c4ccc([nH]4)c(-c4c(F)c(F)c(F)c(F)c4F)c4nc(c(-c5c(F)c(F)c(F)c(F)c5F)c5ccc2[nH]5)C=C4)C=C3)cc1)c1ccc(/[NH+]=C2\S[C@@H](Cc3ccc(F)cc3)C(=O)N2Cc2ccccc2)cc1
REMARK SMILES IDX 7 1 6 2 5 3 4 4 3 5 2 6 1 7 78 8 79 9 105 10 80 11 104 12
REMARK SMILES IDX 81 13 82 14 83 15 84 17 96 18 85 19 94 20 95 21 97 22 98 23
REMARK SMILES IDX 99 24 103 25 100 26 102 27 101 28 86 29 87 30 88 31 93 32
REMARK SMILES IDX 89 33 92 34 90 35 91 36 8 37 9 38 10 39 11 40 12 41 13 42
REMARK SMILES IDX 14 43 15 44 16 45 77 46 17 47 76 48 18 49 19 50 20 51 70 52
REMARK SMILES IDX 21 53 75 54 69 55 71 56 22 57 74 58 68 59 67 60 23 62 55 63
REMARK SMILES IDX 35 64 54 65 36 66 39 67 53 68 72 69 37 70 38 71 52 73 73 74
REMARK SMILES IDX 40 75 24 76 25 77 33 78 26 79 27 80 31 81 34 82 28 83 29 84
REMARK SMILES IDX 32 85 30 86 56 87 57 88 65 89 58 90 59 91 63 92 66 93 60 94
REMARK SMILES IDX 61 95 64 96 62 97 41 98 42 99 50 100 43 101 44 102 48 103
REMARK SMILES IDX 51 104 45 105 46 106 49 107 47 108
REMARK H PARENT 82 16 71 61 39 72
REMARK Flexibility Score: inf
ROOT
ATOM      1  C   UNL     1       2.583   0.730  -2.030  1.00  0.00     0.188 C 
ENDROOT
BRANCH   1   2
ATOM      2  O   UNL     1       3.722   0.906  -1.176  1.00  0.00    -0.376 OA
BRANCH   2   3
ATOM      3  C   UNL     1       4.589  -0.227  -1.131  1.00  0.00     0.202 C 
BRANCH   3   4
ATOM      4  C   UNL     1       4.175  -1.316  -0.133  1.00  0.00     0.261 C 
BRANCH   4   5
ATOM      5  O   UNL     1       2.745  -1.420   0.003  1.00  0.00    -0.460 OA
BRANCH   5   6
ATOM      6  C   UNL     1       2.004  -0.984   1.054  1.00  0.00     0.338 C 
ATOM      7  O   UNL     1       0.803  -1.229   1.110  1.00  0.00    -0.246 OA
BRANCH   6   8
ATOM      8  C   UNL     1       2.631  -0.268   2.194  1.00  0.00     0.060 A 
ATOM      9  C   UNL     1       3.519   0.794   2.027  1.00  0.00     0.020 A 
ATOM     10  C   UNL     1       2.259  -0.643   3.493  1.00  0.00     0.020 A 
ATOM     11  C   UNL     1       4.155   1.356   3.129  1.00  0.00     0.052 A 
ATOM     12  C   UNL     1       2.860  -0.038   4.603  1.00  0.00     0.052 A 
ATOM     13  C   UNL     1       3.870   0.908   4.418  1.00  0.00     0.125 A 
BRANCH  13  14
ATOM     14  N   UNL     1       4.654   1.411   5.462  1.00  0.00    -0.235 N 
ATOM     15  C   UNL     1       5.556   0.653   5.998  1.00  0.00     0.320 C 
ATOM     16  H   UNL     1       4.521   2.331   5.786  1.00  0.00     0.313 HD
ATOM     17  S   UNL     1       5.790  -1.059   5.725  1.00  0.00    -0.022 SA
ATOM     18  N   UNL     1       6.513   1.127   6.854  1.00  0.00    -0.186 N 
ATOM     19  C   UNL     1       6.821  -1.216   7.208  1.00  0.00     0.178 C 
ATOM     20  C   UNL     1       7.360   0.191   7.420  1.00  0.00     0.324 C 
ATOM     21  O   UNL     1       8.373   0.457   8.056  1.00  0.00    -0.245 OA
BRANCH  18  22
ATOM     22  C   UNL     1       6.748   2.552   7.036  1.00  0.00     0.283 C 
BRANCH  22  23
ATOM     23  C   UNL     1       7.580   3.139   5.912  1.00  0.00    -0.006 A 
ATOM     24  C   UNL     1       8.981   3.144   5.982  1.00  0.00     0.008 A 
ATOM     25  C   UNL     1       6.963   3.654   4.762  1.00  0.00     0.008 A 
ATOM     26  C   UNL     1       9.742   3.655   4.927  1.00  0.00     0.000 A 
ATOM     27  C   UNL     1       7.724   4.149   3.701  1.00  0.00     0.000 A 
ATOM     28  C   UNL     1       9.114   4.152   3.786  1.00  0.00     0.000 A 
ENDBRANCH  22  23
ENDBRANCH  18  22
BRANCH  19  29
ATOM     29  C   UNL     1       7.874  -2.300   7.010  1.00  0.00     0.063 C 
BRANCH  29  30
ATOM     30  C   UNL     1       8.553  -2.712   8.296  1.00  0.00    -0.046 A 
ATOM     31  C   UNL     1       9.934  -2.519   8.452  1.00  0.00     0.007 A 
ATOM     32  C   UNL     1       7.820  -3.292   9.345  1.00  0.00     0.007 A 
ATOM     33  C   UNL     1      10.566  -2.877   9.642  1.00  0.00     0.039 A 
ATOM     34  C   UNL     1       8.454  -3.640  10.538  1.00  0.00     0.039 A 
ATOM     35  C   UNL     1       9.819  -3.427  10.676  1.00  0.00     0.123 A 
ATOM     36  F   UNL     1      10.426  -3.759  11.823  1.00  0.00    -0.207 F 
ENDBRANCH  29  30
ENDBRANCH  19  29
ENDBRANCH  13  14
ENDBRANCH   6   8
ENDBRANCH   5   6
ENDBRANCH   4   5
ENDBRANCH   3   4
ENDBRANCH   2   3
ENDBRANCH   1   2
BRANCH   1  37
ATOM     37  C   UNL     1       2.120   2.084  -2.573  1.00  0.00     0.188 C 
BRANCH  37  38
ATOM     38  O   UNL     1       2.916   2.580  -3.652  1.00  0.00    -0.376 OA
BRANCH  38  39
ATOM     39  C   UNL     1       4.270   2.910  -3.349  1.00  0.00     0.202 C 
BRANCH  39  40
ATOM     40  C   UNL     1       4.462   4.253  -2.639  1.00  0.00     0.261 C 
BRANCH  40  41
ATOM     41  O   UNL     1       3.957   4.262  -1.288  1.00  0.00    -0.460 OA
BRANCH  41  42
ATOM     42  C   UNL     1       3.051   5.234  -1.034  1.00  0.00     0.338 C 
ATOM     43  O   UNL     1       2.608   6.066  -1.813  1.00  0.00    -0.246 OA
BRANCH  42  44
ATOM     44  C   UNL     1       2.614   5.209   0.370  1.00  0.00     0.060 A 
ATOM     45  C   UNL     1       1.335   4.733   0.669  1.00  0.00     0.016 A 
ATOM     46  C   UNL     1       3.357   5.903   1.330  1.00  0.00     0.016 A 
ATOM     47  C   UNL     1       0.766   5.012   1.914  1.00  0.00     0.010 A 
ATOM     48  C   UNL     1       2.787   6.174   2.579  1.00  0.00     0.010 A 
ATOM     49  C   UNL     1       1.467   5.778   2.859  1.00  0.00    -0.014 A 
BRANCH  49  50
ATOM     50  C   UNL     1       0.766   6.287   4.067  1.00  0.00     0.031 A 
ATOM     51  C   UNL     1       0.259   7.707   4.095  1.00  0.00     0.074 A 
ATOM     52  C   UNL     1       0.552   5.488   5.127  1.00  0.00     0.049 A 
ATOM     53  N   UNL     1      -0.382   8.344   5.045  1.00  0.00    -0.248 NA
ATOM     54  C   UNL     1       0.511   8.520   2.895  1.00  0.00     0.031 C 
ATOM     55  C   UNL     1       0.981   4.096   5.234  1.00  0.00     0.029 A 
ATOM     56  N   UNL     1      -0.080   5.742   6.319  1.00  0.00    -0.354 N 
ATOM     57  C   UNL     1      -0.615   9.623   4.557  1.00  0.00     0.074 A 
ATOM     58  C   UNL     1      -0.014   9.687   3.241  1.00  0.00     0.031 C 
ATOM     59  C   UNL     1       0.604   3.618   6.432  1.00  0.00     0.029 A 
ATOM     60  C   UNL     1      -0.079   4.674   7.180  1.00  0.00     0.049 A 
ATOM     61  H   UNL     1      -0.495   6.609   6.535  1.00  0.00     0.167 HD
ATOM     62  C   UNL     1      -1.282  10.648   5.140  1.00  0.00     0.037 A 
ATOM     63  C   UNL     1      -0.565   4.563   8.431  1.00  0.00     0.037 A 
ATOM     64  C   UNL     1      -1.887  10.601   6.446  1.00  0.00     0.049 A 
ATOM     65  C   UNL     1      -1.278   5.726   9.070  1.00  0.00     0.074 A 
ATOM     66  C   UNL     1      -2.587  11.593   7.112  1.00  0.00     0.029 A 
ATOM     67  N   UNL     1      -1.862   9.499   7.286  1.00  0.00    -0.354 N 
ATOM     68  N   UNL     1      -1.515   6.920   8.587  1.00  0.00    -0.248 NA
ATOM     69  C   UNL     1      -1.800   5.518  10.430  1.00  0.00     0.031 C 
ATOM     70  C   UNL     1      -2.961  11.102   8.367  1.00  0.00     0.029 A 
ATOM     71  C   UNL     1      -2.525   9.792   8.468  1.00  0.00     0.049 A 
ATOM     72  H   UNL     1      -1.437   8.637   7.075  1.00  0.00     0.167 HD
ATOM     73  C   UNL     1      -2.228   7.596   9.569  1.00  0.00     0.074 A 
ATOM     74  C   UNL     1      -2.400   6.674  10.671  1.00  0.00     0.031 C 
ATOM     75  C   UNL     1      -2.695   8.868   9.559  1.00  0.00     0.037 A 
BRANCH  62  76
ATOM     76  C   UNL     1      -1.401  11.926   4.364  1.00  0.00     0.064 A 
ATOM     77  C   UNL     1      -2.289  12.043   3.285  1.00  0.00     0.173 A 
ATOM     78  C   UNL     1      -0.664  13.060   4.737  1.00  0.00     0.173 A 
ATOM     79  F   UNL     1      -3.009  10.983   2.886  1.00  0.00    -0.203 F 
ATOM     80  C   UNL     1      -2.423  13.245   2.596  1.00  0.00     0.198 A 
ATOM     81  C   UNL     1      -0.817  14.267   4.060  1.00  0.00     0.198 A 
ATOM     82  F   UNL     1       0.193  13.001   5.768  1.00  0.00    -0.203 F 
ATOM     83  F   UNL     1      -3.257  13.327   1.550  1.00  0.00    -0.200 F 
ATOM     84  C   UNL     1      -1.693  14.357   2.988  1.00  0.00     0.200 A 
ATOM     85  F   UNL     1      -0.119  15.344   4.446  1.00  0.00    -0.200 F 
ATOM     86  F   UNL     1      -1.831  15.517   2.331  1.00  0.00    -0.200 F 
ENDBRANCH  62  76
BRANCH  63  87
ATOM     87  C   UNL     1      -0.396   3.289   9.172  1.00  0.00     0.064 A 
ATOM     88  C   UNL     1      -1.488   2.449   9.426  1.00  0.00     0.173 A 
ATOM     89  C   UNL     1       0.860   2.898   9.658  1.00  0.00     0.173 A 
ATOM     90  F   UNL     1      -2.713   2.798   9.004  1.00  0.00    -0.203 F 
ATOM     91  C   UNL     1      -1.334   1.272  10.154  1.00  0.00     0.198 A 
ATOM     92  C   UNL     1       1.017   1.708  10.363  1.00  0.00     0.198 A 
ATOM     93  F   UNL     1       1.935   3.670   9.443  1.00  0.00    -0.203 F 
ATOM     94  F   UNL     1      -2.402   0.508  10.422  1.00  0.00    -0.200 F 
ATOM     95  C   UNL     1      -0.081   0.900  10.617  1.00  0.00     0.200 A 
ATOM     96  F   UNL     1       2.231   1.345  10.800  1.00  0.00    -0.200 F 
ATOM     97  F   UNL     1       0.068  -0.234  11.316  1.00  0.00    -0.200 F 
ENDBRANCH  63  87
BRANCH  75  98
ATOM     98  C   UNL     1      -3.458   9.333  10.765  1.00  0.00     0.064 A 
ATOM     99  C   UNL     1      -2.809   9.627  11.973  1.00  0.00     0.173 A 
ATOM    100  C   UNL     1      -4.848   9.512  10.704  1.00  0.00     0.173 A 
ATOM    101  F   UNL     1      -1.483   9.457  12.085  1.00  0.00    -0.203 F 
ATOM    102  C   UNL     1      -3.528  10.059  13.085  1.00  0.00     0.198 A 
ATOM    103  C   UNL     1      -5.561   9.966  11.811  1.00  0.00     0.198 A 
ATOM    104  F   UNL     1      -5.515   9.251   9.570  1.00  0.00    -0.203 F 
ATOM    105  F   UNL     1      -2.893  10.292  14.242  1.00  0.00    -0.200 F 
ATOM    106  C   UNL     1      -4.901  10.232  13.002  1.00  0.00     0.200 A 
ATOM    107  F   UNL     1      -6.887  10.142  11.727  1.00  0.00    -0.200 F 
ATOM    108  F   UNL     1      -5.591  10.648  14.073  1.00  0.00    -0.200 F 
ENDBRANCH  75  98
ENDBRANCH  49  50
ENDBRANCH  42  44
ENDBRANCH  41  42
ENDBRANCH  40  41
ENDBRANCH  39  40
ENDBRANCH  38  39
ENDBRANCH  37  38
ENDBRANCH   1  37
TORSDOF 22
