REMARK SMILES O=C1NC(=S)/C(=C/c2ccc(-c3ccc(C(=O)OCCOCCOCCOC(=O)c4ccc(-c5c6nc(c(-c7c(F)c(F)c(F)c(F)c7F)c7ccc([nH]7)c(-c7c(F)c(F)c(F)c(F)c7F)c7nc(c(-c8c(F)c(F)c(F)c(F)c8F)c8ccc5[nH]8)C=C7)C=C6)cc4)cc3)o2)S1
REMARK SMILES IDX 22 1 21 2 20 3 19 4 18 5 16 6 17 7 15 8 12 9 13 10 94 11
REMARK SMILES IDX 14 12 93 13 11 14 8 15 9 16 95 17 10 18 7 19 1 20 2 21 3 22
REMARK SMILES IDX 96 23 4 24 6 26 5 27 23 28 24 29 25 30 26 31 27 32 28 33
REMARK SMILES IDX 29 34 30 35 31 36 92 37 32 38 91 39 33 40 34 41 35 42 85 43
REMARK SMILES IDX 36 44 90 45 84 46 86 47 37 48 89 49 83 50 82 51 38 53 70 54
REMARK SMILES IDX 50 55 69 56 51 57 54 58 68 59 87 60 52 61 53 62 67 64 88 65
REMARK SMILES IDX 55 66 39 67 40 68 48 69 41 70 42 71 46 72 49 73 43 74 44 75
REMARK SMILES IDX 47 76 45 77 71 78 72 79 80 80 73 81 74 82 78 83 81 84 75 85
REMARK SMILES IDX 76 86 79 87 77 88 56 89 57 90 65 91 58 92 59 93 63 94 66 95
REMARK SMILES IDX 60 96 61 97 64 98 62 99
REMARK H PARENT 3 25 86 52 54 63
REMARK Flexibility Score: inf
ROOT
ATOM      1  C   UNL     1      10.064  -8.548   4.655  1.00  0.00     0.188 C 
ENDROOT
BRANCH   1   2
ATOM      2  O   UNL     1      10.378  -9.768   5.296  1.00  0.00    -0.376 OA
BRANCH   2   3
ATOM      3  C   UNL     1      10.120 -11.010   4.662  1.00  0.00     0.202 C 
BRANCH   3   4
ATOM      4  C   UNL     1       8.919 -11.263   3.732  1.00  0.00     0.261 C 
BRANCH   4   5
ATOM      5  O   UNL     1       8.545 -10.189   2.862  1.00  0.00    -0.460 OA
BRANCH   5   6
ATOM      6  C   UNL     1       7.387  -9.561   3.185  1.00  0.00     0.338 C 
ATOM      7  O   UNL     1       6.638  -9.836   4.107  1.00  0.00    -0.246 OA
BRANCH   6   8
ATOM      8  C   UNL     1       7.222  -8.341   2.361  1.00  0.00     0.060 A 
ATOM      9  C   UNL     1       6.634  -6.059   0.849  1.00  0.00     0.017 A 
ATOM     10  C   UNL     1       6.476  -6.034   2.239  1.00  0.00     0.013 A 
ATOM     11  C   UNL     1       7.197  -7.195   0.241  1.00  0.00     0.013 A 
ATOM     12  C   UNL     1       6.753  -7.179   2.990  1.00  0.00     0.016 A 
ATOM     13  C   UNL     1       7.500  -8.333   0.993  1.00  0.00     0.016 A 
BRANCH   9  14
ATOM     14  C   UNL     1       6.009  -5.045   0.018  1.00  0.00     0.134 A 
ATOM     15  C   UNL     1       5.500  -2.974  -0.592  1.00  0.00     0.128 A 
ATOM     16  C   UNL     1       4.753  -3.849  -1.373  1.00  0.00     0.051 A 
ATOM     17  O   UNL     1       6.286  -3.732   0.257  1.00  0.00    -0.457 OA
ATOM     18  C   UNL     1       5.074  -5.161  -0.983  1.00  0.00     0.051 A 
BRANCH  15  19
ATOM     19  C   UNL     1       5.514  -1.552  -0.636  1.00  0.00     0.065 C 
ATOM     20  O   UNL     1       1.037   0.498   0.472  1.00  0.00    -0.261 OA
ATOM     21  C   UNL     1       2.176   0.241   0.134  1.00  0.00     0.289 C 
ATOM     22  N   UNL     1       3.122   1.141  -0.248  1.00  0.00    -0.307 N 
ATOM     23  S   UNL     1       2.849  -1.368   0.054  1.00  0.00    -0.025 SA
ATOM     24  C   UNL     1       4.370   0.685  -0.587  1.00  0.00     0.120 C 
ATOM     25  H   UNL     1       2.914   2.102  -0.281  1.00  0.00     0.171 HD
ATOM     26  C   UNL     1       4.417  -0.802  -0.437  1.00  0.00     0.056 C 
ATOM     27  S   UNL     1       5.541   1.751  -1.107  1.00  0.00    -0.059 S 
ENDBRANCH  15  19
ENDBRANCH   9  14
ENDBRANCH   6   8
ENDBRANCH   5   6
ENDBRANCH   4   5
ENDBRANCH   3   4
ENDBRANCH   2   3
ENDBRANCH   1   2
BRANCH   1  28
ATOM     28  C   UNL     1      10.677  -8.216   3.279  1.00  0.00     0.188 C 
BRANCH  28  29
ATOM     29  O   UNL     1      11.379  -9.241   2.620  1.00  0.00    -0.376 OA
BRANCH  29  30
ATOM     30  C   UNL     1      12.718  -9.537   2.977  1.00  0.00     0.202 C 
BRANCH  30  31
ATOM     31  C   UNL     1      13.569  -8.801   4.034  1.00  0.00     0.261 C 
BRANCH  31  32
ATOM     32  O   UNL     1      12.929  -7.871   4.910  1.00  0.00    -0.460 OA
BRANCH  32  33
ATOM     33  C   UNL     1      13.126  -6.560   4.626  1.00  0.00     0.338 C 
ATOM     34  O   UNL     1      13.750  -6.088   3.693  1.00  0.00    -0.246 OA
BRANCH  33  35
ATOM     35  C   UNL     1      12.305  -5.750   5.546  1.00  0.00     0.060 A 
ATOM     36  C   UNL     1      11.195  -5.060   5.038  1.00  0.00     0.016 A 
ATOM     37  C   UNL     1      12.652  -5.643   6.893  1.00  0.00     0.016 A 
ATOM     38  C   UNL     1      10.434  -4.247   5.878  1.00  0.00     0.010 A 
ATOM     39  C   UNL     1      11.902  -4.809   7.727  1.00  0.00     0.010 A 
ATOM     40  C   UNL     1      10.806  -4.087   7.218  1.00  0.00    -0.014 A 
BRANCH  40  41
ATOM     41  C   UNL     1      10.157  -3.044   8.050  1.00  0.00     0.031 A 
ATOM     42  C   UNL     1      10.871  -1.736   8.252  1.00  0.00     0.074 A 
ATOM     43  C   UNL     1       8.954  -3.250   8.614  1.00  0.00     0.049 A 
ATOM     44  N   UNL     1      10.541  -0.712   8.997  1.00  0.00    -0.248 NA
ATOM     45  C   UNL     1      12.132  -1.563   7.513  1.00  0.00     0.031 C 
ATOM     46  C   UNL     1       8.141  -4.453   8.456  1.00  0.00     0.029 A 
ATOM     47  N   UNL     1       8.213  -2.447   9.447  1.00  0.00    -0.354 N 
ATOM     48  C   UNL     1      11.556   0.220   8.825  1.00  0.00     0.074 A 
ATOM     49  C   UNL     1      12.529  -0.371   7.932  1.00  0.00     0.031 C 
ATOM     50  C   UNL     1       7.017  -4.316   9.181  1.00  0.00     0.029 A 
ATOM     51  C   UNL     1       7.052  -3.034   9.885  1.00  0.00     0.049 A 
ATOM     52  H   UNL     1       8.488  -1.538   9.705  1.00  0.00     0.167 HD
ATOM     53  C   UNL     1      11.663   1.460   9.360  1.00  0.00     0.037 A 
ATOM     54  C   UNL     1       6.138  -2.596  10.774  1.00  0.00     0.037 A 
ATOM     55  C   UNL     1      10.696   2.042  10.253  1.00  0.00     0.049 A 
ATOM     56  C   UNL     1       6.327  -1.248  11.426  1.00  0.00     0.074 A 
ATOM     57  C   UNL     1      10.707   3.297  10.837  1.00  0.00     0.029 A 
ATOM     58  N   UNL     1       9.550   1.403  10.702  1.00  0.00    -0.354 N 
ATOM     59  N   UNL     1       7.275  -0.361  11.243  1.00  0.00    -0.248 NA
ATOM     60  C   UNL     1       5.312  -0.840  12.409  1.00  0.00     0.031 C 
ATOM     61  C   UNL     1       9.603   3.393  11.689  1.00  0.00     0.029 A 
ATOM     62  C   UNL     1       8.862   2.227  11.580  1.00  0.00     0.049 A 
ATOM     63  H   UNL     1       9.266   0.498  10.437  1.00  0.00     0.167 HD
ATOM     64  C   UNL     1       6.953   0.720  12.056  1.00  0.00     0.074 A 
ATOM     65  C   UNL     1       5.714   0.383  12.723  1.00  0.00     0.031 C 
ATOM     66  C   UNL     1       7.621   1.887  12.230  1.00  0.00     0.037 A 
BRANCH  53  67
ATOM     67  C   UNL     1      12.887   2.261   9.017  1.00  0.00     0.064 A 
ATOM     68  C   UNL     1      13.101   2.771   7.727  1.00  0.00     0.173 A 
ATOM     69  C   UNL     1      13.841   2.554  10.004  1.00  0.00     0.173 A 
ATOM     70  F   UNL     1      12.227   2.510   6.744  1.00  0.00    -0.203 F 
ATOM     71  C   UNL     1      14.238   3.519   7.432  1.00  0.00     0.198 A 
ATOM     72  C   UNL     1      14.959   3.332   9.713  1.00  0.00     0.198 A 
ATOM     73  F   UNL     1      13.684   2.096  11.255  1.00  0.00    -0.203 F 
ATOM     74  F   UNL     1      14.447   3.952   6.181  1.00  0.00    -0.200 F 
ATOM     75  C   UNL     1      15.161   3.806   8.427  1.00  0.00     0.200 A 
ATOM     76  F   UNL     1      15.840   3.622  10.680  1.00  0.00    -0.200 F 
ATOM     77  F   UNL     1      16.249   4.536   8.143  1.00  0.00    -0.200 F 
ENDBRANCH  53  67
BRANCH  54  78
ATOM     78  C   UNL     1       4.963  -3.442  11.117  1.00  0.00     0.064 A 
ATOM     79  C   UNL     1       3.662  -3.042  10.781  1.00  0.00     0.173 A 
ATOM     80  C   UNL     1       5.112  -4.649  11.817  1.00  0.00     0.173 A 
ATOM     81  F   UNL     1       3.464  -1.882  10.138  1.00  0.00    -0.203 F 
ATOM     82  C   UNL     1       2.555  -3.803  11.152  1.00  0.00     0.198 A 
ATOM     83  C   UNL     1       4.007  -5.426  12.158  1.00  0.00     0.198 A 
ATOM     84  F   UNL     1       6.333  -5.076  12.169  1.00  0.00    -0.203 F 
ATOM     85  F   UNL     1       1.320  -3.366  10.870  1.00  0.00    -0.200 F 
ATOM     86  C   UNL     1       2.728  -4.998  11.835  1.00  0.00     0.200 A 
ATOM     87  F   UNL     1       4.180  -6.585  12.808  1.00  0.00    -0.200 F 
ATOM     88  F   UNL     1       1.664  -5.728  12.192  1.00  0.00    -0.200 F 
ENDBRANCH  54  78
BRANCH  66  89
ATOM     89  C   UNL     1       7.004   2.914  13.139  1.00  0.00     0.064 A 
ATOM     90  C   UNL     1       6.931   2.731  14.528  1.00  0.00     0.173 A 
ATOM     91  C   UNL     1       6.518   4.122  12.613  1.00  0.00     0.173 A 
ATOM     92  F   UNL     1       7.370   1.591  15.083  1.00  0.00    -0.203 F 
ATOM     93  C   UNL     1       6.368   3.704  15.351  1.00  0.00     0.198 A 
ATOM     94  C   UNL     1       5.990   5.108  13.442  1.00  0.00     0.198 A 
ATOM     95  F   UNL     1       6.571   4.356  11.293  1.00  0.00    -0.203 F 
ATOM     96  F   UNL     1       6.260   3.483  16.668  1.00  0.00    -0.200 F 
ATOM     97  C   UNL     1       5.906   4.894  14.809  1.00  0.00     0.200 A 
ATOM     98  F   UNL     1       5.562   6.265  12.918  1.00  0.00    -0.200 F 
ATOM     99  F   UNL     1       5.374   5.833  15.604  1.00  0.00    -0.200 F 
ENDBRANCH  66  89
ENDBRANCH  40  41
ENDBRANCH  33  35
ENDBRANCH  32  33
ENDBRANCH  31  32
ENDBRANCH  30  31
ENDBRANCH  29  30
ENDBRANCH  28  29
ENDBRANCH   1  28
TORSDOF 19
