REMARK SMILES CC[C@](C(=O)OCCOCCOCCOC(=O)c1ccc(-c2c3nc(c(-c4c(F)c(F)c(F)c(F)c4F)c4ccc([nH]4)c(-c4c(F)c(F)c(F)c(F)c4F)c4nc(c(-c5c(F)c(F)c(F)c(F)c5F)c5ccc2[nH]5)C=C4)C=C3)cc1)(C(=O)OC(C)(C)C)c1ccc(N)c(O)c1
REMARK SMILES IDX 10 1 9 2 8 3 7 4 6 5 4 6 5 7 3 8 2 9 1 10 81 11 82 12 83 13
REMARK SMILES IDX 84 14 85 15 86 16 87 17 88 18 89 19 95 20 90 21 93 22 91 23
REMARK SMILES IDX 94 24 92 26 11 29 12 30 13 31 14 32 15 33 16 34 17 35 18 36
REMARK SMILES IDX 19 37 80 38 20 39 79 40 21 41 22 42 23 43 73 44 24 45 78 46
REMARK SMILES IDX 72 47 74 48 25 49 77 50 71 51 70 52 26 54 58 55 38 56 57 57
REMARK SMILES IDX 39 58 42 59 56 60 75 61 40 62 41 63 55 65 76 66 43 67 27 68
REMARK SMILES IDX 28 69 36 70 29 71 30 72 34 73 37 74 31 75 32 76 35 77 33 78
REMARK SMILES IDX 59 79 60 80 68 81 61 82 62 83 66 84 69 85 63 86 64 87 67 88
REMARK SMILES IDX 65 89 44 90 45 91 53 92 46 93 47 94 51 95 54 96 48 97 49 98
REMARK SMILES IDX 52 99 50 100
REMARK H PARENT 94 25 92 27 92 28 74 53 42 64
REMARK Flexibility Score: inf
ROOT
ATOM      1  C   UNL     1      -0.291   3.365  -0.092  1.00  0.00     0.188 C 
ENDROOT
BRANCH   1   2
ATOM      2  O   UNL     1      -0.651   2.924   1.209  1.00  0.00    -0.376 OA
BRANCH   2   3
ATOM      3  C   UNL     1       0.082   1.886   1.849  1.00  0.00     0.202 C 
BRANCH   3   4
ATOM      4  C   UNL     1       0.153   0.502   1.181  1.00  0.00     0.261 C 
BRANCH   4   5
ATOM      5  O   UNL     1       0.845   0.420  -0.088  1.00  0.00    -0.462 OA
BRANCH   5   6
ATOM      6  C   UNL     1       0.071   0.213  -1.194  1.00  0.00     0.328 C 
ATOM      7  O   UNL     1      -1.154   0.199  -1.128  1.00  0.00    -0.251 OA
BRANCH   6   8
ATOM      8  C   UNL     1       0.862  -0.025  -2.512  1.00  0.00     0.189 C 
BRANCH   8   9
ATOM      9  C   UNL     1       0.472  -1.467  -3.006  1.00  0.00     0.032 C 
ATOM     10  C   UNL     1      -0.953  -1.706  -3.514  1.00  0.00     0.006 C 
ENDBRANCH   8   9
BRANCH   8  11
ATOM     11  C   UNL     1       0.406   0.961  -3.623  1.00  0.00     0.328 C 
ATOM     12  O   UNL     1       1.161   1.510  -4.418  1.00  0.00    -0.250 OA
BRANCH  11  13
ATOM     13  O   UNL     1      -0.945   1.120  -3.674  1.00  0.00    -0.459 OA
BRANCH  13  14
ATOM     14  C   UNL     1      -1.569   1.915  -4.718  1.00  0.00     0.104 C 
ATOM     15  C   UNL     1      -1.190   3.380  -4.550  1.00  0.00     0.056 C 
ATOM     16  C   UNL     1      -1.229   1.416  -6.128  1.00  0.00     0.056 C 
ATOM     17  C   UNL     1      -3.081   1.767  -4.499  1.00  0.00     0.056 C 
ENDBRANCH  13  14
ENDBRANCH  11  13
ENDBRANCH   8  11
BRANCH   8  18
ATOM     18  C   UNL     1       2.432   0.051  -2.316  1.00  0.00    -0.016 A 
ATOM     19  C   UNL     1       3.199  -1.089  -2.002  1.00  0.00     0.008 A 
ATOM     20  C   UNL     1       3.152   1.261  -2.451  1.00  0.00     0.054 A 
ATOM     21  C   UNL     1       4.600  -1.031  -1.890  1.00  0.00     0.030 A 
ATOM     22  C   UNL     1       4.542   1.316  -2.301  1.00  0.00     0.138 A 
ATOM     23  C   UNL     1       5.290   0.163  -2.070  1.00  0.00     0.074 A 
BRANCH  22  24
ATOM     24  O   UNL     1       5.212   2.510  -2.408  1.00  0.00    -0.506 OA
ATOM     25  H   UNL     1       6.143   2.535  -2.306  1.00  0.00     0.293 HD
ENDBRANCH  22  24
BRANCH  23  26
ATOM     26  N   UNL     1       6.665   0.239  -1.882  1.00  0.00    -0.396 N 
ATOM     27  H   UNL     1       7.186  -0.581  -1.720  1.00  0.00     0.156 HD
ATOM     28  H   UNL     1       7.119   1.113  -1.911  1.00  0.00     0.156 HD
ENDBRANCH  23  26
ENDBRANCH   8  18
ENDBRANCH   6   8
ENDBRANCH   5   6
ENDBRANCH   4   5
ENDBRANCH   3   4
ENDBRANCH   2   3
ENDBRANCH   1   2
BRANCH   1  29
ATOM     29  C   UNL     1       1.170   3.306  -0.545  1.00  0.00     0.188 C 
BRANCH  29  30
ATOM     30  O   UNL     1       2.099   3.066   0.486  1.00  0.00    -0.376 OA
BRANCH  30  31
ATOM     31  C   UNL     1       3.124   4.014   0.721  1.00  0.00     0.202 C 
BRANCH  31  32
ATOM     32  C   UNL     1       2.649   5.406   1.157  1.00  0.00     0.261 C 
BRANCH  32  33
ATOM     33  O   UNL     1       1.782   6.076   0.225  1.00  0.00    -0.460 OA
BRANCH  33  34
ATOM     34  C   UNL     1       2.286   6.372  -0.997  1.00  0.00     0.338 C 
ATOM     35  O   UNL     1       3.430   6.188  -1.379  1.00  0.00    -0.246 OA
BRANCH  34  36
ATOM     36  C   UNL     1       1.140   6.684  -1.890  1.00  0.00     0.060 A 
ATOM     37  C   UNL     1       1.146   6.151  -3.183  1.00  0.00     0.016 A 
ATOM     38  C   UNL     1       0.021   7.392  -1.436  1.00  0.00     0.016 A 
ATOM     39  C   UNL     1       0.028   6.308  -4.005  1.00  0.00     0.010 A 
ATOM     40  C   UNL     1      -1.094   7.555  -2.268  1.00  0.00     0.010 A 
ATOM     41  C   UNL     1      -1.108   7.003  -3.557  1.00  0.00    -0.014 A 
BRANCH  41  42
ATOM     42  C   UNL     1      -2.257   7.237  -4.474  1.00  0.00     0.031 A 
ATOM     43  C   UNL     1      -2.100   8.225  -5.595  1.00  0.00     0.074 A 
ATOM     44  C   UNL     1      -3.421   6.570  -4.345  1.00  0.00     0.049 A 
ATOM     45  N   UNL     1      -2.980   8.632  -6.475  1.00  0.00    -0.248 NA
ATOM     46  C   UNL     1      -0.768   8.829  -5.750  1.00  0.00     0.031 C 
ATOM     47  C   UNL     1      -3.692   5.518  -3.369  1.00  0.00     0.029 A 
ATOM     48  N   UNL     1      -4.594   6.667  -5.060  1.00  0.00    -0.354 N 
ATOM     49  C   UNL     1      -2.311   9.542  -7.280  1.00  0.00     0.074 A 
ATOM     50  C   UNL     1      -0.948   9.614  -6.799  1.00  0.00     0.031 C 
ATOM     51  C   UNL     1      -4.935   5.044  -3.567  1.00  0.00     0.029 A 
ATOM     52  C   UNL     1      -5.581   5.811  -4.631  1.00  0.00     0.049 A 
ATOM     53  H   UNL     1      -4.714   7.293  -5.811  1.00  0.00     0.167 HD
ATOM     54  C   UNL     1      -2.791  10.281  -8.308  1.00  0.00     0.037 A 
ATOM     55  C   UNL     1      -6.867   5.688  -5.026  1.00  0.00     0.037 A 
ATOM     56  C   UNL     1      -4.158  10.272  -8.751  1.00  0.00     0.049 A 
ATOM     57  C   UNL     1      -7.416   6.633  -6.071  1.00  0.00     0.074 A 
ATOM     58  C   UNL     1      -4.748  11.039  -9.740  1.00  0.00     0.029 A 
ATOM     59  N   UNL     1      -5.157   9.475  -8.213  1.00  0.00    -0.354 N 
ATOM     60  N   UNL     1      -6.787   7.516  -6.807  1.00  0.00    -0.248 NA
ATOM     61  C   UNL     1      -8.869   6.590  -6.308  1.00  0.00     0.031 C 
ATOM     62  C   UNL     1      -6.116  10.751  -9.758  1.00  0.00     0.029 A 
ATOM     63  C   UNL     1      -6.367   9.760  -8.824  1.00  0.00     0.049 A 
ATOM     64  H   UNL     1      -5.025   8.805  -7.504  1.00  0.00     0.167 HD
ATOM     65  C   UNL     1      -7.759   8.123  -7.595  1.00  0.00     0.074 A 
ATOM     66  C   UNL     1      -9.018   7.491  -7.269  1.00  0.00     0.031 C 
ATOM     67  C   UNL     1      -7.619   9.125  -8.497  1.00  0.00     0.037 A 
BRANCH  54  68
ATOM     68  C   UNL     1      -1.833  11.237  -8.951  1.00  0.00     0.064 A 
ATOM     69  C   UNL     1      -0.788  10.795  -9.774  1.00  0.00     0.173 A 
ATOM     70  C   UNL     1      -1.947  12.614  -8.709  1.00  0.00     0.173 A 
ATOM     71  F   UNL     1      -0.623   9.485 -10.011  1.00  0.00    -0.203 F 
ATOM     72  C   UNL     1       0.133  11.696 -10.302  1.00  0.00     0.198 A 
ATOM     73  C   UNL     1      -1.043  13.514  -9.263  1.00  0.00     0.198 A 
ATOM     74  F   UNL     1      -2.928  13.084  -7.924  1.00  0.00    -0.203 F 
ATOM     75  F   UNL     1       1.164  11.247 -11.031  1.00  0.00    -0.200 F 
ATOM     76  C   UNL     1       0.003  13.054 -10.049  1.00  0.00     0.200 A 
ATOM     77  F   UNL     1      -1.174  14.825  -9.021  1.00  0.00    -0.200 F 
ATOM     78  F   UNL     1       0.895  13.918 -10.549  1.00  0.00    -0.200 F 
ENDBRANCH  54  68
BRANCH  55  79
ATOM     79  C   UNL     1      -7.767   4.679  -4.398  1.00  0.00     0.064 A 
ATOM     80  C   UNL     1      -8.341   3.650  -5.161  1.00  0.00     0.173 A 
ATOM     81  C   UNL     1      -8.132   4.759  -3.045  1.00  0.00     0.173 A 
ATOM     82  F   UNL     1      -8.060   3.552  -6.469  1.00  0.00    -0.203 F 
ATOM     83  C   UNL     1      -9.253   2.756  -4.602  1.00  0.00     0.198 A 
ATOM     84  C   UNL     1      -9.017   3.843  -2.478  1.00  0.00     0.198 A 
ATOM     85  F   UNL     1      -7.635   5.736  -2.272  1.00  0.00    -0.203 F 
ATOM     86  F   UNL     1      -9.832   1.823  -5.370  1.00  0.00    -0.200 F 
ATOM     87  C   UNL     1      -9.585   2.849  -3.259  1.00  0.00     0.200 A 
ATOM     88  F   UNL     1      -9.332   3.936  -1.179  1.00  0.00    -0.200 F 
ATOM     89  F   UNL     1     -10.465   1.993  -2.722  1.00  0.00    -0.200 F 
ENDBRANCH  55  79
BRANCH  67  90
ATOM     90  C   UNL     1      -8.849   9.606  -9.215  1.00  0.00     0.064 A 
ATOM     91  C   UNL     1      -9.828  10.370  -8.563  1.00  0.00     0.173 A 
ATOM     92  C   UNL     1      -9.008   9.374 -10.590  1.00  0.00     0.173 A 
ATOM     93  F   UNL     1      -9.732  10.610  -7.246  1.00  0.00    -0.203 F 
ATOM     94  C   UNL     1     -10.923  10.877  -9.259  1.00  0.00     0.198 A 
ATOM     95  C   UNL     1     -10.088   9.907 -11.289  1.00  0.00     0.198 A 
ATOM     96  F   UNL     1      -8.098   8.655 -11.264  1.00  0.00    -0.203 F 
ATOM     97  F   UNL     1     -11.861  11.581  -8.609  1.00  0.00    -0.200 F 
ATOM     98  C   UNL     1     -11.046  10.656 -10.623  1.00  0.00     0.200 A 
ATOM     99  F   UNL     1     -10.196   9.705 -12.609  1.00  0.00    -0.200 F 
ATOM    100  F   UNL     1     -12.089  11.163 -11.295  1.00  0.00    -0.200 F 
ENDBRANCH  67  90
ENDBRANCH  41  42
ENDBRANCH  34  36
ENDBRANCH  33  34
ENDBRANCH  32  33
ENDBRANCH  31  32
ENDBRANCH  30  31
ENDBRANCH  29  30
ENDBRANCH   1  29
TORSDOF 24
