REMARK SMILES CC(C)[C@H](NC(=O)Cn1ccc2c(Br)cccc21)C(=O)OCCOCCOCCOC(=O)c1ccc(-c2c3nc(c(-c4c(F)c(F)c(F)c(F)c4F)c4ccc([nH]4)c(-c4c(F)c(F)c(F)c(F)c4F)c4nc(c(-c5c(F)c(F)c(F)c(F)c5F)c5ccc2[nH]5)C=C4)C=C3)cc1
REMARK SMILES IDX 25 1 24 2 23 3 22 4 21 5 19 6 20 7 4 8 2 9 1 10 3 11 5 12
REMARK SMILES IDX 6 13 7 15 8 16 9 17 10 18 18 19 11 20 12 21 17 22 13 23
REMARK SMILES IDX 16 24 14 25 15 26 26 27 27 28 28 29 29 30 30 31 31 32 32 33
REMARK SMILES IDX 33 34 34 35 95 36 35 37 94 38 36 39 37 40 38 41 88 42 39 43
REMARK SMILES IDX 93 44 87 45 89 46 40 47 92 48 86 49 85 50 41 52 73 53 53 54
REMARK SMILES IDX 72 55 54 56 57 57 71 58 90 59 55 60 56 61 70 63 91 64 58 65
REMARK SMILES IDX 42 66 43 67 51 68 44 69 45 70 49 71 52 72 46 73 47 74 50 75
REMARK SMILES IDX 48 76 74 77 75 78 83 79 76 80 77 81 81 82 84 83 78 84 79 85
REMARK SMILES IDX 82 86 80 87 59 88 60 89 68 90 61 91 62 92 66 93 69 94 63 95
REMARK SMILES IDX 64 96 67 97 65 98
REMARK H PARENT 5 14 89 51 57 62
REMARK Flexibility Score: inf
ROOT
ATOM      1  C   UNL     1      -1.031  -3.914   2.874  1.00  0.00     0.188 C 
ENDROOT
BRANCH   1   2
ATOM      2  O   UNL     1      -1.423  -5.264   2.834  1.00  0.00    -0.376 OA
BRANCH   2   3
ATOM      3  C   UNL     1      -1.867  -5.859   1.628  1.00  0.00     0.202 C 
BRANCH   3   4
ATOM      4  C   UNL     1      -2.249  -5.104   0.337  1.00  0.00     0.261 C 
BRANCH   4   5
ATOM      5  O   UNL     1      -1.598  -3.858   0.063  1.00  0.00    -0.462 OA
BRANCH   5   6
ATOM      6  C   UNL     1      -2.348  -2.738   0.242  1.00  0.00     0.328 C 
ATOM      7  O   UNL     1      -3.505  -2.745   0.647  1.00  0.00    -0.250 OA
BRANCH   6   8
ATOM      8  C   UNL     1      -1.631  -1.452  -0.233  1.00  0.00     0.194 C 
BRANCH   8   9
ATOM      9  C   UNL     1      -2.234  -1.069  -1.595  1.00  0.00     0.017 C 
ATOM     10  C   UNL     1      -2.334  -2.239  -2.577  1.00  0.00     0.010 C 
ATOM     11  C   UNL     1      -3.564  -0.341  -1.426  1.00  0.00     0.010 C 
ENDBRANCH   8   9
BRANCH   8  12
ATOM     12  N   UNL     1      -0.158  -1.506  -0.301  1.00  0.00    -0.341 N 
ATOM     13  C   UNL     1       0.764  -0.499  -0.131  1.00  0.00     0.240 C 
ATOM     14  H   UNL     1       0.222  -2.393  -0.497  1.00  0.00     0.164 HD
ATOM     15  O   UNL     1       1.948  -0.812   0.017  1.00  0.00    -0.273 OA
BRANCH  13  16
ATOM     16  C   UNL     1       0.359   0.973  -0.134  1.00  0.00     0.222 C 
BRANCH  16  17
ATOM     17  N   UNL     1       0.177   1.536  -1.472  1.00  0.00    -0.338 N 
ATOM     18  C   UNL     1       0.422   0.882  -2.654  1.00  0.00     0.087 A 
ATOM     19  C   UNL     1      -0.482   2.724  -1.744  1.00  0.00     0.050 A 
ATOM     20  C   UNL     1      -0.430   1.417  -3.593  1.00  0.00     0.029 A 
ATOM     21  C   UNL     1      -1.018   2.584  -3.031  1.00  0.00     0.014 A 
ATOM     22  C   UNL     1      -0.700   3.877  -0.972  1.00  0.00     0.027 A 
ATOM     23  C   UNL     1      -1.935   3.550  -3.489  1.00  0.00     0.027 A 
ATOM     24  C   UNL     1      -1.513   4.882  -1.513  1.00  0.00     0.003 A 
ATOM     25  Br  UNL     1      -2.874   3.302  -5.114  1.00  0.00    -0.050 Br
ATOM     26  C   UNL     1      -2.160   4.705  -2.734  1.00  0.00     0.016 A 
ENDBRANCH  16  17
ENDBRANCH  13  16
ENDBRANCH   8  12
ENDBRANCH   6   8
ENDBRANCH   5   6
ENDBRANCH   4   5
ENDBRANCH   3   4
ENDBRANCH   2   3
ENDBRANCH   1   2
BRANCH   1  27
ATOM     27  C   UNL     1       0.274  -3.497   2.178  1.00  0.00     0.188 C 
BRANCH  27  28
ATOM     28  O   UNL     1       0.754  -4.201   1.052  1.00  0.00    -0.376 OA
BRANCH  28  29
ATOM     29  C   UNL     1       1.358  -5.489   1.090  1.00  0.00     0.202 C 
BRANCH  29  30
ATOM     30  C   UNL     1       1.735  -6.284   2.344  1.00  0.00     0.261 C 
BRANCH  30  31
ATOM     31  O   UNL     1       1.392  -5.670   3.560  1.00  0.00    -0.460 OA
BRANCH  31  32
ATOM     32  C   UNL     1       2.284  -4.748   3.940  1.00  0.00     0.338 C 
ATOM     33  O   UNL     1       3.322  -4.414   3.371  1.00  0.00    -0.246 OA
BRANCH  32  34
ATOM     34  C   UNL     1       1.791  -4.130   5.161  1.00  0.00     0.060 A 
ATOM     35  C   UNL     1       2.290  -2.861   5.465  1.00  0.00     0.016 A 
ATOM     36  C   UNL     1       1.218  -4.984   6.104  1.00  0.00     0.016 A 
ATOM     37  C   UNL     1       2.549  -2.595   6.779  1.00  0.00     0.010 A 
ATOM     38  C   UNL     1       1.537  -4.748   7.405  1.00  0.00     0.010 A 
ATOM     39  C   UNL     1       2.299  -3.617   7.695  1.00  0.00    -0.014 A 
BRANCH  39  40
ATOM     40  C   UNL     1       2.899  -3.514   8.997  1.00  0.00     0.031 A 
ATOM     41  C   UNL     1       2.004  -2.868   9.962  1.00  0.00     0.074 A 
ATOM     42  C   UNL     1       4.096  -4.071   9.254  1.00  0.00     0.049 A 
ATOM     43  N   UNL     1       2.072  -1.655  10.395  1.00  0.00    -0.248 NA
ATOM     44  C   UNL     1       0.756  -3.568  10.312  1.00  0.00     0.031 C 
ATOM     45  C   UNL     1       4.862  -4.990   8.403  1.00  0.00     0.029 A 
ATOM     46  N   UNL     1       4.838  -4.008  10.391  1.00  0.00    -0.354 N 
ATOM     47  C   UNL     1       1.000  -1.541  11.268  1.00  0.00     0.074 A 
ATOM     48  C   UNL     1       0.093  -2.609  10.956  1.00  0.00     0.031 C 
ATOM     49  C   UNL     1       5.837  -5.570   9.142  1.00  0.00     0.029 A 
ATOM     50  C   UNL     1       5.846  -4.962  10.461  1.00  0.00     0.049 A 
ATOM     51  H   UNL     1       4.676  -3.346  11.101  1.00  0.00     0.167 HD
ATOM     52  C   UNL     1       1.134  -0.842  12.424  1.00  0.00     0.037 A 
ATOM     53  C   UNL     1       6.550  -5.259  11.580  1.00  0.00     0.037 A 
ATOM     54  C   UNL     1       2.324  -0.036  12.413  1.00  0.00     0.049 A 
ATOM     55  C   UNL     1       6.438  -4.089  12.489  1.00  0.00     0.074 A 
ATOM     56  C   UNL     1       2.716   1.156  11.846  1.00  0.00     0.029 A 
ATOM     57  N   UNL     1       3.460  -0.723  12.752  1.00  0.00    -0.354 N 
ATOM     58  N   UNL     1       6.955  -2.919  12.228  1.00  0.00    -0.248 NA
ATOM     59  C   UNL     1       5.438  -4.104  13.554  1.00  0.00     0.031 C 
ATOM     60  C   UNL     1       4.140   1.107  11.752  1.00  0.00     0.029 A 
ATOM     61  C   UNL     1       4.586  -0.100  12.285  1.00  0.00     0.049 A 
ATOM     62  H   UNL     1       3.466  -1.561  13.268  1.00  0.00     0.167 HD
ATOM     63  C   UNL     1       6.072  -2.019  12.790  1.00  0.00     0.074 A 
ATOM     64  C   UNL     1       5.272  -2.790  13.731  1.00  0.00     0.031 C 
ATOM     65  C   UNL     1       5.841  -0.812  12.201  1.00  0.00     0.037 A 
BRANCH  52  66
ATOM     66  C   UNL     1       0.482  -1.258  13.717  1.00  0.00     0.064 A 
ATOM     67  C   UNL     1       0.412  -0.339  14.776  1.00  0.00     0.173 A 
ATOM     68  C   UNL     1       0.162  -2.595  14.044  1.00  0.00     0.173 A 
ATOM     69  F   UNL     1       0.761   0.942  14.589  1.00  0.00    -0.203 F 
ATOM     70  C   UNL     1       0.050  -0.735  16.067  1.00  0.00     0.198 A 
ATOM     71  C   UNL     1      -0.266  -2.974  15.312  1.00  0.00     0.198 A 
ATOM     72  F   UNL     1       0.362  -3.607  13.190  1.00  0.00    -0.203 F 
ATOM     73  F   UNL     1       0.091   0.151  17.070  1.00  0.00    -0.200 F 
ATOM     74  C   UNL     1      -0.302  -2.048  16.331  1.00  0.00     0.200 A 
ATOM     75  F   UNL     1      -0.569  -4.258  15.550  1.00  0.00    -0.200 F 
ATOM     76  F   UNL     1      -0.624  -2.434  17.572  1.00  0.00    -0.200 F 
ENDBRANCH  52  66
BRANCH  53  77
ATOM     77  C   UNL     1       7.002  -6.584  12.070  1.00  0.00     0.064 A 
ATOM     78  C   UNL     1       7.882  -6.667  13.163  1.00  0.00     0.173 A 
ATOM     79  C   UNL     1       6.342  -7.773  11.706  1.00  0.00     0.173 A 
ATOM     80  F   UNL     1       8.534  -5.574  13.588  1.00  0.00    -0.203 F 
ATOM     81  C   UNL     1       8.033  -7.847  13.896  1.00  0.00     0.198 A 
ATOM     82  C   UNL     1       6.501  -8.953  12.434  1.00  0.00     0.198 A 
ATOM     83  F   UNL     1       5.448  -7.789  10.708  1.00  0.00    -0.203 F 
ATOM     84  F   UNL     1       8.807  -7.859  14.990  1.00  0.00    -0.200 F 
ATOM     85  C   UNL     1       7.326  -8.984  13.543  1.00  0.00     0.200 A 
ATOM     86  F   UNL     1       5.789 -10.040  12.101  1.00  0.00    -0.200 F 
ATOM     87  F   UNL     1       7.403 -10.090  14.295  1.00  0.00    -0.200 F 
ENDBRANCH  53  77
BRANCH  65  88
ATOM     88  C   UNL     1       6.897  -0.282  11.283  1.00  0.00     0.064 A 
ATOM     89  C   UNL     1       7.225  -0.847  10.040  1.00  0.00     0.173 A 
ATOM     90  C   UNL     1       7.552   0.900  11.653  1.00  0.00     0.173 A 
ATOM     91  F   UNL     1       6.587  -1.936   9.590  1.00  0.00    -0.203 F 
ATOM     92  C   UNL     1       8.193  -0.266   9.221  1.00  0.00     0.198 A 
ATOM     93  C   UNL     1       8.489   1.497  10.818  1.00  0.00     0.198 A 
ATOM     94  F   UNL     1       7.248   1.499  12.815  1.00  0.00    -0.203 F 
ATOM     95  F   UNL     1       8.504  -0.830   8.045  1.00  0.00    -0.200 F 
ATOM     96  C   UNL     1       8.816   0.910   9.607  1.00  0.00     0.200 A 
ATOM     97  F   UNL     1       9.057   2.656  11.179  1.00  0.00    -0.200 F 
ATOM     98  F   UNL     1       9.718   1.490   8.803  1.00  0.00    -0.200 F 
ENDBRANCH  65  88
ENDBRANCH  39  40
ENDBRANCH  32  34
ENDBRANCH  31  32
ENDBRANCH  30  31
ENDBRANCH  29  30
ENDBRANCH  28  29
ENDBRANCH  27  28
ENDBRANCH   1  27
TORSDOF 21
