REMARK SMILES CN(CCOCC1CC1)C(=O)N1CC[C@](C)(C(=O)OCCOCCOCCOC(=O)c2ccc(-c3c4nc(c(-c5c(F)c(F)c(F)c(F)c5F)c5ccc([nH]5)c(-c5c(F)c(F)c(F)c(F)c5F)c5nc(c(-c6c(F)c(F)c(F)c(F)c6F)c6ccc3[nH]6)C=C5)C=C4)cc2)C1
REMARK SMILES IDX 21 1 20 2 19 3 17 4 18 5 15 6 12 7 13 8 94 9 14 10 16 11
REMARK SMILES IDX 10 12 11 13 2 14 1 15 3 16 4 17 5 18 6 19 7 20 8 21 9 22
REMARK SMILES IDX 22 23 23 24 24 25 25 26 26 27 27 28 28 29 29 30 30 31 31 32
REMARK SMILES IDX 32 33 93 34 33 35 92 36 34 37 35 38 36 39 86 40 37 41 91 42
REMARK SMILES IDX 85 43 87 44 38 45 90 46 84 47 83 48 39 50 71 51 51 52 70 53
REMARK SMILES IDX 52 54 55 55 69 56 88 57 53 58 54 59 68 61 89 62 56 63 40 64
REMARK SMILES IDX 41 65 49 66 42 67 43 68 47 69 50 70 44 71 45 72 48 73 46 74
REMARK SMILES IDX 72 75 73 76 81 77 74 78 75 79 79 80 82 81 76 82 77 83 80 84
REMARK SMILES IDX 78 85 57 86 58 87 66 88 59 89 60 90 64 91 67 92 61 93 62 94
REMARK SMILES IDX 65 95 63 96
REMARK H PARENT 87 49 55 60
REMARK Flexibility Score: inf
ROOT
ATOM      1  C   UNL     1      -4.853  -4.176   5.647  1.00  0.00     0.202 C 
ENDROOT
BRANCH   1   2
ATOM      2  C   UNL     1      -4.512  -2.917   6.454  1.00  0.00     0.261 C 
BRANCH   2   3
ATOM      3  O   UNL     1      -3.381  -2.148   5.982  1.00  0.00    -0.463 OA
BRANCH   3   4
ATOM      4  C   UNL     1      -2.213  -2.419   6.614  1.00  0.00     0.313 C 
ATOM      5  O   UNL     1      -2.093  -3.276   7.487  1.00  0.00    -0.252 OA
BRANCH   4   6
ATOM      6  C   UNL     1      -1.043  -1.514   6.236  1.00  0.00     0.084 C 
ATOM      7  N   UNL     1       0.411  -0.821   4.423  1.00  0.00    -0.323 N 
ATOM      8  C   UNL     1       1.188  -1.637   5.346  1.00  0.00     0.122 C 
ATOM      9  C   UNL     1      -1.002  -0.784   4.872  1.00  0.00     0.139 C 
ATOM     10  C   UNL     1       0.185  -2.431   6.140  1.00  0.00     0.042 C 
ATOM     11  C   UNL     1      -0.909  -0.491   7.376  1.00  0.00     0.026 C 
BRANCH   7  12
ATOM     12  C   UNL     1       1.127  -0.275   3.384  1.00  0.00     0.319 C 
ATOM     13  O   UNL     1       2.325  -0.582   3.287  1.00  0.00    -0.248 OA
BRANCH  12  14
ATOM     14  N   UNL     1       0.591   0.573   2.442  1.00  0.00    -0.325 N 
ATOM     15  C   UNL     1       1.492   1.001   1.361  1.00  0.00     0.148 C 
BRANCH  14  16
ATOM     16  C   UNL     1      -0.751   1.148   2.352  1.00  0.00     0.149 C 
BRANCH  16  17
ATOM     17  C   UNL     1      -1.636   0.542   1.247  1.00  0.00     0.181 C 
BRANCH  17  18
ATOM     18  O   UNL     1      -1.928  -0.839   1.457  1.00  0.00    -0.379 OA
BRANCH  18  19
ATOM     19  C   UNL     1      -0.899  -1.713   1.000  1.00  0.00     0.163 C 
BRANCH  19  20
ATOM     20  C   UNL     1      -1.238  -2.269  -0.343  1.00  0.00     0.015 C 
ATOM     21  C   UNL     1      -0.402  -1.928  -1.550  1.00  0.00     0.006 C 
ATOM     22  C   UNL     1      -0.324  -3.302  -0.952  1.00  0.00     0.006 C 
ENDBRANCH  19  20
ENDBRANCH  18  19
ENDBRANCH  17  18
ENDBRANCH  16  17
ENDBRANCH  14  16
ENDBRANCH  12  14
ENDBRANCH   7  12
ENDBRANCH   4   6
ENDBRANCH   3   4
ENDBRANCH   2   3
ENDBRANCH   1   2
BRANCH   1  23
ATOM     23  O   UNL     1      -3.777  -5.074   5.439  1.00  0.00    -0.376 OA
BRANCH  23  24
ATOM     24  C   UNL     1      -2.872  -4.839   4.365  1.00  0.00     0.188 C 
BRANCH  24  25
ATOM     25  C   UNL     1      -3.137  -3.713   3.354  1.00  0.00     0.188 C 
BRANCH  25  26
ATOM     26  O   UNL     1      -4.439  -3.767   2.780  1.00  0.00    -0.376 OA
BRANCH  26  27
ATOM     27  C   UNL     1      -4.458  -3.917   1.366  1.00  0.00     0.202 C 
BRANCH  27  28
ATOM     28  C   UNL     1      -4.189  -5.364   0.972  1.00  0.00     0.261 C 
BRANCH  28  29
ATOM     29  O   UNL     1      -2.835  -5.707   1.327  1.00  0.00    -0.460 OA
BRANCH  29  30
ATOM     30  C   UNL     1      -2.031  -6.170   0.353  1.00  0.00     0.338 C 
ATOM     31  O   UNL     1      -2.317  -6.359  -0.814  1.00  0.00    -0.246 OA
BRANCH  30  32
ATOM     32  C   UNL     1      -0.712  -6.491   0.944  1.00  0.00     0.060 A 
ATOM     33  C   UNL     1      -0.030  -5.596   1.779  1.00  0.00     0.016 A 
ATOM     34  C   UNL     1      -0.122  -7.704   0.597  1.00  0.00     0.016 A 
ATOM     35  C   UNL     1       1.256  -5.894   2.238  1.00  0.00     0.010 A 
ATOM     36  C   UNL     1       1.145  -8.020   1.087  1.00  0.00     0.010 A 
ATOM     37  C   UNL     1       1.854  -7.110   1.891  1.00  0.00    -0.014 A 
BRANCH  37  38
ATOM     38  C   UNL     1       3.245  -7.446   2.284  1.00  0.00     0.031 A 
ATOM     39  C   UNL     1       4.301  -7.533   1.221  1.00  0.00     0.074 A 
ATOM     40  C   UNL     1       3.549  -7.751   3.558  1.00  0.00     0.049 A 
ATOM     41  N   UNL     1       5.482  -8.092   1.264  1.00  0.00    -0.248 NA
ATOM     42  C   UNL     1       3.971  -6.914  -0.072  1.00  0.00     0.031 C 
ATOM     43  C   UNL     1       2.642  -7.643   4.698  1.00  0.00     0.029 A 
ATOM     44  N   UNL     1       4.708  -8.257   4.095  1.00  0.00    -0.354 N 
ATOM     45  C   UNL     1       6.020  -7.932  -0.005  1.00  0.00     0.074 A 
ATOM     46  C   UNL     1       5.038  -7.221  -0.797  1.00  0.00     0.031 C 
ATOM     47  C   UNL     1       3.268  -8.097   5.797  1.00  0.00     0.029 A 
ATOM     48  C   UNL     1       4.591  -8.590   5.422  1.00  0.00     0.049 A 
ATOM     49  H   UNL     1       5.540  -8.369   3.580  1.00  0.00     0.167 HD
ATOM     50  C   UNL     1       7.222  -8.351  -0.467  1.00  0.00     0.037 A 
ATOM     51  C   UNL     1       5.430  -9.272   6.226  1.00  0.00     0.037 A 
ATOM     52  C   UNL     1       8.204  -9.036   0.332  1.00  0.00     0.049 A 
ATOM     53  C   UNL     1       6.729  -9.795   5.672  1.00  0.00     0.074 A 
ATOM     54  C   UNL     1       9.458  -9.489  -0.041  1.00  0.00     0.029 A 
ATOM     55  N   UNL     1       8.044  -9.360   1.671  1.00  0.00    -0.354 N 
ATOM     56  N   UNL     1       7.221  -9.682   4.462  1.00  0.00    -0.248 NA
ATOM     57  C   UNL     1       7.583 -10.558   6.595  1.00  0.00     0.031 C 
ATOM     58  C   UNL     1      10.040 -10.124   1.062  1.00  0.00     0.029 A 
ATOM     59  C   UNL     1       9.168 -10.024   2.134  1.00  0.00     0.049 A 
ATOM     60  H   UNL     1       7.249  -9.150   2.212  1.00  0.00     0.167 HD
ATOM     61  C   UNL     1       8.447 -10.333   4.485  1.00  0.00     0.074 A 
ATOM     62  C   UNL     1       8.631 -10.832   5.832  1.00  0.00     0.031 C 
ATOM     63  C   UNL     1       9.341 -10.503   3.481  1.00  0.00     0.037 A 
BRANCH  50  64
ATOM     64  C   UNL     1       7.532  -8.116  -1.915  1.00  0.00     0.064 A 
ATOM     65  C   UNL     1       7.844  -6.841  -2.407  1.00  0.00     0.173 A 
ATOM     66  C   UNL     1       7.561  -9.194  -2.812  1.00  0.00     0.173 A 
ATOM     67  F   UNL     1       7.814  -5.776  -1.592  1.00  0.00    -0.203 F 
ATOM     68  C   UNL     1       8.160  -6.652  -3.751  1.00  0.00     0.198 A 
ATOM     69  C   UNL     1       7.902  -9.006  -4.149  1.00  0.00     0.198 A 
ATOM     70  F   UNL     1       7.272 -10.434  -2.389  1.00  0.00    -0.203 F 
ATOM     71  F   UNL     1       8.420  -5.420  -4.209  1.00  0.00    -0.200 F 
ATOM     72  C   UNL     1       8.196  -7.735  -4.617  1.00  0.00     0.200 A 
ATOM     73  F   UNL     1       7.947 -10.054  -4.982  1.00  0.00    -0.200 F 
ATOM     74  F   UNL     1       8.511  -7.552  -5.907  1.00  0.00    -0.200 F 
ENDBRANCH  50  64
BRANCH  51  75
ATOM     75  C   UNL     1       5.045  -9.550   7.634  1.00  0.00     0.064 A 
ATOM     76  C   UNL     1       5.723  -8.940   8.698  1.00  0.00     0.173 A 
ATOM     77  C   UNL     1       4.011 -10.445   7.945  1.00  0.00     0.173 A 
ATOM     78  F   UNL     1       6.741  -8.102   8.451  1.00  0.00    -0.203 F 
ATOM     79  C   UNL     1       5.391  -9.227  10.021  1.00  0.00     0.198 A 
ATOM     80  C   UNL     1       3.661 -10.709   9.267  1.00  0.00     0.198 A 
ATOM     81  F   UNL     1       3.337 -11.060   6.962  1.00  0.00    -0.203 F 
ATOM     82  F   UNL     1       6.088  -8.669  11.020  1.00  0.00    -0.200 F 
ATOM     83  C   UNL     1       4.357 -10.106  10.304  1.00  0.00     0.200 A 
ATOM     84  F   UNL     1       2.656 -11.554   9.536  1.00  0.00    -0.200 F 
ATOM     85  F   UNL     1       4.038 -10.382  11.576  1.00  0.00    -0.200 F 
ENDBRANCH  51  75
BRANCH  63  86
ATOM     86  C   UNL     1      10.620 -11.218   3.809  1.00  0.00     0.064 A 
ATOM     87  C   UNL     1      10.656 -12.604   4.017  1.00  0.00     0.173 A 
ATOM     88  C   UNL     1      11.829 -10.509   3.879  1.00  0.00     0.173 A 
ATOM     89  F   UNL     1       9.524 -13.323   3.976  1.00  0.00    -0.203 F 
ATOM     90  C   UNL     1      11.855 -13.252   4.305  1.00  0.00     0.198 A 
ATOM     91  C   UNL     1      13.029 -11.164   4.141  1.00  0.00     0.198 A 
ATOM     92  F   UNL     1      11.848  -9.183   3.682  1.00  0.00    -0.203 F 
ATOM     93  F   UNL     1      11.861 -14.571   4.543  1.00  0.00    -0.200 F 
ATOM     94  C   UNL     1      13.040 -12.533   4.360  1.00  0.00     0.200 A 
ATOM     95  F   UNL     1      14.175 -10.470   4.182  1.00  0.00    -0.200 F 
ATOM     96  F   UNL     1      14.193 -13.160   4.632  1.00  0.00    -0.200 F 
ENDBRANCH  63  86
ENDBRANCH  37  38
ENDBRANCH  30  32
ENDBRANCH  29  30
ENDBRANCH  28  29
ENDBRANCH  27  28
ENDBRANCH  26  27
ENDBRANCH  25  26
ENDBRANCH  24  25
ENDBRANCH  23  24
ENDBRANCH   1  23
TORSDOF 24
