REMARK SMILES Cc1cccc(-n2ncc(C(=O)Nc3cccc(C(=O)OCCOCCOCCOC(=O)c4ccc(-c5c6nc(c(-c7c(F)c(F)c(F)c(F)c7F)c7ccc([nH]7)c(-c7c(F)c(F)c(F)c(F)c7F)c7nc(c(-c8c(F)c(F)c(F)c(F)c8F)c8ccc5[nH]8)C=C7)C=C6)cc4)c3C)c2C)c1
REMARK SMILES IDX 25 1 24 2 23 3 22 4 21 5 19 6 20 7 18 8 14 9 15 10 96 11
REMARK SMILES IDX 16 12 97 13 17 14 13 15 11 16 12 17 10 19 7 20 8 21 98 22
REMARK SMILES IDX 9 23 99 24 6 25 1 26 2 27 3 28 100 29 4 30 5 31 26 32 27 33
REMARK SMILES IDX 28 34 29 35 30 36 31 37 32 38 33 39 34 40 95 41 35 42 94 43
REMARK SMILES IDX 36 44 37 45 38 46 88 47 39 48 93 49 87 50 89 51 40 52 92 53
REMARK SMILES IDX 86 54 85 55 41 57 73 58 53 59 72 60 54 61 57 62 71 63 90 64
REMARK SMILES IDX 55 65 56 66 70 68 91 69 58 70 42 71 43 72 51 73 44 74 45 75
REMARK SMILES IDX 49 76 52 77 46 78 47 79 50 80 48 81 74 82 75 83 83 84 76 85
REMARK SMILES IDX 77 86 81 87 84 88 78 89 79 90 82 91 80 92 59 93 60 94 68 95
REMARK SMILES IDX 61 96 62 97 66 98 69 99 63 100 64 101 67 102 65 103
REMARK H PARENT 13 18 89 56 57 67
REMARK Flexibility Score: inf
ROOT
ATOM      1  C   UNL     1      -3.025  13.599  -2.097  1.00  0.00     0.188 C 
ENDROOT
BRANCH   1   2
ATOM      2  O   UNL     1      -1.699  13.340  -2.587  1.00  0.00    -0.376 OA
BRANCH   2   3
ATOM      3  C   UNL     1      -1.463  12.849  -3.918  1.00  0.00     0.202 C 
BRANCH   3   4
ATOM      4  C   UNL     1      -0.965  11.346  -4.265  1.00  0.00     0.261 C 
BRANCH   4   5
ATOM      5  O   UNL     1      -1.745  10.165  -3.783  1.00  0.00    -0.460 OA
BRANCH   5   6
ATOM      6  C   UNL     1      -2.147   8.927  -4.254  1.00  0.00     0.338 C 
ATOM      7  O   UNL     1      -1.813   8.597  -5.388  1.00  0.00    -0.246 OA
BRANCH   6   8
ATOM      8  C   UNL     1      -3.201   7.860  -3.288  1.00  0.00     0.065 A 
ATOM      9  C   UNL     1      -4.158   6.192  -1.549  1.00  0.00     0.045 A 
ATOM     10  C   UNL     1      -4.592   5.393  -2.586  1.00  0.00     0.026 A 
ATOM     11  C   UNL     1      -3.432   7.411  -1.810  1.00  0.00    -0.013 A 
ATOM     12  C   UNL     1      -4.437   5.817  -3.903  1.00  0.00     0.003 A 
ATOM     13  C   UNL     1      -2.762   7.750  -0.422  1.00  0.00     0.047 C 
ATOM     14  C   UNL     1      -3.805   7.023  -4.241  1.00  0.00     0.016 A 
BRANCH   9  15
ATOM     15  N   UNL     1      -4.510   5.817  -0.227  1.00  0.00    -0.322 N 
ATOM     16  C   UNL     1      -4.114   4.772   0.587  1.00  0.00     0.259 C 
ATOM     17  O   UNL     1      -4.705   4.641   1.661  1.00  0.00    -0.269 OA
ATOM     18  H   UNL     1      -5.165   6.419   0.194  1.00  0.00     0.170 HD
BRANCH  16  19
ATOM     19  C   UNL     1      -2.968   3.934   0.257  1.00  0.00     0.081 A 
ATOM     20  N   UNL     1      -1.486   2.268   0.204  1.00  0.00    -0.237 N 
ATOM     21  N   UNL     1      -0.904   3.280  -0.483  1.00  0.00    -0.175 NA
ATOM     22  C   UNL     1      -2.652   2.696   0.824  1.00  0.00     0.054 A 
ATOM     23  C   UNL     1      -1.831   4.229  -0.513  1.00  0.00     0.149 A 
ATOM     24  C   UNL     1      -3.306   1.986   1.962  1.00  0.00     0.068 C 
BRANCH  20  25
ATOM     25  C   UNL     1      -0.868   0.992   0.181  1.00  0.00     0.065 A 
ATOM     26  C   UNL     1       2.674  -0.369  -0.128  1.00  0.00     0.044 C 
ATOM     27  C   UNL     1       1.179  -0.308  -0.027  1.00  0.00    -0.049 A 
ATOM     28  C   UNL     1       0.419  -1.481   0.031  1.00  0.00     0.003 A 
ATOM     29  C   UNL     1       0.525   0.926   0.021  1.00  0.00     0.031 A 
ATOM     30  C   UNL     1      -0.972  -1.420   0.155  1.00  0.00     0.002 A 
ATOM     31  C   UNL     1      -1.619  -0.185   0.242  1.00  0.00     0.028 A 
ENDBRANCH  20  25
ENDBRANCH  16  19
ENDBRANCH   9  15
ENDBRANCH   6   8
ENDBRANCH   5   6
ENDBRANCH   4   5
ENDBRANCH   3   4
ENDBRANCH   2   3
ENDBRANCH   1   2
BRANCH   1  32
ATOM     32  C   UNL     1      -4.119  14.184  -2.959  1.00  0.00     0.188 C 
BRANCH  32  33
ATOM     33  O   UNL     1      -4.390  13.271  -4.009  1.00  0.00    -0.376 OA
BRANCH  33  34
ATOM     34  C   UNL     1      -5.393  13.691  -4.917  1.00  0.00     0.202 C 
BRANCH  34  35
ATOM     35  C   UNL     1      -6.808  13.682  -4.309  1.00  0.00     0.261 C 
BRANCH  35  36
ATOM     36  O   UNL     1      -7.193  12.342  -3.914  1.00  0.00    -0.460 OA
BRANCH  36  37
ATOM     37  C   UNL     1      -7.251  12.073  -2.572  1.00  0.00     0.338 C 
ATOM     38  O   UNL     1      -7.971  12.661  -1.776  1.00  0.00    -0.246 OA
BRANCH  37  39
ATOM     39  C   UNL     1      -6.164  11.111  -2.193  1.00  0.00     0.060 A 
ATOM     40  C   UNL     1      -5.650  10.936  -0.900  1.00  0.00     0.016 A 
ATOM     41  C   UNL     1      -5.408  10.635  -3.218  1.00  0.00     0.016 A 
ATOM     42  C   UNL     1      -4.298  10.462  -0.678  1.00  0.00     0.010 A 
ATOM     43  C   UNL     1      -4.051  10.456  -2.971  1.00  0.00     0.010 A 
ATOM     44  C   UNL     1      -3.373  10.274  -1.720  1.00  0.00    -0.014 A 
BRANCH  44  45
ATOM     45  C   UNL     1      -1.701  10.055  -1.498  1.00  0.00     0.031 A 
ATOM     46  C   UNL     1      -0.581   8.808  -1.951  1.00  0.00     0.074 A 
ATOM     47  C   UNL     1      -1.051  11.069  -0.886  1.00  0.00     0.049 A 
ATOM     48  N   UNL     1       0.712   8.966  -1.795  1.00  0.00    -0.248 NA
ATOM     49  C   UNL     1      -0.710   7.425  -2.546  1.00  0.00     0.031 C 
ATOM     50  C   UNL     1       0.374  11.395  -0.895  1.00  0.00     0.029 A 
ATOM     51  N   UNL     1      -1.575  12.034  -0.024  1.00  0.00    -0.354 N 
ATOM     52  C   UNL     1       1.409   8.033  -2.539  1.00  0.00     0.074 A 
ATOM     53  C   UNL     1       0.502   7.032  -2.910  1.00  0.00     0.031 C 
ATOM     54  C   UNL     1       0.648  12.177   0.155  1.00  0.00     0.029 A 
ATOM     55  C   UNL     1      -0.565  12.266   0.932  1.00  0.00     0.049 A 
ATOM     56  H   UNL     1      -2.460  12.462  -0.073  1.00  0.00     0.167 HD
ATOM     57  C   UNL     1       2.722   8.175  -2.832  1.00  0.00     0.037 A 
ATOM     58  C   UNL     1      -0.764  11.891   2.223  1.00  0.00     0.037 A 
ATOM     59  C   UNL     1       3.358   8.885  -1.746  1.00  0.00     0.049 A 
ATOM     60  C   UNL     1       0.214  10.812   2.638  1.00  0.00     0.074 A 
ATOM     61  C   UNL     1       3.851  10.146  -1.500  1.00  0.00     0.029 A 
ATOM     62  N   UNL     1       3.215   8.289  -0.507  1.00  0.00    -0.354 N 
ATOM     63  N   UNL     1       1.286  10.502   1.955  1.00  0.00    -0.248 NA
ATOM     64  C   UNL     1       0.040   9.939   3.796  1.00  0.00     0.031 C 
ATOM     65  C   UNL     1       3.796  10.343  -0.070  1.00  0.00     0.029 A 
ATOM     66  C   UNL     1       3.336   9.180   0.534  1.00  0.00     0.049 A 
ATOM     67  H   UNL     1       3.045   7.328  -0.383  1.00  0.00     0.167 HD
ATOM     68  C   UNL     1       1.857   9.371   2.459  1.00  0.00     0.074 A 
ATOM     69  C   UNL     1       1.060   9.075   3.641  1.00  0.00     0.031 C 
ATOM     70  C   UNL     1       2.899   8.720   1.855  1.00  0.00     0.037 A 
BRANCH  57  71
ATOM     71  C   UNL     1       3.346   7.630  -4.097  1.00  0.00     0.064 A 
ATOM     72  C   UNL     1       4.737   7.689  -4.283  1.00  0.00     0.173 A 
ATOM     73  C   UNL     1       2.614   7.195  -5.236  1.00  0.00     0.173 A 
ATOM     74  F   UNL     1       5.542   8.102  -3.294  1.00  0.00    -0.203 F 
ATOM     75  C   UNL     1       5.341   7.359  -5.506  1.00  0.00     0.198 A 
ATOM     76  C   UNL     1       3.222   6.813  -6.434  1.00  0.00     0.198 A 
ATOM     77  F   UNL     1       1.275   7.176  -5.260  1.00  0.00    -0.203 F 
ATOM     78  F   UNL     1       6.666   7.501  -5.650  1.00  0.00    -0.200 F 
ATOM     79  C   UNL     1       4.587   6.916  -6.577  1.00  0.00     0.200 A 
ATOM     80  F   UNL     1       2.470   6.384  -7.459  1.00  0.00    -0.200 F 
ATOM     81  F   UNL     1       5.167   6.616  -7.747  1.00  0.00    -0.200 F 
ENDBRANCH  57  71
BRANCH  58  82
ATOM     82  C   UNL     1      -2.183  12.158   2.625  1.00  0.00     0.064 A 
ATOM     83  C   UNL     1      -2.640  13.490   2.437  1.00  0.00     0.173 A 
ATOM     84  C   UNL     1      -3.168  11.173   2.745  1.00  0.00     0.173 A 
ATOM     85  F   UNL     1      -1.750  14.488   2.307  1.00  0.00    -0.203 F 
ATOM     86  C   UNL     1      -3.982  13.789   2.204  1.00  0.00     0.198 A 
ATOM     87  C   UNL     1      -4.527  11.491   2.576  1.00  0.00     0.198 A 
ATOM     88  F   UNL     1      -2.831   9.880   2.856  1.00  0.00    -0.203 F 
ATOM     89  F   UNL     1      -4.338  15.027   1.832  1.00  0.00    -0.200 F 
ATOM     90  C   UNL     1      -4.923  12.783   2.253  1.00  0.00     0.200 A 
ATOM     91  F   UNL     1      -5.441  10.509   2.565  1.00  0.00    -0.200 F 
ATOM     92  F   UNL     1      -6.196  13.036   1.913  1.00  0.00    -0.200 F 
ENDBRANCH  58  82
BRANCH  70  93
ATOM     93  C   UNL     1       3.522   7.504   2.496  1.00  0.00     0.064 A 
ATOM     94  C   UNL     1       3.900   7.527   3.848  1.00  0.00     0.173 A 
ATOM     95  C   UNL     1       3.848   6.325   1.789  1.00  0.00     0.173 A 
ATOM     96  F   UNL     1       3.689   8.621   4.596  1.00  0.00    -0.203 F 
ATOM     97  C   UNL     1       4.501   6.429   4.463  1.00  0.00     0.198 A 
ATOM     98  C   UNL     1       4.515   5.258   2.386  1.00  0.00     0.198 A 
ATOM     99  F   UNL     1       3.498   6.147   0.507  1.00  0.00    -0.203 F 
ATOM    100  F   UNL     1       4.768   6.468   5.775  1.00  0.00    -0.200 F 
ATOM    101  C   UNL     1       4.822   5.301   3.729  1.00  0.00     0.200 A 
ATOM    102  F   UNL     1       4.843   4.186   1.651  1.00  0.00    -0.200 F 
ATOM    103  F   UNL     1       5.415   4.254   4.317  1.00  0.00    -0.200 F 
ENDBRANCH  70  93
ENDBRANCH  44  45
ENDBRANCH  37  39
ENDBRANCH  36  37
ENDBRANCH  35  36
ENDBRANCH  34  35
ENDBRANCH  33  34
ENDBRANCH  32  33
ENDBRANCH   1  32
TORSDOF 20
