REMARK SMILES O=C(OCCOCCOCCOC(=O)c1ccc(-c2c3nc(c(-c4c(F)c(F)c(F)c(F)c4F)c4ccc([nH]4)c(-c4c(F)c(F)c(F)c(F)c4F)c4nc(c(-c5c(F)c(F)c(F)c(F)c5F)c5ccc2[nH]5)C=C4)C=C3)cc1)C1=C[C@H]2C(=N1)C=CC(Cl)=C2Cl
REMARK SMILES IDX 8 1 7 2 6 3 5 4 4 5 3 6 2 7 1 8 78 9 79 10 82 11 80 12 81 13
REMARK SMILES IDX 87 14 83 15 85 16 88 17 84 18 86 19 9 20 10 21 11 22 12 23
REMARK SMILES IDX 13 24 14 25 15 26 16 27 77 28 17 29 76 30 18 31 19 32 20 33
REMARK SMILES IDX 70 34 21 35 75 36 69 37 71 38 22 39 74 40 68 41 67 42 23 44
REMARK SMILES IDX 55 45 35 46 54 47 36 48 39 49 53 50 72 51 37 52 38 53 52 55
REMARK SMILES IDX 73 56 40 57 24 58 25 59 33 60 26 61 27 62 31 63 34 64 28 65
REMARK SMILES IDX 29 66 32 67 30 68 56 69 57 70 65 71 58 72 59 73 63 74 66 75
REMARK SMILES IDX 60 76 61 77 64 78 62 79 41 80 42 81 50 82 43 83 44 84 48 85
REMARK SMILES IDX 51 86 45 87 46 88 49 89 47 90
REMARK H PARENT 71 43 39 54
REMARK Flexibility Score: inf
ROOT
ATOM      1  C   UNL     1       2.204  -2.201  -1.518  1.00  0.00     0.188 C 
ENDROOT
BRANCH   1   2
ATOM      2  C   UNL     1       3.028  -0.969  -1.111  1.00  0.00     0.188 C 
BRANCH   2   3
ATOM      3  O   UNL     1       4.420  -1.216  -1.167  1.00  0.00    -0.376 OA
BRANCH   3   4
ATOM      4  C   UNL     1       5.272  -0.289  -0.523  1.00  0.00     0.202 C 
BRANCH   4   5
ATOM      5  C   UNL     1       5.279  -0.392   1.009  1.00  0.00     0.261 C 
BRANCH   5   6
ATOM      6  O   UNL     1       4.039  -0.134   1.704  1.00  0.00    -0.459 OA
BRANCH   6   7
ATOM      7  C   UNL     1       3.355   1.027   1.790  1.00  0.00     0.356 C 
ATOM      8  O   UNL     1       2.316   1.087   2.444  1.00  0.00    -0.244 OA
BRANCH   7   9
ATOM      9  C   UNL     1       3.790   2.188   0.978  1.00  0.00     0.145 C 
ATOM     10  C   UNL     1       2.845   2.984   0.456  1.00  0.00     0.024 C 
ATOM     11  N   UNL     1       5.072   2.470   0.544  1.00  0.00    -0.245 NA
ATOM     12  C   UNL     1       3.499   4.017  -0.373  1.00  0.00     0.107 C 
ATOM     13  C   UNL     1       4.908   3.423  -0.323  1.00  0.00     0.054 C 
ATOM     14  C   UNL     1       3.188   4.136  -1.844  1.00  0.00     0.050 C 
ATOM     15  C   UNL     1       5.920   3.854  -1.336  1.00  0.00     0.026 C 
ATOM     16  C   UNL     1       4.055   4.985  -2.449  1.00  0.00     0.056 C 
ATOM     17  Cl  UNL     1       2.941   2.573  -2.632  1.00  0.00    -0.086 Cl
ATOM     18  C   UNL     1       5.460   4.565  -2.385  1.00  0.00     0.023 C 
ATOM     19  Cl  UNL     1       3.941   6.673  -1.950  1.00  0.00    -0.083 Cl
ENDBRANCH   7   9
ENDBRANCH   6   7
ENDBRANCH   5   6
ENDBRANCH   4   5
ENDBRANCH   3   4
ENDBRANCH   2   3
ENDBRANCH   1   2
BRANCH   1  20
ATOM     20  O   UNL     1       2.817  -3.482  -1.428  1.00  0.00    -0.376 OA
BRANCH  20  21
ATOM     21  C   UNL     1       4.050  -3.686  -2.117  1.00  0.00     0.202 C 
BRANCH  21  22
ATOM     22  C   UNL     1       4.122  -3.358  -3.621  1.00  0.00     0.261 C 
BRANCH  22  23
ATOM     23  O   UNL     1       3.720  -2.021  -4.003  1.00  0.00    -0.460 OA
BRANCH  23  24
ATOM     24  C   UNL     1       2.662  -1.955  -4.854  1.00  0.00     0.338 C 
ATOM     25  O   UNL     1       2.024  -2.889  -5.309  1.00  0.00    -0.246 OA
BRANCH  24  26
ATOM     26  C   UNL     1       2.267  -0.553  -5.126  1.00  0.00     0.060 A 
ATOM     27  C   UNL     1       0.995  -0.116  -4.727  1.00  0.00     0.016 A 
ATOM     28  C   UNL     1       3.063   0.270  -5.920  1.00  0.00     0.016 A 
ATOM     29  C   UNL     1       0.508   1.139  -5.132  1.00  0.00     0.010 A 
ATOM     30  C   UNL     1       2.571   1.521  -6.329  1.00  0.00     0.010 A 
ATOM     31  C   UNL     1       1.281   1.963  -5.959  1.00  0.00    -0.014 A 
BRANCH  31  32
ATOM     32  C   UNL     1       0.759   3.233  -6.548  1.00  0.00     0.031 A 
ATOM     33  C   UNL     1       0.357   3.270  -7.996  1.00  0.00     0.074 A 
ATOM     34  C   UNL     1       0.702   4.385  -5.852  1.00  0.00     0.049 A 
ATOM     35  N   UNL     1       0.061   4.306  -8.740  1.00  0.00    -0.248 NA
ATOM     36  C   UNL     1       0.219   1.975  -8.679  1.00  0.00     0.031 C 
ATOM     37  C   UNL     1       0.870   4.529  -4.416  1.00  0.00     0.029 A 
ATOM     38  N   UNL     1       0.567   5.685  -6.292  1.00  0.00    -0.354 N 
ATOM     39  C   UNL     1      -0.371   3.789  -9.950  1.00  0.00     0.074 A 
ATOM     40  C   UNL     1      -0.212   2.351  -9.877  1.00  0.00     0.031 C 
ATOM     41  C   UNL     1       1.041   5.829  -4.117  1.00  0.00     0.029 A 
ATOM     42  C   UNL     1       0.958   6.605  -5.344  1.00  0.00     0.049 A 
ATOM     43  H   UNL     1       0.230   5.929  -7.184  1.00  0.00     0.167 HD
ATOM     44  C   UNL     1      -0.907   4.454 -11.001  1.00  0.00     0.037 A 
ATOM     45  C   UNL     1       1.265   7.910  -5.470  1.00  0.00     0.037 A 
ATOM     46  C   UNL     1      -1.059   5.883 -11.083  1.00  0.00     0.049 A 
ATOM     47  C   UNL     1       0.961   8.621  -6.750  1.00  0.00     0.074 A 
ATOM     48  C   UNL     1      -1.693   6.633 -12.060  1.00  0.00     0.029 A 
ATOM     49  N   UNL     1      -0.540   6.784 -10.169  1.00  0.00    -0.354 N 
ATOM     50  N   UNL     1       0.484   8.138  -7.866  1.00  0.00    -0.248 NA
ATOM     51  C   UNL     1       1.165  10.078  -6.757  1.00  0.00     0.031 C 
ATOM     52  C   UNL     1      -1.495   7.989 -11.775  1.00  0.00     0.029 A 
ATOM     53  C   UNL     1      -0.780   8.083 -10.595  1.00  0.00     0.049 A 
ATOM     54  H   UNL     1      -0.069   6.540  -9.340  1.00  0.00     0.167 HD
ATOM     55  C   UNL     1       0.254   9.235  -8.679  1.00  0.00     0.074 A 
ATOM     56  C   UNL     1       0.692  10.406  -7.950  1.00  0.00     0.031 C 
ATOM     57  C   UNL     1      -0.327   9.258  -9.901  1.00  0.00     0.037 A 
BRANCH  44  58
ATOM     58  C   UNL     1      -1.409   3.640 -12.152  1.00  0.00     0.064 A 
ATOM     59  C   UNL     1      -2.609   2.920 -12.059  1.00  0.00     0.173 A 
ATOM     60  C   UNL     1      -0.739   3.656 -13.382  1.00  0.00     0.173 A 
ATOM     61  F   UNL     1      -3.283   2.874 -10.899  1.00  0.00    -0.203 F 
ATOM     62  C   UNL     1      -3.118   2.236 -13.159  1.00  0.00     0.198 A 
ATOM     63  C   UNL     1      -1.261   2.988 -14.485  1.00  0.00     0.198 A 
ATOM     64  F   UNL     1       0.408   4.339 -13.518  1.00  0.00    -0.203 F 
ATOM     65  F   UNL     1      -4.257   1.540 -13.046  1.00  0.00    -0.200 F 
ATOM     66  C   UNL     1      -2.448   2.279 -14.373  1.00  0.00     0.200 A 
ATOM     67  F   UNL     1      -0.620   3.039 -15.661  1.00  0.00    -0.200 F 
ATOM     68  F   UNL     1      -2.947   1.635 -15.437  1.00  0.00    -0.200 F 
ENDBRANCH  44  58
BRANCH  45  69
ATOM     69  C   UNL     1       1.955   8.659  -4.395  1.00  0.00     0.064 A 
ATOM     70  C   UNL     1       1.258   9.405  -3.441  1.00  0.00     0.173 A 
ATOM     71  C   UNL     1       3.356   8.750  -4.412  1.00  0.00     0.173 A 
ATOM     72  F   UNL     1      -0.083   9.393  -3.433  1.00  0.00    -0.203 F 
ATOM     73  C   UNL     1       1.938  10.219  -2.536  1.00  0.00     0.198 A 
ATOM     74  C   UNL     1       4.034   9.563  -3.505  1.00  0.00     0.198 A 
ATOM     75  F   UNL     1       4.063   8.051  -5.312  1.00  0.00    -0.203 F 
ATOM     76  F   UNL     1       1.249  10.956  -1.654  1.00  0.00    -0.200 F 
ATOM     77  C   UNL     1       3.324  10.295  -2.566  1.00  0.00     0.200 A 
ATOM     78  F   UNL     1       5.373   9.619  -3.529  1.00  0.00    -0.200 F 
ATOM     79  F   UNL     1       3.974  11.079  -1.696  1.00  0.00    -0.200 F 
ENDBRANCH  45  69
BRANCH  57  80
ATOM     80  C   UNL     1      -0.573  10.603 -10.511  1.00  0.00     0.064 A 
ATOM     81  C   UNL     1       0.473  11.390 -11.009  1.00  0.00     0.173 A 
ATOM     82  C   UNL     1      -1.877  11.116 -10.583  1.00  0.00     0.173 A 
ATOM     83  F   UNL     1       1.741  10.958 -10.927  1.00  0.00    -0.203 F 
ATOM     84  C   UNL     1       0.226  12.653 -11.540  1.00  0.00     0.198 A 
ATOM     85  C   UNL     1      -2.124  12.366 -11.142  1.00  0.00     0.198 A 
ATOM     86  F   UNL     1      -2.912  10.407 -10.108  1.00  0.00    -0.203 F 
ATOM     87  F   UNL     1       1.247  13.413 -11.959  1.00  0.00    -0.200 F 
ATOM     88  C   UNL     1      -1.073  13.136 -11.613  1.00  0.00     0.200 A 
ATOM     89  F   UNL     1      -3.380  12.829 -11.214  1.00  0.00    -0.200 F 
ATOM     90  F   UNL     1      -1.308  14.352 -12.125  1.00  0.00    -0.200 F 
ENDBRANCH  57  80
ENDBRANCH  31  32
ENDBRANCH  24  26
ENDBRANCH  23  24
ENDBRANCH  22  23
ENDBRANCH  21  22
ENDBRANCH  20  21
ENDBRANCH   1  20
TORSDOF 17
