REMARK SMILES O=C(OCCOCCOCCOC(=O)c1ccc2nc(C3CCCCC3)[nH]c2c1)c1ccc(-c2c3nc(c(-c4c(F)c(F)c(F)c(F)c4F)c4ccc([nH]4)c(-c4c(F)c(F)c(F)c(F)c4F)c4nc(c(-c5c(F)c(F)c(F)c(F)c5F)c5ccc2[nH]5)C=C4)C=C3)cc1
REMARK SMILES IDX 7 1 6 2 5 3 4 4 3 5 2 6 1 7 30 8 31 9 92 10 32 11 91 12
REMARK SMILES IDX 33 13 34 14 35 15 85 16 36 17 90 18 84 19 86 20 37 21 89 22
REMARK SMILES IDX 83 23 82 24 38 26 70 27 50 28 69 29 51 30 54 31 68 32 87 33
REMARK SMILES IDX 52 34 53 35 67 37 88 38 55 39 39 40 40 41 48 42 41 43 42 44
REMARK SMILES IDX 46 45 49 46 43 47 44 48 47 49 45 50 71 51 72 52 80 53 73 54
REMARK SMILES IDX 74 55 78 56 81 57 75 58 76 59 79 60 77 61 56 62 57 63 65 64
REMARK SMILES IDX 58 65 59 66 63 67 66 68 60 69 61 70 64 71 62 72 8 73 9 74
REMARK SMILES IDX 10 75 11 76 12 77 13 78 14 79 15 80 16 81 29 82 17 83 28 84
REMARK SMILES IDX 18 85 27 86 19 87 20 88 21 90 22 91 26 92 23 93 25 94 24 95
REMARK H PARENT 86 25 54 36 27 89
REMARK Flexibility Score: inf
ROOT
ATOM      1  C   UNL     1       2.452  -2.180   0.286  1.00  0.00     0.188 C 
ENDROOT
BRANCH   1   2
ATOM      2  O   UNL     1       3.707  -1.605  -0.110  1.00  0.00    -0.376 OA
BRANCH   2   3
ATOM      3  C   UNL     1       4.592  -1.346   0.983  1.00  0.00     0.202 C 
BRANCH   3   4
ATOM      4  C   UNL     1       4.474   0.073   1.546  1.00  0.00     0.261 C 
BRANCH   4   5
ATOM      5  O   UNL     1       3.103   0.493   1.627  1.00  0.00    -0.460 OA
BRANCH   5   6
ATOM      6  C   UNL     1       2.387   1.185   0.708  1.00  0.00     0.338 C 
ATOM      7  O   UNL     1       1.195   1.395   0.929  1.00  0.00    -0.246 OA
BRANCH   6   8
ATOM      8  C   UNL     1       2.970   1.780  -0.536  1.00  0.00     0.060 A 
ATOM      9  C   UNL     1       4.058   1.277  -1.256  1.00  0.00     0.016 A 
ATOM     10  C   UNL     1       2.321   2.921  -1.040  1.00  0.00     0.016 A 
ATOM     11  C   UNL     1       4.571   1.956  -2.361  1.00  0.00     0.010 A 
ATOM     12  C   UNL     1       2.796   3.579  -2.176  1.00  0.00     0.010 A 
ATOM     13  C   UNL     1       3.958   3.125  -2.810  1.00  0.00    -0.014 A 
BRANCH  13  14
ATOM     14  C   UNL     1       4.605   3.945  -3.852  1.00  0.00     0.031 A 
ATOM     15  C   UNL     1       5.296   5.208  -3.442  1.00  0.00     0.074 A 
ATOM     16  C   UNL     1       4.602   3.555  -5.136  1.00  0.00     0.049 A 
ATOM     17  N   UNL     1       5.816   6.150  -4.184  1.00  0.00    -0.248 NA
ATOM     18  C   UNL     1       5.417   5.440  -1.994  1.00  0.00     0.031 C 
ATOM     19  C   UNL     1       4.029   2.307  -5.630  1.00  0.00     0.029 A 
ATOM     20  N   UNL     1       5.082   4.178  -6.258  1.00  0.00    -0.354 N 
ATOM     21  C   UNL     1       6.303   7.096  -3.296  1.00  0.00     0.074 A 
ATOM     22  C   UNL     1       6.010   6.623  -1.960  1.00  0.00     0.031 C 
ATOM     23  C   UNL     1       4.166   2.268  -6.964  1.00  0.00     0.029 A 
ATOM     24  C   UNL     1       4.790   3.505  -7.416  1.00  0.00     0.049 A 
ATOM     25  H   UNL     1       5.586   5.024  -6.235  1.00  0.00     0.167 HD
ATOM     26  C   UNL     1       6.934   8.260  -3.576  1.00  0.00     0.037 A 
ATOM     27  C   UNL     1       4.963   3.863  -8.701  1.00  0.00     0.037 A 
ATOM     28  C   UNL     1       7.212   8.717  -4.909  1.00  0.00     0.049 A 
ATOM     29  C   UNL     1       5.609   5.183  -9.000  1.00  0.00     0.074 A 
ATOM     30  C   UNL     1       7.814   9.893  -5.315  1.00  0.00     0.029 A 
ATOM     31  N   UNL     1       6.898   8.007  -6.061  1.00  0.00    -0.354 N 
ATOM     32  N   UNL     1       6.037   6.096  -8.161  1.00  0.00    -0.248 NA
ATOM     33  C   UNL     1       5.797   5.528 -10.414  1.00  0.00     0.031 C 
ATOM     34  C   UNL     1       7.834   9.910  -6.715  1.00  0.00     0.029 A 
ATOM     35  C   UNL     1       7.279   8.726  -7.180  1.00  0.00     0.049 A 
ATOM     36  H   UNL     1       6.468   7.121  -6.079  1.00  0.00     0.167 HD
ATOM     37  C   UNL     1       6.553   7.119  -8.939  1.00  0.00     0.074 A 
ATOM     38  C   UNL     1       6.394   6.710 -10.322  1.00  0.00     0.031 C 
ATOM     39  C   UNL     1       7.109   8.290  -8.544  1.00  0.00     0.037 A 
BRANCH  26  40
ATOM     40  C   UNL     1       7.293   9.125  -2.407  1.00  0.00     0.064 A 
ATOM     41  C   UNL     1       8.335   8.788  -1.531  1.00  0.00     0.173 A 
ATOM     42  C   UNL     1       6.538  10.272  -2.123  1.00  0.00     0.173 A 
ATOM     43  F   UNL     1       9.065   7.682  -1.743  1.00  0.00    -0.203 F 
ATOM     44  C   UNL     1       8.583   9.547  -0.390  1.00  0.00     0.198 A 
ATOM     45  C   UNL     1       6.804  11.042  -0.995  1.00  0.00     0.198 A 
ATOM     46  F   UNL     1       5.525  10.631  -2.926  1.00  0.00    -0.203 F 
ATOM     47  F   UNL     1       9.537   9.168   0.472  1.00  0.00    -0.200 F 
ATOM     48  C   UNL     1       7.817  10.673  -0.123  1.00  0.00     0.200 A 
ATOM     49  F   UNL     1       6.062  12.128  -0.737  1.00  0.00    -0.200 F 
ATOM     50  F   UNL     1       8.042  11.390   0.987  1.00  0.00    -0.200 F 
ENDBRANCH  26  40
BRANCH  27  51
ATOM     51  C   UNL     1       4.480   2.960  -9.774  1.00  0.00     0.064 A 
ATOM     52  C   UNL     1       5.373   2.187 -10.526  1.00  0.00     0.173 A 
ATOM     53  C   UNL     1       3.106   2.804 -10.022  1.00  0.00     0.173 A 
ATOM     54  F   UNL     1       6.695   2.320 -10.341  1.00  0.00    -0.203 F 
ATOM     55  C   UNL     1       4.910   1.285 -11.482  1.00  0.00     0.198 A 
ATOM     56  C   UNL     1       2.645   1.888 -10.964  1.00  0.00     0.198 A 
ATOM     57  F   UNL     1       2.216   3.540  -9.339  1.00  0.00    -0.203 F 
ATOM     58  F   UNL     1       5.785   0.570 -12.203  1.00  0.00    -0.200 F 
ATOM     59  C   UNL     1       3.548   1.127 -11.692  1.00  0.00     0.200 A 
ATOM     60  F   UNL     1       1.329   1.745 -11.175  1.00  0.00    -0.200 F 
ATOM     61  F   UNL     1       3.108   0.251 -12.605  1.00  0.00    -0.200 F 
ENDBRANCH  27  51
BRANCH  39  62
ATOM     62  C   UNL     1       7.606   9.206  -9.618  1.00  0.00     0.064 A 
ATOM     63  C   UNL     1       6.725  10.009 -10.354  1.00  0.00     0.173 A 
ATOM     64  C   UNL     1       8.981   9.335  -9.856  1.00  0.00     0.173 A 
ATOM     65  F   UNL     1       5.401   9.907 -10.167  1.00  0.00    -0.203 F 
ATOM     66  C   UNL     1       7.207  10.912 -11.297  1.00  0.00     0.198 A 
ATOM     67  C   UNL     1       9.460  10.252 -10.786  1.00  0.00     0.198 A 
ATOM     68  F   UNL     1       9.859   8.588  -9.170  1.00  0.00    -0.203 F 
ATOM     69  F   UNL     1       6.349  11.660 -12.005  1.00  0.00    -0.200 F 
ATOM     70  C   UNL     1       8.573  11.039 -11.506  1.00  0.00     0.200 A 
ATOM     71  F   UNL     1      10.780  10.380 -10.980  1.00  0.00    -0.200 F 
ATOM     72  F   UNL     1       9.035  11.920 -12.403  1.00  0.00    -0.200 F 
ENDBRANCH  39  62
ENDBRANCH  13  14
ENDBRANCH   6   8
ENDBRANCH   5   6
ENDBRANCH   4   5
ENDBRANCH   3   4
ENDBRANCH   2   3
ENDBRANCH   1   2
BRANCH   1  73
ATOM     73  C   UNL     1       1.918  -3.096  -0.818  1.00  0.00     0.188 C 
BRANCH  73  74
ATOM     74  O   UNL     1       2.574  -4.363  -0.909  1.00  0.00    -0.376 OA
BRANCH  74  75
ATOM     75  C   UNL     1       3.961  -4.347  -1.231  1.00  0.00     0.202 C 
BRANCH  75  76
ATOM     76  C   UNL     1       4.315  -4.155  -2.708  1.00  0.00     0.261 C 
BRANCH  76  77
ATOM     77  O   UNL     1       3.757  -2.984  -3.327  1.00  0.00    -0.460 OA
BRANCH  77  78
ATOM     78  C   UNL     1       2.726  -3.244  -4.166  1.00  0.00     0.338 C 
ATOM     79  O   UNL     1       2.160  -4.313  -4.345  1.00  0.00    -0.246 OA
BRANCH  78  80
ATOM     80  C   UNL     1       2.405  -2.062  -4.979  1.00  0.00     0.062 A 
ATOM     81  C   UNL     1       2.974  -2.002  -6.256  1.00  0.00     0.018 A 
ATOM     82  C   UNL     1       1.411  -1.159  -4.560  1.00  0.00     0.044 A 
ATOM     83  C   UNL     1       2.538  -1.048  -7.178  1.00  0.00     0.031 A 
ATOM     84  C   UNL     1       0.991  -0.224  -5.514  1.00  0.00     0.066 A 
ATOM     85  C   UNL     1       1.518  -0.163  -6.800  1.00  0.00     0.089 A 
ATOM     86  N   UNL     1       0.023   0.753  -5.507  1.00  0.00    -0.342 N 
ATOM     87  N   UNL     1       0.898   0.805  -7.543  1.00  0.00    -0.233 NA
ATOM     88  C   UNL     1      -0.039   1.310  -6.766  1.00  0.00     0.110 A 
ATOM     89  H   UNL     1      -0.530   1.010  -4.734  1.00  0.00     0.168 HD
BRANCH  88  90
ATOM     90  C   UNL     1      -1.087   2.297  -7.197  1.00  0.00     0.055 C 
ATOM     91  C   UNL     1      -2.498   1.692  -7.117  1.00  0.00     0.011 C 
ATOM     92  C   UNL     1      -1.016   3.618  -6.421  1.00  0.00     0.011 C 
ATOM     93  C   UNL     1      -3.554   2.676  -7.616  1.00  0.00     0.001 C 
ATOM     94  C   UNL     1      -2.073   4.605  -6.922  1.00  0.00     0.001 C 
ATOM     95  C   UNL     1      -3.478   4.009  -6.877  1.00  0.00     0.000 C 
ENDBRANCH  88  90
ENDBRANCH  78  80
ENDBRANCH  77  78
ENDBRANCH  76  77
ENDBRANCH  75  76
ENDBRANCH  74  75
ENDBRANCH  73  74
ENDBRANCH   1  73
TORSDOF 18
