REMARK SMILES O=C(OCCOCCOCCOC(=O)c1[nH]ncc1C[NH+]1CCC([N@H+]2CCC[C@@H](C(=O)N3CCCC3)C2)CC1)c1ccc(-c2c3nc(c(-c4c(F)c(F)c(F)c(F)c4F)c4ccc([nH]4)c(-c4c(F)c(F)c(F)c(F)c4F)c4nc(c(-c5c(F)c(F)c(F)c(F)c5F)c5ccc2[nH]5)C=C4)C=C3)cc1
REMARK SMILES IDX 8 1 7 2 6 3 5 4 4 5 3 6 2 7 1 8 40 9 41 10 102 11 42 12
REMARK SMILES IDX 101 13 43 14 44 15 45 16 95 17 46 18 100 19 94 20 96 21
REMARK SMILES IDX 47 22 99 23 93 24 92 25 48 27 80 28 60 29 79 30 61 31 64 32
REMARK SMILES IDX 78 33 97 34 62 35 63 36 77 38 98 39 65 40 49 41 50 42 58 43
REMARK SMILES IDX 51 44 52 45 56 46 59 47 53 48 54 49 57 50 55 51 81 52 82 53
REMARK SMILES IDX 90 54 83 55 84 56 88 57 91 58 85 59 86 60 89 61 87 62 66 63
REMARK SMILES IDX 67 64 75 65 68 66 69 67 73 68 76 69 70 70 71 71 74 72 72 73
REMARK SMILES IDX 9 74 10 75 11 76 12 77 13 78 14 79 15 80 16 81 19 82 17 83
REMARK SMILES IDX 18 85 20 86 21 87 22 88 39 89 23 91 38 92 24 93 25 94 26 95
REMARK SMILES IDX 37 96 27 98 29 99 28 100 30 101 31 102 32 103 33 104 36 105
REMARK SMILES IDX 34 106 35 107
REMARK H PARENT 96 26 64 37 16 84 21 90 25 97
REMARK Flexibility Score: inf
ROOT
ATOM      1  C   UNL     1       2.305  -0.251   3.187  1.00  0.00     0.188 C 
ENDROOT
BRANCH   1   2
ATOM      2  C   UNL     1       2.904   0.918   2.405  1.00  0.00     0.188 C 
BRANCH   2   3
ATOM      3  O   UNL     1       4.088   0.486   1.710  1.00  0.00    -0.376 OA
BRANCH   3   4
ATOM      4  C   UNL     1       4.756   1.567   1.056  1.00  0.00     0.202 C 
BRANCH   4   5
ATOM      5  C   UNL     1       4.524   1.558  -0.457  1.00  0.00     0.261 C 
BRANCH   5   6
ATOM      6  O   UNL     1       3.118   1.419  -0.739  1.00  0.00    -0.460 OA
BRANCH   6   7
ATOM      7  C   UNL     1       2.488   0.314  -1.208  1.00  0.00     0.338 C 
ATOM      8  O   UNL     1       1.263   0.273  -1.258  1.00  0.00    -0.246 OA
BRANCH   7   9
ATOM      9  C   UNL     1       3.257  -0.810  -1.796  1.00  0.00     0.060 A 
ATOM     10  C   UNL     1       4.244  -1.509  -1.096  1.00  0.00     0.016 A 
ATOM     11  C   UNL     1       2.890  -1.244  -3.078  1.00  0.00     0.016 A 
ATOM     12  C   UNL     1       4.931  -2.561  -1.714  1.00  0.00     0.010 A 
ATOM     13  C   UNL     1       3.536  -2.335  -3.672  1.00  0.00     0.010 A 
ATOM     14  C   UNL     1       4.580  -2.989  -3.006  1.00  0.00    -0.014 A 
BRANCH  14  15
ATOM     15  C   UNL     1       5.276  -4.145  -3.633  1.00  0.00     0.031 A 
ATOM     16  C   UNL     1       6.161  -3.959  -4.831  1.00  0.00     0.074 A 
ATOM     17  C   UNL     1       5.100  -5.383  -3.134  1.00  0.00     0.049 A 
ATOM     18  N   UNL     1       6.800  -4.863  -5.532  1.00  0.00    -0.248 NA
ATOM     19  C   UNL     1       6.341  -2.583  -5.315  1.00  0.00     0.031 C 
ATOM     20  C   UNL     1       4.230  -5.711  -2.010  1.00  0.00     0.029 A 
ATOM     21  N   UNL     1       5.638  -6.592  -3.502  1.00  0.00    -0.354 N 
ATOM     22  C   UNL     1       7.422  -4.174  -6.561  1.00  0.00     0.074 A 
ATOM     23  C   UNL     1       7.095  -2.773  -6.390  1.00  0.00     0.031 C 
ATOM     24  C   UNL     1       4.318  -7.026  -1.755  1.00  0.00     0.029 A 
ATOM     25  C   UNL     1       5.229  -7.638  -2.712  1.00  0.00     0.049 A 
ATOM     26  H   UNL     1       6.257  -6.698  -4.260  1.00  0.00     0.167 HD
ATOM     27  C   UNL     1       8.190  -4.666  -7.563  1.00  0.00     0.037 A 
ATOM     28  C   UNL     1       5.541  -8.945  -2.754  1.00  0.00     0.037 A 
ATOM     29  C   UNL     1       8.547  -6.050  -7.726  1.00  0.00     0.049 A 
ATOM     30  C   UNL     1       6.449  -9.451  -3.834  1.00  0.00     0.074 A 
ATOM     31  C   UNL     1       9.350  -6.628  -8.696  1.00  0.00     0.029 A 
ATOM     32  N   UNL     1       8.126  -7.076  -6.895  1.00  0.00    -0.354 N 
ATOM     33  N   UNL     1       7.032  -8.784  -4.797  1.00  0.00    -0.248 NA
ATOM     34  C   UNL     1       6.719 -10.896  -3.848  1.00  0.00     0.031 C 
ATOM     35  C   UNL     1       9.401  -8.008  -8.460  1.00  0.00     0.029 A 
ATOM     36  C   UNL     1       8.642  -8.285  -7.335  1.00  0.00     0.049 A 
ATOM     37  H   UNL     1       7.547  -6.962  -6.107  1.00  0.00     0.167 HD
ATOM     38  C   UNL     1       7.702  -9.729  -5.556  1.00  0.00     0.074 A 
ATOM     39  C   UNL     1       7.502 -11.011  -4.911  1.00  0.00     0.031 C 
ATOM     40  C   UNL     1       8.399  -9.553  -6.704  1.00  0.00     0.037 A 
BRANCH  27  41
ATOM     41  C   UNL     1       8.679  -3.689  -8.584  1.00  0.00     0.064 A 
ATOM     42  C   UNL     1       9.794  -2.876  -8.343  1.00  0.00     0.173 A 
ATOM     43  C   UNL     1       8.032  -3.579  -9.823  1.00  0.00     0.173 A 
ATOM     44  F   UNL     1      10.431  -2.937  -7.165  1.00  0.00    -0.203 F 
ATOM     45  C   UNL     1      10.237  -1.973  -9.306  1.00  0.00     0.198 A 
ATOM     46  C   UNL     1       8.485  -2.684 -10.788  1.00  0.00     0.198 A 
ATOM     47  F   UNL     1       6.958  -4.336 -10.094  1.00  0.00    -0.203 F 
ATOM     48  F   UNL     1      11.288  -1.182  -9.047  1.00  0.00    -0.200 F 
ATOM     49  C   UNL     1       9.585  -1.880 -10.527  1.00  0.00     0.200 A 
ATOM     50  F   UNL     1       7.854  -2.594 -11.966  1.00  0.00    -0.200 F 
ATOM     51  F   UNL     1      10.011  -1.007 -11.450  1.00  0.00    -0.200 F 
ENDBRANCH  27  41
BRANCH  28  52
ATOM     52  C   UNL     1       4.973  -9.882  -1.754  1.00  0.00     0.064 A 
ATOM     53  C   UNL     1       5.763 -10.373  -0.706  1.00  0.00     0.173 A 
ATOM     54  C   UNL     1       3.646 -10.321  -1.841  1.00  0.00     0.173 A 
ATOM     55  F   UNL     1       7.044  -9.992  -0.599  1.00  0.00    -0.203 F 
ATOM     56  C   UNL     1       5.248 -11.286   0.211  1.00  0.00     0.198 A 
ATOM     57  C   UNL     1       3.128 -11.222  -0.914  1.00  0.00     0.198 A 
ATOM     58  F   UNL     1       2.855  -9.873  -2.826  1.00  0.00    -0.203 F 
ATOM     59  F   UNL     1       6.030 -11.766   1.188  1.00  0.00    -0.200 F 
ATOM     60  C   UNL     1       3.932 -11.711   0.105  1.00  0.00     0.200 A 
ATOM     61  F   UNL     1       1.852 -11.619  -1.010  1.00  0.00    -0.200 F 
ATOM     62  F   UNL     1       3.438 -12.591   0.986  1.00  0.00    -0.200 F 
ENDBRANCH  28  52
BRANCH  40  63
ATOM     63  C   UNL     1       8.932 -10.788  -7.356  1.00  0.00     0.064 A 
ATOM     64  C   UNL     1       8.090 -11.607  -8.124  1.00  0.00     0.173 A 
ATOM     65  C   UNL     1      10.274 -11.161  -7.215  1.00  0.00     0.173 A 
ATOM     66  F   UNL     1       6.793 -11.297  -8.264  1.00  0.00    -0.203 F 
ATOM     67  C   UNL     1       8.574 -12.768  -8.718  1.00  0.00     0.198 A 
ATOM     68  C   UNL     1      10.757 -12.317  -7.821  1.00  0.00     0.198 A 
ATOM     69  F   UNL     1      11.110 -10.412  -6.482  1.00  0.00    -0.203 F 
ATOM     70  F   UNL     1       7.747 -13.555  -9.420  1.00  0.00    -0.200 F 
ATOM     71  C   UNL     1       9.907 -13.121  -8.568  1.00  0.00     0.200 A 
ATOM     72  F   UNL     1      12.044 -12.662  -7.673  1.00  0.00    -0.200 F 
ATOM     73  F   UNL     1      10.370 -14.244  -9.134  1.00  0.00    -0.200 F 
ENDBRANCH  40  63
ENDBRANCH  14  15
ENDBRANCH   7   9
ENDBRANCH   6   7
ENDBRANCH   5   6
ENDBRANCH   4   5
ENDBRANCH   3   4
ENDBRANCH   2   3
ENDBRANCH   1   2
BRANCH   1  74
ATOM     74  O   UNL     1       2.909  -0.429   4.473  1.00  0.00    -0.376 OA
BRANCH  74  75
ATOM     75  C   UNL     1       4.222  -0.985   4.474  1.00  0.00     0.202 C 
BRANCH  75  76
ATOM     76  C   UNL     1       4.236  -2.493   4.741  1.00  0.00     0.261 C 
BRANCH  76  77
ATOM     77  O   UNL     1       3.769  -3.254   3.613  1.00  0.00    -0.459 OA
BRANCH  77  78
ATOM     78  C   UNL     1       2.449  -3.561   3.617  1.00  0.00     0.356 C 
ATOM     79  O   UNL     1       1.636  -3.233   4.481  1.00  0.00    -0.244 OA
BRANCH  78  80
ATOM     80  C   UNL     1       2.091  -4.247   2.415  1.00  0.00     0.152 A 
ATOM     81  N   UNL     1       0.920  -3.976   1.764  1.00  0.00    -0.271 N 
ATOM     82  C   UNL     1       2.686  -5.287   1.708  1.00  0.00     0.059 A 
ATOM     83  N   UNL     1       0.735  -4.701   0.653  1.00  0.00    -0.183 NA
ATOM     84  H   UNL     1       0.271  -3.308   2.083  1.00  0.00     0.190 HD
ATOM     85  C   UNL     1       1.789  -5.515   0.637  1.00  0.00     0.145 A 
BRANCH  82  86
ATOM     86  C   UNL     1       3.942  -6.040   2.018  1.00  0.00     0.303 C 
BRANCH  86  87
ATOM     87  N   UNL     1       3.721  -7.250   2.831  1.00  0.00    -0.331 N 
ATOM     88  C   UNL     1       3.129  -6.955   4.140  1.00  0.00     0.268 C 
ATOM     89  C   UNL     1       3.021  -8.324   2.121  1.00  0.00     0.268 C 
ATOM     90  H   UNL     1       4.654  -7.618   3.013  1.00  0.00     0.348 HD
ATOM     91  C   UNL     1       3.040  -8.199   5.020  1.00  0.00     0.126 C 
ATOM     92  C   UNL     1       2.919  -9.602   2.963  1.00  0.00     0.126 C 
ATOM     93  C   UNL     1       2.232  -9.289   4.299  1.00  0.00     0.195 C 
BRANCH  93  94
ATOM     94  N   UNL     1       1.933 -10.505   5.085  1.00  0.00    -0.331 N 
ATOM     95  C   UNL     1       3.103 -11.173   5.668  1.00  0.00     0.262 C 
ATOM     96  C   UNL     1       0.940 -10.195   6.131  1.00  0.00     0.275 C 
ATOM     97  H   UNL     1       1.555 -11.177   4.417  1.00  0.00     0.348 HD
ATOM     98  C   UNL     1       2.697 -12.458   6.404  1.00  0.00     0.062 C 
ATOM     99  C   UNL     1       0.441 -11.462   6.834  1.00  0.00     0.134 C 
ATOM    100  C   UNL     1       1.619 -12.204   7.460  1.00  0.00     0.025 C 
BRANCH  99 101
ATOM    101  C   UNL     1      -0.612 -11.054   7.859  1.00  0.00     0.231 C 
ATOM    102  O   UNL     1      -0.626  -9.921   8.347  1.00  0.00    -0.274 OA
ATOM    103  N   UNL     1      -1.582 -11.973   8.185  1.00  0.00    -0.342 N 
ATOM    104  C   UNL     1      -1.648 -13.385   7.849  1.00  0.00     0.119 C 
ATOM    105  C   UNL     1      -2.769 -11.549   8.909  1.00  0.00     0.119 C 
ATOM    106  C   UNL     1      -3.131 -13.707   7.940  1.00  0.00     0.023 C 
ATOM    107  C   UNL     1      -3.608 -12.807   9.073  1.00  0.00     0.023 C 
ENDBRANCH  99 101
ENDBRANCH  93  94
ENDBRANCH  86  87
ENDBRANCH  82  86
ENDBRANCH  78  80
ENDBRANCH  77  78
ENDBRANCH  76  77
ENDBRANCH  75  76
ENDBRANCH  74  75
ENDBRANCH   1  74
TORSDOF 21
