REMARK SMILES Cc1cc2nc(C(F)(F)F)c(=O)n([C@H](C)C(=O)OCCOCCOCCOC(=O)c3ccc(-c4c5nc(c(-c6c(F)c(F)c(F)c(F)c6F)c6ccc([nH]6)c(-c6c(F)c(F)c(F)c(F)c6F)c6nc(c(-c7c(F)c(F)c(F)c(F)c7F)c7ccc4[nH]7)C=C6)C=C5)cc3)c2cc1C
REMARK SMILES IDX 22 1 21 2 20 3 19 4 18 5 16 6 17 7 14 8 15 9 13 10 1 11 2 12
REMARK SMILES IDX 3 13 95 14 4 15 94 16 96 17 5 18 93 19 6 20 11 21 12 22 7 23
REMARK SMILES IDX 8 24 9 25 10 26 23 27 24 28 25 29 26 30 27 31 28 32 29 33
REMARK SMILES IDX 30 34 31 35 92 36 32 37 91 38 33 39 34 40 35 41 85 42 36 43
REMARK SMILES IDX 90 44 84 45 86 46 37 47 89 48 83 49 82 50 38 52 70 53 50 54
REMARK SMILES IDX 69 55 51 56 54 57 68 58 87 59 52 60 53 61 67 63 88 64 55 65
REMARK SMILES IDX 39 66 40 67 48 68 41 69 42 70 46 71 49 72 43 73 44 74 47 75
REMARK SMILES IDX 45 76 71 77 72 78 80 79 73 80 74 81 78 82 81 83 75 84 76 85
REMARK SMILES IDX 79 86 77 87 56 88 57 89 65 90 58 91 59 92 63 93 66 94 60 95
REMARK SMILES IDX 61 96 64 97 62 98
REMARK H PARENT 86 51 54 62
REMARK Flexibility Score: inf
ROOT
ATOM      1  C   UNL     1      -3.892  -0.192   6.436  1.00  0.00     0.188 C 
ENDROOT
BRANCH   1   2
ATOM      2  O   UNL     1      -4.703   0.904   6.052  1.00  0.00    -0.376 OA
BRANCH   2   3
ATOM      3  C   UNL     1      -4.250   1.727   4.978  1.00  0.00     0.202 C 
BRANCH   3   4
ATOM      4  C   UNL     1      -2.791   2.222   4.985  1.00  0.00     0.261 C 
BRANCH   4   5
ATOM      5  O   UNL     1      -1.789   1.184   5.140  1.00  0.00    -0.462 OA
BRANCH   5   6
ATOM      6  C   UNL     1      -0.980   1.309   6.219  1.00  0.00     0.329 C 
ATOM      7  O   UNL     1      -1.004   2.279   6.976  1.00  0.00    -0.250 OA
BRANCH   6   8
ATOM      8  C   UNL     1       0.044   0.172   6.422  1.00  0.00     0.197 C 
ATOM      9  C   UNL     1       0.015  -1.212   5.773  1.00  0.00     0.044 C 
BRANCH   8  10
ATOM     10  N   UNL     1       1.334   0.838   6.284  1.00  0.00    -0.291 N 
ATOM     11  C   UNL     1       4.226   1.225   1.355  1.00  0.00     0.044 C 
ATOM     12  C   UNL     1       3.404   1.155   2.611  1.00  0.00    -0.046 A 
ATOM     13  C   UNL     1       3.923   1.702   3.800  1.00  0.00     0.034 A 
ATOM     14  C   UNL     1       2.103   0.633   2.611  1.00  0.00    -0.046 A 
ATOM     15  C   UNL     1       3.210   1.662   5.002  1.00  0.00     0.088 A 
ATOM     16  C   UNL     1       1.377   0.639   3.809  1.00  0.00     0.032 A 
ATOM     17  C   UNL     1       1.464   0.047   1.379  1.00  0.00     0.044 C 
ATOM     18  N   UNL     1       3.756   2.299   6.132  1.00  0.00    -0.236 NA
ATOM     19  C   UNL     1       1.948   1.060   5.019  1.00  0.00     0.071 A 
ATOM     20  C   UNL     1       3.126   2.183   7.271  1.00  0.00     0.210 A 
ATOM     21  C   UNL     1       1.954   1.264   7.452  1.00  0.00     0.282 A 
ATOM     22  O   UNL     1       1.618   0.925   8.578  1.00  0.00    -0.267 OA
BRANCH  20  23
ATOM     23  C   UNL     1       3.522   2.933   8.513  1.00  0.00     0.438 C 
ATOM     24  F   UNL     1       4.526   2.310   9.191  1.00  0.00    -0.164 F 
ATOM     25  F   UNL     1       3.986   4.184   8.223  1.00  0.00    -0.164 F 
ATOM     26  F   UNL     1       2.516   3.132   9.410  1.00  0.00    -0.164 F 
ENDBRANCH  20  23
ENDBRANCH   8  10
ENDBRANCH   6   8
ENDBRANCH   5   6
ENDBRANCH   4   5
ENDBRANCH   3   4
ENDBRANCH   2   3
ENDBRANCH   1   2
BRANCH   1  27
ATOM     27  C   UNL     1      -3.382  -1.136   5.343  1.00  0.00     0.188 C 
BRANCH  27  28
ATOM     28  O   UNL     1      -3.452  -0.654   4.028  1.00  0.00    -0.376 OA
BRANCH  28  29
ATOM     29  C   UNL     1      -4.106  -1.394   3.012  1.00  0.00     0.202 C 
BRANCH  29  30
ATOM     30  C   UNL     1      -5.404  -2.200   3.250  1.00  0.00     0.261 C 
BRANCH  30  31
ATOM     31  O   UNL     1      -5.604  -2.839   4.521  1.00  0.00    -0.460 OA
BRANCH  31  32
ATOM     32  C   UNL     1      -4.854  -3.939   4.811  1.00  0.00     0.338 C 
ATOM     33  O   UNL     1      -4.082  -4.503   4.069  1.00  0.00    -0.246 OA
BRANCH  32  34
ATOM     34  C   UNL     1      -4.902  -4.110   6.299  1.00  0.00     0.060 A 
ATOM     35  C   UNL     1      -6.105  -4.011   6.999  1.00  0.00     0.016 A 
ATOM     36  C   UNL     1      -3.695  -4.240   7.009  1.00  0.00     0.016 A 
ATOM     37  C   UNL     1      -6.104  -4.089   8.396  1.00  0.00     0.010 A 
ATOM     38  C   UNL     1      -3.695  -4.309   8.411  1.00  0.00     0.010 A 
ATOM     39  C   UNL     1      -4.905  -4.267   9.116  1.00  0.00    -0.014 A 
BRANCH  39  40
ATOM     40  C   UNL     1      -4.978  -4.628  10.559  1.00  0.00     0.031 A 
ATOM     41  C   UNL     1      -4.674  -3.663  11.666  1.00  0.00     0.074 A 
ATOM     42  C   UNL     1      -5.387  -5.877  10.860  1.00  0.00     0.049 A 
ATOM     43  N   UNL     1      -4.878  -3.806  12.954  1.00  0.00    -0.248 NA
ATOM     44  C   UNL     1      -4.058  -2.382  11.295  1.00  0.00     0.031 C 
ATOM     45  C   UNL     1      -5.670  -6.919   9.872  1.00  0.00     0.029 A 
ATOM     46  N   UNL     1      -5.669  -6.473  12.063  1.00  0.00    -0.354 N 
ATOM     47  C   UNL     1      -4.457  -2.622  13.545  1.00  0.00     0.074 A 
ATOM     48  C   UNL     1      -3.923  -1.795  12.480  1.00  0.00     0.031 C 
ATOM     49  C   UNL     1      -6.146  -8.002  10.501  1.00  0.00     0.029 A 
ATOM     50  C   UNL     1      -6.174  -7.745  11.938  1.00  0.00     0.049 A 
ATOM     51  H   UNL     1      -5.523  -6.033  12.932  1.00  0.00     0.167 HD
ATOM     52  C   UNL     1      -4.540  -2.253  14.848  1.00  0.00     0.037 A 
ATOM     53  C   UNL     1      -6.632  -8.604  12.869  1.00  0.00     0.037 A 
ATOM     54  C   UNL     1      -5.053  -3.089  15.908  1.00  0.00     0.049 A 
ATOM     55  C   UNL     1      -6.652  -8.186  14.313  1.00  0.00     0.074 A 
ATOM     56  C   UNL     1      -5.197  -2.783  17.252  1.00  0.00     0.029 A 
ATOM     57  N   UNL     1      -5.494  -4.394  15.751  1.00  0.00    -0.354 N 
ATOM     58  N   UNL     1      -6.347  -7.027  14.843  1.00  0.00    -0.248 NA
ATOM     59  C   UNL     1      -7.086  -9.196  15.290  1.00  0.00     0.031 C 
ATOM     60  C   UNL     1      -5.676  -3.916  17.915  1.00  0.00     0.029 A 
ATOM     61  C   UNL     1      -5.883  -4.914  16.978  1.00  0.00     0.049 A 
ATOM     62  H   UNL     1      -5.528  -4.880  14.896  1.00  0.00     0.167 HD
ATOM     63  C   UNL     1      -6.576  -7.160  16.206  1.00  0.00     0.074 A 
ATOM     64  C   UNL     1      -7.068  -8.504  16.420  1.00  0.00     0.031 C 
ATOM     65  C   UNL     1      -6.386  -6.248  17.189  1.00  0.00     0.037 A 
BRANCH  52  66
ATOM     66  C   UNL     1      -4.108  -0.863  15.222  1.00  0.00     0.064 A 
ATOM     67  C   UNL     1      -4.886   0.250  14.867  1.00  0.00     0.173 A 
ATOM     68  C   UNL     1      -2.998  -0.646  16.054  1.00  0.00     0.173 A 
ATOM     69  F   UNL     1      -5.963   0.097  14.082  1.00  0.00    -0.203 F 
ATOM     70  C   UNL     1      -4.566   1.526  15.325  1.00  0.00     0.198 A 
ATOM     71  C   UNL     1      -2.696   0.628  16.531  1.00  0.00     0.198 A 
ATOM     72  F   UNL     1      -2.234  -1.678  16.444  1.00  0.00    -0.203 F 
ATOM     73  F   UNL     1      -5.319   2.574  14.963  1.00  0.00    -0.200 F 
ATOM     74  C   UNL     1      -3.479   1.712  16.165  1.00  0.00     0.200 A 
ATOM     75  F   UNL     1      -1.662   0.802  17.366  1.00  0.00    -0.200 F 
ATOM     76  F   UNL     1      -3.192   2.936  16.631  1.00  0.00    -0.200 F 
ENDBRANCH  52  66
BRANCH  53  77
ATOM     77  C   UNL     1      -7.158  -9.931  12.457  1.00  0.00     0.064 A 
ATOM     78  C   UNL     1      -8.517 -10.243  12.608  1.00  0.00     0.173 A 
ATOM     79  C   UNL     1      -6.320 -10.914  11.910  1.00  0.00     0.173 A 
ATOM     80  F   UNL     1      -9.355  -9.342  13.142  1.00  0.00    -0.203 F 
ATOM     81  C   UNL     1      -9.012 -11.495  12.251  1.00  0.00     0.198 A 
ATOM     82  C   UNL     1      -6.823 -12.153  11.521  1.00  0.00     0.198 A 
ATOM     83  F   UNL     1      -5.014 -10.664  11.737  1.00  0.00    -0.203 F 
ATOM     84  F   UNL     1     -10.305 -11.784  12.453  1.00  0.00    -0.200 F 
ATOM     85  C   UNL     1      -8.166 -12.446  11.701  1.00  0.00     0.200 A 
ATOM     86  F   UNL     1      -6.006 -13.063  10.973  1.00  0.00    -0.200 F 
ATOM     87  F   UNL     1      -8.644 -13.649  11.352  1.00  0.00    -0.200 F 
ENDBRANCH  53  77
BRANCH  65  88
ATOM     88  C   UNL     1      -6.721  -6.652  18.597  1.00  0.00     0.064 A 
ATOM     89  C   UNL     1      -5.923  -7.563  19.305  1.00  0.00     0.173 A 
ATOM     90  C   UNL     1      -7.796  -6.057  19.275  1.00  0.00     0.173 A 
ATOM     91  F   UNL     1      -4.894  -8.173  18.698  1.00  0.00    -0.203 F 
ATOM     92  C   UNL     1      -6.194  -7.869  20.637  1.00  0.00     0.198 A 
ATOM     93  C   UNL     1      -8.045  -6.341  20.616  1.00  0.00     0.198 A 
ATOM     94  F   UNL     1      -8.588  -5.176  18.646  1.00  0.00    -0.203 F 
ATOM     95  F   UNL     1      -5.436  -8.765  21.284  1.00  0.00    -0.200 F 
ATOM     96  C   UNL     1      -7.245  -7.248  21.294  1.00  0.00     0.200 A 
ATOM     97  F   UNL     1      -9.051  -5.728  21.254  1.00  0.00    -0.200 F 
ATOM     98  F   UNL     1      -7.488  -7.524  22.583  1.00  0.00    -0.200 F 
ENDBRANCH  65  88
ENDBRANCH  39  40
ENDBRANCH  32  34
ENDBRANCH  31  32
ENDBRANCH  30  31
ENDBRANCH  29  30
ENDBRANCH  28  29
ENDBRANCH  27  28
ENDBRANCH   1  27
TORSDOF 19
