REMARK SMILES C[C@@H](C(=O)OCCOCCOCCOC(=O)c1ccc(-c2c3nc(c(-c4c(F)c(F)c(F)c(F)c4F)c4ccc([nH]4)c(-c4c(F)c(F)c(F)c(F)c4F)c4nc(c(-c5c(F)c(F)c(F)c(F)c5F)c5ccc2[nH]5)C=C4)C=C3)cc1)c1ccc(C[SiH](C)C)cc1
REMARK SMILES IDX 9 1 8 2 7 3 6 4 5 5 3 6 4 7 2 8 1 9 80 10 81 11 89 12 82 13
REMARK SMILES IDX 88 14 83 15 84 16 85 17 86 18 87 19 10 21 11 22 12 23 13 24
REMARK SMILES IDX 14 25 15 26 16 27 17 28 18 29 79 30 19 31 78 32 20 33 21 34
REMARK SMILES IDX 22 35 72 36 23 37 77 38 71 39 73 40 24 41 76 42 70 43 69 44
REMARK SMILES IDX 25 46 57 47 37 48 56 49 38 50 41 51 55 52 74 53 39 54 40 55
REMARK SMILES IDX 54 57 75 58 42 59 26 60 27 61 35 62 28 63 29 64 33 65 36 66
REMARK SMILES IDX 30 67 31 68 34 69 32 70 58 71 59 72 67 73 60 74 61 75 65 76
REMARK SMILES IDX 68 77 62 78 63 79 66 80 64 81 43 82 44 83 52 84 45 85 46 86
REMARK SMILES IDX 50 87 53 88 47 89 48 90 51 91 49 92
REMARK H PARENT 85 20 73 45 41 56
REMARK Flexibility Score: inf
ROOT
ATOM      1  C   UNL     1       0.349  -2.150   3.054  1.00  0.00     0.188 C 
ENDROOT
BRANCH   1   2
ATOM      2  O   UNL     1       1.075  -3.163   3.737  1.00  0.00    -0.376 OA
BRANCH   2   3
ATOM      3  C   UNL     1       2.370  -3.509   3.250  1.00  0.00     0.202 C 
BRANCH   3   4
ATOM      4  C   UNL     1       2.583  -3.719   1.737  1.00  0.00     0.261 C 
BRANCH   4   5
ATOM      5  O   UNL     1       2.115  -2.633   0.908  1.00  0.00    -0.463 OA
BRANCH   5   6
ATOM      6  C   UNL     1       1.361  -2.964  -0.174  1.00  0.00     0.313 C 
ATOM      7  O   UNL     1       1.148  -4.121  -0.525  1.00  0.00    -0.252 OA
BRANCH   6   8
ATOM      8  C   UNL     1       0.740  -1.753  -0.895  1.00  0.00     0.126 C 
ATOM      9  C   UNL     1       1.625  -0.494  -0.847  1.00  0.00     0.025 C 
BRANCH   8  10
ATOM     10  C   UNL     1      -0.760  -1.531  -0.618  1.00  0.00    -0.034 A 
ATOM     11  C   UNL     1      -1.353  -0.260  -0.699  1.00  0.00     0.005 A 
ATOM     12  C   UNL     1      -1.630  -2.619  -0.431  1.00  0.00     0.005 A 
ATOM     13  C   UNL     1      -2.748  -0.092  -0.650  1.00  0.00     0.004 A 
ATOM     14  C   UNL     1      -3.024  -2.450  -0.361  1.00  0.00     0.004 A 
ATOM     15  C   UNL     1      -3.607  -1.185  -0.499  1.00  0.00    -0.051 A 
BRANCH  15  16
ATOM     16  C   UNL     1      -5.117  -1.035  -0.613  1.00  0.00     0.021 C 
BRANCH  16  17
ATOM     17  Si  UNL     1      -6.022  -0.004   0.652  1.00  0.00     0.035 Si
ATOM     18  C   UNL     1      -5.552   1.780   0.785  1.00  0.00    -0.013 C 
ATOM     19  C   UNL     1      -7.864  -0.205   0.614  1.00  0.00    -0.013 C 
ATOM     20  H   UNL     1      -5.534  -0.584   1.853  1.00  0.00     0.014 H 
ENDBRANCH  16  17
ENDBRANCH  15  16
ENDBRANCH   8  10
ENDBRANCH   6   8
ENDBRANCH   5   6
ENDBRANCH   4   5
ENDBRANCH   3   4
ENDBRANCH   2   3
ENDBRANCH   1   2
BRANCH   1  21
ATOM     21  C   UNL     1       1.041  -0.805   2.772  1.00  0.00     0.188 C 
BRANCH  21  22
ATOM     22  O   UNL     1       2.431  -0.792   2.979  1.00  0.00    -0.376 OA
BRANCH  22  23
ATOM     23  C   UNL     1       2.985  -0.056   4.056  1.00  0.00     0.202 C 
BRANCH  23  24
ATOM     24  C   UNL     1       2.284   0.162   5.415  1.00  0.00     0.261 C 
BRANCH  24  25
ATOM     25  O   UNL     1       0.854   0.080   5.470  1.00  0.00    -0.460 OA
BRANCH  25  26
ATOM     26  C   UNL     1       0.162   1.206   5.182  1.00  0.00     0.338 C 
ATOM     27  O   UNL     1       0.617   2.294   4.859  1.00  0.00    -0.246 OA
BRANCH  26  28
ATOM     28  C   UNL     1      -1.265   0.836   5.091  1.00  0.00     0.060 A 
ATOM     29  C   UNL     1      -1.886   0.833   3.837  1.00  0.00     0.016 A 
ATOM     30  C   UNL     1      -1.983   0.474   6.232  1.00  0.00     0.016 A 
ATOM     31  C   UNL     1      -3.224   0.461   3.725  1.00  0.00     0.010 A 
ATOM     32  C   UNL     1      -3.340   0.143   6.120  1.00  0.00     0.010 A 
ATOM     33  C   UNL     1      -3.976   0.153   4.867  1.00  0.00    -0.014 A 
BRANCH  33  34
ATOM     34  C   UNL     1      -5.458   0.062   4.770  1.00  0.00     0.031 A 
ATOM     35  C   UNL     1      -6.259   1.314   5.012  1.00  0.00     0.074 A 
ATOM     36  C   UNL     1      -6.082  -1.062   4.370  1.00  0.00     0.049 A 
ATOM     37  N   UNL     1      -7.553   1.507   4.949  1.00  0.00    -0.248 NA
ATOM     38  C   UNL     1      -5.490   2.517   5.372  1.00  0.00     0.031 C 
ATOM     39  C   UNL     1      -5.410  -2.290   3.950  1.00  0.00     0.029 A 
ATOM     40  N   UNL     1      -7.417  -1.311   4.136  1.00  0.00    -0.354 N 
ATOM     41  C   UNL     1      -7.755   2.828   5.332  1.00  0.00     0.074 A 
ATOM     42  C   UNL     1      -6.452   3.401   5.586  1.00  0.00     0.031 C 
ATOM     43  C   UNL     1      -6.322  -3.118   3.408  1.00  0.00     0.029 A 
ATOM     44  C   UNL     1      -7.651  -2.514   3.510  1.00  0.00     0.049 A 
ATOM     45  H   UNL     1      -8.134  -0.687   4.392  1.00  0.00     0.167 HD
ATOM     46  C   UNL     1      -8.924   3.492   5.488  1.00  0.00     0.037 A 
ATOM     47  C   UNL     1      -8.803  -3.045   3.047  1.00  0.00     0.037 A 
ATOM     48  C   UNL     1     -10.220   2.934   5.202  1.00  0.00     0.049 A 
ATOM     49  C   UNL     1     -10.097  -2.286   3.241  1.00  0.00     0.074 A 
ATOM     50  C   UNL     1     -11.464   3.517   5.365  1.00  0.00     0.029 A 
ATOM     51  N   UNL     1     -10.437   1.665   4.686  1.00  0.00    -0.354 N 
ATOM     52  N   UNL     1     -10.291  -1.058   3.657  1.00  0.00    -0.248 NA
ATOM     53  C   UNL     1     -11.340  -3.006   2.916  1.00  0.00     0.031 C 
ATOM     54  C   UNL     1     -12.437   2.578   5.011  1.00  0.00     0.029 A 
ATOM     55  C   UNL     1     -11.798   1.436   4.557  1.00  0.00     0.049 A 
ATOM     56  H   UNL     1      -9.730   1.023   4.448  1.00  0.00     0.167 HD
ATOM     57  C   UNL     1     -11.668  -0.858   3.638  1.00  0.00     0.074 A 
ATOM     58  C   UNL     1     -12.259  -2.072   3.120  1.00  0.00     0.031 C 
ATOM     59  C   UNL     1     -12.380   0.225   4.038  1.00  0.00     0.037 A 
BRANCH  46  60
ATOM     60  C   UNL     1      -8.866   4.866   6.091  1.00  0.00     0.064 A 
ATOM     61  C   UNL     1      -8.372   5.977   5.394  1.00  0.00     0.173 A 
ATOM     62  C   UNL     1      -9.344   5.069   7.396  1.00  0.00     0.173 A 
ATOM     63  F   UNL     1      -7.885   5.834   4.153  1.00  0.00    -0.203 F 
ATOM     64  C   UNL     1      -8.337   7.236   5.991  1.00  0.00     0.198 A 
ATOM     65  C   UNL     1      -9.340   6.333   7.976  1.00  0.00     0.198 A 
ATOM     66  F   UNL     1      -9.828   4.039   8.107  1.00  0.00    -0.203 F 
ATOM     67  F   UNL     1      -7.813   8.275   5.327  1.00  0.00    -0.200 F 
ATOM     68  C   UNL     1      -8.829   7.414   7.276  1.00  0.00     0.200 A 
ATOM     69  F   UNL     1      -9.830   6.504   9.211  1.00  0.00    -0.200 F 
ATOM     70  F   UNL     1      -8.803   8.628   7.843  1.00  0.00    -0.200 F 
ENDBRANCH  46  60
BRANCH  47  71
ATOM     71  C   UNL     1      -8.811  -4.359   2.338  1.00  0.00     0.064 A 
ATOM     72  C   UNL     1      -9.281  -4.465   1.018  1.00  0.00     0.173 A 
ATOM     73  C   UNL     1      -8.405  -5.543   2.971  1.00  0.00     0.173 A 
ATOM     74  F   UNL     1      -9.714  -3.373   0.370  1.00  0.00    -0.203 F 
ATOM     75  C   UNL     1      -9.364  -5.699   0.374  1.00  0.00     0.198 A 
ATOM     76  C   UNL     1      -8.447  -6.770   2.311  1.00  0.00     0.198 A 
ATOM     77  F   UNL     1      -7.965  -5.512   4.237  1.00  0.00    -0.203 F 
ATOM     78  F   UNL     1      -9.881  -5.775  -0.860  1.00  0.00    -0.200 F 
ATOM     79  C   UNL     1      -8.938  -6.850   1.018  1.00  0.00     0.200 A 
ATOM     80  F   UNL     1      -8.021  -7.877   2.934  1.00  0.00    -0.200 F 
ATOM     81  F   UNL     1      -9.016  -8.036   0.399  1.00  0.00    -0.200 F 
ENDBRANCH  47  71
BRANCH  59  82
ATOM     82  C   UNL     1     -13.881   0.157   3.938  1.00  0.00     0.064 A 
ATOM     83  C   UNL     1     -14.634  -0.696   4.760  1.00  0.00     0.173 A 
ATOM     84  C   UNL     1     -14.580   0.999   3.059  1.00  0.00     0.173 A 
ATOM     85  F   UNL     1     -14.019  -1.526   5.617  1.00  0.00    -0.203 F 
ATOM     86  C   UNL     1     -16.025  -0.727   4.683  1.00  0.00     0.198 A 
ATOM     87  C   UNL     1     -15.973   0.992   3.010  1.00  0.00     0.198 A 
ATOM     88  F   UNL     1     -13.915   1.846   2.260  1.00  0.00    -0.203 F 
ATOM     89  F   UNL     1     -16.717  -1.587   5.443  1.00  0.00    -0.200 F 
ATOM     90  C   UNL     1     -16.693   0.123   3.815  1.00  0.00     0.200 A 
ATOM     91  F   UNL     1     -16.617   1.829   2.186  1.00  0.00    -0.200 F 
ATOM     92  F   UNL     1     -18.032   0.101   3.751  1.00  0.00    -0.200 F 
ENDBRANCH  59  82
ENDBRANCH  33  34
ENDBRANCH  26  28
ENDBRANCH  25  26
ENDBRANCH  24  25
ENDBRANCH  23  24
ENDBRANCH  22  23
ENDBRANCH  21  22
ENDBRANCH   1  21
TORSDOF 20
