REMARK SMILES Cc1cc(C(=O)N[C@@H]2C(=O)N3C(C(=O)OCCOCCOCCOC(=O)c4ccc(-c5c6nc(c(-c7c(F)c(F)c(F)c(F)c7F)c7ccc([nH]7)c(-c7c(F)c(F)c(F)c(F)c7F)c7nc(c(-c8c(F)c(F)c(F)c(F)c8F)c8ccc5[nH]8)C=C7)C=C6)cc4)=C(CSc4nnc(C)s4)CS[C@H]23)n(C)n1
REMARK SMILES IDX 19 1 18 2 17 3 16 4 15 5 13 6 14 7 12 8 8 9 9 10 101 11
REMARK SMILES IDX 10 12 11 13 100 14 99 15 90 16 7 17 5 18 6 19 4 21 1 22 2 23
REMARK SMILES IDX 3 24 104 25 102 26 103 27 91 28 92 29 93 30 94 31 98 32
REMARK SMILES IDX 95 33 96 34 97 35 20 36 21 37 22 38 23 39 24 40 25 41 26 42
REMARK SMILES IDX 27 43 28 44 89 45 29 46 88 47 30 48 31 49 32 50 82 51 33 52
REMARK SMILES IDX 87 53 81 54 83 55 34 56 86 57 80 58 79 59 35 61 67 62 47 63
REMARK SMILES IDX 66 64 48 65 51 66 65 67 84 68 49 69 50 70 64 72 85 73 52 74
REMARK SMILES IDX 36 75 37 76 45 77 38 78 39 79 43 80 46 81 40 82 41 83 44 84
REMARK SMILES IDX 42 85 68 86 69 87 77 88 70 89 71 90 75 91 78 92 72 93 73 94
REMARK SMILES IDX 76 95 74 96 53 97 54 98 62 99 55 100 56 101 60 102 63 103
REMARK SMILES IDX 57 104 58 105 61 106 59 107
REMARK H PARENT 7 20 83 60 51 71
REMARK Flexibility Score: inf
ROOT
ATOM      1  C   UNL     1      -3.128   0.436  -0.761  1.00  0.00     0.188 C 
ENDROOT
BRANCH   1   2
ATOM      2  O   UNL     1      -3.286   1.730  -1.311  1.00  0.00    -0.376 OA
BRANCH   2   3
ATOM      3  C   UNL     1      -3.610   1.860  -2.689  1.00  0.00     0.202 C 
BRANCH   3   4
ATOM      4  C   UNL     1      -3.091   0.879  -3.754  1.00  0.00     0.261 C 
BRANCH   4   5
ATOM      5  O   UNL     1      -3.316  -0.511  -3.463  1.00  0.00    -0.459 OA
BRANCH   5   6
ATOM      6  C   UNL     1      -2.206  -1.278  -3.356  1.00  0.00     0.355 C 
ATOM      7  O   UNL     1      -1.060  -0.915  -3.593  1.00  0.00    -0.244 OA
BRANCH   6   8
ATOM      8  C   UNL     1      -2.484  -2.660  -2.835  1.00  0.00     0.132 C 
ATOM      9  C   UNL     1      -0.225  -4.069  -0.684  1.00  0.00     0.206 C 
ATOM     10  C   UNL     1      -0.895  -2.680  -0.834  1.00  0.00     0.253 C 
ATOM     11  C   UNL     1      -1.231  -4.500  -1.791  1.00  0.00     0.181 C 
ATOM     12  O   UNL     1      -0.843  -1.626  -0.235  1.00  0.00    -0.272 OA
ATOM     13  N   UNL     1      -1.585  -3.115  -1.911  1.00  0.00    -0.289 N 
ATOM     14  S   UNL     1      -2.745  -5.358  -1.313  1.00  0.00    -0.129 SA
ATOM     15  C   UNL     1      -3.516  -4.978  -2.909  1.00  0.00     0.106 C 
ATOM     16  C   UNL     1      -3.454  -3.496  -3.298  1.00  0.00    -0.019 C 
BRANCH   9  17
ATOM     17  N   UNL     1      -0.238  -4.826   0.591  1.00  0.00    -0.336 N 
ATOM     18  C   UNL     1       0.005  -6.184   0.754  1.00  0.00     0.270 C 
ATOM     19  O   UNL     1      -0.098  -6.652   1.886  1.00  0.00    -0.268 OA
ATOM     20  H   UNL     1      -0.439  -4.313   1.407  1.00  0.00     0.164 HD
BRANCH  18  21
ATOM     21  C   UNL     1       0.283  -6.982  -0.425  1.00  0.00     0.126 A 
ATOM     22  C   UNL     1       0.355  -7.462  -4.030  1.00  0.00     0.069 C 
ATOM     23  C   UNL     1       0.395  -7.591  -2.554  1.00  0.00     0.060 A 
ATOM     24  C   UNL     1       0.907  -6.664  -1.623  1.00  0.00     0.059 A 
ATOM     25  N   UNL     1      -0.173  -8.623  -1.930  1.00  0.00    -0.178 NA
ATOM     26  N   UNL     1      -0.085  -8.296  -0.618  1.00  0.00    -0.263 N 
ATOM     27  C   UNL     1      -0.361  -9.328   0.352  1.00  0.00     0.174 C 
ENDBRANCH  18  21
ENDBRANCH   9  17
BRANCH  16  28
ATOM     28  C   UNL     1      -4.482  -3.157  -4.349  1.00  0.00     0.111 C 
BRANCH  28  29
ATOM     29  S   UNL     1      -6.084  -2.497  -3.844  1.00  0.00    -0.089 SA
BRANCH  29  30
ATOM     30  C   UNL     1      -6.540  -3.110  -2.275  1.00  0.00     0.174 A 
ATOM     31  N   UNL     1      -5.862  -3.991  -1.579  1.00  0.00    -0.132 NA
ATOM     32  S   UNL     1      -7.965  -2.569  -1.468  1.00  0.00    -0.091 S 
ATOM     33  N   UNL     1      -6.382  -4.202  -0.318  1.00  0.00    -0.143 NA
ATOM     34  C   UNL     1      -7.449  -3.465  -0.097  1.00  0.00     0.115 A 
ATOM     35  C   UNL     1      -8.174  -3.378   1.198  1.00  0.00     0.081 C 
ENDBRANCH  29  30
ENDBRANCH  28  29
ENDBRANCH  16  28
ENDBRANCH   6   8
ENDBRANCH   5   6
ENDBRANCH   4   5
ENDBRANCH   3   4
ENDBRANCH   2   3
ENDBRANCH   1   2
BRANCH   1  36
ATOM     36  C   UNL     1      -4.320  -0.538  -0.792  1.00  0.00     0.188 C 
BRANCH  36  37
ATOM     37  O   UNL     1      -5.489  -0.157  -1.475  1.00  0.00    -0.376 OA
BRANCH  37  38
ATOM     38  C   UNL     1      -6.354   0.821  -0.932  1.00  0.00     0.202 C 
BRANCH  38  39
ATOM     39  C   UNL     1      -6.386   1.256   0.543  1.00  0.00     0.261 C 
BRANCH  39  40
ATOM     40  O   UNL     1      -5.226   1.018   1.344  1.00  0.00    -0.460 OA
BRANCH  40  41
ATOM     41  C   UNL     1      -5.307  -0.036   2.196  1.00  0.00     0.338 C 
ATOM     42  O   UNL     1      -6.249  -0.794   2.347  1.00  0.00    -0.246 OA
BRANCH  41  43
ATOM     43  C   UNL     1      -3.973  -0.256   2.793  1.00  0.00     0.060 A 
ATOM     44  C   UNL     1      -3.295  -1.455   2.528  1.00  0.00     0.016 A 
ATOM     45  C   UNL     1      -3.401   0.713   3.617  1.00  0.00     0.016 A 
ATOM     46  C   UNL     1      -2.047  -1.694   3.106  1.00  0.00     0.010 A 
ATOM     47  C   UNL     1      -2.163   0.461   4.213  1.00  0.00     0.010 A 
ATOM     48  C   UNL     1      -1.491  -0.753   3.981  1.00  0.00    -0.014 A 
BRANCH  48  49
ATOM     49  C   UNL     1      -0.302  -1.107   4.796  1.00  0.00     0.031 A 
ATOM     50  C   UNL     1      -0.516  -1.560   6.213  1.00  0.00     0.074 A 
ATOM     51  C   UNL     1       0.944  -1.028   4.298  1.00  0.00     0.049 A 
ATOM     52  N   UNL     1       0.361  -1.837   7.145  1.00  0.00    -0.248 NA
ATOM     53  C   UNL     1      -1.917  -1.715   6.638  1.00  0.00     0.031 C 
ATOM     54  C   UNL     1       1.287  -0.651   2.929  1.00  0.00     0.029 A 
ATOM     55  N   UNL     1       2.157  -1.246   4.905  1.00  0.00    -0.354 N 
ATOM     56  C   UNL     1      -0.380  -2.190   8.265  1.00  0.00     0.074 A 
ATOM     57  C   UNL     1      -1.776  -2.059   7.909  1.00  0.00     0.031 C 
ATOM     58  C   UNL     1       2.627  -0.640   2.807  1.00  0.00     0.029 A 
ATOM     59  C   UNL     1       3.233  -0.975   4.096  1.00  0.00     0.049 A 
ATOM     60  H   UNL     1       2.247  -1.567   5.832  1.00  0.00     0.167 HD
ATOM     61  C   UNL     1       0.063  -2.594   9.480  1.00  0.00     0.037 A 
ATOM     62  C   UNL     1       4.552  -0.970   4.376  1.00  0.00     0.037 A 
ATOM     63  C   UNL     1       1.453  -2.714   9.837  1.00  0.00     0.049 A 
ATOM     64  C   UNL     1       5.021  -1.334   5.765  1.00  0.00     0.074 A 
ATOM     65  C   UNL     1       2.002  -3.131  11.036  1.00  0.00     0.029 A 
ATOM     66  N   UNL     1       2.514  -2.402   8.999  1.00  0.00    -0.354 N 
ATOM     67  N   UNL     1       4.321  -1.694   6.813  1.00  0.00    -0.248 NA
ATOM     68  C   UNL     1       6.472  -1.295   6.005  1.00  0.00     0.031 C 
ATOM     69  C   UNL     1       3.392  -3.002  10.950  1.00  0.00     0.029 A 
ATOM     70  C   UNL     1       3.714  -2.582   9.670  1.00  0.00     0.049 A 
ATOM     71  H   UNL     1       2.428  -2.098   8.067  1.00  0.00     0.167 HD
ATOM     72  C   UNL     1       5.241  -1.958   7.821  1.00  0.00     0.074 A 
ATOM     73  C   UNL     1       6.554  -1.728   7.255  1.00  0.00     0.031 C 
ATOM     74  C   UNL     1       5.019  -2.358   9.098  1.00  0.00     0.037 A 
BRANCH  61  75
ATOM     75  C   UNL     1      -0.971  -2.893  10.528  1.00  0.00     0.064 A 
ATOM     76  C   UNL     1      -1.830  -3.998  10.430  1.00  0.00     0.173 A 
ATOM     77  C   UNL     1      -1.090  -2.069  11.658  1.00  0.00     0.173 A 
ATOM     78  F   UNL     1      -1.768  -4.811   9.365  1.00  0.00    -0.203 F 
ATOM     79  C   UNL     1      -2.793  -4.245  11.405  1.00  0.00     0.198 A 
ATOM     80  C   UNL     1      -2.029  -2.341  12.649  1.00  0.00     0.198 A 
ATOM     81  F   UNL     1      -0.291  -1.001  11.805  1.00  0.00    -0.203 F 
ATOM     82  F   UNL     1      -3.643  -5.271  11.261  1.00  0.00    -0.200 F 
ATOM     83  C   UNL     1      -2.887  -3.421  12.517  1.00  0.00     0.200 A 
ATOM     84  F   UNL     1      -2.107  -1.552  13.730  1.00  0.00    -0.200 F 
ATOM     85  F   UNL     1      -3.811  -3.664  13.457  1.00  0.00    -0.200 F 
ENDBRANCH  61  75
BRANCH  62  86
ATOM     86  C   UNL     1       5.534  -0.590   3.325  1.00  0.00     0.064 A 
ATOM     87  C   UNL     1       6.444  -1.526   2.812  1.00  0.00     0.173 A 
ATOM     88  C   UNL     1       5.604   0.722   2.833  1.00  0.00     0.173 A 
ATOM     89  F   UNL     1       6.439  -2.786   3.272  1.00  0.00    -0.203 F 
ATOM     90  C   UNL     1       7.398  -1.159   1.865  1.00  0.00     0.198 A 
ATOM     91  C   UNL     1       6.536   1.080   1.862  1.00  0.00     0.198 A 
ATOM     92  F   UNL     1       4.763   1.659   3.296  1.00  0.00    -0.203 F 
ATOM     93  F   UNL     1       8.292  -2.060   1.434  1.00  0.00    -0.200 F 
ATOM     94  C   UNL     1       7.439   0.141   1.385  1.00  0.00     0.200 A 
ATOM     95  F   UNL     1       6.566   2.335   1.394  1.00  0.00    -0.200 F 
ATOM     96  F   UNL     1       8.355   0.493   0.473  1.00  0.00    -0.200 F 
ENDBRANCH  62  86
BRANCH  74  97
ATOM     97  C   UNL     1       6.219  -2.625   9.966  1.00  0.00     0.064 A 
ATOM     98  C   UNL     1       7.060  -1.594  10.413  1.00  0.00     0.173 A 
ATOM     99  C   UNL     1       6.506  -3.932  10.394  1.00  0.00     0.173 A 
ATOM    100  F   UNL     1       6.840  -0.328  10.027  1.00  0.00    -0.203 F 
ATOM    101  C   UNL     1       8.159  -1.865  11.226  1.00  0.00     0.198 A 
ATOM    102  C   UNL     1       7.583  -4.194  11.238  1.00  0.00     0.198 A 
ATOM    103  F   UNL     1       5.731  -4.956  10.008  1.00  0.00    -0.203 F 
ATOM    104  F   UNL     1       8.979  -0.871  11.593  1.00  0.00    -0.200 F 
ATOM    105  C   UNL     1       8.414  -3.163  11.645  1.00  0.00     0.200 A 
ATOM    106  F   UNL     1       7.815  -5.446  11.657  1.00  0.00    -0.200 F 
ATOM    107  F   UNL     1       9.465  -3.419  12.435  1.00  0.00    -0.200 F 
ENDBRANCH  74  97
ENDBRANCH  48  49
ENDBRANCH  41  43
ENDBRANCH  40  41
ENDBRANCH  39  40
ENDBRANCH  38  39
ENDBRANCH  37  38
ENDBRANCH  36  37
ENDBRANCH   1  36
TORSDOF 22
