REMARK SMILES C[C@@H]1C[N@@H+](CC(C)(C)C(=O)OCCOCCOCCOC(=O)c2ccc(-c3c4nc(c(-c5c(F)c(F)c(F)c(F)c5F)c5ccc([nH]5)c(-c5c(F)c(F)c(F)c(F)c5F)c5nc(c(-c6c(F)c(F)c(F)c(F)c6F)c6ccc3[nH]6)C=C5)C=C4)cc2)CC[C@@H]1[NH3+]
REMARK SMILES IDX 15 1 14 2 13 3 12 4 11 5 9 6 10 7 6 8 7 9 8 10 5 11 4 12
REMARK SMILES IDX 1 13 2 14 3 15 88 16 87 17 86 18 89 20 16 24 17 25 18 26
REMARK SMILES IDX 19 27 20 28 21 29 22 30 23 31 24 32 85 33 25 34 84 35 26 36
REMARK SMILES IDX 27 37 28 38 78 39 29 40 83 41 77 42 79 43 30 44 82 45 76 46
REMARK SMILES IDX 75 47 31 49 63 50 43 51 62 52 44 53 47 54 61 55 80 56 45 57
REMARK SMILES IDX 46 58 60 60 81 61 48 62 32 63 33 64 41 65 34 66 35 67 39 68
REMARK SMILES IDX 42 69 36 70 37 71 40 72 38 73 64 74 65 75 73 76 66 77 67 78
REMARK SMILES IDX 71 79 74 80 68 81 69 82 72 83 70 84 49 85 50 86 58 87 51 88
REMARK SMILES IDX 52 89 56 90 59 91 53 92 54 93 57 94 55 95
REMARK H PARENT 4 19 89 21 89 22 89 23 79 48 47 59
REMARK Flexibility Score: inf
ROOT
ATOM      1  C   UNL     1       0.542  -4.197  -3.803  1.00  0.00     0.188 C 
ENDROOT
BRANCH   1   2
ATOM      2  O   UNL     1      -0.777  -4.264  -4.304  1.00  0.00    -0.376 OA
BRANCH   2   3
ATOM      3  C   UNL     1      -1.343  -3.059  -4.797  1.00  0.00     0.202 C 
BRANCH   3   4
ATOM      4  C   UNL     1      -0.556  -2.177  -5.787  1.00  0.00     0.261 C 
BRANCH   4   5
ATOM      5  O   UNL     1       0.853  -2.061  -5.504  1.00  0.00    -0.463 OA
BRANCH   5   6
ATOM      6  C   UNL     1       1.400  -0.829  -5.373  1.00  0.00     0.317 C 
ATOM      7  O   UNL     1       0.737   0.202  -5.364  1.00  0.00    -0.251 OA
BRANCH   6   8
ATOM      8  C   UNL     1       2.930  -0.874  -5.168  1.00  0.00     0.111 C 
ATOM      9  C   UNL     1       3.508   0.424  -5.778  1.00  0.00     0.029 C 
ATOM     10  C   UNL     1       3.625  -2.006  -5.982  1.00  0.00     0.029 C 
BRANCH   8  11
ATOM     11  C   UNL     1       3.284  -1.089  -3.645  1.00  0.00     0.280 C 
BRANCH  11  12
ATOM     12  N   UNL     1       2.741  -0.275  -2.532  1.00  0.00    -0.333 N 
ATOM     13  C   UNL     1       1.204   0.007   0.340  1.00  0.00     0.020 C 
ATOM     14  C   UNL     1       0.682   0.212  -1.088  1.00  0.00     0.099 C 
ATOM     15  C   UNL     1       1.403  -0.702  -2.101  1.00  0.00     0.271 C 
ATOM     16  C   UNL     1       0.781   1.662  -1.589  1.00  0.00     0.194 C 
ATOM     17  C   UNL     1       2.250   2.060  -1.702  1.00  0.00     0.126 C 
ATOM     18  C   UNL     1       2.917   1.161  -2.735  1.00  0.00     0.268 C 
ATOM     19  H   UNL     1       3.321  -0.469  -1.716  1.00  0.00     0.348 HD
BRANCH  16  20
ATOM     20  N   UNL     1       0.043   2.604  -0.747  1.00  0.00    -0.355 N 
ATOM     21  H   UNL     1       0.441   2.604   0.192  1.00  0.00     0.344 HD
ATOM     22  H   UNL     1      -0.936   2.324  -0.702  1.00  0.00     0.344 HD
ATOM     23  H   UNL     1       0.112   3.541  -1.145  1.00  0.00     0.344 HD
ENDBRANCH  16  20
ENDBRANCH  11  12
ENDBRANCH   8  11
ENDBRANCH   6   8
ENDBRANCH   5   6
ENDBRANCH   4   5
ENDBRANCH   3   4
ENDBRANCH   2   3
ENDBRANCH   1   2
BRANCH   1  24
ATOM     24  C   UNL     1       1.599  -4.684  -4.808  1.00  0.00     0.188 C 
BRANCH  24  25
ATOM     25  O   UNL     1       1.213  -5.151  -6.090  1.00  0.00    -0.376 OA
BRANCH  25  26
ATOM     26  C   UNL     1       0.184  -6.129  -6.165  1.00  0.00     0.202 C 
BRANCH  26  27
ATOM     27  C   UNL     1       0.305  -7.418  -5.333  1.00  0.00     0.261 C 
BRANCH  27  28
ATOM     28  O   UNL     1       0.683  -7.235  -3.956  1.00  0.00    -0.460 OA
BRANCH  28  29
ATOM     29  C   UNL     1       1.917  -7.677  -3.623  1.00  0.00     0.338 C 
ATOM     30  O   UNL     1       2.722  -8.261  -4.353  1.00  0.00    -0.246 OA
BRANCH  29  31
ATOM     31  C   UNL     1       2.290  -7.192  -2.283  1.00  0.00     0.060 A 
ATOM     32  C   UNL     1       3.389  -6.325  -2.161  1.00  0.00     0.016 A 
ATOM     33  C   UNL     1       1.614  -7.635  -1.147  1.00  0.00     0.016 A 
ATOM     34  C   UNL     1       3.826  -5.911  -0.905  1.00  0.00     0.010 A 
ATOM     35  C   UNL     1       2.077  -7.250   0.115  1.00  0.00     0.010 A 
ATOM     36  C   UNL     1       3.201  -6.412   0.242  1.00  0.00    -0.014 A 
BRANCH  36  37
ATOM     37  C   UNL     1       3.847  -6.239   1.565  1.00  0.00     0.031 A 
ATOM     38  C   UNL     1       4.730  -7.344   2.076  1.00  0.00     0.074 A 
ATOM     39  C   UNL     1       3.664  -5.127   2.297  1.00  0.00     0.049 A 
ATOM     40  N   UNL     1       5.316  -7.475   3.239  1.00  0.00    -0.248 NA
ATOM     41  C   UNL     1       4.986  -8.455   1.144  1.00  0.00     0.031 C 
ATOM     42  C   UNL     1       2.891  -3.959   1.885  1.00  0.00     0.029 A 
ATOM     43  N   UNL     1       4.111  -4.812   3.557  1.00  0.00    -0.354 N 
ATOM     44  C   UNL     1       5.998  -8.683   3.182  1.00  0.00     0.074 A 
ATOM     45  C   UNL     1       5.736  -9.259   1.881  1.00  0.00     0.031 C 
ATOM     46  C   UNL     1       2.896  -3.061   2.886  1.00  0.00     0.029 A 
ATOM     47  C   UNL     1       3.639  -3.610   4.020  1.00  0.00     0.049 A 
ATOM     48  H   UNL     1       4.712  -5.393   4.077  1.00  0.00     0.167 HD
ATOM     49  C   UNL     1       6.776  -9.259   4.129  1.00  0.00     0.037 A 
ATOM     50  C   UNL     1       3.768  -3.038   5.234  1.00  0.00     0.037 A 
ATOM     51  C   UNL     1       7.030  -8.688   5.424  1.00  0.00     0.049 A 
ATOM     52  C   UNL     1       4.558  -3.746   6.308  1.00  0.00     0.074 A 
ATOM     53  C   UNL     1       7.806  -9.191   6.453  1.00  0.00     0.029 A 
ATOM     54  N   UNL     1       6.504  -7.484   5.872  1.00  0.00    -0.354 N 
ATOM     55  N   UNL     1       5.205  -4.885   6.249  1.00  0.00    -0.248 NA
ATOM     56  C   UNL     1       4.633  -3.085   7.620  1.00  0.00     0.031 C 
ATOM     57  C   UNL     1       7.707  -8.320   7.542  1.00  0.00     0.029 A 
ATOM     58  C   UNL     1       6.918  -7.243   7.172  1.00  0.00     0.049 A 
ATOM     59  H   UNL     1       5.923  -6.891   5.344  1.00  0.00     0.167 HD
ATOM     60  C   UNL     1       5.791  -5.058   7.498  1.00  0.00     0.074 A 
ATOM     61  C   UNL     1       5.429  -3.903   8.292  1.00  0.00     0.031 C 
ATOM     62  C   UNL     1       6.562  -6.080   7.946  1.00  0.00     0.037 A 
BRANCH  49  63
ATOM     63  C   UNL     1       7.379 -10.595   3.808  1.00  0.00     0.064 A 
ATOM     64  C   UNL     1       8.417 -10.731   2.874  1.00  0.00     0.173 A 
ATOM     65  C   UNL     1       6.930 -11.751   4.464  1.00  0.00     0.173 A 
ATOM     66  F   UNL     1       8.871  -9.659   2.207  1.00  0.00    -0.203 F 
ATOM     67  C   UNL     1       8.965 -11.979   2.591  1.00  0.00     0.198 A 
ATOM     68  C   UNL     1       7.501 -12.992   4.201  1.00  0.00     0.198 A 
ATOM     69  F   UNL     1       5.941 -11.675   5.367  1.00  0.00    -0.203 F 
ATOM     70  F   UNL     1       9.922 -12.094   1.660  1.00  0.00    -0.200 F 
ATOM     71  C   UNL     1       8.512 -13.107   3.259  1.00  0.00     0.200 A 
ATOM     72  F   UNL     1       7.069 -14.079   4.856  1.00  0.00    -0.200 F 
ATOM     73  F   UNL     1       9.045 -14.307   2.990  1.00  0.00    -0.200 F 
ENDBRANCH  49  63
BRANCH  50  74
ATOM     74  C   UNL     1       3.112  -1.734   5.516  1.00  0.00     0.064 A 
ATOM     75  C   UNL     1       3.872  -0.580   5.755  1.00  0.00     0.173 A 
ATOM     76  C   UNL     1       1.716  -1.622   5.591  1.00  0.00     0.173 A 
ATOM     77  F   UNL     1       5.211  -0.643   5.728  1.00  0.00    -0.203 F 
ATOM     78  C   UNL     1       3.260   0.630   6.079  1.00  0.00     0.198 A 
ATOM     79  C   UNL     1       1.105  -0.405   5.885  1.00  0.00     0.198 A 
ATOM     80  F   UNL     1       0.943  -2.698   5.380  1.00  0.00    -0.203 F 
ATOM     81  F   UNL     1       4.012   1.703   6.360  1.00  0.00    -0.200 F 
ATOM     82  C   UNL     1       1.878   0.718   6.138  1.00  0.00     0.200 A 
ATOM     83  F   UNL     1      -0.232  -0.324   5.937  1.00  0.00    -0.200 F 
ATOM     84  F   UNL     1       1.291   1.880   6.456  1.00  0.00    -0.200 F 
ENDBRANCH  50  74
BRANCH  62  85
ATOM     85  C   UNL     1       7.111  -5.978   9.341  1.00  0.00     0.064 A 
ATOM     86  C   UNL     1       6.292  -6.120  10.470  1.00  0.00     0.173 A 
ATOM     87  C   UNL     1       8.486  -5.785   9.548  1.00  0.00     0.173 A 
ATOM     88  F   UNL     1       4.969  -6.294  10.328  1.00  0.00    -0.203 F 
ATOM     89  C   UNL     1       6.825  -6.045  11.755  1.00  0.00     0.198 A 
ATOM     90  C   UNL     1       9.020  -5.743  10.833  1.00  0.00     0.198 A 
ATOM     91  F   UNL     1       9.315  -5.653   8.502  1.00  0.00    -0.203 F 
ATOM     92  F   UNL     1       6.017  -6.136  12.820  1.00  0.00    -0.200 F 
ATOM     93  C   UNL     1       8.188  -5.865  11.935  1.00  0.00     0.200 A 
ATOM     94  F   UNL     1      10.340  -5.585  11.003  1.00  0.00    -0.200 F 
ATOM     95  F   UNL     1       8.701  -5.804  13.172  1.00  0.00    -0.200 F 
ENDBRANCH  62  85
ENDBRANCH  36  37
ENDBRANCH  29  31
ENDBRANCH  28  29
ENDBRANCH  27  28
ENDBRANCH  26  27
ENDBRANCH  25  26
ENDBRANCH  24  25
ENDBRANCH   1  24
TORSDOF 20
