REMARK SMILES O=C(OCCOCCOCCOC(=O)[C@H]1CCCN(c2cc(-c3ccccn3)nc(-c3ccccc3F)n2)C1)c1ccc(-c2c3nc(c(-c4c(F)c(F)c(F)c(F)c4F)c4ccc([nH]4)c(-c4c(F)c(F)c(F)c(F)c4F)c4nc(c(-c5c(F)c(F)c(F)c(F)c5F)c5ccc2[nH]5)C=C4)C=C3)cc1
REMARK SMILES IDX 7 1 6 2 5 3 4 4 3 5 2 6 1 7 40 8 41 9 102 10 42 11 101 12
REMARK SMILES IDX 43 13 44 14 45 15 95 16 46 17 100 18 94 19 96 20 47 21 99 22
REMARK SMILES IDX 93 23 92 24 48 26 80 27 60 28 79 29 61 30 64 31 78 32 97 33
REMARK SMILES IDX 62 34 63 35 77 37 98 38 65 39 49 40 50 41 58 42 51 43 52 44
REMARK SMILES IDX 56 45 59 46 53 47 54 48 57 49 55 50 81 51 82 52 90 53 83 54
REMARK SMILES IDX 84 55 88 56 91 57 85 58 86 59 89 60 87 61 66 62 67 63 75 64
REMARK SMILES IDX 68 65 69 66 73 67 76 68 70 69 71 70 74 71 72 72 8 73 9 74
REMARK SMILES IDX 10 75 11 76 12 77 13 78 14 79 15 80 16 81 39 82 17 83 19 84
REMARK SMILES IDX 18 85 20 86 21 87 38 88 22 89 30 90 29 91 23 92 24 93 28 94
REMARK SMILES IDX 25 95 27 96 26 97 31 98 32 99 36 100 33 101 35 102 37 103
REMARK SMILES IDX 34 104
REMARK H PARENT 96 25 64 36
REMARK Flexibility Score: inf
ROOT
ATOM      1  C   UNL     1       1.504   0.914   8.500  1.00  0.00     0.188 C 
ENDROOT
BRANCH   1   2
ATOM      2  O   UNL     1       0.447   1.663   7.888  1.00  0.00    -0.376 OA
BRANCH   2   3
ATOM      3  C   UNL     1      -0.631   1.940   8.793  1.00  0.00     0.202 C 
BRANCH   3   4
ATOM      4  C   UNL     1      -1.552   0.742   9.103  1.00  0.00     0.261 C 
BRANCH   4   5
ATOM      5  O   UNL     1      -0.913  -0.540   8.952  1.00  0.00    -0.460 OA
BRANCH   5   6
ATOM      6  C   UNL     1      -0.788  -1.319   7.846  1.00  0.00     0.338 C 
ATOM      7  O   UNL     1      -0.216  -2.403   7.957  1.00  0.00    -0.246 OA
BRANCH   6   8
ATOM      8  C   UNL     1      -1.309  -0.945   6.493  1.00  0.00     0.060 A 
ATOM      9  C   UNL     1      -1.717   0.332   6.125  1.00  0.00     0.016 A 
ATOM     10  C   UNL     1      -1.371  -1.950   5.508  1.00  0.00     0.016 A 
ATOM     11  C   UNL     1      -2.286   0.593   4.892  1.00  0.00     0.010 A 
ATOM     12  C   UNL     1      -1.878  -1.680   4.227  1.00  0.00     0.010 A 
ATOM     13  C   UNL     1      -2.377  -0.405   3.931  1.00  0.00    -0.014 A 
BRANCH  13  14
ATOM     14  C   UNL     1      -3.123  -0.079   2.698  1.00  0.00     0.031 A 
ATOM     15  C   UNL     1      -4.483  -0.654   2.507  1.00  0.00     0.074 A 
ATOM     16  C   UNL     1      -2.687   0.879   1.858  1.00  0.00     0.049 A 
ATOM     17  N   UNL     1      -5.312  -0.468   1.516  1.00  0.00    -0.248 NA
ATOM     18  C   UNL     1      -5.009  -1.493   3.595  1.00  0.00     0.031 C 
ATOM     19  C   UNL     1      -1.477   1.655   2.064  1.00  0.00     0.029 A 
ATOM     20  N   UNL     1      -3.189   1.369   0.676  1.00  0.00    -0.354 N 
ATOM     21  C   UNL     1      -6.477  -1.110   1.891  1.00  0.00     0.074 A 
ATOM     22  C   UNL     1      -6.229  -1.762   3.157  1.00  0.00     0.031 C 
ATOM     23  C   UNL     1      -1.303   2.475   1.022  1.00  0.00     0.029 A 
ATOM     24  C   UNL     1      -2.337   2.250   0.043  1.00  0.00     0.049 A 
ATOM     25  H   UNL     1      -4.069   1.115   0.316  1.00  0.00     0.167 HD
ATOM     26  C   UNL     1      -7.664  -1.105   1.249  1.00  0.00     0.037 A 
ATOM     27  C   UNL     1      -2.385   2.768  -1.198  1.00  0.00     0.037 A 
ATOM     28  C   UNL     1      -7.909  -0.442  -0.001  1.00  0.00     0.049 A 
ATOM     29  C   UNL     1      -3.636   2.554  -1.983  1.00  0.00     0.074 A 
ATOM     30  C   UNL     1      -9.075  -0.412  -0.744  1.00  0.00     0.029 A 
ATOM     31  N   UNL     1      -6.973   0.309  -0.694  1.00  0.00    -0.354 N 
ATOM     32  N   UNL     1      -4.704   1.874  -1.658  1.00  0.00    -0.248 NA
ATOM     33  C   UNL     1      -3.718   3.252  -3.273  1.00  0.00     0.031 C 
ATOM     34  C   UNL     1      -8.828   0.305  -1.917  1.00  0.00     0.029 A 
ATOM     35  C   UNL     1      -7.525   0.769  -1.878  1.00  0.00     0.049 A 
ATOM     36  H   UNL     1      -6.053   0.489  -0.390  1.00  0.00     0.167 HD
ATOM     37  C   UNL     1      -5.591   2.073  -2.696  1.00  0.00     0.074 A 
ATOM     38  C   UNL     1      -4.949   2.955  -3.648  1.00  0.00     0.031 C 
ATOM     39  C   UNL     1      -6.841   1.581  -2.841  1.00  0.00     0.037 A 
BRANCH  26  40
ATOM     40  C   UNL     1      -8.784  -1.863   1.879  1.00  0.00     0.064 A 
ATOM     41  C   UNL     1      -9.205  -3.075   1.317  1.00  0.00     0.173 A 
ATOM     42  C   UNL     1      -9.475  -1.367   2.993  1.00  0.00     0.173 A 
ATOM     43  F   UNL     1      -8.556  -3.591   0.263  1.00  0.00    -0.203 F 
ATOM     44  C   UNL     1     -10.306  -3.750   1.829  1.00  0.00     0.198 A 
ATOM     45  C   UNL     1     -10.562  -2.058   3.518  1.00  0.00     0.198 A 
ATOM     46  F   UNL     1      -9.080  -0.229   3.583  1.00  0.00    -0.203 F 
ATOM     47  F   UNL     1     -10.714  -4.890   1.255  1.00  0.00    -0.200 F 
ATOM     48  C   UNL     1     -10.985  -3.241   2.926  1.00  0.00     0.200 A 
ATOM     49  F   UNL     1     -11.199  -1.584   4.597  1.00  0.00    -0.200 F 
ATOM     50  F   UNL     1     -12.046  -3.893   3.417  1.00  0.00    -0.200 F 
ENDBRANCH  26  40
BRANCH  27  51
ATOM     51  C   UNL     1      -1.277   3.502  -1.866  1.00  0.00     0.064 A 
ATOM     52  C   UNL     1      -0.460   2.819  -2.786  1.00  0.00     0.173 A 
ATOM     53  C   UNL     1      -1.186   4.898  -1.831  1.00  0.00     0.173 A 
ATOM     54  F   UNL     1      -0.629   1.503  -2.974  1.00  0.00    -0.203 F 
ATOM     55  C   UNL     1       0.439   3.498  -3.608  1.00  0.00     0.198 A 
ATOM     56  C   UNL     1      -0.309   5.580  -2.679  1.00  0.00     0.198 A 
ATOM     57  F   UNL     1      -2.019   5.604  -1.054  1.00  0.00    -0.203 F 
ATOM     58  F   UNL     1       1.190   2.824  -4.490  1.00  0.00    -0.200 F 
ATOM     59  C   UNL     1       0.506   4.881  -3.559  1.00  0.00     0.200 A 
ATOM     60  F   UNL     1      -0.287   6.920  -2.678  1.00  0.00    -0.200 F 
ATOM     61  F   UNL     1       1.327   5.544  -4.387  1.00  0.00    -0.200 F 
ENDBRANCH  27  51
BRANCH  39  62
ATOM     62  C   UNL     1      -7.548   1.977  -4.093  1.00  0.00     0.064 A 
ATOM     63  C   UNL     1      -8.589   2.913  -4.053  1.00  0.00     0.173 A 
ATOM     64  C   UNL     1      -7.144   1.478  -5.340  1.00  0.00     0.173 A 
ATOM     65  F   UNL     1      -8.994   3.427  -2.882  1.00  0.00    -0.203 F 
ATOM     66  C   UNL     1      -9.204   3.337  -5.224  1.00  0.00     0.198 A 
ATOM     67  C   UNL     1      -7.736   1.933  -6.511  1.00  0.00     0.198 A 
ATOM     68  F   UNL     1      -6.122   0.612  -5.422  1.00  0.00    -0.203 F 
ATOM     69  F   UNL     1     -10.203   4.228  -5.167  1.00  0.00    -0.200 F 
ATOM     70  C   UNL     1      -8.769   2.857  -6.451  1.00  0.00     0.200 A 
ATOM     71  F   UNL     1      -7.283   1.506  -7.697  1.00  0.00    -0.200 F 
ATOM     72  F   UNL     1      -9.334   3.301  -7.582  1.00  0.00    -0.200 F 
ENDBRANCH  39  62
ENDBRANCH  13  14
ENDBRANCH   6   8
ENDBRANCH   5   6
ENDBRANCH   4   5
ENDBRANCH   3   4
ENDBRANCH   2   3
ENDBRANCH   1   2
BRANCH   1  73
ATOM     73  C   UNL     1       2.903   1.448   8.197  1.00  0.00     0.188 C 
BRANCH  73  74
ATOM     74  O   UNL     1       3.205   2.773   8.615  1.00  0.00    -0.376 OA
BRANCH  74  75
ATOM     75  C   UNL     1       2.382   3.822   8.120  1.00  0.00     0.202 C 
BRANCH  75  76
ATOM     76  C   UNL     1       2.402   4.126   6.612  1.00  0.00     0.261 C 
BRANCH  76  77
ATOM     77  O   UNL     1       2.289   2.984   5.744  1.00  0.00    -0.463 OA
BRANCH  77  78
ATOM     78  C   UNL     1       3.409   2.657   5.043  1.00  0.00     0.310 C 
ATOM     79  O   UNL     1       4.485   3.246   5.141  1.00  0.00    -0.252 OA
BRANCH  78  80
ATOM     80  C   UNL     1       3.238   1.452   4.139  1.00  0.00     0.118 C 
ATOM     81  C   UNL     1       4.070   0.257   4.623  1.00  0.00     0.019 C 
ATOM     82  C   UNL     1       1.790   1.013   3.962  1.00  0.00     0.133 C 
ATOM     83  C   UNL     1       3.968  -0.898   3.623  1.00  0.00     0.022 C 
ATOM     84  N   UNL     1       1.696  -0.146   3.064  1.00  0.00    -0.356 N 
ATOM     85  C   UNL     1       2.510  -1.315   3.405  1.00  0.00     0.118 C 
BRANCH  84  86
ATOM     86  C   UNL     1       1.516   0.110   1.709  1.00  0.00     0.133 A 
ATOM     87  C   UNL     1       0.778  -0.772   0.950  1.00  0.00     0.077 A 
ATOM     88  N   UNL     1       2.002   1.242   1.187  1.00  0.00    -0.211 NA
ATOM     89  C   UNL     1       0.523  -0.443  -0.370  1.00  0.00     0.095 A 
ATOM     90  C   UNL     1       1.789   1.471  -0.119  1.00  0.00     0.165 A 
ATOM     91  N   UNL     1       1.069   0.670  -0.937  1.00  0.00    -0.226 NA
BRANCH  89  92
ATOM     92  C   UNL     1      -0.424  -1.300  -1.135  1.00  0.00     0.089 A 
ATOM     93  C   UNL     1      -1.699  -1.592  -0.625  1.00  0.00     0.030 A 
ATOM     94  N   UNL     1       0.034  -1.933  -2.243  1.00  0.00    -0.255 NA
ATOM     95  C   UNL     1      -2.522  -2.532  -1.242  1.00  0.00     0.004 A 
ATOM     96  C   UNL     1      -0.790  -2.841  -2.832  1.00  0.00     0.112 A 
ATOM     97  C   UNL     1      -2.054  -3.179  -2.370  1.00  0.00     0.020 A 
ENDBRANCH  89  92
BRANCH  90  98
ATOM     98  C   UNL     1       2.472   2.662  -0.649  1.00  0.00     0.055 A 
ATOM     99  C   UNL     1       3.703   2.553  -1.312  1.00  0.00     0.015 A 
ATOM    100  C   UNL     1       2.022   3.969  -0.409  1.00  0.00     0.134 A 
ATOM    101  C   UNL     1       4.420   3.695  -1.711  1.00  0.00     0.001 A 
ATOM    102  C   UNL     1       2.708   5.109  -0.824  1.00  0.00     0.040 A 
ATOM    103  F   UNL     1       0.878   4.210   0.227  1.00  0.00    -0.206 F 
ATOM    104  C   UNL     1       3.919   4.973  -1.475  1.00  0.00     0.003 A 
ENDBRANCH  90  98
ENDBRANCH  84  86
ENDBRANCH  78  80
ENDBRANCH  77  78
ENDBRANCH  76  77
ENDBRANCH  75  76
ENDBRANCH  74  75
ENDBRANCH  73  74
ENDBRANCH   1  73
TORSDOF 20
