REMARK SMILES COc1ccc(CCN2C(=O)CC[C@@H](C(=O)OCCOCCOCCOC(=O)c3ccc(-c4c5nc(c(-c6c(F)c(F)c(F)c(F)c6F)c6ccc([nH]6)c(-c6c(F)c(F)c(F)c(F)c6F)c6nc(c(-c7c(F)c(F)c(F)c(F)c7F)c7ccc4[nH]7)C=C6)C=C5)cc3)[C@@H]2c2ccc(Cl)cc2)cc1OC
REMARK SMILES IDX 21 1 20 2 19 3 18 4 17 5 15 6 16 7 14 8 9 9 10 10 92 11
REMARK SMILES IDX 11 12 12 13 13 14 8 15 7 16 6 17 3 18 4 19 101 20 5 21
REMARK SMILES IDX 100 22 2 23 1 24 102 25 103 26 93 27 94 28 99 29 95 30 98 31
REMARK SMILES IDX 96 32 97 33 22 34 23 35 24 36 25 37 26 38 27 39 28 40 29 41
REMARK SMILES IDX 30 42 91 43 31 44 90 45 32 46 33 47 34 48 84 49 35 50 89 51
REMARK SMILES IDX 83 52 85 53 36 54 88 55 82 56 81 57 37 59 69 60 49 61 68 62
REMARK SMILES IDX 50 63 53 64 67 65 86 66 51 67 52 68 66 70 87 71 54 72 38 73
REMARK SMILES IDX 39 74 47 75 40 76 41 77 45 78 48 79 42 80 43 81 46 82 44 83
REMARK SMILES IDX 70 84 71 85 79 86 72 87 73 88 77 89 80 90 74 91 75 92 78 93
REMARK SMILES IDX 76 94 55 95 56 96 64 97 57 98 58 99 62 100 65 101 59 102
REMARK SMILES IDX 60 103 63 104 61 105
REMARK H PARENT 85 58 53 69
REMARK Flexibility Score: inf
ROOT
ATOM      1  C   UNL     1      -2.462  -4.855  -7.849  1.00  0.00     0.188 C 
ENDROOT
BRANCH   1   2
ATOM      2  O   UNL     1      -2.767  -5.630  -9.002  1.00  0.00    -0.376 OA
BRANCH   2   3
ATOM      3  C   UNL     1      -3.716  -6.679  -8.889  1.00  0.00     0.202 C 
BRANCH   3   4
ATOM      4  C   UNL     1      -3.253  -7.914  -8.120  1.00  0.00     0.261 C 
BRANCH   4   5
ATOM      5  O   UNL     1      -3.035  -7.660  -6.719  1.00  0.00    -0.463 OA
BRANCH   5   6
ATOM      6  C   UNL     1      -1.786  -7.901  -6.243  1.00  0.00     0.311 C 
ATOM      7  O   UNL     1      -0.831  -8.219  -6.942  1.00  0.00    -0.252 OA
BRANCH   6   8
ATOM      8  C   UNL     1      -1.721  -7.895  -4.716  1.00  0.00     0.127 C 
ATOM      9  N   UNL     1      -0.168  -5.969  -4.387  1.00  0.00    -0.334 N 
ATOM     10  C   UNL     1      -1.272  -5.154  -4.210  1.00  0.00     0.223 C 
ATOM     11  C   UNL     1      -0.298  -7.447  -4.260  1.00  0.00     0.129 C 
ATOM     12  O   UNL     1      -1.299  -3.975  -4.548  1.00  0.00    -0.275 OA
ATOM     13  C   UNL     1      -2.431  -5.759  -3.473  1.00  0.00     0.101 C 
ATOM     14  C   UNL     1      -2.832  -7.129  -3.983  1.00  0.00     0.028 C 
BRANCH   9  15
ATOM     15  C   UNL     1       1.043  -5.370  -4.973  1.00  0.00     0.125 C 
BRANCH  15  16
ATOM     16  C   UNL     1       2.079  -4.645  -4.058  1.00  0.00     0.057 C 
BRANCH  16  17
ATOM     17  C   UNL     1       1.776  -3.591  -2.998  1.00  0.00    -0.042 A 
ATOM     18  C   UNL     1       1.516  -1.775  -0.821  1.00  0.00     0.160 A 
ATOM     19  C   UNL     1       0.523  -2.712  -1.090  1.00  0.00     0.051 A 
ATOM     20  C   UNL     1       2.668  -1.746  -1.609  1.00  0.00     0.160 A 
ATOM     21  C   UNL     1       0.666  -3.614  -2.151  1.00  0.00     0.008 A 
ATOM     22  C   UNL     1       2.767  -2.630  -2.704  1.00  0.00     0.054 A 
BRANCH  18  23
ATOM     23  O   UNL     1       1.357  -0.980   0.282  1.00  0.00    -0.493 OA
ATOM     24  C   UNL     1       0.518   0.137  -0.008  1.00  0.00     0.278 C 
ENDBRANCH  18  23
BRANCH  20  25
ATOM     25  O   UNL     1       3.763  -0.939  -1.449  1.00  0.00    -0.493 OA
ATOM     26  C   UNL     1       3.983  -0.381  -0.159  1.00  0.00     0.278 C 
ENDBRANCH  20  25
ENDBRANCH  16  17
ENDBRANCH  15  16
ENDBRANCH   9  15
BRANCH  11  27
ATOM     27  C   UNL     1       0.114  -8.003  -2.889  1.00  0.00    -0.024 A 
ATOM     28  C   UNL     1       0.880  -7.255  -1.985  1.00  0.00     0.007 A 
ATOM     29  C   UNL     1      -0.148  -9.341  -2.538  1.00  0.00     0.007 A 
ATOM     30  C   UNL     1       1.343  -7.787  -0.779  1.00  0.00     0.021 A 
ATOM     31  C   UNL     1       0.298  -9.879  -1.324  1.00  0.00     0.021 A 
ATOM     32  C   UNL     1       1.044  -9.098  -0.450  1.00  0.00     0.041 A 
ATOM     33  Cl  UNL     1       1.618  -9.763   1.026  1.00  0.00    -0.084 Cl
ENDBRANCH  11  27
ENDBRANCH   6   8
ENDBRANCH   5   6
ENDBRANCH   4   5
ENDBRANCH   3   4
ENDBRANCH   2   3
ENDBRANCH   1   2
BRANCH   1  34
ATOM     34  C   UNL     1      -3.585  -4.514  -6.849  1.00  0.00     0.188 C 
BRANCH  34  35
ATOM     35  O   UNL     1      -4.902  -4.311  -7.346  1.00  0.00    -0.376 OA
BRANCH  35  36
ATOM     36  C   UNL     1      -5.059  -3.364  -8.399  1.00  0.00     0.202 C 
BRANCH  36  37
ATOM     37  C   UNL     1      -4.702  -1.931  -8.009  1.00  0.00     0.261 C 
BRANCH  37  38
ATOM     38  O   UNL     1      -3.273  -1.796  -7.934  1.00  0.00    -0.460 OA
BRANCH  38  39
ATOM     39  C   UNL     1      -2.841  -0.577  -7.533  1.00  0.00     0.338 C 
ATOM     40  O   UNL     1      -3.523   0.414  -7.348  1.00  0.00    -0.246 OA
BRANCH  39  41
ATOM     41  C   UNL     1      -1.376  -0.620  -7.332  1.00  0.00     0.060 A 
ATOM     42  C   UNL     1      -0.805  -1.656  -6.596  1.00  0.00     0.016 A 
ATOM     43  C   UNL     1      -0.573   0.432  -7.771  1.00  0.00     0.016 A 
ATOM     44  C   UNL     1       0.548  -1.629  -6.259  1.00  0.00     0.010 A 
ATOM     45  C   UNL     1       0.798   0.435  -7.472  1.00  0.00     0.010 A 
ATOM     46  C   UNL     1       1.369  -0.586  -6.690  1.00  0.00    -0.014 A 
BRANCH  46  47
ATOM     47  C   UNL     1       2.772  -0.488  -6.198  1.00  0.00     0.031 A 
ATOM     48  C   UNL     1       3.135   0.618  -5.249  1.00  0.00     0.074 A 
ATOM     49  C   UNL     1       3.708  -1.408  -6.501  1.00  0.00     0.049 A 
ATOM     50  N   UNL     1       4.315   1.054  -4.889  1.00  0.00    -0.248 NA
ATOM     51  C   UNL     1       2.010   1.329  -4.623  1.00  0.00     0.031 C 
ATOM     52  C   UNL     1       3.485  -2.628  -7.273  1.00  0.00     0.029 A 
ATOM     53  N   UNL     1       5.041  -1.466  -6.166  1.00  0.00    -0.354 N 
ATOM     54  C   UNL     1       4.075   2.133  -4.050  1.00  0.00     0.074 A 
ATOM     55  C   UNL     1       2.639   2.268  -3.930  1.00  0.00     0.031 C 
ATOM     56  C   UNL     1       4.628  -3.335  -7.313  1.00  0.00     0.029 A 
ATOM     57  C   UNL     1       5.690  -2.570  -6.662  1.00  0.00     0.049 A 
ATOM     58  H   UNL     1       5.489  -0.778  -5.622  1.00  0.00     0.167 HD
ATOM     59  C   UNL     1       4.976   2.956  -3.462  1.00  0.00     0.037 A 
ATOM     60  C   UNL     1       6.998  -2.899  -6.640  1.00  0.00     0.037 A 
ATOM     61  C   UNL     1       6.403   2.786  -3.536  1.00  0.00     0.049 A 
ATOM     62  C   UNL     1       7.995  -1.929  -6.052  1.00  0.00     0.074 A 
ATOM     63  C   UNL     1       7.402   3.611  -3.050  1.00  0.00     0.029 A 
ATOM     64  N   UNL     1       7.032   1.694  -4.114  1.00  0.00    -0.354 N 
ATOM     65  N   UNL     1       7.785  -0.806  -5.411  1.00  0.00    -0.248 NA
ATOM     66  C   UNL     1       9.420  -2.254  -6.231  1.00  0.00     0.031 C 
ATOM     67  C   UNL     1       8.638   3.036  -3.367  1.00  0.00     0.029 A 
ATOM     68  C   UNL     1       8.407   1.831  -4.011  1.00  0.00     0.049 A 
ATOM     69  H   UNL     1       6.570   0.933  -4.535  1.00  0.00     0.167 HD
ATOM     70  C   UNL     1       9.042  -0.293  -5.111  1.00  0.00     0.074 A 
ATOM     71  C   UNL     1      10.012  -1.245  -5.608  1.00  0.00     0.031 C 
ATOM     72  C   UNL     1       9.364   0.873  -4.499  1.00  0.00     0.037 A 
BRANCH  59  73
ATOM     73  C   UNL     1       4.441   4.175  -2.773  1.00  0.00     0.064 A 
ATOM     74  C   UNL     1       3.800   4.118  -1.529  1.00  0.00     0.173 A 
ATOM     75  C   UNL     1       4.586   5.432  -3.384  1.00  0.00     0.173 A 
ATOM     76  F   UNL     1       3.618   2.941  -0.914  1.00  0.00    -0.203 F 
ATOM     77  C   UNL     1       3.301   5.274  -0.932  1.00  0.00     0.198 A 
ATOM     78  C   UNL     1       4.111   6.587  -2.771  1.00  0.00     0.198 A 
ATOM     79  F   UNL     1       5.194   5.539  -4.575  1.00  0.00    -0.203 F 
ATOM     80  F   UNL     1       2.647   5.193   0.235  1.00  0.00    -0.200 F 
ATOM     81  C   UNL     1       3.462   6.506  -1.550  1.00  0.00     0.200 A 
ATOM     82  F   UNL     1       4.278   7.776  -3.366  1.00  0.00    -0.200 F 
ATOM     83  F   UNL     1       2.982   7.616  -0.971  1.00  0.00    -0.200 F 
ENDBRANCH  59  73
BRANCH  60  84
ATOM     84  C   UNL     1       7.474  -4.169  -7.255  1.00  0.00     0.064 A 
ATOM     85  C   UNL     1       8.092  -5.158  -6.476  1.00  0.00     0.173 A 
ATOM     86  C   UNL     1       7.375  -4.401  -8.636  1.00  0.00     0.173 A 
ATOM     87  F   UNL     1       8.248  -4.971  -5.156  1.00  0.00    -0.203 F 
ATOM     88  C   UNL     1       8.605  -6.318  -7.054  1.00  0.00     0.198 A 
ATOM     89  C   UNL     1       7.854  -5.577  -9.207  1.00  0.00     0.198 A 
ATOM     90  F   UNL     1       6.811  -3.482  -9.433  1.00  0.00    -0.203 F 
ATOM     91  F   UNL     1       9.244  -7.218  -6.293  1.00  0.00    -0.200 F 
ATOM     92  C   UNL     1       8.479  -6.530  -8.418  1.00  0.00     0.200 A 
ATOM     93  F   UNL     1       7.720  -5.782 -10.525  1.00  0.00    -0.200 F 
ATOM     94  F   UNL     1       8.971  -7.646  -8.974  1.00  0.00    -0.200 F 
ENDBRANCH  60  84
BRANCH  72  95
ATOM     95  C   UNL     1      10.821   1.183  -4.314  1.00  0.00     0.064 A 
ATOM     96  C   UNL     1      11.632   1.561  -5.395  1.00  0.00     0.173 A 
ATOM     97  C   UNL     1      11.401   1.155  -3.037  1.00  0.00     0.173 A 
ATOM     98  F   UNL     1      11.130   1.590  -6.638  1.00  0.00    -0.203 F 
ATOM     99  C   UNL     1      12.974   1.882  -5.205  1.00  0.00     0.198 A 
ATOM    100  C   UNL     1      12.736   1.502  -2.848  1.00  0.00     0.198 A 
ATOM    101  F   UNL     1      10.667   0.807  -1.969  1.00  0.00    -0.203 F 
ATOM    102  F   UNL     1      13.740   2.203  -6.258  1.00  0.00    -0.200 F 
ATOM    103  C   UNL     1      13.523   1.859  -3.932  1.00  0.00     0.200 A 
ATOM    104  F   UNL     1      13.261   1.491  -1.615  1.00  0.00    -0.200 F 
ATOM    105  F   UNL     1      14.812   2.178  -3.750  1.00  0.00    -0.200 F 
ENDBRANCH  72  95
ENDBRANCH  46  47
ENDBRANCH  39  41
ENDBRANCH  38  39
ENDBRANCH  37  38
ENDBRANCH  36  37
ENDBRANCH  35  36
ENDBRANCH  34  35
ENDBRANCH   1  34
TORSDOF 23
