REMARK SMILES O=C(OCCOCCOCCOC(=O)c1ccc(C[NH2+]CCCc2ccccc2)s1)c1ccc(-c2c3nc(c(-c4c(F)c(F)c(F)c(F)c4F)c4ccc([nH]4)c(-c4c(F)c(F)c(F)c(F)c4F)c4nc(c(-c5c(F)c(F)c(F)c(F)c5F)c5ccc2[nH]5)C=C4)C=C3)cc1
REMARK SMILES IDX 10 1 9 2 8 3 7 4 6 5 5 6 4 7 3 8 2 9 1 10 31 11 32 12 93 13
REMARK SMILES IDX 33 14 92 15 34 16 35 17 36 18 86 19 37 20 91 21 85 22 87 23
REMARK SMILES IDX 38 24 90 25 84 26 83 27 39 29 71 30 51 31 70 32 52 33 55 34
REMARK SMILES IDX 69 35 88 36 53 37 54 38 68 40 89 41 56 42 40 43 41 44 49 45
REMARK SMILES IDX 42 46 43 47 47 48 50 49 44 50 45 51 48 52 46 53 72 54 73 55
REMARK SMILES IDX 81 56 74 57 75 58 79 59 82 60 76 61 77 62 80 63 78 64 57 65
REMARK SMILES IDX 58 66 66 67 59 68 60 69 64 70 67 71 61 72 62 73 65 74 63 75
REMARK SMILES IDX 11 76 12 77 13 78 14 79 15 80 16 81 30 82 17 83 18 84 19 85
REMARK SMILES IDX 20 86 21 89 22 90 23 91 24 92 25 93 29 94 26 95 28 96 27 97
REMARK H PARENT 87 28 55 39 20 87 20 88
REMARK Flexibility Score: inf
ROOT
ATOM      1  C   UNL     1       4.079   4.369  -1.535  1.00  0.00     0.202 C 
ENDROOT
BRANCH   1   2
ATOM      2  O   UNL     1       2.676   4.230  -1.742  1.00  0.00    -0.376 OA
BRANCH   2   3
ATOM      3  C   UNL     1       2.040   3.142  -1.059  1.00  0.00     0.188 C 
BRANCH   3   4
ATOM      4  C   UNL     1       2.514   1.757  -1.512  1.00  0.00     0.188 C 
BRANCH   4   5
ATOM      5  O   UNL     1       3.801   1.456  -0.949  1.00  0.00    -0.376 OA
BRANCH   5   6
ATOM      6  C   UNL     1       4.570   0.542  -1.734  1.00  0.00     0.202 C 
BRANCH   6   7
ATOM      7  C   UNL     1       4.415  -0.920  -1.306  1.00  0.00     0.261 C 
BRANCH   7   8
ATOM      8  O   UNL     1       3.048  -1.232  -0.994  1.00  0.00    -0.460 OA
BRANCH   8   9
ATOM      9  C   UNL     1       2.446  -1.248   0.221  1.00  0.00     0.338 C 
ATOM     10  O   UNL     1       1.250  -1.532   0.278  1.00  0.00    -0.246 OA
BRANCH   9  11
ATOM     11  C   UNL     1       3.169  -1.026   1.513  1.00  0.00     0.060 A 
ATOM     12  C   UNL     1       4.307  -0.236   1.683  1.00  0.00     0.016 A 
ATOM     13  C   UNL     1       2.619  -1.634   2.657  1.00  0.00     0.016 A 
ATOM     14  C   UNL     1       4.964  -0.171   2.911  1.00  0.00     0.010 A 
ATOM     15  C   UNL     1       3.233  -1.515   3.909  1.00  0.00     0.010 A 
ATOM     16  C   UNL     1       4.441  -0.821   4.030  1.00  0.00    -0.014 A 
BRANCH  16  17
ATOM     17  C   UNL     1       5.215  -0.834   5.293  1.00  0.00     0.031 A 
ATOM     18  C   UNL     1       5.903  -2.097   5.717  1.00  0.00     0.074 A 
ATOM     19  C   UNL     1       5.380   0.300   5.998  1.00  0.00     0.049 A 
ATOM     20  N   UNL     1       6.636  -2.326   6.776  1.00  0.00    -0.248 NA
ATOM     21  C   UNL     1       5.767  -3.253   4.817  1.00  0.00     0.031 C 
ATOM     22  C   UNL     1       4.839   1.603   5.623  1.00  0.00     0.029 A 
ATOM     23  N   UNL     1       6.067   0.545   7.159  1.00  0.00    -0.354 N 
ATOM     24  C   UNL     1       7.052  -3.644   6.666  1.00  0.00     0.074 A 
ATOM     25  C   UNL     1       6.465  -4.179   5.456  1.00  0.00     0.031 C 
ATOM     26  C   UNL     1       5.220   2.515   6.530  1.00  0.00     0.029 A 
ATOM     27  C   UNL     1       5.994   1.852   7.572  1.00  0.00     0.049 A 
ATOM     28  H   UNL     1       6.565  -0.149   7.649  1.00  0.00     0.167 HD
ATOM     29  C   UNL     1       7.865  -4.342   7.493  1.00  0.00     0.037 A 
ATOM     30  C   UNL     1       6.482   2.444   8.678  1.00  0.00     0.037 A 
ATOM     31  C   UNL     1       8.434  -3.811   8.701  1.00  0.00     0.049 A 
ATOM     32  C   UNL     1       7.288   1.618   9.641  1.00  0.00     0.074 A 
ATOM     33  C   UNL     1       9.216  -4.449   9.646  1.00  0.00     0.029 A 
ATOM     34  N   UNL     1       8.276  -2.500   9.129  1.00  0.00    -0.354 N 
ATOM     35  N   UNL     1       7.644   0.359   9.548  1.00  0.00    -0.248 NA
ATOM     36  C   UNL     1       7.758   2.288  10.860  1.00  0.00     0.031 C 
ATOM     37  C   UNL     1       9.509  -3.530  10.661  1.00  0.00     0.029 A 
ATOM     38  C   UNL     1       8.935  -2.312  10.332  1.00  0.00     0.049 A 
ATOM     39  H   UNL     1       7.770  -1.806   8.647  1.00  0.00     0.167 HD
ATOM     40  C   UNL     1       8.395   0.090  10.682  1.00  0.00     0.074 A 
ATOM     41  C   UNL     1       8.454   1.321  11.444  1.00  0.00     0.031 C 
ATOM     42  C   UNL     1       8.980  -1.072  11.062  1.00  0.00     0.037 A 
BRANCH  29  43
ATOM     43  C   UNL     1       8.148  -5.764   7.118  1.00  0.00     0.064 A 
ATOM     44  C   UNL     1       9.028  -6.083   6.074  1.00  0.00     0.173 A 
ATOM     45  C   UNL     1       7.508  -6.817   7.787  1.00  0.00     0.173 A 
ATOM     46  F   UNL     1       9.642  -5.108   5.387  1.00  0.00    -0.203 F 
ATOM     47  C   UNL     1       9.238  -7.407   5.695  1.00  0.00     0.198 A 
ATOM     48  C   UNL     1       7.736  -8.140   7.419  1.00  0.00     0.198 A 
ATOM     49  F   UNL     1       6.652  -6.561   8.787  1.00  0.00    -0.203 F 
ATOM     50  F   UNL     1      10.043  -7.687   4.661  1.00  0.00    -0.200 F 
ATOM     51  C   UNL     1       8.593  -8.433   6.369  1.00  0.00     0.200 A 
ATOM     52  F   UNL     1       7.111  -9.132   8.069  1.00  0.00    -0.200 F 
ATOM     53  F   UNL     1       8.786  -9.706   5.996  1.00  0.00    -0.200 F 
ENDBRANCH  29  43
BRANCH  30  54
ATOM     54  C   UNL     1       6.204   3.881   8.934  1.00  0.00     0.064 A 
ATOM     55  C   UNL     1       7.225   4.839   8.894  1.00  0.00     0.173 A 
ATOM     56  C   UNL     1       4.903   4.327   9.216  1.00  0.00     0.173 A 
ATOM     57  F   UNL     1       8.488   4.462   8.646  1.00  0.00    -0.203 F 
ATOM     58  C   UNL     1       6.959   6.186   9.140  1.00  0.00     0.198 A 
ATOM     59  C   UNL     1       4.633   5.676   9.434  1.00  0.00     0.198 A 
ATOM     60  F   UNL     1       3.886   3.453   9.259  1.00  0.00    -0.203 F 
ATOM     61  F   UNL     1       7.960   7.077   9.130  1.00  0.00    -0.200 F 
ATOM     62  C   UNL     1       5.663   6.603   9.403  1.00  0.00     0.200 A 
ATOM     63  F   UNL     1       3.376   6.075   9.670  1.00  0.00    -0.200 F 
ATOM     64  F   UNL     1       5.406   7.899   9.631  1.00  0.00    -0.200 F 
ENDBRANCH  30  54
BRANCH  42  65
ATOM     65  C   UNL     1       9.748  -1.054  12.347  1.00  0.00     0.064 A 
ATOM     66  C   UNL     1       9.093  -1.073  13.586  1.00  0.00     0.173 A 
ATOM     67  C   UNL     1      11.150  -1.054  12.337  1.00  0.00     0.173 A 
ATOM     68  F   UNL     1       7.753  -1.055  13.641  1.00  0.00    -0.203 F 
ATOM     69  C   UNL     1       9.817  -1.078  14.774  1.00  0.00     0.198 A 
ATOM     70  C   UNL     1      11.871  -1.080  13.527  1.00  0.00     0.198 A 
ATOM     71  F   UNL     1      11.818  -1.038  11.174  1.00  0.00    -0.203 F 
ATOM     72  F   UNL     1       9.173  -1.062  15.949  1.00  0.00    -0.200 F 
ATOM     73  C   UNL     1      11.204  -1.088  14.744  1.00  0.00     0.200 A 
ATOM     74  F   UNL     1      13.210  -1.095  13.497  1.00  0.00    -0.200 F 
ATOM     75  F   UNL     1      11.900  -1.096  15.889  1.00  0.00    -0.200 F 
ENDBRANCH  42  65
ENDBRANCH  16  17
ENDBRANCH   9  11
ENDBRANCH   8   9
ENDBRANCH   7   8
ENDBRANCH   6   7
ENDBRANCH   5   6
ENDBRANCH   4   5
ENDBRANCH   3   4
ENDBRANCH   2   3
ENDBRANCH   1   2
BRANCH   1  76
ATOM     76  C   UNL     1       4.473   5.075  -0.238  1.00  0.00     0.261 C 
BRANCH  76  77
ATOM     77  O   UNL     1       3.886   4.490   0.938  1.00  0.00    -0.459 OA
BRANCH  77  78
ATOM     78  C   UNL     1       3.297   5.385   1.784  1.00  0.00     0.348 C 
ATOM     79  O   UNL     1       3.236   6.596   1.581  1.00  0.00    -0.245 OA
BRANCH  78  80
ATOM     80  C   UNL     1       2.880   4.774   3.029  1.00  0.00     0.113 A 
ATOM     81  C   UNL     1       3.016   5.349   4.278  1.00  0.00     0.028 A 
ATOM     82  S   UNL     1       2.039   3.287   3.118  1.00  0.00    -0.127 S 
ATOM     83  C   UNL     1       2.397   4.588   5.303  1.00  0.00     0.022 A 
ATOM     84  C   UNL     1       1.781   3.455   4.810  1.00  0.00     0.060 A 
BRANCH  84  85
ATOM     85  C   UNL     1       0.960   2.466   5.593  1.00  0.00     0.308 C 
BRANCH  85  86
ATOM     86  N   UNL     1      -0.445   2.867   5.567  1.00  0.00    -0.342 N 
ATOM     87  H   UNL     1      -0.833   2.623   4.656  1.00  0.00     0.346 HD
ATOM     88  H   UNL     1      -0.472   3.871   5.745  1.00  0.00     0.346 HD
BRANCH  86  89
ATOM     89  C   UNL     1      -1.256   2.228   6.600  1.00  0.00     0.261 C 
BRANCH  89  90
ATOM     90  C   UNL     1      -1.138   2.845   8.004  1.00  0.00     0.066 C 
BRANCH  90  91
ATOM     91  C   UNL     1      -1.564   4.316   8.132  1.00  0.00     0.041 C 
BRANCH  91  92
ATOM     92  C   UNL     1      -3.014   4.676   7.889  1.00  0.00    -0.048 A 
ATOM     93  C   UNL     1      -3.332   6.021   7.632  1.00  0.00     0.004 A 
ATOM     94  C   UNL     1      -4.065   3.755   7.980  1.00  0.00     0.004 A 
ATOM     95  C   UNL     1      -4.656   6.426   7.444  1.00  0.00     0.000 A 
ATOM     96  C   UNL     1      -5.389   4.158   7.782  1.00  0.00     0.000 A 
ATOM     97  C   UNL     1      -5.685   5.492   7.513  1.00  0.00     0.000 A 
ENDBRANCH  91  92
ENDBRANCH  90  91
ENDBRANCH  89  90
ENDBRANCH  86  89
ENDBRANCH  85  86
ENDBRANCH  84  85
ENDBRANCH  78  80
ENDBRANCH  77  78
ENDBRANCH  76  77
ENDBRANCH   1  76
TORSDOF 23
