REMARK SMILES O=C(OCCOCCOCCOC(=O)[C@@H]1CCCC[C@@H]1NS(=O)(=O)c1ccc2ccccc2c1)c1ccc(-c2c3nc(c(-c4c(F)c(F)c(F)c(F)c4F)c4ccc([nH]4)c(-c4c(F)c(F)c(F)c(F)c4F)c4nc(c(-c5c(F)c(F)c(F)c(F)c5F)c5ccc2[nH]5)C=C4)C=C3)cc1
REMARK SMILES IDX 8 1 7 2 6 3 5 4 4 5 3 6 2 7 1 8 35 9 36 10 97 11 37 12 96 13
REMARK SMILES IDX 38 14 39 15 40 16 90 17 41 18 95 19 89 20 91 21 42 22 94 23
REMARK SMILES IDX 88 24 87 25 43 27 75 28 55 29 74 30 56 31 59 32 73 33 92 34
REMARK SMILES IDX 57 35 58 36 72 38 93 39 60 40 44 41 45 42 53 43 46 44 47 45
REMARK SMILES IDX 51 46 54 47 48 48 49 49 52 50 50 51 76 52 77 53 85 54 78 55
REMARK SMILES IDX 79 56 83 57 86 58 80 59 81 60 84 61 82 62 61 63 62 64 70 65
REMARK SMILES IDX 63 66 64 67 68 68 71 69 65 70 66 71 69 72 67 73 9 74 10 75
REMARK SMILES IDX 11 76 12 77 13 78 14 79 15 80 16 81 20 82 17 83 19 84 18 85
REMARK SMILES IDX 21 86 22 88 23 89 24 90 25 91 26 92 34 93 27 94 33 95 28 96
REMARK SMILES IDX 32 97 29 98 31 99 30 100
REMARK H PARENT 91 26 59 37 21 87
REMARK Flexibility Score: inf
ROOT
ATOM      1  C   UNL     1       1.831   2.663  -2.912  1.00  0.00     0.188 C 
ENDROOT
BRANCH   1   2
ATOM      2  C   UNL     1       1.900   1.323  -2.181  1.00  0.00     0.188 C 
BRANCH   2   3
ATOM      3  O   UNL     1       2.987   1.378  -1.270  1.00  0.00    -0.376 OA
BRANCH   3   4
ATOM      4  C   UNL     1       3.518   0.108  -0.913  1.00  0.00     0.202 C 
BRANCH   4   5
ATOM      5  C   UNL     1       2.551  -0.802  -0.148  1.00  0.00     0.261 C 
BRANCH   5   6
ATOM      6  O   UNL     1       1.991  -0.026   0.928  1.00  0.00    -0.460 OA
BRANCH   6   7
ATOM      7  C   UNL     1       1.611  -0.667   2.064  1.00  0.00     0.338 C 
ATOM      8  O   UNL     1       1.208  -1.813   2.139  1.00  0.00    -0.246 OA
BRANCH   7   9
ATOM      9  C   UNL     1       1.973   0.197   3.240  1.00  0.00     0.060 A 
ATOM     10  C   UNL     1       2.718   1.337   3.012  1.00  0.00     0.016 A 
ATOM     11  C   UNL     1       1.846  -0.220   4.571  1.00  0.00     0.016 A 
ATOM     12  C   UNL     1       3.441   1.940   4.048  1.00  0.00     0.010 A 
ATOM     13  C   UNL     1       2.559   0.437   5.626  1.00  0.00     0.010 A 
ATOM     14  C   UNL     1       3.428   1.510   5.372  1.00  0.00    -0.014 A 
BRANCH  14  15
ATOM     15  C   UNL     1       4.509   2.049   6.298  1.00  0.00     0.031 A 
ATOM     16  C   UNL     1       5.436   1.105   7.010  1.00  0.00     0.074 A 
ATOM     17  C   UNL     1       4.942   3.331   6.284  1.00  0.00     0.049 A 
ATOM     18  N   UNL     1       6.067   1.181   8.149  1.00  0.00    -0.248 NA
ATOM     19  C   UNL     1       5.736  -0.120   6.298  1.00  0.00     0.031 C 
ATOM     20  C   UNL     1       4.355   4.420   5.514  1.00  0.00     0.029 A 
ATOM     21  N   UNL     1       6.054   3.911   6.855  1.00  0.00    -0.354 N 
ATOM     22  C   UNL     1       6.652  -0.073   8.327  1.00  0.00     0.074 A 
ATOM     23  C   UNL     1       6.296  -0.898   7.202  1.00  0.00     0.031 C 
ATOM     24  C   UNL     1       5.183   5.474   5.527  1.00  0.00     0.029 A 
ATOM     25  C   UNL     1       6.256   5.218   6.475  1.00  0.00     0.049 A 
ATOM     26  H   UNL     1       6.649   3.434   7.478  1.00  0.00     0.167 HD
ATOM     27  C   UNL     1       7.579  -0.473   9.223  1.00  0.00     0.037 A 
ATOM     28  C   UNL     1       7.150   6.133   6.904  1.00  0.00     0.037 A 
ATOM     29  C   UNL     1       8.334   0.451  10.006  1.00  0.00     0.049 A 
ATOM     30  C   UNL     1       8.069   5.729   8.026  1.00  0.00     0.074 A 
ATOM     31  C   UNL     1       9.246   0.205  11.009  1.00  0.00     0.029 A 
ATOM     32  N   UNL     1       8.366   1.811   9.740  1.00  0.00    -0.354 N 
ATOM     33  N   UNL     1       8.263   4.540   8.548  1.00  0.00    -0.248 NA
ATOM     34  C   UNL     1       8.829   6.803   8.676  1.00  0.00     0.031 C 
ATOM     35  C   UNL     1       9.857   1.424  11.333  1.00  0.00     0.029 A 
ATOM     36  C   UNL     1       9.318   2.420  10.530  1.00  0.00     0.049 A 
ATOM     37  H   UNL     1       7.794   2.274   9.085  1.00  0.00     0.167 HD
ATOM     38  C   UNL     1       9.150   4.725   9.599  1.00  0.00     0.074 A 
ATOM     39  C   UNL     1       9.486   6.136   9.614  1.00  0.00     0.031 C 
ATOM     40  C   UNL     1       9.627   3.823  10.493  1.00  0.00     0.037 A 
BRANCH  27  41
ATOM     41  C   UNL     1       7.808  -1.948   9.358  1.00  0.00     0.064 A 
ATOM     42  C   UNL     1       8.578  -2.696   8.456  1.00  0.00     0.173 A 
ATOM     43  C   UNL     1       7.150  -2.636  10.388  1.00  0.00     0.173 A 
ATOM     44  F   UNL     1       9.193  -2.091   7.429  1.00  0.00    -0.203 F 
ATOM     45  C   UNL     1       8.637  -4.086   8.549  1.00  0.00     0.198 A 
ATOM     46  C   UNL     1       7.240  -4.020  10.499  1.00  0.00     0.198 A 
ATOM     47  F   UNL     1       6.398  -1.964  11.273  1.00  0.00    -0.203 F 
ATOM     48  F   UNL     1       9.303  -4.790   7.623  1.00  0.00    -0.200 F 
ATOM     49  C   UNL     1       7.970  -4.745   9.571  1.00  0.00     0.200 A 
ATOM     50  F   UNL     1       6.598  -4.653  11.490  1.00  0.00    -0.200 F 
ATOM     51  F   UNL     1       8.015  -6.083   9.650  1.00  0.00    -0.200 F 
ENDBRANCH  27  41
BRANCH  28  52
ATOM     52  C   UNL     1       7.112   7.537   6.390  1.00  0.00     0.064 A 
ATOM     53  C   UNL     1       8.220   8.130   5.765  1.00  0.00     0.173 A 
ATOM     54  C   UNL     1       5.953   8.325   6.511  1.00  0.00     0.173 A 
ATOM     55  F   UNL     1       9.373   7.454   5.663  1.00  0.00    -0.203 F 
ATOM     56  C   UNL     1       8.160   9.435   5.268  1.00  0.00     0.198 A 
ATOM     57  C   UNL     1       5.877   9.606   5.969  1.00  0.00     0.198 A 
ATOM     58  F   UNL     1       4.869   7.836   7.133  1.00  0.00    -0.203 F 
ATOM     59  F   UNL     1       9.246   9.990   4.713  1.00  0.00    -0.200 F 
ATOM     60  C   UNL     1       6.983  10.163   5.352  1.00  0.00     0.200 A 
ATOM     61  F   UNL     1       4.727  10.290   6.038  1.00  0.00    -0.200 F 
ATOM     62  F   UNL     1       6.915  11.402   4.846  1.00  0.00    -0.200 F 
ENDBRANCH  28  52
BRANCH  40  63
ATOM     63  C   UNL     1      10.559   4.340  11.537  1.00  0.00     0.064 A 
ATOM     64  C   UNL     1      10.071   5.037  12.650  1.00  0.00     0.173 A 
ATOM     65  C   UNL     1      11.936   4.102  11.447  1.00  0.00     0.173 A 
ATOM     66  F   UNL     1       8.759   5.295  12.763  1.00  0.00    -0.203 F 
ATOM     67  C   UNL     1      10.938   5.497  13.634  1.00  0.00     0.198 A 
ATOM     68  C   UNL     1      12.798   4.545  12.444  1.00  0.00     0.198 A 
ATOM     69  F   UNL     1      12.440   3.430  10.400  1.00  0.00    -0.203 F 
ATOM     70  F   UNL     1      10.459   6.193  14.674  1.00  0.00    -0.200 F 
ATOM     71  C   UNL     1      12.299   5.246  13.532  1.00  0.00     0.200 A 
ATOM     72  F   UNL     1      14.111   4.295  12.351  1.00  0.00    -0.200 F 
ATOM     73  F   UNL     1      13.134   5.688  14.483  1.00  0.00    -0.200 F 
ENDBRANCH  40  63
ENDBRANCH  14  15
ENDBRANCH   7   9
ENDBRANCH   6   7
ENDBRANCH   5   6
ENDBRANCH   4   5
ENDBRANCH   3   4
ENDBRANCH   2   3
ENDBRANCH   1   2
BRANCH   1  74
ATOM     74  O   UNL     1       2.677   2.767  -4.061  1.00  0.00    -0.376 OA
BRANCH  74  75
ATOM     75  C   UNL     1       4.068   2.468  -3.909  1.00  0.00     0.202 C 
BRANCH  75  76
ATOM     76  C   UNL     1       4.925   3.588  -3.325  1.00  0.00     0.261 C 
BRANCH  76  77
ATOM     77  O   UNL     1       4.620   3.790  -1.942  1.00  0.00    -0.463 OA
BRANCH  77  78
ATOM     78  C   UNL     1       4.121   5.000  -1.648  1.00  0.00     0.310 C 
ATOM     79  O   UNL     1       3.931   5.900  -2.462  1.00  0.00    -0.252 OA
BRANCH  78  80
ATOM     80  C   UNL     1       3.651   5.117  -0.226  1.00  0.00     0.117 C 
ATOM     81  C   UNL     1       3.846   6.575   0.250  1.00  0.00     0.017 C 
ATOM     82  C   UNL     1       3.863   3.986   0.827  1.00  0.00     0.084 C 
ATOM     83  C   UNL     1       2.980   6.912   1.452  1.00  0.00     0.001 C 
ATOM     84  C   UNL     1       2.916   4.477   1.982  1.00  0.00     0.021 C 
ATOM     85  C   UNL     1       3.219   5.877   2.520  1.00  0.00     0.002 C 
BRANCH  82  86
ATOM     86  N   UNL     1       5.213   3.668   1.436  1.00  0.00    -0.207 NA
ATOM     87  H   UNL     1       4.993   3.451   2.408  1.00  0.00     0.141 HD
BRANCH  86  88
ATOM     88  S   UNL     1       6.421   2.500   1.020  1.00  0.00     0.240 S 
ATOM     89  O   UNL     1       6.557   2.477  -0.421  1.00  0.00    -0.207 OA
ATOM     90  O   UNL     1       7.537   2.902   1.853  1.00  0.00    -0.207 OA
BRANCH  88  91
ATOM     91  C   UNL     1       6.103   0.783   1.542  1.00  0.00     0.083 A 
ATOM     92  C   UNL     1       5.694   0.512   2.824  1.00  0.00     0.022 A 
ATOM     93  C   UNL     1       6.349  -0.345   0.726  1.00  0.00     0.030 A 
ATOM     94  C   UNL     1       5.167  -0.755   3.152  1.00  0.00     0.010 A 
ATOM     95  C   UNL     1       5.933  -1.679   1.103  1.00  0.00    -0.017 A 
ATOM     96  C   UNL     1       5.258  -1.849   2.319  1.00  0.00    -0.018 A 
ATOM     97  C   UNL     1       6.088  -2.850   0.329  1.00  0.00     0.009 A 
ATOM     98  C   UNL     1       4.691  -3.078   2.716  1.00  0.00     0.009 A 
ATOM     99  C   UNL     1       5.536  -4.086   0.726  1.00  0.00     0.001 A 
ATOM    100  C   UNL     1       4.815  -4.196   1.909  1.00  0.00     0.001 A 
ENDBRANCH  88  91
ENDBRANCH  86  88
ENDBRANCH  82  86
ENDBRANCH  78  80
ENDBRANCH  77  78
ENDBRANCH  76  77
ENDBRANCH  75  76
ENDBRANCH  74  75
ENDBRANCH   1  74
TORSDOF 20
