REMARK SMILES COCCNC(=O)N[C@H]1CCCCC[C@@H]1C(=O)OCCOCCOCCOC(=O)c1ccc(-c2c3nc(c(-c4c(F)c(F)c(F)c(F)c4F)c4ccc([nH]4)c(-c4c(F)c(F)c(F)c(F)c4F)c4nc(c(-c5c(F)c(F)c(F)c(F)c5F)c5ccc2[nH]5)C=C4)C=C3)cc1
REMARK SMILES IDX 21 1 20 2 19 3 18 4 16 5 17 6 15 7 9 8 8 9 5 10 6 11 7 13
REMARK SMILES IDX 4 15 3 16 2 17 1 18 10 19 11 20 14 22 13 23 12 24 22 26
REMARK SMILES IDX 23 27 24 28 25 29 26 30 27 31 28 32 29 33 30 34 31 35 92 36
REMARK SMILES IDX 32 37 91 38 33 39 34 40 35 41 85 42 36 43 90 44 84 45 86 46
REMARK SMILES IDX 37 47 89 48 83 49 82 50 38 52 70 53 50 54 69 55 51 56 54 57
REMARK SMILES IDX 68 58 87 59 52 60 53 61 67 63 88 64 55 65 39 66 40 67 48 68
REMARK SMILES IDX 41 69 42 70 46 71 49 72 43 73 44 74 47 75 45 76 71 77 72 78
REMARK SMILES IDX 80 79 73 80 74 81 78 82 81 83 75 84 76 85 79 86 77 87 56 88
REMARK SMILES IDX 57 89 65 90 58 91 59 92 63 93 66 94 60 95 61 96 64 97 62 98
REMARK H PARENT 5 12 8 14 86 51 54 62
REMARK Flexibility Score: 100.00
ROOT
ATOM      1  O   UNL     1       0.899   0.900   3.230  1.00  0.00    -0.376 OA
ENDROOT
BRANCH   1   2
ATOM      2  C   UNL     1       0.088   0.265   2.240  1.00  0.00     0.202 C 
BRANCH   2   3
ATOM      3  C   UNL     1      -1.235   0.991   1.903  1.00  0.00     0.261 C 
BRANCH   3   4
ATOM      4  O   UNL     1      -1.084   2.250   1.196  1.00  0.00    -0.463 OA
BRANCH   4   5
ATOM      5  C   UNL     1      -1.047   3.420   1.893  1.00  0.00     0.311 C 
ATOM      6  O   UNL     1      -1.213   3.505   3.103  1.00  0.00    -0.252 OA
BRANCH   5   7
ATOM      7  C   UNL     1      -0.704   4.626   0.980  1.00  0.00     0.121 C 
BRANCH   7   8
ATOM      8  C   UNL     1       0.799   5.053   1.078  1.00  0.00     0.098 C 
BRANCH   8   9
ATOM      9  N   UNL     1       1.657   5.033  -0.156  1.00  0.00    -0.335 N 
ATOM     10  N   UNL     1       1.739   3.145  -1.595  1.00  0.00    -0.336 N 
ATOM     11  C   UNL     1       2.126   4.339  -1.182  1.00  0.00     0.315 C 
ATOM     12  H   UNL     1       2.225   2.832  -2.392  1.00  0.00     0.165 HD
ATOM     13  O   UNL     1       3.040   4.875  -1.819  1.00  0.00    -0.249 OA
ATOM     14  H   UNL     1       2.042   5.936  -0.238  1.00  0.00     0.165 HD
BRANCH  10  15
ATOM     15  C   UNL     1       0.758   2.211  -1.124  1.00  0.00     0.146 C 
BRANCH  15  16
ATOM     16  C   UNL     1      -0.556   2.291  -1.907  1.00  0.00     0.181 C 
BRANCH  16  17
ATOM     17  O   UNL     1      -1.087   1.003  -2.226  1.00  0.00    -0.383 OA
ATOM     18  C   UNL     1      -0.373   0.352  -3.267  1.00  0.00     0.194 C 
ENDBRANCH  16  17
ENDBRANCH  15  16
ENDBRANCH  10  15
ENDBRANCH   8   9
BRANCH   8  19
ATOM     19  C   UNL     1       1.010   6.472   1.678  1.00  0.00     0.026 C 
BRANCH  19  20
ATOM     20  C   UNL     1       0.598   7.611   0.734  1.00  0.00     0.002 CG0
ATOM     21  G   UNL     1      -0.864   8.005   0.848  1.00  0.00     0.000 G0
ENDBRANCH  19  20
ENDBRANCH   8  19
ENDBRANCH   7   8
BRANCH   7  22
ATOM     22  C   UNL     1      -1.748   5.683   1.408  1.00  0.00     0.017 C 
BRANCH  22  23
ATOM     23  C   UNL     1      -1.843   6.894   0.495  1.00  0.00     0.001 C 
BRANCH  23  24
ATOM     24  C   UNL     1      -0.864   8.005   0.848  1.00  0.00     0.000 CG0
ATOM     25  G   UNL     1       0.598   7.611   0.734  1.00  0.00     0.000 G0
ENDBRANCH  23  24
ENDBRANCH  22  23
ENDBRANCH   7  22
ENDBRANCH   5   7
ENDBRANCH   4   5
ENDBRANCH   3   4
ENDBRANCH   2   3
ENDBRANCH   1   2
BRANCH   1  26
ATOM     26  C   UNL     1       1.630   2.013   2.744  1.00  0.00     0.188 C 
BRANCH  26  27
ATOM     27  C   UNL     1       2.884   1.770   1.912  1.00  0.00     0.188 C 
BRANCH  27  28
ATOM     28  O   UNL     1       3.069   0.389   1.674  1.00  0.00    -0.376 OA
BRANCH  28  29
ATOM     29  C   UNL     1       4.326  -0.083   2.123  1.00  0.00     0.202 C 
BRANCH  29  30
ATOM     30  C   UNL     1       4.564  -0.103   3.649  1.00  0.00     0.261 C 
BRANCH  30  31
ATOM     31  O   UNL     1       3.854   0.861   4.457  1.00  0.00    -0.460 OA
BRANCH  31  32
ATOM     32  C   UNL     1       4.476   2.028   4.752  1.00  0.00     0.338 C 
ATOM     33  O   UNL     1       5.549   2.407   4.321  1.00  0.00    -0.246 OA
BRANCH  32  34
ATOM     34  C   UNL     1       3.584   2.873   5.591  1.00  0.00     0.060 A 
ATOM     35  C   UNL     1       3.261   4.168   5.159  1.00  0.00     0.016 A 
ATOM     36  C   UNL     1       3.092   2.408   6.813  1.00  0.00     0.016 A 
ATOM     37  C   UNL     1       2.449   4.998   5.945  1.00  0.00     0.010 A 
ATOM     38  C   UNL     1       2.310   3.252   7.616  1.00  0.00     0.010 A 
ATOM     39  C   UNL     1       2.000   4.559   7.199  1.00  0.00    -0.014 A 
BRANCH  39  40
ATOM     40  C   UNL     1       1.393   5.520   8.163  1.00  0.00     0.031 A 
ATOM     41  C   UNL     1       2.299   6.202   9.155  1.00  0.00     0.074 A 
ATOM     42  C   UNL     1       0.074   5.784   8.185  1.00  0.00     0.049 A 
ATOM     43  N   UNL     1       2.005   7.014  10.140  1.00  0.00    -0.248 NA
ATOM     44  C   UNL     1       3.737   5.925   9.014  1.00  0.00     0.031 C 
ATOM     45  C   UNL     1      -0.918   5.233   7.266  1.00  0.00     0.029 A 
ATOM     46  N   UNL     1      -0.659   6.581   9.035  1.00  0.00    -0.354 N 
ATOM     47  C   UNL     1       3.216   7.338  10.736  1.00  0.00     0.074 A 
ATOM     48  C   UNL     1       4.247   6.617  10.021  1.00  0.00     0.031 C 
ATOM     49  C   UNL     1      -2.135   5.690   7.615  1.00  0.00     0.029 A 
ATOM     50  C   UNL     1      -2.012   6.543   8.799  1.00  0.00     0.049 A 
ATOM     51  H   UNL     1      -0.252   7.127   9.745  1.00  0.00     0.167 HD
ATOM     52  C   UNL     1       3.454   8.166  11.782  1.00  0.00     0.037 A 
ATOM     53  C   UNL     1      -3.033   7.108   9.477  1.00  0.00     0.037 A 
ATOM     54  C   UNL     1       2.438   8.877  12.510  1.00  0.00     0.049 A 
ATOM     55  C   UNL     1      -2.751   7.958  10.694  1.00  0.00     0.074 A 
ATOM     56  C   UNL     1       2.589   9.748  13.575  1.00  0.00     0.029 A 
ATOM     57  N   UNL     1       1.078   8.788  12.257  1.00  0.00    -0.354 N 
ATOM     58  N   UNL     1      -1.601   8.287  11.231  1.00  0.00    -0.248 NA
ATOM     59  C   UNL     1      -3.916   8.517  11.400  1.00  0.00     0.031 C 
ATOM     60  C   UNL     1       1.317  10.145  14.001  1.00  0.00     0.029 A 
ATOM     61  C   UNL     1       0.377   9.568  13.164  1.00  0.00     0.049 A 
ATOM     62  H   UNL     1       0.670   8.251  11.540  1.00  0.00     0.167 HD
ATOM     63  C   UNL     1      -1.901   9.113  12.309  1.00  0.00     0.074 A 
ATOM     64  C   UNL     1      -3.341   9.246  12.347  1.00  0.00     0.031 C 
ATOM     65  C   UNL     1      -1.057   9.707  13.189  1.00  0.00     0.037 A 
BRANCH  52  66
ATOM     66  C   UNL     1       4.880   8.322  12.223  1.00  0.00     0.064 A 
ATOM     67  C   UNL     1       5.817   9.025  11.451  1.00  0.00     0.173 A 
ATOM     68  C   UNL     1       5.308   7.784  13.447  1.00  0.00     0.173 A 
ATOM     69  F   UNL     1       5.462   9.546  10.267  1.00  0.00    -0.203 F 
ATOM     70  C   UNL     1       7.137   9.158  11.874  1.00  0.00     0.198 A 
ATOM     71  C   UNL     1       6.620   7.946  13.880  1.00  0.00     0.198 A 
ATOM     72  F   UNL     1       4.450   7.107  14.225  1.00  0.00    -0.203 F 
ATOM     73  F   UNL     1       8.027   9.790  11.097  1.00  0.00    -0.200 F 
ATOM     74  C   UNL     1       7.535   8.625  13.091  1.00  0.00     0.200 A 
ATOM     75  F   UNL     1       7.001   7.441  15.062  1.00  0.00    -0.200 F 
ATOM     76  F   UNL     1       8.805   8.759  13.499  1.00  0.00    -0.200 F 
ENDBRANCH  52  66
BRANCH  53  77
ATOM     77  C   UNL     1      -4.438   6.882   9.040  1.00  0.00     0.064 A 
ATOM     78  C   UNL     1      -5.215   7.933   8.531  1.00  0.00     0.173 A 
ATOM     79  C   UNL     1      -5.048   5.626   9.171  1.00  0.00     0.173 A 
ATOM     80  F   UNL     1      -4.691   9.162   8.423  1.00  0.00    -0.203 F 
ATOM     81  C   UNL     1      -6.553   7.740   8.189  1.00  0.00     0.198 A 
ATOM     82  C   UNL     1      -6.377   5.428   8.800  1.00  0.00     0.198 A 
ATOM     83  F   UNL     1      -4.355   4.591   9.667  1.00  0.00    -0.203 F 
ATOM     84  F   UNL     1      -7.288   8.775   7.760  1.00  0.00    -0.200 F 
ATOM     85  C   UNL     1      -7.131   6.487   8.318  1.00  0.00     0.200 A 
ATOM     86  F   UNL     1      -6.931   4.214   8.924  1.00  0.00    -0.200 F 
ATOM     87  F   UNL     1      -8.418   6.303   7.993  1.00  0.00    -0.200 F 
ENDBRANCH  53  77
BRANCH  65  88
ATOM     88  C   UNL     1      -1.656  10.597  14.243  1.00  0.00     0.064 A 
ATOM     89  C   UNL     1      -2.391  10.078  15.319  1.00  0.00     0.173 A 
ATOM     90  C   UNL     1      -1.447  11.985  14.203  1.00  0.00     0.173 A 
ATOM     91  F   UNL     1      -2.631   8.761  15.401  1.00  0.00    -0.203 F 
ATOM     92  C   UNL     1      -2.916  10.917  16.300  1.00  0.00     0.198 A 
ATOM     93  C   UNL     1      -1.946  12.817  15.201  1.00  0.00     0.198 A 
ATOM     94  F   UNL     1      -0.743  12.534  13.201  1.00  0.00    -0.203 F 
ATOM     95  F   UNL     1      -3.654  10.404  17.294  1.00  0.00    -0.200 F 
ATOM     96  C   UNL     1      -2.686  12.284  16.245  1.00  0.00     0.200 A 
ATOM     97  F   UNL     1      -1.708  14.135  15.154  1.00  0.00    -0.200 F 
ATOM     98  F   UNL     1      -3.183  13.088  17.195  1.00  0.00    -0.200 F 
ENDBRANCH  65  88
ENDBRANCH  39  40
ENDBRANCH  32  34
ENDBRANCH  31  32
ENDBRANCH  30  31
ENDBRANCH  29  30
ENDBRANCH  28  29
ENDBRANCH  27  28
ENDBRANCH  26  27
ENDBRANCH   1  26
TORSDOF 21
