REMARK SMILES Cc1c(Cl)cc2c(c1C)O[C@H](C(F)(F)F)C(C(=O)OCCOCCOCCOC(=O)c1ccc(-c3c4nc(c(-c5c(F)c(F)c(F)c(F)c5F)c5ccc([nH]5)c(-c5c(F)c(F)c(F)c(F)c5F)c5nc(c(-c6c(F)c(F)c(F)c(F)c6F)c6ccc3[nH]6)C=C5)C=C4)cc1)=C2
REMARK SMILES IDX 24 1 23 2 22 3 21 4 20 5 19 6 17 7 18 8 16 9 1 10 2 11 3 12
REMARK SMILES IDX 8 13 4 14 5 15 7 16 9 17 6 18 10 19 94 20 11 21 12 22 13 23
REMARK SMILES IDX 14 24 15 25 25 26 26 27 27 28 28 29 29 30 30 31 31 32 32 33
REMARK SMILES IDX 93 34 33 35 92 36 34 37 35 38 36 39 86 40 37 41 91 42 85 43
REMARK SMILES IDX 87 44 38 45 90 46 84 47 83 48 39 50 71 51 51 52 70 53 52 54
REMARK SMILES IDX 55 55 69 56 88 57 53 58 54 59 68 61 89 62 56 63 40 64 41 65
REMARK SMILES IDX 49 66 42 67 43 68 47 69 50 70 44 71 45 72 48 73 46 74 72 75
REMARK SMILES IDX 73 76 81 77 74 78 75 79 79 80 82 81 76 82 77 83 80 84 78 85
REMARK SMILES IDX 57 86 58 87 66 88 59 89 60 90 64 91 67 92 61 93 62 94 65 95
REMARK SMILES IDX 63 96
REMARK H PARENT 87 49 55 60
REMARK Flexibility Score: inf
ROOT
ATOM      1  C   UNL     1      -3.843   0.152  -7.198  1.00  0.00     0.188 C 
ENDROOT
BRANCH   1   2
ATOM      2  C   UNL     1      -3.252   1.266  -8.089  1.00  0.00     0.188 C 
BRANCH   2   3
ATOM      3  O   UNL     1      -3.425   1.223  -9.487  1.00  0.00    -0.376 OA
BRANCH   3   4
ATOM      4  C   UNL     1      -2.867   0.177 -10.263  1.00  0.00     0.202 C 
BRANCH   4   5
ATOM      5  C   UNL     1      -1.599  -0.599  -9.877  1.00  0.00     0.261 C 
BRANCH   5   6
ATOM      6  O   UNL     1      -1.407  -0.848  -8.481  1.00  0.00    -0.460 OA
BRANCH   6   7
ATOM      7  C   UNL     1      -0.363  -0.192  -7.918  1.00  0.00     0.338 C 
ATOM      8  O   UNL     1       0.414   0.562  -8.478  1.00  0.00    -0.246 OA
BRANCH   7   9
ATOM      9  C   UNL     1      -0.387  -0.388  -6.455  1.00  0.00     0.087 C 
ATOM     10  C   UNL     1       0.761  -0.000  -0.061  1.00  0.00     0.046 C 
ATOM     11  C   UNL     1       0.361   0.178  -1.505  1.00  0.00    -0.026 A 
ATOM     12  C   UNL     1       0.367   1.463  -2.087  1.00  0.00     0.045 A 
ATOM     13  C   UNL     1       0.077  -0.938  -2.334  1.00  0.00    -0.004 A 
ATOM     14  Cl  UNL     1       0.740   2.889  -1.179  1.00  0.00    -0.084 Cl
ATOM     15  C   UNL     1       0.115   1.641  -3.449  1.00  0.00     0.032 A 
ATOM     16  C   UNL     1      -0.200  -0.735  -3.705  1.00  0.00     0.131 A 
ATOM     17  C   UNL     1       0.071  -2.359  -1.820  1.00  0.00     0.049 C 
ATOM     18  C   UNL     1      -0.138   0.541  -4.266  1.00  0.00     0.019 A 
ATOM     19  O   UNL     1      -0.517  -1.847  -4.441  1.00  0.00    -0.475 OA
ATOM     20  C   UNL     1      -0.235   0.711  -5.705  1.00  0.00     0.027 C 
ATOM     21  C   UNL     1      -0.569  -1.768  -5.890  1.00  0.00     0.316 C 
BRANCH  21  22
ATOM     22  C   UNL     1       0.439  -2.774  -6.461  1.00  0.00     0.430 C 
ATOM     23  F   UNL     1       0.289  -3.995  -5.896  1.00  0.00    -0.167 F 
ATOM     24  F   UNL     1       0.280  -2.941  -7.795  1.00  0.00    -0.167 F 
ATOM     25  F   UNL     1       1.716  -2.382  -6.252  1.00  0.00    -0.167 F 
ENDBRANCH  21  22
ENDBRANCH   7   9
ENDBRANCH   6   7
ENDBRANCH   5   6
ENDBRANCH   4   5
ENDBRANCH   3   4
ENDBRANCH   2   3
ENDBRANCH   1   2
BRANCH   1  26
ATOM     26  O   UNL     1      -4.491  -0.954  -7.782  1.00  0.00    -0.376 OA
BRANCH  26  27
ATOM     27  C   UNL     1      -5.683  -0.753  -8.527  1.00  0.00     0.202 C 
BRANCH  27  28
ATOM     28  C   UNL     1      -6.710   0.353  -8.219  1.00  0.00     0.261 C 
BRANCH  28  29
ATOM     29  O   UNL     1      -6.187   1.622  -7.803  1.00  0.00    -0.460 OA
BRANCH  29  30
ATOM     30  C   UNL     1      -6.464   1.979  -6.520  1.00  0.00     0.338 C 
ATOM     31  O   UNL     1      -7.110   1.361  -5.701  1.00  0.00    -0.246 OA
BRANCH  30  32
ATOM     32  C   UNL     1      -5.666   3.176  -6.182  1.00  0.00     0.060 A 
ATOM     33  C   UNL     1      -4.612   3.044  -5.265  1.00  0.00     0.016 A 
ATOM     34  C   UNL     1      -5.956   4.413  -6.756  1.00  0.00     0.016 A 
ATOM     35  C   UNL     1      -3.837   4.152  -4.926  1.00  0.00     0.010 A 
ATOM     36  C   UNL     1      -5.202   5.532  -6.384  1.00  0.00     0.010 A 
ATOM     37  C   UNL     1      -4.154   5.410  -5.453  1.00  0.00    -0.014 A 
BRANCH  37  38
ATOM     38  C   UNL     1      -3.534   6.617  -4.856  1.00  0.00     0.031 A 
ATOM     39  C   UNL     1      -4.270   7.308  -3.742  1.00  0.00     0.074 A 
ATOM     40  C   UNL     1      -2.329   7.065  -5.250  1.00  0.00     0.049 A 
ATOM     41  N   UNL     1      -3.936   8.372  -3.058  1.00  0.00    -0.248 NA
ATOM     42  C   UNL     1      -5.557   6.715  -3.343  1.00  0.00     0.031 C 
ATOM     43  C   UNL     1      -1.497   6.455  -6.283  1.00  0.00     0.029 A 
ATOM     44  N   UNL     1      -1.596   8.143  -4.817  1.00  0.00    -0.354 N 
ATOM     45  C   UNL     1      -4.963   8.566  -2.144  1.00  0.00     0.074 A 
ATOM     46  C   UNL     1      -5.954   7.543  -2.389  1.00  0.00     0.031 C 
ATOM     47  C   UNL     1      -0.363   7.169  -6.406  1.00  0.00     0.029 A 
ATOM     48  C   UNL     1      -0.403   8.302  -5.480  1.00  0.00     0.049 A 
ATOM     49  H   UNL     1      -1.897   8.745  -4.099  1.00  0.00     0.167 HD
ATOM     50  C   UNL     1      -5.061   9.502  -1.173  1.00  0.00     0.037 A 
ATOM     51  C   UNL     1       0.538   9.261  -5.358  1.00  0.00     0.037 A 
ATOM     52  C   UNL     1      -4.078  10.521  -0.930  1.00  0.00     0.049 A 
ATOM     53  C   UNL     1       0.350  10.363  -4.343  1.00  0.00     0.074 A 
ATOM     54  C   UNL     1      -4.084  11.506   0.041  1.00  0.00     0.029 A 
ATOM     55  N   UNL     1      -2.918  10.692  -1.670  1.00  0.00    -0.354 N 
ATOM     56  N   UNL     1      -0.604  10.519  -3.457  1.00  0.00    -0.248 NA
ATOM     57  C   UNL     1       1.367  11.427  -4.316  1.00  0.00     0.031 C 
ATOM     58  C   UNL     1      -2.958  12.310  -0.148  1.00  0.00     0.029 A 
ATOM     59  C   UNL     1      -2.221  11.794  -1.203  1.00  0.00     0.049 A 
ATOM     60  H   UNL     1      -2.633  10.116  -2.416  1.00  0.00     0.167 HD
ATOM     61  C   UNL     1      -0.295  11.681  -2.759  1.00  0.00     0.074 A 
ATOM     62  C   UNL     1       0.947  12.182  -3.308  1.00  0.00     0.031 C 
ATOM     63  C   UNL     1      -0.983  12.281  -1.757  1.00  0.00     0.037 A 
BRANCH  50  64
ATOM     64  C   UNL     1      -6.279   9.472  -0.299  1.00  0.00     0.064 A 
ATOM     65  C   UNL     1      -6.470   8.462   0.655  1.00  0.00     0.173 A 
ATOM     66  C   UNL     1      -7.236  10.495  -0.377  1.00  0.00     0.173 A 
ATOM     67  F   UNL     1      -5.591   7.454   0.757  1.00  0.00    -0.203 F 
ATOM     68  C   UNL     1      -7.585   8.469   1.489  1.00  0.00     0.198 A 
ATOM     69  C   UNL     1      -8.333  10.514   0.479  1.00  0.00     0.198 A 
ATOM     70  F   UNL     1      -7.097  11.485  -1.272  1.00  0.00    -0.203 F 
ATOM     71  F   UNL     1      -7.768   7.473   2.367  1.00  0.00    -0.200 F 
ATOM     72  C   UNL     1      -8.509   9.499   1.408  1.00  0.00     0.200 A 
ATOM     73  F   UNL     1      -9.217  11.519   0.409  1.00  0.00    -0.200 F 
ATOM     74  F   UNL     1      -9.572   9.513   2.223  1.00  0.00    -0.200 F 
ENDBRANCH  50  64
BRANCH  51  75
ATOM     75  C   UNL     1       1.750   9.228  -6.221  1.00  0.00     0.064 A 
ATOM     76  C   UNL     1       3.020   8.996  -5.674  1.00  0.00     0.173 A 
ATOM     77  C   UNL     1       1.668   9.439  -7.606  1.00  0.00     0.173 A 
ATOM     78  F   UNL     1       3.156   8.822  -4.351  1.00  0.00    -0.203 F 
ATOM     79  C   UNL     1       4.160   8.984  -6.476  1.00  0.00     0.198 A 
ATOM     80  C   UNL     1       2.805   9.398  -8.411  1.00  0.00     0.198 A 
ATOM     81  F   UNL     1       0.480   9.677  -8.181  1.00  0.00    -0.203 F 
ATOM     82  F   UNL     1       5.365   8.802  -5.919  1.00  0.00    -0.200 F 
ATOM     83  C   UNL     1       4.051   9.176  -7.845  1.00  0.00     0.200 A 
ATOM     84  F   UNL     1       2.694   9.576  -9.735  1.00  0.00    -0.200 F 
ATOM     85  F   UNL     1       5.147   9.156  -8.616  1.00  0.00    -0.200 F 
ENDBRANCH  51  75
BRANCH  63  86
ATOM     86  C   UNL     1      -0.433  13.554  -1.179  1.00  0.00     0.064 A 
ATOM     87  C   UNL     1      -0.499  14.761  -1.889  1.00  0.00     0.173 A 
ATOM     88  C   UNL     1       0.046  13.593   0.140  1.00  0.00     0.173 A 
ATOM     89  F   UNL     1      -0.940  14.776  -3.156  1.00  0.00    -0.203 F 
ATOM     90  C   UNL     1      -0.109  15.960  -1.299  1.00  0.00     0.198 A 
ATOM     91  C   UNL     1       0.407  14.798   0.736  1.00  0.00     0.198 A 
ATOM     92  F   UNL     1       0.118  12.467   0.867  1.00  0.00    -0.203 F 
ATOM     93  F   UNL     1      -0.165  17.100  -2.003  1.00  0.00    -0.200 F 
ATOM     94  C   UNL     1       0.330  15.980   0.016  1.00  0.00     0.200 A 
ATOM     95  F   UNL     1       0.809  14.818   2.015  1.00  0.00    -0.200 F 
ATOM     96  F   UNL     1       0.673  17.141   0.593  1.00  0.00    -0.200 F 
ENDBRANCH  63  86
ENDBRANCH  37  38
ENDBRANCH  30  32
ENDBRANCH  29  30
ENDBRANCH  28  29
ENDBRANCH  27  28
ENDBRANCH  26  27
ENDBRANCH   1  26
TORSDOF 18
