REMARK SMILES C[C@@]([NH2+]CCC1CC1)(C(=O)OCCOCCOCCOC(=O)c1ccc(-c2c3nc(c(-c4c(F)c(F)c(F)c(F)c4F)c4ccc([nH]4)c(-c4c(F)c(F)c(F)c(F)c4F)c4nc(c(-c5c(F)c(F)c(F)c(F)c5F)c5ccc2[nH]5)C=C4)C=C3)cc1)C(F)(F)F
REMARK SMILES IDX 15 1 14 2 13 3 12 4 11 5 9 6 10 7 2 8 1 9 3 10 4 13 5 14
REMARK SMILES IDX 6 15 7 16 8 17 86 18 87 19 88 20 89 21 16 22 17 23 18 24
REMARK SMILES IDX 19 25 20 26 21 27 22 28 23 29 24 30 85 31 25 32 84 33 26 34
REMARK SMILES IDX 27 35 28 36 78 37 29 38 83 39 77 40 79 41 30 42 82 43 76 44
REMARK SMILES IDX 75 45 31 47 63 48 43 49 62 50 44 51 47 52 61 53 80 54 45 55
REMARK SMILES IDX 46 56 60 58 81 59 48 60 32 61 33 62 41 63 34 64 35 65 39 66
REMARK SMILES IDX 42 67 36 68 37 69 40 70 38 71 64 72 65 73 73 74 66 75 67 76
REMARK SMILES IDX 71 77 74 78 68 79 69 80 72 81 70 82 49 83 50 84 58 85 51 86
REMARK SMILES IDX 52 87 56 88 59 89 53 90 54 91 57 92 55 93
REMARK H PARENT 3 11 3 12 79 46 47 57
REMARK Flexibility Score: inf
ROOT
ATOM      1  C   UNL     1      -2.493   1.843   0.498  1.00  0.00     0.188 C 
ENDROOT
BRANCH   1   2
ATOM      2  O   UNL     1      -3.714   1.702  -0.217  1.00  0.00    -0.376 OA
BRANCH   2   3
ATOM      3  C   UNL     1      -4.038   0.480  -0.860  1.00  0.00     0.202 C 
BRANCH   3   4
ATOM      4  C   UNL     1      -3.110  -0.057  -1.961  1.00  0.00     0.261 C 
BRANCH   4   5
ATOM      5  O   UNL     1      -1.708  -0.162  -1.641  1.00  0.00    -0.458 OA
BRANCH   5   6
ATOM      6  C   UNL     1      -0.917   0.848  -2.097  1.00  0.00     0.377 C 
ATOM      7  O   UNL     1      -1.368   1.829  -2.684  1.00  0.00    -0.244 OA
BRANCH   6   8
ATOM      8  C   UNL     1       0.592   0.630  -1.868  1.00  0.00     0.287 C 
ATOM      9  C   UNL     1       0.968  -0.527  -0.904  1.00  0.00     0.103 C 
BRANCH   8  10
ATOM     10  N   UNL     1       1.249   0.177  -3.149  1.00  0.00    -0.325 N 
ATOM     11  H   UNL     1       1.054  -0.819  -3.251  1.00  0.00     0.347 HD
ATOM     12  H   UNL     1       2.229   0.433  -3.031  1.00  0.00     0.347 HD
BRANCH  10  13
ATOM     13  C   UNL     1       0.856   0.826  -4.401  1.00  0.00     0.261 C 
BRANCH  13  14
ATOM     14  C   UNL     1       1.278   2.287  -4.594  1.00  0.00     0.065 C 
BRANCH  14  15
ATOM     15  C   UNL     1       2.736   2.501  -4.307  1.00  0.00    -0.006 C 
ATOM     16  C   UNL     1       3.755   2.107  -5.339  1.00  0.00     0.004 C 
ATOM     17  C   UNL     1       3.522   3.560  -5.026  1.00  0.00     0.004 C 
ENDBRANCH  14  15
ENDBRANCH  13  14
ENDBRANCH  10  13
ENDBRANCH   8  10
BRANCH   8  18
ATOM     18  C   UNL     1       1.084   1.936  -1.177  1.00  0.00     0.455 C 
ATOM     19  F   UNL     1       0.580   2.065   0.077  1.00  0.00    -0.164 F 
ATOM     20  F   UNL     1       2.436   1.907  -1.032  1.00  0.00    -0.164 F 
ATOM     21  F   UNL     1       0.790   3.078  -1.824  1.00  0.00    -0.164 F 
ENDBRANCH   8  18
ENDBRANCH   6   8
ENDBRANCH   5   6
ENDBRANCH   4   5
ENDBRANCH   3   4
ENDBRANCH   2   3
ENDBRANCH   1   2
BRANCH   1  22
ATOM     22  C   UNL     1      -1.818   0.620   1.146  1.00  0.00     0.188 C 
BRANCH  22  23
ATOM     23  O   UNL     1      -2.645  -0.511   1.246  1.00  0.00    -0.376 OA
BRANCH  23  24
ATOM     24  C   UNL     1      -3.121  -0.884   2.521  1.00  0.00     0.202 C 
BRANCH  24  25
ATOM     25  C   UNL     1      -3.736   0.170   3.461  1.00  0.00     0.261 C 
BRANCH  25  26
ATOM     26  O   UNL     1      -3.193   1.501   3.421  1.00  0.00    -0.460 OA
BRANCH  26  27
ATOM     27  C   UNL     1      -2.075   1.752   4.146  1.00  0.00     0.338 C 
ATOM     28  O   UNL     1      -1.461   0.965   4.833  1.00  0.00    -0.246 OA
BRANCH  27  29
ATOM     29  C   UNL     1      -1.597   3.115   3.794  1.00  0.00     0.060 A 
ATOM     30  C   UNL     1      -0.348   3.261   3.172  1.00  0.00     0.016 A 
ATOM     31  C   UNL     1      -2.374   4.242   4.068  1.00  0.00     0.016 A 
ATOM     32  C   UNL     1       0.137   4.533   2.848  1.00  0.00     0.010 A 
ATOM     33  C   UNL     1      -1.875   5.517   3.767  1.00  0.00     0.010 A 
ATOM     34  C   UNL     1      -0.605   5.673   3.182  1.00  0.00    -0.014 A 
BRANCH  34  35
ATOM     35  C   UNL     1       0.016   7.024   3.109  1.00  0.00     0.031 A 
ATOM     36  C   UNL     1       0.595   7.611   4.368  1.00  0.00     0.074 A 
ATOM     37  C   UNL     1       0.075   7.726   1.963  1.00  0.00     0.049 A 
ATOM     38  N   UNL     1       1.097   8.801   4.585  1.00  0.00    -0.248 NA
ATOM     39  C   UNL     1       0.605   6.730   5.546  1.00  0.00     0.031 C 
ATOM     40  C   UNL     1      -0.387   7.260   0.660  1.00  0.00     0.029 A 
ATOM     41  N   UNL     1       0.540   8.998   1.723  1.00  0.00    -0.354 N 
ATOM     42  C   UNL     1       1.470   8.815   5.923  1.00  0.00     0.074 A 
ATOM     43  C   UNL     1       1.112   7.526   6.475  1.00  0.00     0.031 C 
ATOM     44  C   UNL     1      -0.202   8.240  -0.243  1.00  0.00     0.029 A 
ATOM     45  C   UNL     1       0.355   9.416   0.427  1.00  0.00     0.049 A 
ATOM     46  H   UNL     1       0.966   9.556   2.413  1.00  0.00     0.167 HD
ATOM     47  C   UNL     1       2.061   9.809   6.629  1.00  0.00     0.037 A 
ATOM     48  C   UNL     1       0.578  10.619  -0.141  1.00  0.00     0.037 A 
ATOM     49  C   UNL     1       2.411  11.095   6.085  1.00  0.00     0.049 A 
ATOM     50  C   UNL     1       1.144  11.747   0.690  1.00  0.00     0.074 A 
ATOM     51  C   UNL     1       3.023  12.162   6.721  1.00  0.00     0.029 A 
ATOM     52  N   UNL     1       2.167  11.495   4.780  1.00  0.00    -0.354 N 
ATOM     53  N   UNL     1       1.509  11.751   1.949  1.00  0.00    -0.248 NA
ATOM     54  C   UNL     1       1.327  13.042   0.015  1.00  0.00     0.031 C 
ATOM     55  C   UNL     1       3.088  13.229   5.819  1.00  0.00     0.029 A 
ATOM     56  C   UNL     1       2.585  12.805   4.601  1.00  0.00     0.049 A 
ATOM     57  H   UNL     1       1.758  10.932   4.084  1.00  0.00     0.167 HD
ATOM     58  C   UNL     1       1.994  13.028   2.206  1.00  0.00     0.074 A 
ATOM     59  C   UNL     1       1.889  13.771   0.969  1.00  0.00     0.031 C 
ATOM     60  C   UNL     1       2.486  13.538   3.363  1.00  0.00     0.037 A 
BRANCH  47  61
ATOM     61  C   UNL     1       2.327   9.556   8.085  1.00  0.00     0.064 A 
ATOM     62  C   UNL     1       3.296   8.636   8.514  1.00  0.00     0.173 A 
ATOM     63  C   UNL     1       1.613  10.260   9.067  1.00  0.00     0.173 A 
ATOM     64  F   UNL     1       3.998   7.926   7.618  1.00  0.00    -0.203 F 
ATOM     65  C   UNL     1       3.514   8.405   9.870  1.00  0.00     0.198 A 
ATOM     66  C   UNL     1       1.859  10.053  10.421  1.00  0.00     0.198 A 
ATOM     67  F   UNL     1       0.679  11.156   8.713  1.00  0.00    -0.203 F 
ATOM     68  F   UNL     1       4.402   7.478  10.256  1.00  0.00    -0.200 F 
ATOM     69  C   UNL     1       2.801   9.118  10.822  1.00  0.00     0.200 A 
ATOM     70  F   UNL     1       1.179  10.754  11.339  1.00  0.00    -0.200 F 
ATOM     71  F   UNL     1       3.015   8.898  12.126  1.00  0.00    -0.200 F 
ENDBRANCH  47  61
BRANCH  48  72
ATOM     72  C   UNL     1       0.246  10.839  -1.576  1.00  0.00     0.064 A 
ATOM     73  C   UNL     1       1.250  11.091  -2.522  1.00  0.00     0.173 A 
ATOM     74  C   UNL     1      -1.084  10.842  -2.024  1.00  0.00     0.173 A 
ATOM     75  F   UNL     1       2.535  11.136  -2.139  1.00  0.00    -0.203 F 
ATOM     76  C   UNL     1       0.936  11.355  -3.854  1.00  0.00     0.198 A 
ATOM     77  C   UNL     1      -1.395  11.073  -3.362  1.00  0.00     0.198 A 
ATOM     78  F   UNL     1      -2.084  10.621  -1.159  1.00  0.00    -0.203 F 
ATOM     79  F   UNL     1       1.911  11.650  -4.725  1.00  0.00    -0.200 F 
ATOM     80  C   UNL     1      -0.385  11.339  -4.275  1.00  0.00     0.200 A 
ATOM     81  F   UNL     1      -2.672  11.051  -3.765  1.00  0.00    -0.200 F 
ATOM     82  F   UNL     1      -0.686  11.593  -5.556  1.00  0.00    -0.200 F 
ENDBRANCH  48  72
BRANCH  60  83
ATOM     83  C   UNL     1       2.996  14.954   3.345  1.00  0.00     0.064 A 
ATOM     84  C   UNL     1       2.134  16.053   3.216  1.00  0.00     0.173 A 
ATOM     85  C   UNL     1       4.366  15.215   3.508  1.00  0.00     0.173 A 
ATOM     86  F   UNL     1       0.817  15.862   3.046  1.00  0.00    -0.203 F 
ATOM     87  C   UNL     1       2.626  17.356   3.224  1.00  0.00     0.198 A 
ATOM     88  C   UNL     1       4.851  16.520   3.551  1.00  0.00     0.198 A 
ATOM     89  F   UNL     1       5.237  14.203   3.646  1.00  0.00    -0.203 F 
ATOM     90  F   UNL     1       1.789  18.388   3.048  1.00  0.00    -0.200 F 
ATOM     91  C   UNL     1       3.982  17.589   3.400  1.00  0.00     0.200 A 
ATOM     92  F   UNL     1       6.159  16.742   3.741  1.00  0.00    -0.200 F 
ATOM     93  F   UNL     1       4.452  18.844   3.418  1.00  0.00    -0.200 F 
ENDBRANCH  60  83
ENDBRANCH  34  35
ENDBRANCH  27  29
ENDBRANCH  26  27
ENDBRANCH  25  26
ENDBRANCH  24  25
ENDBRANCH  23  24
ENDBRANCH  22  23
ENDBRANCH   1  22
TORSDOF 22
