REMARK SMILES Cc1nnc(SCC2=C(C(=O)OCCOCCOCCOC(=O)c3ccc(-c4c5nc(c(-c6c(F)c(F)c(F)c(F)c6F)c6ccc([nH]6)c(-c6c(F)c(F)c(F)c(F)c6F)c6nc(c(-c7c(F)c(F)c(F)c(F)c7F)c7ccc4[nH]7)C=C6)C=C5)cc3)N3C(=O)[C@H](NC(=O)c4ccc(F)cc4F)[C@H]3SC2)s1
REMARK SMILES IDX 16 1 15 2 14 3 13 4 12 5 10 6 11 7 9 8 8 9 104 10 87 11
REMARK SMILES IDX 103 12 88 13 102 14 89 15 90 16 7 17 6 18 5 19 1 20 2 21
REMARK SMILES IDX 3 22 105 23 4 24 91 25 92 26 93 28 94 29 95 30 100 31 96 32
REMARK SMILES IDX 99 33 101 34 97 35 98 36 17 37 18 38 19 39 20 40 21 41 22 42
REMARK SMILES IDX 23 43 24 44 25 45 86 46 26 47 85 48 27 49 28 50 29 51 79 52
REMARK SMILES IDX 30 53 84 54 78 55 80 56 31 57 83 58 77 59 76 60 32 62 64 63
REMARK SMILES IDX 44 64 63 65 45 66 48 67 62 68 81 69 46 70 47 71 61 73 82 74
REMARK SMILES IDX 49 75 33 76 34 77 42 78 35 79 36 80 40 81 43 82 37 83 38 84
REMARK SMILES IDX 41 85 39 86 65 87 66 88 74 89 67 90 68 91 72 92 75 93 69 94
REMARK SMILES IDX 70 95 73 96 71 97 50 98 51 99 59 100 52 101 53 102 57 103
REMARK SMILES IDX 60 104 54 105 55 106 58 107 56 108
REMARK H PARENT 91 27 80 61 48 72
REMARK Flexibility Score: inf
ROOT
ATOM      1  C   UNL     1       4.122  -5.212  -1.244  1.00  0.00     0.188 C 
ENDROOT
BRANCH   1   2
ATOM      2  O   UNL     1       3.697  -5.226  -2.587  1.00  0.00    -0.376 OA
BRANCH   2   3
ATOM      3  C   UNL     1       2.704  -4.322  -3.041  1.00  0.00     0.202 C 
BRANCH   3   4
ATOM      4  C   UNL     1       2.120  -3.158  -2.223  1.00  0.00     0.261 C 
BRANCH   4   5
ATOM      5  O   UNL     1       2.896  -2.708  -1.115  1.00  0.00    -0.459 OA
BRANCH   5   6
ATOM      6  C   UNL     1       2.333  -2.899   0.107  1.00  0.00     0.355 C 
ATOM      7  O   UNL     1       1.290  -3.496   0.339  1.00  0.00    -0.244 OA
BRANCH   6   8
ATOM      8  C   UNL     1       3.248  -2.422   1.201  1.00  0.00     0.132 C 
ATOM      9  C   UNL     1       3.947  -1.254   1.209  1.00  0.00    -0.019 C 
ATOM     10  C   UNL     1       4.942  -0.881   2.313  1.00  0.00     0.106 C 
ATOM     11  N   UNL     1       3.352  -3.271   2.261  1.00  0.00    -0.289 N 
ATOM     12  S   UNL     1       5.449  -2.258   3.402  1.00  0.00    -0.129 SA
ATOM     13  C   UNL     1       3.204  -4.581   2.533  1.00  0.00     0.253 C 
ATOM     14  C   UNL     1       3.748  -2.848   3.573  1.00  0.00     0.181 C 
ATOM     15  O   UNL     1       2.959  -5.555   1.865  1.00  0.00    -0.272 OA
ATOM     16  C   UNL     1       3.554  -4.315   4.050  1.00  0.00     0.206 C 
BRANCH   9  17
ATOM     17  C   UNL     1       3.914  -0.207   0.105  1.00  0.00     0.111 C 
BRANCH  17  18
ATOM     18  S   UNL     1       2.930   1.246   0.601  1.00  0.00    -0.089 SA
BRANCH  18  19
ATOM     19  C   UNL     1       1.316   0.700   0.214  1.00  0.00     0.174 A 
ATOM     20  C   UNL     1      -2.475   0.189  -0.005  1.00  0.00     0.081 C 
ATOM     21  C   UNL     1      -0.993   0.227  -0.026  1.00  0.00     0.115 A 
ATOM     22  N   UNL     1      -0.239  -0.729  -0.520  1.00  0.00    -0.143 NA
ATOM     23  S   UNL     1      -0.111   1.567   0.595  1.00  0.00    -0.091 S 
ATOM     24  N   UNL     1       1.097  -0.439  -0.398  1.00  0.00    -0.132 NA
ENDBRANCH  18  19
ENDBRANCH  17  18
ENDBRANCH   9  17
BRANCH  16  25
ATOM     25  N   UNL     1       2.411  -4.722   4.923  1.00  0.00    -0.338 N 
ATOM     26  C   UNL     1       1.872  -4.207   6.074  1.00  0.00     0.254 C 
ATOM     27  H   UNL     1       1.949  -5.531   4.605  1.00  0.00     0.164 HD
ATOM     28  O   UNL     1       1.023  -4.843   6.693  1.00  0.00    -0.269 OA
BRANCH  26  29
ATOM     29  C   UNL     1       2.314  -2.920   6.610  1.00  0.00     0.075 A 
ATOM     30  C   UNL     1       3.053  -2.882   7.794  1.00  0.00     0.020 A 
ATOM     31  C   UNL     1       1.919  -1.732   5.996  1.00  0.00     0.138 A 
ATOM     32  C   UNL     1       3.487  -1.649   8.287  1.00  0.00     0.040 A 
ATOM     33  C   UNL     1       2.391  -0.508   6.451  1.00  0.00     0.079 A 
ATOM     34  F   UNL     1       1.129  -1.755   4.912  1.00  0.00    -0.206 F 
ATOM     35  C   UNL     1       3.181  -0.480   7.592  1.00  0.00     0.126 A 
ATOM     36  F   UNL     1       3.648   0.693   8.037  1.00  0.00    -0.207 F 
ENDBRANCH  26  29
ENDBRANCH  16  25
ENDBRANCH   6   8
ENDBRANCH   5   6
ENDBRANCH   4   5
ENDBRANCH   3   4
ENDBRANCH   2   3
ENDBRANCH   1   2
BRANCH   1  37
ATOM     37  C   UNL     1       5.302  -4.267  -0.917  1.00  0.00     0.188 C 
BRANCH  37  38
ATOM     38  O   UNL     1       5.934  -3.498  -1.928  1.00  0.00    -0.376 OA
BRANCH  38  39
ATOM     39  C   UNL     1       6.279  -4.134  -3.148  1.00  0.00     0.202 C 
BRANCH  39  40
ATOM     40  C   UNL     1       7.096  -5.439  -3.137  1.00  0.00     0.261 C 
BRANCH  40  41
ATOM     41  O   UNL     1       6.689  -6.423  -2.170  1.00  0.00    -0.460 OA
BRANCH  41  42
ATOM     42  C   UNL     1       7.537  -6.599  -1.125  1.00  0.00     0.338 C 
ATOM     43  O   UNL     1       8.624  -6.072  -0.960  1.00  0.00    -0.246 OA
BRANCH  42  44
ATOM     44  C   UNL     1       6.875  -7.388  -0.061  1.00  0.00     0.060 A 
ATOM     45  C   UNL     1       6.786  -6.818   1.218  1.00  0.00     0.016 A 
ATOM     46  C   UNL     1       6.399  -8.680  -0.289  1.00  0.00     0.016 A 
ATOM     47  C   UNL     1       6.262  -7.550   2.282  1.00  0.00     0.010 A 
ATOM     48  C   UNL     1       5.899  -9.427   0.787  1.00  0.00     0.010 A 
ATOM     49  C   UNL     1       5.867  -8.878   2.084  1.00  0.00    -0.014 A 
BRANCH  49  50
ATOM     50  C   UNL     1       5.651  -9.743   3.271  1.00  0.00     0.031 A 
ATOM     51  C   UNL     1       6.810 -10.563   3.773  1.00  0.00     0.074 A 
ATOM     52  C   UNL     1       4.481  -9.762   3.933  1.00  0.00     0.049 A 
ATOM     53  N   UNL     1       6.879 -11.375   4.798  1.00  0.00    -0.248 NA
ATOM     54  C   UNL     1       8.067 -10.445   3.016  1.00  0.00     0.031 C 
ATOM     55  C   UNL     1       3.295  -8.985   3.581  1.00  0.00     0.029 A 
ATOM     56  N   UNL     1       4.104 -10.473   5.046  1.00  0.00    -0.354 N 
ATOM     57  C   UNL     1       8.181 -11.858   4.809  1.00  0.00     0.074 A 
ATOM     58  C   UNL     1       8.859 -11.280   3.670  1.00  0.00     0.031 C 
ATOM     59  C   UNL     1       2.313  -9.274   4.455  1.00  0.00     0.029 A 
ATOM     60  C   UNL     1       2.796 -10.271   5.412  1.00  0.00     0.049 A 
ATOM     61  H   UNL     1       4.714 -11.072   5.535  1.00  0.00     0.167 HD
ATOM     62  C   UNL     1       8.767 -12.699   5.695  1.00  0.00     0.037 A 
ATOM     63  C   UNL     1       2.072 -10.842   6.395  1.00  0.00     0.037 A 
ATOM     64  C   UNL     1       8.096 -13.288   6.823  1.00  0.00     0.049 A 
ATOM     65  C   UNL     1       2.722 -11.849   7.315  1.00  0.00     0.074 A 
ATOM     66  C   UNL     1       8.610 -14.139   7.785  1.00  0.00     0.029 A 
ATOM     67  N   UNL     1       6.758 -13.097   7.132  1.00  0.00    -0.354 N 
ATOM     68  N   UNL     1       3.964 -12.270   7.344  1.00  0.00    -0.248 NA
ATOM     69  C   UNL     1       1.865 -12.455   8.345  1.00  0.00     0.031 C 
ATOM     70  C   UNL     1       7.569 -14.509   8.643  1.00  0.00     0.029 A 
ATOM     71  C   UNL     1       6.421 -13.840   8.252  1.00  0.00     0.049 A 
ATOM     72  H   UNL     1       6.138 -12.519   6.629  1.00  0.00     0.167 HD
ATOM     73  C   UNL     1       4.043 -13.162   8.409  1.00  0.00     0.074 A 
ATOM     74  C   UNL     1       2.728 -13.209   9.011  1.00  0.00     0.031 C 
ATOM     75  C   UNL     1       5.109 -13.876   8.848  1.00  0.00     0.037 A 
BRANCH  62  76
ATOM     76  C   UNL     1      10.206 -13.055   5.459  1.00  0.00     0.064 A 
ATOM     77  C   UNL     1      11.237 -12.123   5.654  1.00  0.00     0.173 A 
ATOM     78  C   UNL     1      10.560 -14.351   5.057  1.00  0.00     0.173 A 
ATOM     79  F   UNL     1      10.950 -10.865   6.025  1.00  0.00    -0.203 F 
ATOM     80  C   UNL     1      12.567 -12.468   5.429  1.00  0.00     0.198 A 
ATOM     81  C   UNL     1      11.893 -14.701   4.861  1.00  0.00     0.198 A 
ATOM     82  F   UNL     1       9.614 -15.281   4.859  1.00  0.00    -0.203 F 
ATOM     83  F   UNL     1      13.530 -11.548   5.574  1.00  0.00    -0.200 F 
ATOM     84  C   UNL     1      12.894 -13.758   5.040  1.00  0.00     0.200 A 
ATOM     85  F   UNL     1      12.209 -15.952   4.498  1.00  0.00    -0.200 F 
ATOM     86  F   UNL     1      14.175 -14.091   4.829  1.00  0.00    -0.200 F 
ENDBRANCH  62  76
BRANCH  63  87
ATOM     87  C   UNL     1       0.636 -10.493   6.563  1.00  0.00     0.064 A 
ATOM     88  C   UNL     1       0.184  -9.805   7.698  1.00  0.00     0.173 A 
ATOM     89  C   UNL     1      -0.320 -10.886   5.615  1.00  0.00     0.173 A 
ATOM     90  F   UNL     1       1.055  -9.446   8.653  1.00  0.00    -0.203 F 
ATOM     91  C   UNL     1      -1.171  -9.542   7.888  1.00  0.00     0.198 A 
ATOM     92  C   UNL     1      -1.672 -10.596   5.792  1.00  0.00     0.198 A 
ATOM     93  F   UNL     1       0.057 -11.562   4.520  1.00  0.00    -0.203 F 
ATOM     94  F   UNL     1      -1.584  -8.944   9.014  1.00  0.00    -0.200 F 
ATOM     95  C   UNL     1      -2.097  -9.933   6.932  1.00  0.00     0.200 A 
ATOM     96  F   UNL     1      -2.563 -10.977   4.866  1.00  0.00    -0.200 F 
ATOM     97  F   UNL     1      -3.402  -9.691   7.121  1.00  0.00    -0.200 F 
ENDBRANCH  63  87
BRANCH  75  98
ATOM     98  C   UNL     1       4.913 -14.743  10.061  1.00  0.00     0.064 A 
ATOM     99  C   UNL     1       4.138 -15.912  10.017  1.00  0.00     0.173 A 
ATOM    100  C   UNL     1       5.541 -14.420  11.275  1.00  0.00     0.173 A 
ATOM    101  F   UNL     1       3.507 -16.262   8.886  1.00  0.00    -0.203 F 
ATOM    102  C   UNL     1       3.972 -16.706  11.150  1.00  0.00     0.198 A 
ATOM    103  C   UNL     1       5.401 -15.234  12.396  1.00  0.00     0.198 A 
ATOM    104  F   UNL     1       6.303 -13.320  11.371  1.00  0.00    -0.203 F 
ATOM    105  F   UNL     1       3.184 -17.788  11.098  1.00  0.00    -0.200 F 
ATOM    106  C   UNL     1       4.609 -16.370  12.336  1.00  0.00     0.200 A 
ATOM    107  F   UNL     1       6.031 -14.917  13.535  1.00  0.00    -0.200 F 
ATOM    108  F   UNL     1       4.454 -17.139  13.422  1.00  0.00    -0.200 F 
ENDBRANCH  75  98
ENDBRANCH  49  50
ENDBRANCH  42  44
ENDBRANCH  41  42
ENDBRANCH  40  41
ENDBRANCH  39  40
ENDBRANCH  38  39
ENDBRANCH  37  38
ENDBRANCH   1  37
TORSDOF 22
