REMARK SMILES O=C(OCCOCCOCCOC(=O)c1ccc2c(c1)CCN2C(=O)c1ccn[nH]1)c1ccc(-c2c3nc(c(-c4c(F)c(F)c(F)c(F)c4F)c4ccc([nH]4)c(-c4c(F)c(F)c(F)c(F)c4F)c4nc(c(-c5c(F)c(F)c(F)c(F)c5F)c5ccc2[nH]5)C=C4)C=C3)cc1
REMARK SMILES IDX 7 1 6 2 5 3 4 4 3 5 2 6 1 7 31 8 32 9 93 10 33 11 92 12
REMARK SMILES IDX 34 13 35 14 36 15 86 16 37 17 91 18 85 19 87 20 38 21 90 22
REMARK SMILES IDX 84 23 83 24 39 26 71 27 51 28 70 29 52 30 55 31 69 32 88 33
REMARK SMILES IDX 53 34 54 35 68 37 89 38 56 39 40 40 41 41 49 42 42 43 43 44
REMARK SMILES IDX 47 45 50 46 44 47 45 48 48 49 46 50 72 51 73 52 81 53 74 54
REMARK SMILES IDX 75 55 79 56 82 57 76 58 77 59 80 60 78 61 57 62 58 63 66 64
REMARK SMILES IDX 59 65 60 66 64 67 67 68 61 69 62 70 65 71 63 72 8 73 9 74
REMARK SMILES IDX 10 75 11 76 12 77 13 78 14 79 15 80 16 81 20 82 17 83 19 84
REMARK SMILES IDX 18 85 21 86 23 87 22 88 24 89 25 90 26 91 27 92 30 93 28 94
REMARK SMILES IDX 29 95
REMARK H PARENT 87 25 55 36 30 96
REMARK Flexibility Score: inf
ROOT
ATOM      1  C   UNL     1       2.408   0.562  -1.963  1.00  0.00     0.188 C 
ENDROOT
BRANCH   1   2
ATOM      2  O   UNL     1       3.702   0.770  -1.382  1.00  0.00    -0.376 OA
BRANCH   2   3
ATOM      3  C   UNL     1       4.557  -0.374  -1.486  1.00  0.00     0.202 C 
BRANCH   3   4
ATOM      4  C   UNL     1       4.342  -1.428  -0.391  1.00  0.00     0.261 C 
BRANCH   4   5
ATOM      5  O   UNL     1       2.968  -1.518   0.024  1.00  0.00    -0.460 OA
BRANCH   5   6
ATOM      6  C   UNL     1       2.348  -0.867   1.041  1.00  0.00     0.338 C 
ATOM      7  O   UNL     1       1.157  -1.098   1.243  1.00  0.00    -0.246 OA
BRANCH   6   8
ATOM      8  C   UNL     1       3.034   0.087   1.970  1.00  0.00     0.060 A 
ATOM      9  C   UNL     1       4.199   0.798   1.685  1.00  0.00     0.016 A 
ATOM     10  C   UNL     1       2.431   0.300   3.224  1.00  0.00     0.016 A 
ATOM     11  C   UNL     1       4.836   1.561   2.656  1.00  0.00     0.010 A 
ATOM     12  C   UNL     1       3.032   1.117   4.189  1.00  0.00     0.010 A 
ATOM     13  C   UNL     1       4.276   1.696   3.925  1.00  0.00    -0.014 A 
BRANCH  13  14
ATOM     14  C   UNL     1       5.118   2.283   4.989  1.00  0.00     0.031 A 
ATOM     15  C   UNL     1       5.755   1.350   5.983  1.00  0.00     0.074 A 
ATOM     16  C   UNL     1       5.440   3.588   4.953  1.00  0.00     0.049 A 
ATOM     17  N   UNL     1       6.580   1.613   6.963  1.00  0.00    -0.248 NA
ATOM     18  C   UNL     1       5.428  -0.080   5.845  1.00  0.00     0.031 C 
ATOM     19  C   UNL     1       4.952   4.556   3.968  1.00  0.00     0.029 A 
ATOM     20  N   UNL     1       6.296   4.315   5.736  1.00  0.00    -0.354 N 
ATOM     21  C   UNL     1       6.843   0.392   7.572  1.00  0.00     0.074 A 
ATOM     22  C   UNL     1       6.089  -0.614   6.859  1.00  0.00     0.031 C 
ATOM     23  C   UNL     1       5.551   5.741   4.181  1.00  0.00     0.029 A 
ATOM     24  C   UNL     1       6.430   5.621   5.336  1.00  0.00     0.049 A 
ATOM     25  H   UNL     1       6.769   3.937   6.512  1.00  0.00     0.167 HD
ATOM     26  C   UNL     1       7.641   0.136   8.634  1.00  0.00     0.037 A 
ATOM     27  C   UNL     1       7.184   6.603   5.859  1.00  0.00     0.037 A 
ATOM     28  C   UNL     1       8.397   1.147   9.321  1.00  0.00     0.049 A 
ATOM     29  C   UNL     1       8.021   6.301   7.069  1.00  0.00     0.074 A 
ATOM     30  C   UNL     1       9.204   1.021  10.436  1.00  0.00     0.029 A 
ATOM     31  N   UNL     1       8.437   2.482   8.943  1.00  0.00    -0.354 N 
ATOM     32  N   UNL     1       8.199   5.161   7.692  1.00  0.00    -0.248 NA
ATOM     33  C   UNL     1       8.749   7.433   7.657  1.00  0.00     0.031 C 
ATOM     34  C   UNL     1       9.701   2.290  10.757  1.00  0.00     0.029 A 
ATOM     35  C   UNL     1       9.242   3.195   9.812  1.00  0.00     0.049 A 
ATOM     36  H   UNL     1       7.962   2.864   8.170  1.00  0.00     0.167 HD
ATOM     37  C   UNL     1       9.054   5.436   8.748  1.00  0.00     0.074 A 
ATOM     38  C   UNL     1       9.380   6.846   8.665  1.00  0.00     0.031 C 
ATOM     39  C   UNL     1       9.526   4.603   9.707  1.00  0.00     0.037 A 
BRANCH  26  40
ATOM     40  C   UNL     1       7.670  -1.274   9.146  1.00  0.00     0.064 A 
ATOM     41  C   UNL     1       8.307  -2.310   8.446  1.00  0.00     0.173 A 
ATOM     42  C   UNL     1       7.016  -1.598  10.345  1.00  0.00     0.173 A 
ATOM     43  F   UNL     1       8.921  -2.060   7.280  1.00  0.00    -0.203 F 
ATOM     44  C   UNL     1       8.259  -3.623   8.912  1.00  0.00     0.198 A 
ATOM     45  C   UNL     1       6.994  -2.906  10.820  1.00  0.00     0.198 A 
ATOM     46  F   UNL     1       6.387  -0.645  11.049  1.00  0.00    -0.203 F 
ATOM     47  F   UNL     1       8.820  -4.607   8.195  1.00  0.00    -0.200 F 
ATOM     48  C   UNL     1       7.606  -3.919  10.099  1.00  0.00     0.200 A 
ATOM     49  F   UNL     1       6.365  -3.188  11.969  1.00  0.00    -0.200 F 
ATOM     50  F   UNL     1       7.552  -5.184  10.540  1.00  0.00    -0.200 F 
ENDBRANCH  26  40
BRANCH  27  51
ATOM     51  C   UNL     1       7.160   7.974   5.297  1.00  0.00     0.064 A 
ATOM     52  C   UNL     1       8.213   8.453   4.507  1.00  0.00     0.173 A 
ATOM     53  C   UNL     1       6.137   8.868   5.641  1.00  0.00     0.173 A 
ATOM     54  F   UNL     1       9.232   7.642   4.189  1.00  0.00    -0.203 F 
ATOM     55  C   UNL     1       8.254   9.785   4.098  1.00  0.00     0.198 A 
ATOM     56  C   UNL     1       6.193  10.205   5.252  1.00  0.00     0.198 A 
ATOM     57  F   UNL     1       5.103   8.450   6.386  1.00  0.00    -0.203 F 
ATOM     58  F   UNL     1       9.296  10.231   3.382  1.00  0.00    -0.200 F 
ATOM     59  C   UNL     1       7.247  10.662   4.476  1.00  0.00     0.200 A 
ATOM     60  F   UNL     1       5.244  11.056   5.668  1.00  0.00    -0.200 F 
ATOM     61  F   UNL     1       7.314  11.953   4.122  1.00  0.00    -0.200 F 
ENDBRANCH  27  51
BRANCH  39  62
ATOM     62  C   UNL     1      10.443   5.205  10.726  1.00  0.00     0.064 A 
ATOM     63  C   UNL     1       9.959   6.047  11.738  1.00  0.00     0.173 A 
ATOM     64  C   UNL     1      11.815   4.920  10.699  1.00  0.00     0.173 A 
ATOM     65  F   UNL     1       8.656   6.362  11.789  1.00  0.00    -0.203 F 
ATOM     66  C   UNL     1      10.825   6.605  12.673  1.00  0.00     0.198 A 
ATOM     67  C   UNL     1      12.673   5.458  11.652  1.00  0.00     0.198 A 
ATOM     68  F   UNL     1      12.320   4.118   9.750  1.00  0.00    -0.203 F 
ATOM     69  F   UNL     1      10.351   7.447  13.602  1.00  0.00    -0.200 F 
ATOM     70  C   UNL     1      12.179   6.305  12.633  1.00  0.00     0.200 A 
ATOM     71  F   UNL     1      13.979   5.161  11.617  1.00  0.00    -0.200 F 
ATOM     72  F   UNL     1      13.011   6.843  13.535  1.00  0.00    -0.200 F 
ENDBRANCH  39  62
ENDBRANCH  13  14
ENDBRANCH   6   8
ENDBRANCH   5   6
ENDBRANCH   4   5
ENDBRANCH   3   4
ENDBRANCH   2   3
ENDBRANCH   1   2
BRANCH   1  73
ATOM     73  C   UNL     1       1.924   1.785  -2.741  1.00  0.00     0.188 C 
BRANCH  73  74
ATOM     74  O   UNL     1       2.655   2.111  -3.920  1.00  0.00    -0.376 OA
BRANCH  74  75
ATOM     75  C   UNL     1       4.032   2.444  -3.775  1.00  0.00     0.202 C 
BRANCH  75  76
ATOM     76  C   UNL     1       4.369   3.794  -3.130  1.00  0.00     0.261 C 
BRANCH  76  77
ATOM     77  O   UNL     1       3.913   3.951  -1.776  1.00  0.00    -0.460 OA
BRANCH  77  78
ATOM     78  C   UNL     1       2.863   4.796  -1.644  1.00  0.00     0.338 C 
ATOM     79  O   UNL     1       2.235   5.353  -2.529  1.00  0.00    -0.246 OA
BRANCH  78  80
ATOM     80  C   UNL     1       2.537   5.014  -0.230  1.00  0.00     0.060 A 
ATOM     81  C   UNL     1       3.282   5.973   0.465  1.00  0.00     0.018 A 
ATOM     82  C   UNL     1       1.359   4.481   0.307  1.00  0.00     0.021 A 
ATOM     83  C   UNL     1       2.787   6.498   1.657  1.00  0.00     0.027 A 
ATOM     84  C   UNL     1       0.889   5.016   1.498  1.00  0.00    -0.022 A 
ATOM     85  C   UNL     1       1.545   6.082   2.113  1.00  0.00     0.047 A 
ATOM     86  C   UNL     1      -0.335   4.621   2.265  1.00  0.00     0.059 C 
ATOM     87  N   UNL     1       0.737   6.606   3.138  1.00  0.00    -0.306 N 
ATOM     88  C   UNL     1      -0.461   5.768   3.274  1.00  0.00     0.131 C 
BRANCH  87  89
ATOM     89  C   UNL     1       0.843   7.787   3.862  1.00  0.00     0.276 C 
ATOM     90  O   UNL     1       0.162   7.986   4.866  1.00  0.00    -0.267 OA
BRANCH  89  91
ATOM     91  C   UNL     1       1.752   8.789   3.378  1.00  0.00     0.123 A 
ATOM     92  C   UNL     1       1.802   9.475   2.177  1.00  0.00     0.055 A 
ATOM     93  N   UNL     1       2.791   9.279   4.115  1.00  0.00    -0.273 N 
ATOM     94  C   UNL     1       3.000  10.209   2.234  1.00  0.00     0.135 A 
ATOM     95  N   UNL     1       3.645  10.029   3.389  1.00  0.00    -0.183 NA
ATOM     96  H   UNL     1       2.905   9.103   5.077  1.00  0.00     0.190 HD
ENDBRANCH  89  91
ENDBRANCH  87  89
ENDBRANCH  78  80
ENDBRANCH  77  78
ENDBRANCH  76  77
ENDBRANCH  75  76
ENDBRANCH  74  75
ENDBRANCH  73  74
ENDBRANCH   1  73
TORSDOF 19
