REMARK SMILES CC(C)[N@@H+](C)Cc1cc2c(cc1Cl)C=C(C(=O)OCCOCCOCCOC(=O)c1ccc(-c3c4nc(c(-c5c(F)c(F)c(F)c(F)c5F)c5ccc([nH]5)c(-c5c(F)c(F)c(F)c(F)c5F)c5nc(c(-c6c(F)c(F)c(F)c(F)c6F)c6ccc3[nH]6)C=C5)C=C4)cc1)[C@@H](C(F)(F)F)O2
REMARK SMILES IDX 22 1 21 2 20 3 19 4 18 5 16 6 17 7 15 8 7 9 8 10 12 11 9 12
REMARK SMILES IDX 11 13 13 14 10 15 98 16 14 17 93 18 6 19 4 20 5 21 2 23 1 24
REMARK SMILES IDX 3 25 94 26 95 27 96 28 97 29 23 30 24 31 25 32 26 33 27 34
REMARK SMILES IDX 28 35 29 36 30 37 31 38 92 39 32 40 91 41 33 42 34 43 35 44
REMARK SMILES IDX 85 45 36 46 90 47 84 48 86 49 37 50 89 51 83 52 82 53 38 55
REMARK SMILES IDX 70 56 50 57 69 58 51 59 54 60 68 61 87 62 52 63 53 64 67 66
REMARK SMILES IDX 88 67 55 68 39 69 40 70 48 71 41 72 42 73 46 74 49 75 43 76
REMARK SMILES IDX 44 77 47 78 45 79 71 80 72 81 80 82 73 83 74 84 78 85 81 86
REMARK SMILES IDX 75 87 76 88 79 89 77 90 56 91 57 92 65 93 58 94 59 95 63 96
REMARK SMILES IDX 66 97 60 98 61 99 64 100 62 101
REMARK H PARENT 4 22 86 54 54 65
REMARK Flexibility Score: inf
ROOT
ATOM      1  C   UNL     1      -0.333  -3.325  10.074  1.00  0.00     0.188 C 
ENDROOT
BRANCH   1   2
ATOM      2  O   UNL     1       0.422  -3.639  11.226  1.00  0.00    -0.376 OA
BRANCH   2   3
ATOM      3  C   UNL     1       1.563  -2.883  11.600  1.00  0.00     0.202 C 
BRANCH   3   4
ATOM      4  C   UNL     1       2.571  -2.362  10.571  1.00  0.00     0.261 C 
BRANCH   4   5
ATOM      5  O   UNL     1       1.984  -1.775   9.406  1.00  0.00    -0.460 OA
BRANCH   5   6
ATOM      6  C   UNL     1       2.321  -2.369   8.237  1.00  0.00     0.338 C 
ATOM      7  O   UNL     1       3.069  -3.319   8.079  1.00  0.00    -0.246 OA
BRANCH   6   8
ATOM      8  C   UNL     1       1.503  -1.798   7.157  1.00  0.00     0.087 C 
ATOM      9  C   UNL     1      -1.210  -1.287   2.970  1.00  0.00     0.029 A 
ATOM     10  C   UNL     1      -0.433  -0.415   3.761  1.00  0.00     0.058 A 
ATOM     11  C   UNL     1      -1.534  -2.541   3.508  1.00  0.00     0.050 A 
ATOM     12  C   UNL     1       0.142  -0.844   4.957  1.00  0.00     0.128 A 
ATOM     13  C   UNL     1      -0.919  -2.989   4.682  1.00  0.00     0.033 A 
ATOM     14  Cl  UNL     1      -2.715  -3.588   2.809  1.00  0.00    -0.084 Cl
ATOM     15  C   UNL     1      -0.036  -2.159   5.373  1.00  0.00     0.019 A 
ATOM     16  O   UNL     1       0.928   0.059   5.613  1.00  0.00    -0.475 OA
ATOM     17  C   UNL     1       0.764  -2.675   6.466  1.00  0.00     0.027 C 
ATOM     18  C   UNL     1       1.499  -0.316   6.900  1.00  0.00     0.316 C 
BRANCH   9  19
ATOM     19  C   UNL     1      -1.599  -0.836   1.578  1.00  0.00     0.300 C 
BRANCH  19  20
ATOM     20  N   UNL     1      -0.855  -1.394   0.438  1.00  0.00    -0.332 N 
ATOM     21  C   UNL     1      -1.312  -2.700  -0.014  1.00  0.00     0.333 C 
ATOM     22  H   UNL     1      -1.150  -0.689  -0.238  1.00  0.00     0.348 HD
BRANCH  20  23
ATOM     23  C   UNL     1       0.604  -1.235   0.333  1.00  0.00     0.177 C 
ATOM     24  C   UNL     1       1.013   0.236   0.231  1.00  0.00     0.075 C 
ATOM     25  C   UNL     1       1.458  -1.962   1.379  1.00  0.00     0.075 C 
ENDBRANCH  20  23
ENDBRANCH  19  20
ENDBRANCH   9  19
BRANCH  18  26
ATOM     26  C   UNL     1       2.895   0.323   6.983  1.00  0.00     0.430 C 
ATOM     27  F   UNL     1       2.834   1.658   6.758  1.00  0.00    -0.167 F 
ATOM     28  F   UNL     1       3.455   0.165   8.204  1.00  0.00    -0.167 F 
ATOM     29  F   UNL     1       3.745  -0.205   6.075  1.00  0.00    -0.167 F 
ENDBRANCH  18  26
ENDBRANCH   6   8
ENDBRANCH   5   6
ENDBRANCH   4   5
ENDBRANCH   3   4
ENDBRANCH   2   3
ENDBRANCH   1   2
BRANCH   1  30
ATOM     30  C   UNL     1      -0.974  -1.936   9.872  1.00  0.00     0.188 C 
BRANCH  30  31
ATOM     31  O   UNL     1      -0.918  -0.963  10.897  1.00  0.00    -0.376 OA
BRANCH  31  32
ATOM     32  C   UNL     1      -1.443  -1.291  12.178  1.00  0.00     0.202 C 
BRANCH  32  33
ATOM     33  C   UNL     1      -2.895  -1.761  12.280  1.00  0.00     0.261 C 
BRANCH  33  34
ATOM     34  O   UNL     1      -3.101  -3.027  11.629  1.00  0.00    -0.460 OA
BRANCH  34  35
ATOM     35  C   UNL     1      -4.046  -3.043  10.659  1.00  0.00     0.338 C 
ATOM     36  O   UNL     1      -4.763  -2.123  10.301  1.00  0.00    -0.246 OA
BRANCH  35  37
ATOM     37  C   UNL     1      -3.945  -4.318   9.925  1.00  0.00     0.060 A 
ATOM     38  C   UNL     1      -4.046  -5.540  10.591  1.00  0.00     0.016 A 
ATOM     39  C   UNL     1      -3.739  -4.274   8.539  1.00  0.00     0.016 A 
ATOM     40  C   UNL     1      -3.959  -6.727   9.860  1.00  0.00     0.010 A 
ATOM     41  C   UNL     1      -3.634  -5.460   7.813  1.00  0.00     0.010 A 
ATOM     42  C   UNL     1      -3.759  -6.694   8.468  1.00  0.00    -0.014 A 
BRANCH  42  43
ATOM     43  C   UNL     1      -3.817  -7.951   7.687  1.00  0.00     0.031 A 
ATOM     44  C   UNL     1      -2.577  -8.696   7.306  1.00  0.00     0.074 A 
ATOM     45  C   UNL     1      -5.027  -8.421   7.333  1.00  0.00     0.049 A 
ATOM     46  N   UNL     1      -2.467  -9.858   6.712  1.00  0.00    -0.248 NA
ATOM     47  C   UNL     1      -1.293  -8.058   7.629  1.00  0.00     0.031 C 
ATOM     48  C   UNL     1      -6.300  -7.764   7.632  1.00  0.00     0.029 A 
ATOM     49  N   UNL     1      -5.385  -9.559   6.657  1.00  0.00    -0.354 N 
ATOM     50  C   UNL     1      -1.107 -10.108   6.616  1.00  0.00     0.074 A 
ATOM     51  C   UNL     1      -0.427  -8.953   7.168  1.00  0.00     0.031 C 
ATOM     52  C   UNL     1      -7.302  -8.520   7.159  1.00  0.00     0.029 A 
ATOM     53  C   UNL     1      -6.742  -9.705   6.514  1.00  0.00     0.049 A 
ATOM     54  H   UNL     1      -4.732 -10.207   6.307  1.00  0.00     0.167 HD
ATOM     55  C   UNL     1      -0.489 -11.213   6.131  1.00  0.00     0.037 A 
ATOM     56  C   UNL     1      -7.456 -10.690   5.939  1.00  0.00     0.037 A 
ATOM     57  C   UNL     1      -1.173 -12.350   5.565  1.00  0.00     0.049 A 
ATOM     58  C   UNL     1      -6.741 -11.878   5.362  1.00  0.00     0.074 A 
ATOM     59  C   UNL     1      -0.631 -13.529   5.082  1.00  0.00     0.029 A 
ATOM     60  N   UNL     1      -2.547 -12.444   5.393  1.00  0.00    -0.354 N 
ATOM     61  N   UNL     1      -5.458 -12.142   5.345  1.00  0.00    -0.248 NA
ATOM     62  C   UNL     1      -7.576 -12.912   4.734  1.00  0.00     0.031 C 
ATOM     63  C   UNL     1      -1.671 -14.315   4.573  1.00  0.00     0.029 A 
ATOM     64  C   UNL     1      -2.867 -13.649   4.783  1.00  0.00     0.049 A 
ATOM     65  H   UNL     1      -3.199 -11.758   5.663  1.00  0.00     0.167 HD
ATOM     66  C   UNL     1      -5.330 -13.376   4.723  1.00  0.00     0.074 A 
ATOM     67  C   UNL     1      -6.669 -13.818   4.395  1.00  0.00     0.031 C 
ATOM     68  C   UNL     1      -4.202 -14.076   4.450  1.00  0.00     0.037 A 
BRANCH  55  69
ATOM     69  C   UNL     1       1.008 -11.266   6.201  1.00  0.00     0.064 A 
ATOM     70  C   UNL     1       1.671 -11.469   7.421  1.00  0.00     0.173 A 
ATOM     71  C   UNL     1       1.784 -11.212   5.033  1.00  0.00     0.173 A 
ATOM     72  F   UNL     1       0.975 -11.525   8.566  1.00  0.00    -0.203 F 
ATOM     73  C   UNL     1       3.056 -11.608   7.470  1.00  0.00     0.198 A 
ATOM     74  C   UNL     1       3.166 -11.374   5.083  1.00  0.00     0.198 A 
ATOM     75  F   UNL     1       1.198 -11.029   3.840  1.00  0.00    -0.203 F 
ATOM     76  F   UNL     1       3.669 -11.782   8.648  1.00  0.00    -0.200 F 
ATOM     77  C   UNL     1       3.801 -11.570   6.300  1.00  0.00     0.200 A 
ATOM     78  F   UNL     1       3.883 -11.353   3.951  1.00  0.00    -0.200 F 
ATOM     79  F   UNL     1       5.131 -11.725   6.347  1.00  0.00    -0.200 F 
ENDBRANCH  55  69
BRANCH  56  80
ATOM     80  C   UNL     1      -8.937 -10.605   5.928  1.00  0.00     0.064 A 
ATOM     81  C   UNL     1      -9.709 -11.443   6.742  1.00  0.00     0.173 A 
ATOM     82  C   UNL     1      -9.606  -9.665   5.131  1.00  0.00     0.173 A 
ATOM     83  F   UNL     1      -9.112 -12.369   7.507  1.00  0.00    -0.203 F 
ATOM     84  C   UNL     1     -11.099 -11.350   6.754  1.00  0.00     0.198 A 
ATOM     85  C   UNL     1     -10.994  -9.556   5.163  1.00  0.00     0.198 A 
ATOM     86  F   UNL     1      -8.909  -8.837   4.339  1.00  0.00    -0.203 F 
ATOM     87  F   UNL     1     -11.817 -12.182   7.520  1.00  0.00    -0.200 F 
ATOM     88  C   UNL     1     -11.740 -10.401   5.971  1.00  0.00     0.200 A 
ATOM     89  F   UNL     1     -11.609  -8.629   4.416  1.00  0.00    -0.200 F 
ATOM     90  F   UNL     1     -13.076 -10.303   5.993  1.00  0.00    -0.200 F 
ENDBRANCH  56  80
BRANCH  68  91
ATOM     91  C   UNL     1      -4.364 -15.401   3.763  1.00  0.00     0.064 A 
ATOM     92  C   UNL     1      -4.726 -15.483   2.410  1.00  0.00     0.173 A 
ATOM     93  C   UNL     1      -4.111 -16.598   4.449  1.00  0.00     0.173 A 
ATOM     94  F   UNL     1      -4.994 -14.368   1.714  1.00  0.00    -0.203 F 
ATOM     95  C   UNL     1      -4.849 -16.717   1.776  1.00  0.00     0.198 A 
ATOM     96  C   UNL     1      -4.208 -17.828   3.804  1.00  0.00     0.198 A 
ATOM     97  F   UNL     1      -3.756 -16.575   5.743  1.00  0.00    -0.203 F 
ATOM     98  F   UNL     1      -5.237 -16.773   0.494  1.00  0.00    -0.200 F 
ATOM     99  C   UNL     1      -4.582 -17.887   2.470  1.00  0.00     0.200 A 
ATOM    100  F   UNL     1      -3.937 -18.958   4.473  1.00  0.00    -0.200 F 
ATOM    101  F   UNL     1      -4.692 -19.073   1.855  1.00  0.00    -0.200 F 
ENDBRANCH  68  91
ENDBRANCH  42  43
ENDBRANCH  35  37
ENDBRANCH  34  35
ENDBRANCH  33  34
ENDBRANCH  32  33
ENDBRANCH  31  32
ENDBRANCH  30  31
ENDBRANCH   1  30
TORSDOF 21
