REMARK SMILES O=C(Cc1ccccc1[N+](=O)[O-])N[C@@H]1C=C[C@H](C(=O)OCCOCCOCCOC(=O)c2ccc(-c3c4nc(c(-c5c(F)c(F)c(F)c(F)c5F)c5ccc([nH]5)c(-c5c(F)c(F)c(F)c(F)c5F)c5nc(c(-c6c(F)c(F)c(F)c(F)c6F)c6ccc3[nH]6)C=C5)C=C4)cc2)C1
REMARK SMILES IDX 24 1 23 2 22 3 21 4 20 5 18 6 19 7 17 8 14 9 15 10 95 11
REMARK SMILES IDX 16 12 13 13 1 14 2 15 3 17 4 18 5 19 9 20 6 21 8 22 7 23
REMARK SMILES IDX 10 24 11 25 12 26 25 27 26 28 27 29 28 30 29 31 30 32 31 33
REMARK SMILES IDX 32 34 33 35 94 36 34 37 93 38 35 39 36 40 37 41 87 42 38 43
REMARK SMILES IDX 92 44 86 45 88 46 39 47 91 48 85 49 84 50 40 52 72 53 52 54
REMARK SMILES IDX 71 55 53 56 56 57 70 58 89 59 54 60 55 61 69 63 90 64 57 65
REMARK SMILES IDX 41 66 42 67 50 68 43 69 44 70 48 71 51 72 45 73 46 74 49 75
REMARK SMILES IDX 47 76 73 77 74 78 82 79 75 80 76 81 80 82 83 83 77 84 78 85
REMARK SMILES IDX 81 86 79 87 58 88 59 89 67 90 60 91 61 92 65 93 68 94 62 95
REMARK SMILES IDX 63 96 66 97 64 98
REMARK H PARENT 13 16 88 51 56 62
REMARK Flexibility Score: inf
ROOT
ATOM      1  C   UNL     1      -0.375   2.953   5.381  1.00  0.00     0.188 C 
ENDROOT
BRANCH   1   2
ATOM      2  O   UNL     1      -0.503   4.022   6.309  1.00  0.00    -0.376 OA
BRANCH   2   3
ATOM      3  C   UNL     1      -0.115   5.332   5.912  1.00  0.00     0.202 C 
BRANCH   3   4
ATOM      4  C   UNL     1       1.377   5.553   5.643  1.00  0.00     0.261 C 
BRANCH   4   5
ATOM      5  O   UNL     1       1.895   4.795   4.525  1.00  0.00    -0.463 OA
BRANCH   5   6
ATOM      6  C   UNL     1       2.907   3.936   4.807  1.00  0.00     0.312 C 
ATOM      7  O   UNL     1       3.414   3.826   5.922  1.00  0.00    -0.252 OA
BRANCH   6   8
ATOM      8  C   UNL     1       3.394   3.079   3.629  1.00  0.00     0.124 C 
ATOM      9  C   UNL     1       2.513   1.594   1.831  1.00  0.00     0.106 C 
ATOM     10  C   UNL     1       2.827   0.844   3.082  1.00  0.00    -0.006 C 
ATOM     11  C   UNL     1       2.710   3.077   2.246  1.00  0.00     0.048 C 
ATOM     12  C   UNL     1       3.305   1.635   4.045  1.00  0.00    -0.014 C 
BRANCH   9  13
ATOM     13  N   UNL     1       1.186   1.187   1.396  1.00  0.00    -0.350 N 
ATOM     14  O   UNL     1       1.062   2.699  -0.306  1.00  0.00    -0.275 OA
ATOM     15  C   UNL     1       0.597   1.719   0.270  1.00  0.00     0.225 C 
ATOM     16  H   UNL     1       0.696   0.513   1.920  1.00  0.00     0.164 HD
BRANCH  15  17
ATOM     17  C   UNL     1      -0.731   1.101  -0.163  1.00  0.00     0.142 C 
BRANCH  17  18
ATOM     18  C   UNL     1      -0.863  -0.412  -0.229  1.00  0.00     0.039 A 
ATOM     19  C   UNL     1      -2.069  -0.989   0.211  1.00  0.00     0.011 A 
ATOM     20  C   UNL     1       0.066  -1.292  -0.808  1.00  0.00     0.273 A 
ATOM     21  C   UNL     1      -2.300  -2.369   0.155  1.00  0.00     0.001 A 
ATOM     22  C   UNL     1      -0.147  -2.682  -0.863  1.00  0.00     0.086 A 
ATOM     23  C   UNL     1      -1.333  -3.219  -0.369  1.00  0.00     0.007 A 
BRANCH  20  24
ATOM     24  N   UNL     1       1.272  -0.797  -1.444  1.00  0.00     0.063 N 
ATOM     25  O   UNL     1       2.348  -1.181  -0.968  1.00  0.00    -0.258 OA
ATOM     26  O   UNL     1       1.127  -0.040  -2.410  1.00  0.00    -0.258 OA
ENDBRANCH  20  24
ENDBRANCH  17  18
ENDBRANCH  15  17
ENDBRANCH   9  13
ENDBRANCH   6   8
ENDBRANCH   5   6
ENDBRANCH   4   5
ENDBRANCH   3   4
ENDBRANCH   2   3
ENDBRANCH   1   2
BRANCH   1  27
ATOM     27  C   UNL     1      -0.562   3.233   3.883  1.00  0.00     0.188 C 
BRANCH  27  28
ATOM     28  O   UNL     1      -1.476   4.272   3.575  1.00  0.00    -0.376 OA
BRANCH  28  29
ATOM     29  C   UNL     1      -2.580   3.870   2.776  1.00  0.00     0.202 C 
BRANCH  29  30
ATOM     30  C   UNL     1      -3.616   3.152   3.636  1.00  0.00     0.261 C 
BRANCH  30  31
ATOM     31  O   UNL     1      -3.097   1.903   4.142  1.00  0.00    -0.460 OA
BRANCH  31  32
ATOM     32  C   UNL     1      -3.273   0.831   3.345  1.00  0.00     0.338 C 
ATOM     33  O   UNL     1      -3.883   0.796   2.293  1.00  0.00    -0.246 OA
BRANCH  32  34
ATOM     34  C   UNL     1      -2.574  -0.334   3.921  1.00  0.00     0.060 A 
ATOM     35  C   UNL     1      -1.189  -0.483   3.781  1.00  0.00     0.016 A 
ATOM     36  C   UNL     1      -3.327  -1.347   4.508  1.00  0.00     0.016 A 
ATOM     37  C   UNL     1      -0.554  -1.654   4.202  1.00  0.00     0.010 A 
ATOM     38  C   UNL     1      -2.689  -2.508   4.955  1.00  0.00     0.010 A 
ATOM     39  C   UNL     1      -1.303  -2.683   4.785  1.00  0.00    -0.014 A 
BRANCH  39  40
ATOM     40  C   UNL     1      -0.677  -3.980   5.152  1.00  0.00     0.031 A 
ATOM     41  C   UNL     1      -1.013  -5.211   4.357  1.00  0.00     0.074 A 
ATOM     42  C   UNL     1       0.162  -4.072   6.199  1.00  0.00     0.049 A 
ATOM     43  N   UNL     1      -0.765  -6.469   4.619  1.00  0.00    -0.248 NA
ATOM     44  C   UNL     1      -1.727  -4.991   3.091  1.00  0.00     0.031 C 
ATOM     45  C   UNL     1       0.634  -2.950   7.008  1.00  0.00     0.029 A 
ATOM     46  N   UNL     1       0.747  -5.173   6.777  1.00  0.00    -0.354 N 
ATOM     47  C   UNL     1      -1.315  -7.190   3.567  1.00  0.00     0.074 A 
ATOM     48  C   UNL     1      -1.914  -6.232   2.663  1.00  0.00     0.031 C 
ATOM     49  C   UNL     1       1.418  -3.421   7.993  1.00  0.00     0.029 A 
ATOM     50  C   UNL     1       1.448  -4.880   7.921  1.00  0.00     0.049 A 
ATOM     51  H   UNL     1       0.670  -6.082   6.408  1.00  0.00     0.167 HD
ATOM     52  C   UNL     1      -1.323  -8.532   3.379  1.00  0.00     0.037 A 
ATOM     53  C   UNL     1       2.002  -5.698   8.838  1.00  0.00     0.037 A 
ATOM     54  C   UNL     1      -0.726  -9.482   4.280  1.00  0.00     0.049 A 
ATOM     55  C   UNL     1       1.892  -7.191   8.660  1.00  0.00     0.074 A 
ATOM     56  C   UNL     1      -0.699 -10.863   4.188  1.00  0.00     0.029 A 
ATOM     57  N   UNL     1      -0.050  -9.146   5.444  1.00  0.00    -0.354 N 
ATOM     58  N   UNL     1       1.336  -7.871   7.688  1.00  0.00    -0.248 NA
ATOM     59  C   UNL     1       2.477  -8.028   9.718  1.00  0.00     0.031 C 
ATOM     60  C   UNL     1      -0.041 -11.364   5.317  1.00  0.00     0.029 A 
ATOM     61  C   UNL     1       0.382 -10.294   6.088  1.00  0.00     0.049 A 
ATOM     62  H   UNL     1       0.101  -8.227   5.764  1.00  0.00     0.167 HD
ATOM     63  C   UNL     1       1.522  -9.211   8.004  1.00  0.00     0.074 A 
ATOM     64  C   UNL     1       2.256  -9.248   9.251  1.00  0.00     0.031 C 
ATOM     65  C   UNL     1       1.121 -10.312   7.323  1.00  0.00     0.037 A 
BRANCH  52  66
ATOM     66  C   UNL     1      -2.033  -9.059   2.167  1.00  0.00     0.064 A 
ATOM     67  C   UNL     1      -1.490  -8.933   0.881  1.00  0.00     0.173 A 
ATOM     68  C   UNL     1      -3.252  -9.742   2.303  1.00  0.00     0.173 A 
ATOM     69  F   UNL     1      -0.339  -8.269   0.696  1.00  0.00    -0.203 F 
ATOM     70  C   UNL     1      -2.149  -9.459  -0.228  1.00  0.00     0.198 A 
ATOM     71  C   UNL     1      -3.895 -10.287   1.195  1.00  0.00     0.198 A 
ATOM     72  F   UNL     1      -3.814  -9.887   3.512  1.00  0.00    -0.203 F 
ATOM     73  F   UNL     1      -1.631  -9.293  -1.453  1.00  0.00    -0.200 F 
ATOM     74  C   UNL     1      -3.345 -10.143  -0.069  1.00  0.00     0.200 A 
ATOM     75  F   UNL     1      -5.048 -10.952   1.352  1.00  0.00    -0.200 F 
ATOM     76  F   UNL     1      -3.974 -10.653  -1.137  1.00  0.00    -0.200 F 
ENDBRANCH  52  66
BRANCH  53  77
ATOM     77  C   UNL     1       2.664  -5.128  10.041  1.00  0.00     0.064 A 
ATOM     78  C   UNL     1       4.047  -5.253  10.232  1.00  0.00     0.173 A 
ATOM     79  C   UNL     1       1.925  -4.472  11.036  1.00  0.00     0.173 A 
ATOM     80  F   UNL     1       4.792  -5.902   9.325  1.00  0.00    -0.203 F 
ATOM     81  C   UNL     1       4.662  -4.757  11.380  1.00  0.00     0.198 A 
ATOM     82  C   UNL     1       2.545  -3.949  12.168  1.00  0.00     0.198 A 
ATOM     83  F   UNL     1       0.597  -4.333  10.905  1.00  0.00    -0.203 F 
ATOM     84  F   UNL     1       5.977  -4.935  11.563  1.00  0.00    -0.200 F 
ATOM     85  C   UNL     1       3.912  -4.099  12.344  1.00  0.00     0.200 A 
ATOM     86  F   UNL     1       1.817  -3.307  13.092  1.00  0.00    -0.200 F 
ATOM     87  F   UNL     1       4.504  -3.622  13.447  1.00  0.00    -0.200 F 
ENDBRANCH  53  77
BRANCH  65  88
ATOM     88  C   UNL     1       1.502 -11.648   7.891  1.00  0.00     0.064 A 
ATOM     89  C   UNL     1       0.874 -12.169   9.031  1.00  0.00     0.173 A 
ATOM     90  C   UNL     1       2.487 -12.429   7.267  1.00  0.00     0.173 A 
ATOM     91  F   UNL     1      -0.063 -11.454   9.672  1.00  0.00    -0.203 F 
ATOM     92  C   UNL     1       1.236 -13.414   9.541  1.00  0.00     0.198 A 
ATOM     93  C   UNL     1       2.827 -13.684   7.764  1.00  0.00     0.198 A 
ATOM     94  F   UNL     1       3.112 -11.977   6.169  1.00  0.00    -0.203 F 
ATOM     95  F   UNL     1       0.655 -13.873  10.658  1.00  0.00    -0.200 F 
ATOM     96  C   UNL     1       2.208 -14.172   8.904  1.00  0.00     0.200 A 
ATOM     97  F   UNL     1       3.758 -14.419   7.140  1.00  0.00    -0.200 F 
ATOM     98  F   UNL     1       2.552 -15.370   9.394  1.00  0.00    -0.200 F 
ENDBRANCH  65  88
ENDBRANCH  39  40
ENDBRANCH  32  34
ENDBRANCH  31  32
ENDBRANCH  30  31
ENDBRANCH  29  30
ENDBRANCH  28  29
ENDBRANCH  27  28
ENDBRANCH   1  27
TORSDOF 21
