REMARK SMILES Cc1ccnc(C(=O)c2[nH]c3cc(F)ccc3c2CC(=O)OCCOCCOCCOC(=O)c2ccc(-c3c4nc(c(-c5c(F)c(F)c(F)c(F)c5F)c5ccc([nH]5)c(-c5c(F)c(F)c(F)c(F)c5F)c5nc(c(-c6c(F)c(F)c(F)c(F)c6F)c6ccc3[nH]6)C=C5)C=C4)cc2)c1
REMARK SMILES IDX 26 1 25 2 24 3 23 4 22 5 20 6 21 7 19 8 18 9 9 10 10 11
REMARK SMILES IDX 11 12 17 14 12 15 16 16 13 17 15 18 14 19 7 20 8 21 6 22
REMARK SMILES IDX 1 23 2 24 3 25 97 26 4 27 5 28 27 29 28 30 29 31 30 32 31 33
REMARK SMILES IDX 32 34 33 35 34 36 35 37 96 38 36 39 95 40 37 41 38 42 39 43
REMARK SMILES IDX 89 44 40 45 94 46 88 47 90 48 41 49 93 50 87 51 86 52 42 54
REMARK SMILES IDX 74 55 54 56 73 57 55 58 58 59 72 60 91 61 56 62 57 63 71 65
REMARK SMILES IDX 92 66 59 67 43 68 44 69 52 70 45 71 46 72 50 73 53 74 47 75
REMARK SMILES IDX 48 76 51 77 49 78 75 79 76 80 84 81 77 82 78 83 82 84 85 85
REMARK SMILES IDX 79 86 80 87 83 88 81 89 60 90 61 91 69 92 62 93 63 94 67 95
REMARK SMILES IDX 70 96 64 97 65 98 68 99 66 100
REMARK H PARENT 10 13 90 53 58 64
REMARK Flexibility Score: inf
ROOT
ATOM      1  C   UNL     1       4.776  -3.267   0.509  1.00  0.00     0.188 C 
ENDROOT
BRANCH   1   2
ATOM      2  O   UNL     1       5.978  -4.014   0.663  1.00  0.00    -0.376 OA
BRANCH   2   3
ATOM      3  C   UNL     1       5.893  -5.430   0.544  1.00  0.00     0.202 C 
BRANCH   3   4
ATOM      4  C   UNL     1       5.060  -6.120   1.624  1.00  0.00     0.261 C 
BRANCH   4   5
ATOM      5  O   UNL     1       3.649  -5.822   1.503  1.00  0.00    -0.463 OA
BRANCH   5   6
ATOM      6  C   UNL     1       2.990  -5.641   2.674  1.00  0.00     0.310 C 
ATOM      7  O   UNL     1       3.523  -5.773   3.776  1.00  0.00    -0.252 OA
BRANCH   6   8
ATOM      8  C   UNL     1       1.535  -5.234   2.576  1.00  0.00     0.161 C 
BRANCH   8   9
ATOM      9  C   UNL     1       0.817  -5.218   1.247  1.00  0.00     0.000 A 
ATOM     10  C   UNL     1       0.435  -4.098   0.496  1.00  0.00     0.093 A 
ATOM     11  N   UNL     1      -0.215  -4.564  -0.625  1.00  0.00    -0.351 N 
ATOM     12  C   UNL     1      -0.526  -5.891  -0.479  1.00  0.00     0.049 A 
ATOM     13  H   UNL     1      -0.426  -4.021  -1.419  1.00  0.00     0.167 HD
ATOM     14  C   UNL     1       0.141  -6.343   0.660  1.00  0.00     0.004 A 
ATOM     15  C   UNL     1      -1.360  -6.707  -1.251  1.00  0.00     0.066 A 
ATOM     16  C   UNL     1      -0.031  -7.690   1.045  1.00  0.00     0.013 A 
ATOM     17  C   UNL     1      -1.545  -8.016  -0.813  1.00  0.00     0.125 A 
ATOM     18  C   UNL     1      -0.895  -8.511   0.309  1.00  0.00     0.040 A 
ATOM     19  F   UNL     1      -2.390  -8.811  -1.483  1.00  0.00    -0.207 F 
BRANCH  10  20
ATOM     20  C   UNL     1       0.646  -2.690   0.785  1.00  0.00     0.227 C 
ATOM     21  O   UNL     1       1.432  -2.294   1.644  1.00  0.00    -0.285 OA
BRANCH  20  22
ATOM     22  C   UNL     1      -0.145  -1.664   0.045  1.00  0.00     0.113 A 
ATOM     23  C   UNL     1      -3.490   0.090   0.225  1.00  0.00     0.044 C 
ATOM     24  C   UNL     1      -2.089  -0.284  -0.160  1.00  0.00    -0.047 A 
ATOM     25  C   UNL     1      -1.357   0.532  -1.027  1.00  0.00     0.023 A 
ATOM     26  C   UNL     1      -1.461  -1.400   0.406  1.00  0.00     0.036 A 
ATOM     27  C   UNL     1      -0.065   0.159  -1.360  1.00  0.00     0.112 A 
ATOM     28  N   UNL     1       0.547  -0.939  -0.866  1.00  0.00    -0.253 NA
ENDBRANCH  20  22
ENDBRANCH  10  20
ENDBRANCH   8   9
ENDBRANCH   6   8
ENDBRANCH   5   6
ENDBRANCH   4   5
ENDBRANCH   3   4
ENDBRANCH   2   3
ENDBRANCH   1   2
BRANCH   1  29
ATOM     29  C   UNL     1       3.818  -3.657  -0.635  1.00  0.00     0.188 C 
BRANCH  29  30
ATOM     30  O   UNL     1       4.373  -4.191  -1.832  1.00  0.00    -0.376 OA
BRANCH  30  31
ATOM     31  C   UNL     1       5.417  -3.445  -2.448  1.00  0.00     0.202 C 
BRANCH  31  32
ATOM     32  C   UNL     1       4.978  -2.069  -2.933  1.00  0.00     0.261 C 
BRANCH  32  33
ATOM     33  O   UNL     1       4.796  -1.181  -1.811  1.00  0.00    -0.460 OA
BRANCH  33  34
ATOM     34  C   UNL     1       4.114  -0.058  -2.110  1.00  0.00     0.338 C 
ATOM     35  O   UNL     1       3.750   0.304  -3.216  1.00  0.00    -0.246 OA
BRANCH  34  36
ATOM     36  C   UNL     1       3.816   0.724  -0.892  1.00  0.00     0.060 A 
ATOM     37  C   UNL     1       3.135   0.143   0.176  1.00  0.00     0.016 A 
ATOM     38  C   UNL     1       3.998   2.107  -0.919  1.00  0.00     0.016 A 
ATOM     39  C   UNL     1       2.487   0.949   1.115  1.00  0.00     0.010 A 
ATOM     40  C   UNL     1       3.432   2.905   0.082  1.00  0.00     0.010 A 
ATOM     41  C   UNL     1       2.598   2.345   1.065  1.00  0.00    -0.014 A 
BRANCH  41  42
ATOM     42  C   UNL     1       1.758   3.215   1.944  1.00  0.00     0.031 A 
ATOM     43  C   UNL     1       0.809   4.221   1.329  1.00  0.00     0.074 A 
ATOM     44  C   UNL     1       1.782   3.087   3.286  1.00  0.00     0.049 A 
ATOM     45  N   UNL     1       0.123   5.180   1.902  1.00  0.00    -0.248 NA
ATOM     46  C   UNL     1       0.600   4.135  -0.127  1.00  0.00     0.031 C 
ATOM     47  C   UNL     1       2.568   2.106   4.032  1.00  0.00     0.029 A 
ATOM     48  N   UNL     1       1.117   3.790   4.264  1.00  0.00    -0.354 N 
ATOM     49  C   UNL     1      -0.560   5.830   0.880  1.00  0.00     0.074 A 
ATOM     50  C   UNL     1      -0.202   5.165  -0.354  1.00  0.00     0.031 C 
ATOM     51  C   UNL     1       2.319   2.246   5.343  1.00  0.00     0.029 A 
ATOM     52  C   UNL     1       1.435   3.390   5.540  1.00  0.00     0.049 A 
ATOM     53  H   UNL     1       0.474   4.510   4.069  1.00  0.00     0.167 HD
ATOM     54  C   UNL     1      -1.408   6.884   0.960  1.00  0.00     0.037 A 
ATOM     55  C   UNL     1       1.104   3.915   6.736  1.00  0.00     0.037 A 
ATOM     56  C   UNL     1      -1.787   7.540   2.186  1.00  0.00     0.049 A 
ATOM     57  C   UNL     1       0.245   5.149   6.790  1.00  0.00     0.074 A 
ATOM     58  C   UNL     1      -2.608   8.642   2.359  1.00  0.00     0.029 A 
ATOM     59  N   UNL     1      -1.380   7.146   3.450  1.00  0.00    -0.354 N 
ATOM     60  N   UNL     1      -0.326   5.808   5.812  1.00  0.00    -0.248 NA
ATOM     61  C   UNL     1       0.005   5.726   8.121  1.00  0.00     0.031 C 
ATOM     62  C   UNL     1      -2.665   8.939   3.725  1.00  0.00     0.029 A 
ATOM     63  C   UNL     1      -1.920   7.992   4.407  1.00  0.00     0.049 A 
ATOM     64  H   UNL     1      -0.794   6.378   3.641  1.00  0.00     0.167 HD
ATOM     65  C   UNL     1      -0.997   6.868   6.408  1.00  0.00     0.074 A 
ATOM     66  C   UNL     1      -0.792   6.744   7.835  1.00  0.00     0.031 C 
ATOM     67  C   UNL     1      -1.708   7.863   5.824  1.00  0.00     0.037 A 
BRANCH  54  68
ATOM     68  C   UNL     1      -1.972   7.429  -0.321  1.00  0.00     0.064 A 
ATOM     69  C   UNL     1      -2.988   6.764  -1.022  1.00  0.00     0.173 A 
ATOM     70  C   UNL     1      -1.537   8.669  -0.814  1.00  0.00     0.173 A 
ATOM     71  F   UNL     1      -3.426   5.567  -0.603  1.00  0.00    -0.203 F 
ATOM     72  C   UNL     1      -3.544   7.319  -2.173  1.00  0.00     0.198 A 
ATOM     73  C   UNL     1      -2.111   9.232  -1.950  1.00  0.00     0.198 A 
ATOM     74  F   UNL     1      -0.569   9.347  -0.178  1.00  0.00    -0.203 F 
ATOM     75  F   UNL     1      -4.495   6.654  -2.843  1.00  0.00    -0.200 F 
ATOM     76  C   UNL     1      -3.112   8.556  -2.630  1.00  0.00     0.200 A 
ATOM     77  F   UNL     1      -1.699  10.431  -2.384  1.00  0.00    -0.200 F 
ATOM     78  F   UNL     1      -3.659   9.094  -3.729  1.00  0.00    -0.200 F 
ENDBRANCH  54  68
BRANCH  55  79
ATOM     79  C   UNL     1       1.648   3.321   7.987  1.00  0.00     0.064 A 
ATOM     80  C   UNL     1       0.804   2.737   8.941  1.00  0.00     0.173 A 
ATOM     81  C   UNL     1       3.022   3.360   8.271  1.00  0.00     0.173 A 
ATOM     82  F   UNL     1      -0.521   2.708   8.735  1.00  0.00    -0.203 F 
ATOM     83  C   UNL     1       1.311   2.232  10.137  1.00  0.00     0.198 A 
ATOM     84  C   UNL     1       3.532   2.820   9.448  1.00  0.00     0.198 A 
ATOM     85  F   UNL     1       3.873   3.920   7.398  1.00  0.00    -0.203 F 
ATOM     86  F   UNL     1       0.475   1.736  11.060  1.00  0.00    -0.200 F 
ATOM     87  C   UNL     1       2.675   2.266  10.386  1.00  0.00     0.200 A 
ATOM     88  F   UNL     1       4.852   2.846   9.678  1.00  0.00    -0.200 F 
ATOM     89  F   UNL     1       3.161   1.779  11.535  1.00  0.00    -0.200 F 
ENDBRANCH  55  79
BRANCH  67  90
ATOM     90  C   UNL     1      -2.333   8.877   6.737  1.00  0.00     0.064 A 
ATOM     91  C   UNL     1      -1.556   9.818   7.431  1.00  0.00     0.173 A 
ATOM     92  C   UNL     1      -3.722   8.901   6.932  1.00  0.00     0.173 A 
ATOM     93  F   UNL     1      -0.222   9.825   7.292  1.00  0.00    -0.203 F 
ATOM     94  C   UNL     1      -2.143  10.715   8.320  1.00  0.00     0.198 A 
ATOM     95  C   UNL     1      -4.309   9.821   7.798  1.00  0.00     0.198 A 
ATOM     96  F   UNL     1      -4.511   8.030   6.286  1.00  0.00    -0.203 F 
ATOM     97  F   UNL     1      -1.374  11.559   9.022  1.00  0.00    -0.200 F 
ATOM     98  C   UNL     1      -3.518  10.717   8.500  1.00  0.00     0.200 A 
ATOM     99  F   UNL     1      -5.638   9.829   7.963  1.00  0.00    -0.200 F 
ATOM    100  F   UNL     1      -4.080  11.575   9.363  1.00  0.00    -0.200 F 
ENDBRANCH  67  90
ENDBRANCH  41  42
ENDBRANCH  34  36
ENDBRANCH  33  34
ENDBRANCH  32  33
ENDBRANCH  31  32
ENDBRANCH  30  31
ENDBRANCH  29  30
ENDBRANCH   1  29
TORSDOF 20
