REMARK SMILES O=C(OCCOCCOCCOC(=O)[C@H]1C[C@](O)(c2ccc(F)cc2)[C@@H](c2ccc(F)cc2)O1)c1ccc(-c2c3nc(c(-c4c(F)c(F)c(F)c(F)c4F)c4ccc([nH]4)c(-c4c(F)c(F)c(F)c(F)c4F)c4nc(c(-c5c(F)c(F)c(F)c(F)c5F)c5ccc2[nH]5)C=C4)C=C3)cc1
REMARK SMILES IDX 7 1 6 2 5 3 4 4 3 5 2 6 1 7 35 8 36 9 97 10 37 11 96 12
REMARK SMILES IDX 38 13 39 14 40 15 90 16 41 17 95 18 89 19 91 20 42 21 94 22
REMARK SMILES IDX 88 23 87 24 43 26 75 27 55 28 74 29 56 30 59 31 73 32 92 33
REMARK SMILES IDX 57 34 58 35 72 37 93 38 60 39 44 40 45 41 53 42 46 43 47 44
REMARK SMILES IDX 51 45 54 46 48 47 49 48 52 49 50 50 76 51 77 52 85 53 78 54
REMARK SMILES IDX 79 55 83 56 86 57 80 58 81 59 84 60 82 61 61 62 62 63 70 64
REMARK SMILES IDX 63 65 64 66 68 67 71 68 65 69 66 70 69 71 67 72 8 73 9 74
REMARK SMILES IDX 10 75 11 76 12 77 13 78 14 79 15 80 16 81 34 82 17 83 26 84
REMARK SMILES IDX 19 85 20 86 25 87 21 88 24 89 22 90 23 91 18 92 27 94 28 95
REMARK SMILES IDX 33 96 29 97 32 98 30 99 31 100
REMARK H PARENT 91 25 59 36 18 93
REMARK Flexibility Score: inf
ROOT
ATOM      1  C   UNL     1       4.102  -0.460  -1.817  1.00  0.00     0.188 C 
ENDROOT
BRANCH   1   2
ATOM      2  O   UNL     1       3.348  -1.012  -2.907  1.00  0.00    -0.376 OA
BRANCH   2   3
ATOM      3  C   UNL     1       3.143  -0.083  -3.982  1.00  0.00     0.202 C 
BRANCH   3   4
ATOM      4  C   UNL     1       2.178   1.087  -3.712  1.00  0.00     0.261 C 
BRANCH   4   5
ATOM      5  O   UNL     1       2.055   1.434  -2.329  1.00  0.00    -0.460 OA
BRANCH   5   6
ATOM      6  C   UNL     1       1.234   0.900  -1.396  1.00  0.00     0.338 C 
ATOM      7  O   UNL     1       1.311   1.337  -0.248  1.00  0.00    -0.246 OA
BRANCH   6   8
ATOM      8  C   UNL     1       0.239  -0.191  -1.662  1.00  0.00     0.060 A 
ATOM      9  C   UNL     1       0.194  -1.047  -2.770  1.00  0.00     0.016 A 
ATOM     10  C   UNL     1      -0.720  -0.391  -0.665  1.00  0.00     0.016 A 
ATOM     11  C   UNL     1      -0.781  -2.043  -2.920  1.00  0.00     0.010 A 
ATOM     12  C   UNL     1      -1.674  -1.401  -0.795  1.00  0.00     0.010 A 
ATOM     13  C   UNL     1      -1.716  -2.253  -1.925  1.00  0.00    -0.014 A 
BRANCH  13  14
ATOM     14  C   UNL     1      -2.851  -3.212  -2.031  1.00  0.00     0.031 A 
ATOM     15  C   UNL     1      -4.202  -2.580  -1.998  1.00  0.00     0.074 A 
ATOM     16  C   UNL     1      -2.739  -4.556  -2.151  1.00  0.00     0.049 A 
ATOM     17  N   UNL     1      -5.362  -3.141  -1.844  1.00  0.00    -0.248 NA
ATOM     18  C   UNL     1      -4.264  -1.125  -2.262  1.00  0.00     0.031 C 
ATOM     19  C   UNL     1      -1.612  -5.278  -2.717  1.00  0.00     0.029 A 
ATOM     20  N   UNL     1      -3.562  -5.588  -1.759  1.00  0.00    -0.354 N 
ATOM     21  C   UNL     1      -6.279  -2.136  -2.086  1.00  0.00     0.074 A 
ATOM     22  C   UNL     1      -5.566  -0.896  -2.242  1.00  0.00     0.031 C 
ATOM     23  C   UNL     1      -1.668  -6.586  -2.404  1.00  0.00     0.029 A 
ATOM     24  C   UNL     1      -2.917  -6.823  -1.706  1.00  0.00     0.049 A 
ATOM     25  H   UNL     1      -4.513  -5.465  -1.538  1.00  0.00     0.167 HD
ATOM     26  C   UNL     1      -7.603  -2.297  -2.268  1.00  0.00     0.037 A 
ATOM     27  C   UNL     1      -3.330  -7.996  -1.170  1.00  0.00     0.037 A 
ATOM     28  C   UNL     1      -8.230  -3.578  -2.121  1.00  0.00     0.049 A 
ATOM     29  C   UNL     1      -4.801  -8.037  -0.884  1.00  0.00     0.074 A 
ATOM     30  C   UNL     1      -9.555  -3.912  -2.284  1.00  0.00     0.029 A 
ATOM     31  N   UNL     1      -7.550  -4.742  -1.760  1.00  0.00    -0.354 N 
ATOM     32  N   UNL     1      -5.678  -7.079  -1.072  1.00  0.00    -0.248 NA
ATOM     33  C   UNL     1      -5.375  -9.318  -0.470  1.00  0.00     0.031 C 
ATOM     34  C   UNL     1      -9.691  -5.260  -1.943  1.00  0.00     0.029 A 
ATOM     35  C   UNL     1      -8.443  -5.784  -1.623  1.00  0.00     0.049 A 
ATOM     36  H   UNL     1      -6.577  -4.808  -1.622  1.00  0.00     0.167 HD
ATOM     37  C   UNL     1      -6.915  -7.666  -0.942  1.00  0.00     0.074 A 
ATOM     38  C   UNL     1      -6.673  -9.047  -0.553  1.00  0.00     0.031 C 
ATOM     39  C   UNL     1      -8.130  -7.134  -1.211  1.00  0.00     0.037 A 
BRANCH  26  40
ATOM     40  C   UNL     1      -8.399  -1.092  -2.654  1.00  0.00     0.064 A 
ATOM     41  C   UNL     1      -9.279  -0.502  -1.740  1.00  0.00     0.173 A 
ATOM     42  C   UNL     1      -8.282  -0.508  -3.927  1.00  0.00     0.173 A 
ATOM     43  F   UNL     1      -9.403  -1.005  -0.503  1.00  0.00    -0.203 F 
ATOM     44  C   UNL     1     -10.029   0.618  -2.089  1.00  0.00     0.198 A 
ATOM     45  C   UNL     1      -9.018   0.624  -4.266  1.00  0.00     0.198 A 
ATOM     46  F   UNL     1      -7.420  -1.009  -4.826  1.00  0.00    -0.203 F 
ATOM     47  F   UNL     1     -10.873   1.160  -1.201  1.00  0.00    -0.200 F 
ATOM     48  C   UNL     1      -9.897   1.181  -3.351  1.00  0.00     0.200 A 
ATOM     49  F   UNL     1      -8.862   1.188  -5.473  1.00  0.00    -0.200 F 
ATOM     50  F   UNL     1     -10.610   2.267  -3.679  1.00  0.00    -0.200 F 
ENDBRANCH  26  40
BRANCH  27  51
ATOM     51  C   UNL     1      -2.480  -9.223  -1.015  1.00  0.00     0.064 A 
ATOM     52  C   UNL     1      -1.921  -9.580   0.224  1.00  0.00     0.173 A 
ATOM     53  C   UNL     1      -2.276 -10.135  -2.056  1.00  0.00     0.173 A 
ATOM     54  F   UNL     1      -2.280  -8.921   1.328  1.00  0.00    -0.203 F 
ATOM     55  C   UNL     1      -1.079 -10.686   0.385  1.00  0.00     0.198 A 
ATOM     56  C   UNL     1      -1.498 -11.290  -1.882  1.00  0.00     0.198 A 
ATOM     57  F   UNL     1      -2.881  -9.941  -3.235  1.00  0.00    -0.203 F 
ATOM     58  F   UNL     1      -0.513 -10.933   1.576  1.00  0.00    -0.200 F 
ATOM     59  C   UNL     1      -0.868 -11.545  -0.673  1.00  0.00     0.200 A 
ATOM     60  F   UNL     1      -1.380 -12.174  -2.882  1.00  0.00    -0.200 F 
ATOM     61  F   UNL     1      -0.104 -12.636  -0.516  1.00  0.00    -0.200 F 
ENDBRANCH  27  51
BRANCH  39  62
ATOM     62  C   UNL     1      -9.288  -8.064  -1.118  1.00  0.00     0.064 A 
ATOM     63  C   UNL     1      -9.948  -8.467  -2.288  1.00  0.00     0.173 A 
ATOM     64  C   UNL     1      -9.823  -8.421   0.122  1.00  0.00     0.173 A 
ATOM     65  F   UNL     1      -9.459  -8.135  -3.493  1.00  0.00    -0.203 F 
ATOM     66  C   UNL     1     -11.150  -9.153  -2.213  1.00  0.00     0.198 A 
ATOM     67  C   UNL     1     -11.007  -9.140   0.191  1.00  0.00     0.198 A 
ATOM     68  F   UNL     1      -9.196  -8.071   1.255  1.00  0.00    -0.203 F 
ATOM     69  F   UNL     1     -11.812  -9.463  -3.336  1.00  0.00    -0.200 F 
ATOM     70  C   UNL     1     -11.680  -9.485  -0.974  1.00  0.00     0.200 A 
ATOM     71  F   UNL     1     -11.507  -9.484   1.384  1.00  0.00    -0.200 F 
ATOM     72  F   UNL     1     -12.850 -10.133  -0.902  1.00  0.00    -0.200 F 
ENDBRANCH  39  62
ENDBRANCH  13  14
ENDBRANCH   6   8
ENDBRANCH   5   6
ENDBRANCH   4   5
ENDBRANCH   3   4
ENDBRANCH   2   3
ENDBRANCH   1   2
BRANCH   1  73
ATOM     73  C   UNL     1       5.215  -1.364  -1.280  1.00  0.00     0.188 C 
BRANCH  73  74
ATOM     74  O   UNL     1       6.305  -1.653  -2.151  1.00  0.00    -0.376 OA
BRANCH  74  75
ATOM     75  C   UNL     1       5.994  -2.187  -3.429  1.00  0.00     0.202 C 
BRANCH  75  76
ATOM     76  C   UNL     1       5.365  -3.583  -3.492  1.00  0.00     0.261 C 
BRANCH  76  77
ATOM     77  O   UNL     1       4.500  -3.910  -2.392  1.00  0.00    -0.461 OA
BRANCH  77  78
ATOM     78  C   UNL     1       4.905  -4.924  -1.581  1.00  0.00     0.335 C 
ATOM     79  O   UNL     1       5.968  -5.532  -1.714  1.00  0.00    -0.249 OA
BRANCH  78  80
ATOM     80  C   UNL     1       3.881  -5.288  -0.486  1.00  0.00     0.232 C 
ATOM     81  C   UNL     1       2.684  -4.373  -0.297  1.00  0.00     0.087 C 
ATOM     82  O   UNL     1       3.361  -6.614  -0.682  1.00  0.00    -0.355 OA
ATOM     83  C   UNL     1       1.491  -5.152  -0.837  1.00  0.00     0.123 C 
ATOM     84  C   UNL     1       2.109  -6.486  -1.382  1.00  0.00     0.186 C 
BRANCH  83  85
ATOM     85  C   UNL     1       0.363  -5.221   0.211  1.00  0.00    -0.013 A 
ATOM     86  C   UNL     1      -0.283  -4.018   0.569  1.00  0.00     0.010 A 
ATOM     87  C   UNL     1      -0.116  -6.384   0.826  1.00  0.00     0.010 A 
ATOM     88  C   UNL     1      -1.438  -3.983   1.358  1.00  0.00     0.039 A 
ATOM     89  C   UNL     1      -1.244  -6.335   1.667  1.00  0.00     0.039 A 
ATOM     90  C   UNL     1      -1.937  -5.156   1.869  1.00  0.00     0.123 A 
ATOM     91  F   UNL     1      -3.071  -5.154   2.580  1.00  0.00    -0.207 F 
ENDBRANCH  83  85
BRANCH  83  92
ATOM     92  O   UNL     1       0.965  -4.345  -1.887  1.00  0.00    -0.382 OA
ATOM     93  H   UNL     1       1.628  -4.257  -2.590  1.00  0.00     0.212 HD
ENDBRANCH  83  92
BRANCH  84  94
ATOM     94  C   UNL     1       2.409  -6.710  -2.877  1.00  0.00    -0.016 A 
ATOM     95  C   UNL     1       2.588  -5.682  -3.821  1.00  0.00     0.009 A 
ATOM     96  C   UNL     1       2.612  -8.031  -3.330  1.00  0.00     0.009 A 
ATOM     97  C   UNL     1       2.971  -5.946  -5.140  1.00  0.00     0.039 A 
ATOM     98  C   UNL     1       2.995  -8.299  -4.652  1.00  0.00     0.039 A 
ATOM     99  C   UNL     1       3.182  -7.252  -5.542  1.00  0.00     0.123 A 
ATOM    100  F   UNL     1       3.588  -7.499  -6.793  1.00  0.00    -0.207 F 
ENDBRANCH  84  94
ENDBRANCH  78  80
ENDBRANCH  77  78
ENDBRANCH  76  77
ENDBRANCH  75  76
ENDBRANCH  74  75
ENDBRANCH  73  74
ENDBRANCH   1  73
TORSDOF 20
