REMARK SMILES O=C(CCS(=O)(=O)c1ccc2[nH]c(=O)oc2c1)OCCOCCOCCOC(=O)c1ccc(-c2c3nc(c(-c4c(F)c(F)c(F)c(F)c4F)c4ccc([nH]4)c(-c4c(F)c(F)c(F)c(F)c4F)c4nc(c(-c5c(F)c(F)c(F)c(F)c5F)c5ccc2[nH]5)C=C4)C=C3)cc1
REMARK SMILES IDX 22 1 21 2 20 3 19 4 18 5 2 6 1 7 3 8 4 9 5 10 6 11 7 12 8 13
REMARK SMILES IDX 9 14 17 15 10 16 16 17 11 18 15 19 12 20 13 21 14 23 23 24
REMARK SMILES IDX 24 25 25 26 26 27 27 28 28 29 29 30 30 31 31 32 92 33 32 34
REMARK SMILES IDX 91 35 33 36 34 37 35 38 85 39 36 40 90 41 84 42 86 43 37 44
REMARK SMILES IDX 89 45 83 46 82 47 38 49 70 50 50 51 69 52 51 53 54 54 68 55
REMARK SMILES IDX 87 56 52 57 53 58 67 60 88 61 55 62 39 63 40 64 48 65 41 66
REMARK SMILES IDX 42 67 46 68 49 69 43 70 44 71 47 72 45 73 71 74 72 75 80 76
REMARK SMILES IDX 73 77 74 78 78 79 81 80 75 81 76 82 79 83 77 84 56 85 57 86
REMARK SMILES IDX 65 87 58 88 59 89 63 90 66 91 60 92 61 93 64 94 62 95
REMARK H PARENT 12 22 86 48 54 59
REMARK Flexibility Score: inf
ROOT
ATOM      1  C   UNL     1       2.506   1.500   1.687  1.00  0.00     0.188 C 
ENDROOT
BRANCH   1   2
ATOM      2  O   UNL     1       3.760   1.221   2.308  1.00  0.00    -0.376 OA
BRANCH   2   3
ATOM      3  C   UNL     1       4.948   1.312   1.534  1.00  0.00     0.202 C 
BRANCH   3   4
ATOM      4  C   UNL     1       5.052   0.477   0.262  1.00  0.00     0.261 C 
BRANCH   4   5
ATOM      5  O   UNL     1       3.821   0.267  -0.454  1.00  0.00    -0.463 OA
BRANCH   5   6
ATOM      6  C   UNL     1       3.069  -0.850  -0.371  1.00  0.00     0.306 C 
ATOM      7  O   UNL     1       2.006  -0.951  -0.978  1.00  0.00    -0.252 OA
BRANCH   6   8
ATOM      8  C   UNL     1       3.579  -1.975   0.467  1.00  0.00     0.139 C 
BRANCH   8   9
ATOM      9  C   UNL     1       4.292  -3.053  -0.323  1.00  0.00     0.154 C 
BRANCH   9  10
ATOM     10  S   UNL     1       5.412  -2.617  -1.637  1.00  0.00     0.179 S 
ATOM     11  O   UNL     1       6.448  -1.761  -1.092  1.00  0.00    -0.224 OA
ATOM     12  O   UNL     1       5.785  -3.854  -2.296  1.00  0.00    -0.224 OA
BRANCH  10  13
ATOM     13  C   UNL     1       4.519  -1.677  -2.856  1.00  0.00     0.071 A 
ATOM     14  C   UNL     1       4.903  -0.344  -3.151  1.00  0.00     0.023 A 
ATOM     15  C   UNL     1       3.442  -2.285  -3.510  1.00  0.00     0.069 A 
ATOM     16  C   UNL     1       4.165   0.426  -4.056  1.00  0.00     0.031 A 
ATOM     17  C   UNL     1       2.759  -1.512  -4.423  1.00  0.00     0.157 A 
ATOM     18  C   UNL     1       3.109  -0.200  -4.673  1.00  0.00     0.087 A 
ATOM     19  O   UNL     1       1.685  -1.930  -5.191  1.00  0.00    -0.408 OA
ATOM     20  N   UNL     1       2.241   0.252  -5.623  1.00  0.00    -0.287 N 
ATOM     21  C   UNL     1       1.399  -0.787  -5.951  1.00  0.00     0.417 A 
ATOM     22  H   UNL     1       2.221   1.158  -6.006  1.00  0.00     0.173 HD
ATOM     23  O   UNL     1       0.526  -0.734  -6.800  1.00  0.00    -0.224 OA
ENDBRANCH  10  13
ENDBRANCH   9  10
ENDBRANCH   8   9
ENDBRANCH   6   8
ENDBRANCH   5   6
ENDBRANCH   4   5
ENDBRANCH   3   4
ENDBRANCH   2   3
ENDBRANCH   1   2
BRANCH   1  24
ATOM     24  C   UNL     1       2.340   2.705   0.737  1.00  0.00     0.188 C 
BRANCH  24  25
ATOM     25  O   UNL     1       3.521   3.014   0.010  1.00  0.00    -0.376 OA
BRANCH  25  26
ATOM     26  C   UNL     1       3.946   4.369   0.075  1.00  0.00     0.202 C 
BRANCH  26  27
ATOM     27  C   UNL     1       4.498   4.893   1.423  1.00  0.00     0.261 C 
BRANCH  27  28
ATOM     28  O   UNL     1       4.064   4.205   2.610  1.00  0.00    -0.460 OA
BRANCH  28  29
ATOM     29  C   UNL     1       2.966   4.689   3.231  1.00  0.00     0.338 C 
ATOM     30  O   UNL     1       2.300   5.649   2.881  1.00  0.00    -0.246 OA
BRANCH  29  31
ATOM     31  C   UNL     1       2.551   3.762   4.311  1.00  0.00     0.060 A 
ATOM     32  C   UNL     1       1.227   3.301   4.304  1.00  0.00     0.016 A 
ATOM     33  C   UNL     1       3.422   3.370   5.331  1.00  0.00     0.016 A 
ATOM     34  C   UNL     1       0.767   2.456   5.315  1.00  0.00     0.010 A 
ATOM     35  C   UNL     1       2.946   2.562   6.375  1.00  0.00     0.010 A 
ATOM     36  C   UNL     1       1.607   2.130   6.387  1.00  0.00    -0.014 A 
BRANCH  36  37
ATOM     37  C   UNL     1       0.990   1.599   7.630  1.00  0.00     0.031 A 
ATOM     38  C   UNL     1       0.513   2.601   8.648  1.00  0.00     0.074 A 
ATOM     39  C   UNL     1       0.794   0.285   7.837  1.00  0.00     0.049 A 
ATOM     40  N   UNL     1      -0.091   2.412   9.793  1.00  0.00    -0.248 NA
ATOM     41  C   UNL     1       0.750   4.017   8.320  1.00  0.00     0.031 C 
ATOM     42  C   UNL     1       1.159  -0.783   6.912  1.00  0.00     0.029 A 
ATOM     43  N   UNL     1       0.229  -0.371   8.905  1.00  0.00    -0.354 N 
ATOM     44  C   UNL     1      -0.306   3.680  10.317  1.00  0.00     0.074 A 
ATOM     45  C   UNL     1       0.262   4.629   9.386  1.00  0.00     0.031 C 
ATOM     46  C   UNL     1       0.810  -1.965   7.453  1.00  0.00     0.029 A 
ATOM     47  C   UNL     1       0.221  -1.738   8.774  1.00  0.00     0.049 A 
ATOM     48  H   UNL     1      -0.137   0.096   9.691  1.00  0.00     0.167 HD
ATOM     49  C   UNL     1      -0.928   4.028  11.468  1.00  0.00     0.037 A 
ATOM     50  C   UNL     1      -0.205  -2.689   9.629  1.00  0.00     0.037 A 
ATOM     51  C   UNL     1      -1.477   3.084  12.404  1.00  0.00     0.049 A 
ATOM     52  C   UNL     1      -0.810  -2.280  10.952  1.00  0.00     0.074 A 
ATOM     53  C   UNL     1      -2.136   3.333  13.595  1.00  0.00     0.029 A 
ATOM     54  N   UNL     1      -1.412   1.705  12.263  1.00  0.00    -0.354 N 
ATOM     55  N   UNL     1      -1.046  -1.079  11.425  1.00  0.00    -0.248 NA
ATOM     56  C   UNL     1      -1.215  -3.365  11.859  1.00  0.00     0.031 C 
ATOM     57  C   UNL     1      -2.408   2.106  14.208  1.00  0.00     0.029 A 
ATOM     58  C   UNL     1      -1.988   1.090  13.363  1.00  0.00     0.049 A 
ATOM     59  H   UNL     1      -1.016   1.234  11.495  1.00  0.00     0.167 HD
ATOM     60  C   UNL     1      -1.663  -1.264  12.657  1.00  0.00     0.074 A 
ATOM     61  C   UNL     1      -1.774  -2.694  12.855  1.00  0.00     0.031 C 
ATOM     62  C   UNL     1      -2.104  -0.335  13.543  1.00  0.00     0.037 A 
BRANCH  49  63
ATOM     63  C   UNL     1      -1.000   5.492  11.796  1.00  0.00     0.064 A 
ATOM     64  C   UNL     1      -1.788   6.383  11.052  1.00  0.00     0.173 A 
ATOM     65  C   UNL     1      -0.267   6.010  12.874  1.00  0.00     0.173 A 
ATOM     66  F   UNL     1      -2.494   5.944   9.999  1.00  0.00    -0.203 F 
ATOM     67  C   UNL     1      -1.809   7.743  11.351  1.00  0.00     0.198 A 
ATOM     68  C   UNL     1      -0.319   7.364  13.194  1.00  0.00     0.198 A 
ATOM     69  F   UNL     1       0.503   5.203  13.620  1.00  0.00    -0.203 F 
ATOM     70  F   UNL     1      -2.518   8.585  10.586  1.00  0.00    -0.200 F 
ATOM     71  C   UNL     1      -1.081   8.231  12.426  1.00  0.00     0.200 A 
ATOM     72  F   UNL     1       0.375   7.830  14.241  1.00  0.00    -0.200 F 
ATOM     73  F   UNL     1      -1.104   9.539  12.714  1.00  0.00    -0.200 F 
ENDBRANCH  49  63
BRANCH  50  74
ATOM     74  C   UNL     1      -0.083  -4.131   9.275  1.00  0.00     0.064 A 
ATOM     75  C   UNL     1      -1.221  -4.928   9.079  1.00  0.00     0.173 A 
ATOM     76  C   UNL     1       1.170  -4.753   9.168  1.00  0.00     0.173 A 
ATOM     77  F   UNL     1      -2.444  -4.390   9.201  1.00  0.00    -0.203 F 
ATOM     78  C   UNL     1      -1.111  -6.292   8.815  1.00  0.00     0.198 A 
ATOM     79  C   UNL     1       1.279  -6.110   8.872  1.00  0.00     0.198 A 
ATOM     80  F   UNL     1       2.291  -4.041   9.353  1.00  0.00    -0.203 F 
ATOM     81  F   UNL     1      -2.216  -7.040   8.691  1.00  0.00    -0.200 F 
ATOM     82  C   UNL     1       0.139  -6.881   8.706  1.00  0.00     0.200 A 
ATOM     83  F   UNL     1       2.490  -6.673   8.757  1.00  0.00    -0.200 F 
ATOM     84  F   UNL     1       0.245  -8.193   8.452  1.00  0.00    -0.200 F 
ENDBRANCH  50  74
BRANCH  62  85
ATOM     85  C   UNL     1      -2.800  -0.829  14.782  1.00  0.00     0.064 A 
ATOM     86  C   UNL     1      -2.117  -1.515  15.798  1.00  0.00     0.173 A 
ATOM     87  C   UNL     1      -4.169  -0.579  14.970  1.00  0.00     0.173 A 
ATOM     88  F   UNL     1      -0.811  -1.790  15.668  1.00  0.00    -0.203 F 
ATOM     89  C   UNL     1      -2.786  -1.965  16.935  1.00  0.00     0.198 A 
ATOM     90  C   UNL     1      -4.826  -0.996  16.125  1.00  0.00     0.198 A 
ATOM     91  F   UNL     1      -4.870   0.083  14.037  1.00  0.00    -0.203 F 
ATOM     92  F   UNL     1      -2.126  -2.672  17.862  1.00  0.00    -0.200 F 
ATOM     93  C   UNL     1      -4.137  -1.699  17.100  1.00  0.00     0.200 A 
ATOM     94  F   UNL     1      -6.126  -0.718  16.291  1.00  0.00    -0.200 F 
ATOM     95  F   UNL     1      -4.777  -2.127  18.197  1.00  0.00    -0.200 F 
ENDBRANCH  62  85
ENDBRANCH  36  37
ENDBRANCH  29  31
ENDBRANCH  28  29
ENDBRANCH  27  28
ENDBRANCH  26  27
ENDBRANCH  25  26
ENDBRANCH  24  25
ENDBRANCH   1  24
TORSDOF 20
