REMARK SMILES Cc1c(CC(=O)OCCOCCOCCOC(=O)c2ccc(-c3c4nc(c(-c5c(F)c(F)c(F)c(F)c5F)c5ccc([nH]5)c(-c5c(F)c(F)c(F)c(F)c5F)c5nc(c(-c6c(F)c(F)c(F)c(F)c6F)c6ccc3[nH]6)C=C5)C=C4)cc2)cc(-c2ccc(S(C)(=O)=O)cc2)n1-c1cccc(F)c1
REMARK SMILES IDX 11 1 10 2 9 3 8 4 7 5 5 6 6 7 4 8 3 9 1 10 2 11 94 12 82 13
REMARK SMILES IDX 83 14 95 15 96 16 101 17 97 18 99 19 98 20 100 21 84 22
REMARK SMILES IDX 85 23 93 24 86 25 92 26 87 27 88 28 89 29 90 30 91 31 12 32
REMARK SMILES IDX 13 33 14 34 15 35 16 36 17 37 18 38 19 39 20 40 81 41 21 42
REMARK SMILES IDX 80 43 22 44 23 45 24 46 74 47 25 48 79 49 73 50 75 51 26 52
REMARK SMILES IDX 78 53 72 54 71 55 27 57 59 58 39 59 58 60 40 61 43 62 57 63
REMARK SMILES IDX 76 64 41 65 42 66 56 68 77 69 44 70 28 71 29 72 37 73 30 74
REMARK SMILES IDX 31 75 35 76 38 77 32 78 33 79 36 80 34 81 60 82 61 83 69 84
REMARK SMILES IDX 62 85 63 86 67 87 70 88 64 89 65 90 68 91 66 92 45 93 46 94
REMARK SMILES IDX 54 95 47 96 48 97 52 98 55 99 49 100 50 101 53 102 51 103
REMARK H PARENT 75 56 43 67
REMARK Flexibility Score: inf
ROOT
ATOM      1  C   UNL     1       2.514  -2.603   0.498  1.00  0.00     0.188 C 
ENDROOT
BRANCH   1   2
ATOM      2  O   UNL     1       3.410  -3.572  -0.021  1.00  0.00    -0.376 OA
BRANCH   2   3
ATOM      3  C   UNL     1       3.924  -3.412  -1.337  1.00  0.00     0.202 C 
BRANCH   3   4
ATOM      4  C   UNL     1       2.933  -3.479  -2.503  1.00  0.00     0.261 C 
BRANCH   4   5
ATOM      5  O   UNL     1       1.899  -2.474  -2.439  1.00  0.00    -0.463 OA
BRANCH   5   6
ATOM      6  C   UNL     1       0.626  -2.936  -2.539  1.00  0.00     0.310 C 
ATOM      7  O   UNL     1       0.337  -4.125  -2.664  1.00  0.00    -0.252 OA
BRANCH   6   8
ATOM      8  C   UNL     1      -0.469  -1.895  -2.431  1.00  0.00     0.160 C 
BRANCH   8   9
ATOM      9  C   UNL     1      -0.122  -0.432  -2.449  1.00  0.00    -0.015 A 
ATOM     10  C   UNL     1      -0.327   0.243   0.077  1.00  0.00     0.065 C 
ATOM     11  C   UNL     1      -0.033   0.450  -1.373  1.00  0.00     0.024 A 
ATOM     12  N   UNL     1       0.308   1.701  -1.869  1.00  0.00    -0.313 N 
ATOM     13  C   UNL     1      -0.050   0.380  -3.620  1.00  0.00     0.033 A 
ATOM     14  C   UNL     1       0.098   1.704  -3.240  1.00  0.00     0.053 A 
BRANCH  12  15
ATOM     15  C   UNL     1       0.828   2.782  -1.116  1.00  0.00     0.049 A 
ATOM     16  C   UNL     1       0.129   3.991  -1.031  1.00  0.00     0.027 A 
ATOM     17  C   UNL     1       2.121   2.661  -0.597  1.00  0.00     0.065 A 
ATOM     18  C   UNL     1       0.732   5.090  -0.416  1.00  0.00     0.005 A 
ATOM     19  C   UNL     1       2.712   3.773  -0.011  1.00  0.00     0.125 A 
ATOM     20  C   UNL     1       2.032   4.984   0.085  1.00  0.00     0.039 A 
ATOM     21  F   UNL     1       3.972   3.690   0.438  1.00  0.00    -0.207 F 
ENDBRANCH  12  15
BRANCH  14  22
ATOM     22  C   UNL     1       0.086   2.906  -4.071  1.00  0.00    -0.001 A 
ATOM     23  C   UNL     1       1.257   3.637  -4.311  1.00  0.00     0.011 A 
ATOM     24  C   UNL     1      -1.131   3.364  -4.596  1.00  0.00     0.011 A 
ATOM     25  C   UNL     1       1.212   4.820  -5.052  1.00  0.00     0.021 A 
ATOM     26  C   UNL     1      -1.185   4.547  -5.336  1.00  0.00     0.021 A 
ATOM     27  C   UNL     1      -0.012   5.273  -5.553  1.00  0.00     0.067 A 
BRANCH  27  28
ATOM     28  S   UNL     1      -0.060   6.760  -6.524  1.00  0.00     0.175 S 
ATOM     29  C   UNL     1       0.386   8.044  -5.385  1.00  0.00     0.163 C 
ATOM     30  O   UNL     1       0.998   6.647  -7.517  1.00  0.00    -0.224 OA
ATOM     31  O   UNL     1      -1.432   6.987  -6.921  1.00  0.00    -0.224 OA
ENDBRANCH  27  28
ENDBRANCH  14  22
ENDBRANCH   8   9
ENDBRANCH   6   8
ENDBRANCH   5   6
ENDBRANCH   4   5
ENDBRANCH   3   4
ENDBRANCH   2   3
ENDBRANCH   1   2
BRANCH   1  32
ATOM     32  C   UNL     1       2.747  -1.109   0.240  1.00  0.00     0.188 C 
BRANCH  32  33
ATOM     33  O   UNL     1       4.043  -0.632  -0.053  1.00  0.00    -0.376 OA
BRANCH  33  34
ATOM     34  C   UNL     1       5.051  -0.733   0.949  1.00  0.00     0.202 C 
BRANCH  34  35
ATOM     35  C   UNL     1       4.774  -0.024   2.299  1.00  0.00     0.261 C 
BRANCH  35  36
ATOM     36  O   UNL     1       4.584  -0.891   3.476  1.00  0.00    -0.460 OA
BRANCH  36  37
ATOM     37  C   UNL     1       3.671  -0.458   4.408  1.00  0.00     0.338 C 
ATOM     38  O   UNL     1       2.793   0.362   4.167  1.00  0.00    -0.246 OA
BRANCH  37  39
ATOM     39  C   UNL     1       3.811  -1.039   5.816  1.00  0.00     0.060 A 
ATOM     40  C   UNL     1       2.855  -1.923   6.308  1.00  0.00     0.016 A 
ATOM     41  C   UNL     1       4.675  -0.496   6.789  1.00  0.00     0.016 A 
ATOM     42  C   UNL     1       2.804  -2.277   7.705  1.00  0.00     0.010 A 
ATOM     43  C   UNL     1       4.587  -0.820   8.217  1.00  0.00     0.010 A 
ATOM     44  C   UNL     1       3.644  -1.728   8.739  1.00  0.00    -0.014 A 
BRANCH  44  45
ATOM     45  C   UNL     1       3.087  -1.775  10.257  1.00  0.00     0.031 A 
ATOM     46  C   UNL     1       1.673  -1.316  10.109  1.00  0.00     0.074 A 
ATOM     47  C   UNL     1       3.469  -2.025  11.582  1.00  0.00     0.049 A 
ATOM     48  N   UNL     1       1.375  -0.174   9.549  1.00  0.00    -0.248 NA
ATOM     49  C   UNL     1       0.549  -2.244  10.251  1.00  0.00     0.031 C 
ATOM     50  C   UNL     1       4.803  -2.402  12.080  1.00  0.00     0.029 A 
ATOM     51  N   UNL     1       2.748  -2.017  12.831  1.00  0.00    -0.354 N 
ATOM     52  C   UNL     1       0.003  -0.108   9.561  1.00  0.00     0.074 A 
ATOM     53  C   UNL     1      -0.433  -1.481   9.765  1.00  0.00     0.031 C 
ATOM     54  C   UNL     1       4.790  -2.689  13.416  1.00  0.00     0.029 A 
ATOM     55  C   UNL     1       3.464  -2.480  14.000  1.00  0.00     0.049 A 
ATOM     56  H   UNL     1       1.813  -1.712  12.886  1.00  0.00     0.167 HD
ATOM     57  C   UNL     1      -0.541   1.024  10.094  1.00  0.00     0.037 A 
ATOM     58  C   UNL     1       3.087  -2.629  15.338  1.00  0.00     0.037 A 
ATOM     59  C   UNL     1      -1.069   0.814  11.412  1.00  0.00     0.049 A 
ATOM     60  C   UNL     1       1.888  -1.815  15.574  1.00  0.00     0.074 A 
ATOM     61  C   UNL     1      -1.857  -0.173  11.968  1.00  0.00     0.029 A 
ATOM     62  N   UNL     1      -0.425   1.441  12.457  1.00  0.00    -0.354 N 
ATOM     63  N   UNL     1       1.965  -0.538  15.786  1.00  0.00    -0.248 NA
ATOM     64  C   UNL     1       0.555  -2.392  15.732  1.00  0.00     0.031 C 
ATOM     65  C   UNL     1      -1.260  -0.441  13.219  1.00  0.00     0.029 A 
ATOM     66  C   UNL     1      -0.386   0.591  13.537  1.00  0.00     0.049 A 
ATOM     67  H   UNL     1      -0.053   2.352  12.434  1.00  0.00     0.167 HD
ATOM     68  C   UNL     1       0.701  -0.116  15.537  1.00  0.00     0.074 A 
ATOM     69  C   UNL     1      -0.146  -1.258  15.815  1.00  0.00     0.031 C 
ATOM     70  C   UNL     1       0.594   0.824  14.567  1.00  0.00     0.037 A 
BRANCH  57  71
ATOM     71  C   UNL     1       0.114   2.294   9.650  1.00  0.00     0.064 A 
ATOM     72  C   UNL     1      -0.569   3.134   8.767  1.00  0.00     0.173 A 
ATOM     73  C   UNL     1       1.434   2.641   9.995  1.00  0.00     0.173 A 
ATOM     74  F   UNL     1      -1.851   2.887   8.457  1.00  0.00    -0.203 F 
ATOM     75  C   UNL     1       0.065   4.238   8.199  1.00  0.00     0.198 A 
ATOM     76  C   UNL     1       2.082   3.707   9.383  1.00  0.00     0.198 A 
ATOM     77  F   UNL     1       2.094   1.961  10.948  1.00  0.00    -0.203 F 
ATOM     78  F   UNL     1      -0.615   5.046   7.373  1.00  0.00    -0.200 F 
ATOM     79  C   UNL     1       1.399   4.502   8.480  1.00  0.00     0.200 A 
ATOM     80  F   UNL     1       3.364   3.965   9.677  1.00  0.00    -0.200 F 
ATOM     81  F   UNL     1       2.018   5.539   7.899  1.00  0.00    -0.200 F 
ENDBRANCH  57  71
BRANCH  58  82
ATOM     82  C   UNL     1       3.548  -3.213  16.705  1.00  0.00     0.064 A 
ATOM     83  C   UNL     1       3.178  -2.588  17.951  1.00  0.00     0.173 A 
ATOM     84  C   UNL     1       3.968  -4.540  16.854  1.00  0.00     0.173 A 
ATOM     85  F   UNL     1       2.791  -1.307  18.005  1.00  0.00    -0.203 F 
ATOM     86  C   UNL     1       3.120  -3.260  19.184  1.00  0.00     0.198 A 
ATOM     87  C   UNL     1       3.947  -5.205  18.109  1.00  0.00     0.198 A 
ATOM     88  F   UNL     1       4.318  -5.253  15.776  1.00  0.00    -0.203 F 
ATOM     89  F   UNL     1       2.639  -2.637  20.273  1.00  0.00    -0.200 F 
ATOM     90  C   UNL     1       3.492  -4.579  19.261  1.00  0.00     0.200 A 
ATOM     91  F   UNL     1       4.309  -6.495  18.187  1.00  0.00    -0.200 F 
ATOM     92  F   UNL     1       3.384  -5.247  20.420  1.00  0.00    -0.200 F 
ENDBRANCH  58  82
BRANCH  70  93
ATOM     93  C   UNL     1       1.663   1.910  14.564  1.00  0.00     0.064 A 
ATOM     94  C   UNL     1       3.068   1.721  14.594  1.00  0.00     0.173 A 
ATOM     95  C   UNL     1       1.226   3.238  14.638  1.00  0.00     0.173 A 
ATOM     96  F   UNL     1       3.632   0.521  14.396  1.00  0.00    -0.203 F 
ATOM     97  C   UNL     1       3.953   2.781  14.805  1.00  0.00     0.198 A 
ATOM     98  C   UNL     1       2.116   4.303  14.784  1.00  0.00     0.198 A 
ATOM     99  F   UNL     1      -0.085   3.514  14.553  1.00  0.00    -0.203 F 
ATOM    100  F   UNL     1       5.271   2.548  14.914  1.00  0.00    -0.200 F 
ATOM    101  C   UNL     1       3.476   4.073  14.899  1.00  0.00     0.200 A 
ATOM    102  F   UNL     1       1.647   5.558  14.813  1.00  0.00    -0.200 F 
ATOM    103  F   UNL     1       4.323   5.096  15.078  1.00  0.00    -0.200 F 
ENDBRANCH  70  93
ENDBRANCH  44  45
ENDBRANCH  37  39
ENDBRANCH  36  37
ENDBRANCH  35  36
ENDBRANCH  34  35
ENDBRANCH  33  34
ENDBRANCH  32  33
ENDBRANCH   1  32
TORSDOF 21
