REMARK SMILES N#CCS(=O)(=O)NC[C@H]1CC[C@H](C(=O)OCCOCCOCCOC(=O)c2ccc(-c3c4nc(c(-c5c(F)c(F)c(F)c(F)c5F)c5ccc([nH]5)c(-c5c(F)c(F)c(F)c(F)c5F)c5nc(c(-c6c(F)c(F)c(F)c(F)c6F)c6ccc3[nH]6)C=C5)C=C4)cc2)O1
REMARK SMILES IDX 18 1 17 2 16 3 15 4 13 5 14 6 12 7 9 8 10 9 90 10 11 11 8 12
REMARK SMILES IDX 7 13 4 15 5 16 6 17 3 18 2 19 1 20 19 21 20 22 21 23 22 24
REMARK SMILES IDX 23 25 24 26 25 27 26 28 27 29 28 30 89 31 29 32 88 33 30 34
REMARK SMILES IDX 31 35 32 36 82 37 33 38 87 39 81 40 83 41 34 42 86 43 80 44
REMARK SMILES IDX 79 45 35 47 67 48 47 49 66 50 48 51 51 52 65 53 84 54 49 55
REMARK SMILES IDX 50 56 64 58 85 59 52 60 36 61 37 62 45 63 38 64 39 65 43 66
REMARK SMILES IDX 46 67 40 68 41 69 44 70 42 71 68 72 69 73 77 74 70 75 71 76
REMARK SMILES IDX 75 77 78 78 72 79 73 80 76 81 74 82 53 83 54 84 62 85 55 86
REMARK SMILES IDX 56 87 60 88 63 89 57 90 58 91 61 92 59 93
REMARK H PARENT 7 14 83 46 51 57
REMARK Flexibility Score: inf
ROOT
ATOM      1  O   UNL     1       1.625   8.498  -4.286  1.00  0.00    -0.376 OA
ENDROOT
BRANCH   1   2
ATOM      2  C   UNL     1       1.430   7.446  -5.229  1.00  0.00     0.202 C 
BRANCH   2   3
ATOM      3  C   UNL     1       2.068   6.084  -4.907  1.00  0.00     0.261 C 
BRANCH   3   4
ATOM      4  O   UNL     1       1.870   5.641  -3.555  1.00  0.00    -0.461 OA
BRANCH   4   5
ATOM      5  C   UNL     1       2.958   5.694  -2.735  1.00  0.00     0.335 C 
ATOM      6  O   UNL     1       4.086   6.018  -3.092  1.00  0.00    -0.249 OA
BRANCH   5   7
ATOM      7  C   UNL     1       2.625   5.324  -1.279  1.00  0.00     0.228 C 
ATOM      8  C   UNL     1       1.733   3.201  -0.917  1.00  0.00     0.134 C 
ATOM      9  C   UNL     1       0.596   4.162  -1.226  1.00  0.00     0.037 C 
ATOM     10  O   UNL     1       2.958   3.953  -1.031  1.00  0.00    -0.362 OA
ATOM     11  C   UNL     1       1.185   5.476  -0.829  1.00  0.00     0.047 C 
BRANCH   8  12
ATOM     12  C   UNL     1       1.676   2.632   0.504  1.00  0.00     0.130 C 
BRANCH  12  13
ATOM     13  N   UNL     1       0.364   2.116   0.907  1.00  0.00    -0.212 NA
ATOM     14  H   UNL     1       0.531   1.566   1.750  1.00  0.00     0.141 HD
BRANCH  13  15
ATOM     15  S   UNL     1      -0.606   1.172  -0.062  1.00  0.00     0.225 S 
ATOM     16  O   UNL     1      -0.752   1.739  -1.383  1.00  0.00    -0.211 OA
ATOM     17  O   UNL     1      -1.776   0.910   0.747  1.00  0.00    -0.211 OA
BRANCH  15  18
ATOM     18  C   UNL     1       0.266  -0.316  -0.207  1.00  0.00     0.273 C 
BRANCH  18  19
ATOM     19  C   UNL     1       1.625  -0.205  -0.877  1.00  0.00     0.080 C 
ATOM     20  N   UNL     1       2.754  -0.113  -1.432  1.00  0.00    -0.197 NA
ENDBRANCH  18  19
ENDBRANCH  15  18
ENDBRANCH  13  15
ENDBRANCH  12  13
ENDBRANCH   8  12
ENDBRANCH   5   7
ENDBRANCH   4   5
ENDBRANCH   3   4
ENDBRANCH   2   3
ENDBRANCH   1   2
BRANCH   1  21
ATOM     21  C   UNL     1       0.989   8.344  -3.025  1.00  0.00     0.188 C 
BRANCH  21  22
ATOM     22  C   UNL     1      -0.508   8.035  -3.045  1.00  0.00     0.188 C 
BRANCH  22  23
ATOM     23  O   UNL     1      -0.914   6.899  -3.794  1.00  0.00    -0.376 OA
BRANCH  23  24
ATOM     24  C   UNL     1      -2.328   6.670  -3.889  1.00  0.00     0.202 C 
BRANCH  24  25
ATOM     25  C   UNL     1      -3.262   7.895  -4.044  1.00  0.00     0.261 C 
BRANCH  25  26
ATOM     26  O   UNL     1      -3.150   8.913  -3.020  1.00  0.00    -0.460 OA
BRANCH  26  27
ATOM     27  C   UNL     1      -3.276   8.520  -1.732  1.00  0.00     0.338 C 
ATOM     28  O   UNL     1      -3.726   7.455  -1.347  1.00  0.00    -0.246 OA
BRANCH  27  29
ATOM     29  C   UNL     1      -2.538   9.472  -0.847  1.00  0.00     0.060 A 
ATOM     30  C   UNL     1      -1.873   8.933   0.265  1.00  0.00     0.016 A 
ATOM     31  C   UNL     1      -2.434  10.843  -1.107  1.00  0.00     0.016 A 
ATOM     32  C   UNL     1      -1.192   9.762   1.161  1.00  0.00     0.010 A 
ATOM     33  C   UNL     1      -1.756  11.679  -0.202  1.00  0.00     0.010 A 
ATOM     34  C   UNL     1      -1.183  11.150   0.970  1.00  0.00    -0.014 A 
BRANCH  34  35
ATOM     35  C   UNL     1      -0.816  12.026   2.120  1.00  0.00     0.031 A 
ATOM     36  C   UNL     1      -1.935  12.610   2.949  1.00  0.00     0.074 A 
ATOM     37  C   UNL     1       0.459  12.228   2.503  1.00  0.00     0.049 A 
ATOM     38  N   UNL     1      -1.883  13.348   4.031  1.00  0.00    -0.248 NA
ATOM     39  C   UNL     1      -3.304  12.315   2.495  1.00  0.00     0.031 C 
ATOM     40  C   UNL     1       1.641  11.693   1.833  1.00  0.00     0.029 A 
ATOM     41  N   UNL     1       0.968  12.938   3.566  1.00  0.00    -0.354 N 
ATOM     42  C   UNL     1      -3.204  13.602   4.380  1.00  0.00     0.074 A 
ATOM     43  C   UNL     1      -4.035  12.980   3.374  1.00  0.00     0.031 C 
ATOM     44  C   UNL     1       2.739  12.093   2.501  1.00  0.00     0.029 A 
ATOM     45  C   UNL     1       2.340  12.931   3.633  1.00  0.00     0.049 A 
ATOM     46  H   UNL     1       0.401  13.409   4.219  1.00  0.00     0.167 HD
ATOM     47  C   UNL     1      -3.689  14.276   5.451  1.00  0.00     0.037 A 
ATOM     48  C   UNL     1       3.178  13.539   4.499  1.00  0.00     0.037 A 
ATOM     49  C   UNL     1      -2.874  14.900   6.460  1.00  0.00     0.049 A 
ATOM     50  C   UNL     1       2.614  14.351   5.642  1.00  0.00     0.074 A 
ATOM     51  C   UNL     1      -3.278  15.596   7.586  1.00  0.00     0.029 A 
ATOM     52  N   UNL     1      -1.488  14.913   6.459  1.00  0.00    -0.354 N 
ATOM     53  N   UNL     1       1.364  14.559   5.980  1.00  0.00    -0.248 NA
ATOM     54  C   UNL     1       3.586  15.004   6.534  1.00  0.00     0.031 C 
ATOM     55  C   UNL     1      -2.138  16.084   8.232  1.00  0.00     0.029 A 
ATOM     56  C   UNL     1      -1.021  15.630   7.550  1.00  0.00     0.049 A 
ATOM     57  H   UNL     1      -0.919  14.477   5.784  1.00  0.00     0.167 HD
ATOM     58  C   UNL     1       1.401  15.334   7.135  1.00  0.00     0.074 A 
ATOM     59  C   UNL     1       2.797  15.540   7.453  1.00  0.00     0.031 C 
ATOM     60  C   UNL     1       0.371  15.830   7.866  1.00  0.00     0.037 A 
BRANCH  47  61
ATOM     61  C   UNL     1      -5.183  14.400   5.568  1.00  0.00     0.064 A 
ATOM     62  C   UNL     1      -5.999  13.296   5.856  1.00  0.00     0.173 A 
ATOM     63  C   UNL     1      -5.803  15.649   5.412  1.00  0.00     0.173 A 
ATOM     64  F   UNL     1      -5.460  12.075   5.998  1.00  0.00    -0.203 F 
ATOM     65  C   UNL     1      -7.382  13.432   5.950  1.00  0.00     0.198 A 
ATOM     66  C   UNL     1      -7.182  15.788   5.542  1.00  0.00     0.198 A 
ATOM     67  F   UNL     1      -5.070  16.739   5.138  1.00  0.00    -0.203 F 
ATOM     68  F   UNL     1      -8.147  12.352   6.168  1.00  0.00    -0.200 F 
ATOM     69  C   UNL     1      -7.971  14.678   5.801  1.00  0.00     0.200 A 
ATOM     70  F   UNL     1      -7.747  16.996   5.412  1.00  0.00    -0.200 F 
ATOM     71  F   UNL     1      -9.301  14.809   5.899  1.00  0.00    -0.200 F 
ENDBRANCH  47  61
BRANCH  48  72
ATOM     72  C   UNL     1       4.653  13.420   4.327  1.00  0.00     0.064 A 
ATOM     73  C   UNL     1       5.449  12.759   5.275  1.00  0.00     0.173 A 
ATOM     74  C   UNL     1       5.305  14.013   3.235  1.00  0.00     0.173 A 
ATOM     75  F   UNL     1       4.880  12.205   6.356  1.00  0.00    -0.203 F 
ATOM     76  C   UNL     1       6.837  12.718   5.150  1.00  0.00     0.198 A 
ATOM     77  C   UNL     1       6.689  13.941   3.093  1.00  0.00     0.198 A 
ATOM     78  F   UNL     1       4.595  14.667   2.304  1.00  0.00    -0.203 F 
ATOM     79  F   UNL     1       7.576  12.135   6.104  1.00  0.00    -0.200 F 
ATOM     80  C   UNL     1       7.455  13.303   4.056  1.00  0.00     0.200 A 
ATOM     81  F   UNL     1       7.282  14.502   2.030  1.00  0.00    -0.200 F 
ATOM     82  F   UNL     1       8.790  13.265   3.938  1.00  0.00    -0.200 F 
ENDBRANCH  48  72
BRANCH  60  83
ATOM     83  C   UNL     1       0.711  16.606   9.111  1.00  0.00     0.064 A 
ATOM     84  C   UNL     1       1.342  17.859   9.058  1.00  0.00     0.173 A 
ATOM     85  C   UNL     1       0.389  16.093  10.378  1.00  0.00     0.173 A 
ATOM     86  F   UNL     1       1.680  18.395   7.875  1.00  0.00    -0.203 F 
ATOM     87  C   UNL     1       1.681  18.543  10.224  1.00  0.00     0.198 A 
ATOM     88  C   UNL     1       0.693  16.798  11.540  1.00  0.00     0.198 A 
ATOM     89  F   UNL     1      -0.227  14.906  10.491  1.00  0.00    -0.203 F 
ATOM     90  F   UNL     1       2.347  19.703  10.148  1.00  0.00    -0.200 F 
ATOM     91  C   UNL     1       1.351  18.015  11.463  1.00  0.00     0.200 A 
ATOM     92  F   UNL     1       0.355  16.294  12.735  1.00  0.00    -0.200 F 
ATOM     93  F   UNL     1       1.679  18.674  12.583  1.00  0.00    -0.200 F 
ENDBRANCH  60  83
ENDBRANCH  34  35
ENDBRANCH  27  29
ENDBRANCH  26  27
ENDBRANCH  25  26
ENDBRANCH  24  25
ENDBRANCH  23  24
ENDBRANCH  22  23
ENDBRANCH  21  22
ENDBRANCH   1  21
TORSDOF 22
