REMARK SMILES COc1cc2ccccc2cc1C(=O)Nc1cc(C(=O)OCCOCCOCCOC(=O)c2ccc(-c3c4nc(c(-c5c(F)c(F)c(F)c(F)c5F)c5ccc([nH]5)c(-c5c(F)c(F)c(F)c(F)c5F)c5nc(c(-c6c(F)c(F)c(F)c(F)c6F)c6ccc3[nH]6)C=C5)C=C4)cc2)ccc1C
REMARK SMILES IDX 25 1 24 2 23 3 22 4 21 5 19 6 20 7 18 8 16 9 17 10 98 11
REMARK SMILES IDX 97 12 99 13 96 14 15 15 13 16 14 17 12 19 3 20 4 21 5 22
REMARK SMILES IDX 11 23 6 24 10 25 7 26 9 27 8 28 2 29 1 30 26 31 27 32 28 33
REMARK SMILES IDX 29 34 30 35 31 36 32 37 33 38 34 39 95 40 35 41 94 42 36 43
REMARK SMILES IDX 37 44 38 45 88 46 39 47 93 48 87 49 89 50 40 51 92 52 86 53
REMARK SMILES IDX 85 54 41 56 73 57 53 58 72 59 54 60 57 61 71 62 90 63 55 64
REMARK SMILES IDX 56 65 70 67 91 68 58 69 42 70 43 71 51 72 44 73 45 74 49 75
REMARK SMILES IDX 52 76 46 77 47 78 50 79 48 80 74 81 75 82 83 83 76 84 77 85
REMARK SMILES IDX 81 86 84 87 78 88 79 89 82 90 80 91 59 92 60 93 68 94 61 95
REMARK SMILES IDX 62 96 66 97 69 98 63 99 64 100 67 101 65 102
REMARK H PARENT 15 18 89 55 57 66
REMARK Flexibility Score: inf
ROOT
ATOM      1  C   UNL     1      -2.325  -6.229  -3.556  1.00  0.00     0.188 C 
ENDROOT
BRANCH   1   2
ATOM      2  O   UNL     1      -1.660  -5.148  -4.207  1.00  0.00    -0.376 OA
BRANCH   2   3
ATOM      3  C   UNL     1      -0.326  -4.998  -4.707  1.00  0.00     0.202 C 
BRANCH   3   4
ATOM      4  C   UNL     1       1.169  -4.532  -3.989  1.00  0.00     0.261 C 
BRANCH   4   5
ATOM      5  O   UNL     1       1.703  -3.593  -2.636  1.00  0.00    -0.460 OA
BRANCH   5   6
ATOM      6  C   UNL     1       1.305  -2.640  -1.675  1.00  0.00     0.338 C 
ATOM      7  O   UNL     1       0.238  -2.034  -1.569  1.00  0.00    -0.246 OA
BRANCH   6   8
ATOM      8  C   UNL     1       2.022  -2.020  -0.557  1.00  0.00     0.062 A 
ATOM      9  C   UNL     1       2.306   0.352  -0.071  1.00  0.00     0.045 A 
ATOM     10  C   UNL     1       2.473  -0.746  -0.925  1.00  0.00     0.042 A 
ATOM     11  C   UNL     1       1.972   0.166   1.283  1.00  0.00    -0.027 A 
ATOM     12  C   UNL     1       1.417  -1.064   1.646  1.00  0.00     0.006 A 
ATOM     13  C   UNL     1       2.074   1.256   2.316  1.00  0.00     0.046 C 
ATOM     14  C   UNL     1       1.397  -2.125   0.724  1.00  0.00     0.016 A 
BRANCH   9  15
ATOM     15  N   UNL     1       2.425   1.662  -0.575  1.00  0.00    -0.322 N 
ATOM     16  C   UNL     1       2.415   2.077  -1.890  1.00  0.00     0.259 C 
ATOM     17  O   UNL     1       3.432   2.672  -2.259  1.00  0.00    -0.269 OA
ATOM     18  H   UNL     1       2.527   2.373   0.099  1.00  0.00     0.170 HD
BRANCH  16  19
ATOM     19  C   UNL     1       1.289   1.878  -2.903  1.00  0.00     0.082 A 
ATOM     20  C   UNL     1      -0.524   1.608  -2.719  1.00  0.00     0.132 A 
ATOM     21  C   UNL     1      -1.578   1.129  -4.235  1.00  0.00     0.056 A 
ATOM     22  C   UNL     1      -0.774   0.995  -5.945  1.00  0.00    -0.015 A 
ATOM     23  C   UNL     1       2.025   1.768  -4.585  1.00  0.00     0.026 A 
ATOM     24  C   UNL     1      -1.351   0.655  -7.170  1.00  0.00     0.009 A 
ATOM     25  C   UNL     1       1.034   1.340  -6.106  1.00  0.00    -0.017 A 
ATOM     26  C   UNL     1      -0.590   0.640  -8.363  1.00  0.00     0.001 A 
ATOM     27  C   UNL     1       1.603   1.239  -7.368  1.00  0.00     0.009 A 
ATOM     28  C   UNL     1       0.800   0.914  -8.460  1.00  0.00     0.001 A 
BRANCH  20  29
ATOM     29  O   UNL     1      -1.214   1.646  -1.536  1.00  0.00    -0.496 OA
ATOM     30  C   UNL     1      -0.632   2.412  -0.501  1.00  0.00     0.278 C 
ENDBRANCH  20  29
ENDBRANCH  16  19
ENDBRANCH   9  15
ENDBRANCH   6   8
ENDBRANCH   5   6
ENDBRANCH   4   5
ENDBRANCH   3   4
ENDBRANCH   2   3
ENDBRANCH   1   2
BRANCH   1  31
ATOM     31  C   UNL     1      -1.621  -7.537  -3.252  1.00  0.00     0.188 C 
BRANCH  31  32
ATOM     32  O   UNL     1      -0.233  -7.304  -3.199  1.00  0.00    -0.376 OA
BRANCH  32  33
ATOM     33  C   UNL     1       0.577  -8.402  -2.842  1.00  0.00     0.202 C 
BRANCH  33  34
ATOM     34  C   UNL     1       0.335  -8.942  -1.416  1.00  0.00     0.261 C 
BRANCH  34  35
ATOM     35  O   UNL     1       0.429  -7.885  -0.431  1.00  0.00    -0.460 OA
BRANCH  35  36
ATOM     36  C   UNL     1      -0.690  -7.457   0.251  1.00  0.00     0.338 C 
ATOM     37  O   UNL     1      -1.621  -8.165   0.586  1.00  0.00    -0.246 OA
BRANCH  36  38
ATOM     38  C   UNL     1      -0.711  -5.939   0.242  1.00  0.00     0.060 A 
ATOM     39  C   UNL     1      -1.868  -5.142   0.291  1.00  0.00     0.016 A 
ATOM     40  C   UNL     1       0.302  -5.405  -0.462  1.00  0.00     0.016 A 
ATOM     41  C   UNL     1      -2.044  -4.025  -0.629  1.00  0.00     0.010 A 
ATOM     42  C   UNL     1      -0.191  -4.803  -1.602  1.00  0.00     0.010 A 
ATOM     43  C   UNL     1      -1.230  -3.888  -1.754  1.00  0.00    -0.014 A 
BRANCH  43  44
ATOM     44  C   UNL     1      -1.384  -2.877  -3.079  1.00  0.00     0.031 A 
ATOM     45  C   UNL     1      -0.319  -1.755  -3.774  1.00  0.00     0.074 A 
ATOM     46  C   UNL     1      -2.648  -2.662  -3.508  1.00  0.00     0.049 A 
ATOM     47  N   UNL     1      -0.577  -0.494  -3.598  1.00  0.00    -0.248 NA
ATOM     48  C   UNL     1       1.009  -1.769  -4.400  1.00  0.00     0.031 C 
ATOM     49  C   UNL     1      -3.091  -1.796  -4.592  1.00  0.00     0.029 A 
ATOM     50  N   UNL     1      -3.831  -3.111  -2.926  1.00  0.00    -0.354 N 
ATOM     51  C   UNL     1       0.339   0.603  -4.272  1.00  0.00     0.074 A 
ATOM     52  C   UNL     1       1.425  -0.505  -4.524  1.00  0.00     0.031 C 
ATOM     53  C   UNL     1      -4.376  -1.474  -4.379  1.00  0.00     0.029 A 
ATOM     54  C   UNL     1      -4.794  -2.127  -3.159  1.00  0.00     0.049 A 
ATOM     55  H   UNL     1      -3.964  -3.959  -2.443  1.00  0.00     0.167 HD
ATOM     56  C   UNL     1       0.005   2.437  -4.589  1.00  0.00     0.037 A 
ATOM     57  C   UNL     1      -5.615  -1.647  -2.197  1.00  0.00     0.037 A 
ATOM     58  C   UNL     1      -1.536   3.278  -4.568  1.00  0.00     0.049 A 
ATOM     59  C   UNL     1      -5.769  -0.140  -2.208  1.00  0.00     0.074 A 
ATOM     60  C   UNL     1      -2.471   3.324  -5.632  1.00  0.00     0.029 A 
ATOM     61  N   UNL     1      -2.371   3.481  -3.429  1.00  0.00    -0.354 N 
ATOM     62  N   UNL     1      -4.930   0.735  -2.716  1.00  0.00    -0.248 NA
ATOM     63  C   UNL     1      -6.952   0.480  -1.620  1.00  0.00     0.031 C 
ATOM     64  C   UNL     1      -3.768   3.095  -5.133  1.00  0.00     0.029 A 
ATOM     65  C   UNL     1      -3.705   3.170  -3.760  1.00  0.00     0.049 A 
ATOM     66  H   UNL     1      -2.062   3.791  -2.546  1.00  0.00     0.167 HD
ATOM     67  C   UNL     1      -5.421   2.009  -2.480  1.00  0.00     0.074 A 
ATOM     68  C   UNL     1      -6.705   1.780  -1.833  1.00  0.00     0.031 C 
ATOM     69  C   UNL     1      -4.808   3.191  -2.821  1.00  0.00     0.037 A 
BRANCH  56  70
ATOM     70  C   UNL     1       0.868   3.809  -5.400  1.00  0.00     0.064 A 
ATOM     71  C   UNL     1       0.430   4.325  -6.650  1.00  0.00     0.173 A 
ATOM     72  C   UNL     1       2.150   4.305  -5.070  1.00  0.00     0.173 A 
ATOM     73  F   UNL     1      -0.849   4.469  -6.977  1.00  0.00    -0.203 F 
ATOM     74  C   UNL     1       1.291   4.855  -7.613  1.00  0.00     0.198 A 
ATOM     75  C   UNL     1       3.044   4.790  -6.047  1.00  0.00     0.198 A 
ATOM     76  F   UNL     1       2.592   4.283  -3.812  1.00  0.00    -0.203 F 
ATOM     77  F   UNL     1       0.800   5.223  -8.806  1.00  0.00    -0.200 F 
ATOM     78  C   UNL     1       2.626   4.991  -7.344  1.00  0.00     0.200 A 
ATOM     79  F   UNL     1       4.329   5.012  -5.735  1.00  0.00    -0.200 F 
ATOM     80  F   UNL     1       3.478   5.376  -8.304  1.00  0.00    -0.200 F 
ENDBRANCH  56  70
BRANCH  57  81
ATOM     81  C   UNL     1      -5.806  -2.583  -1.040  1.00  0.00     0.064 A 
ATOM     82  C   UNL     1      -6.239  -3.907  -1.301  1.00  0.00     0.173 A 
ATOM     83  C   UNL     1      -5.252  -2.343   0.223  1.00  0.00     0.173 A 
ATOM     84  F   UNL     1      -6.787  -4.212  -2.489  1.00  0.00    -0.203 F 
ATOM     85  C   UNL     1      -5.999  -4.955  -0.410  1.00  0.00     0.198 A 
ATOM     86  C   UNL     1      -5.038  -3.393   1.129  1.00  0.00     0.198 A 
ATOM     87  F   UNL     1      -4.803  -1.122   0.542  1.00  0.00    -0.203 F 
ATOM     88  F   UNL     1      -6.286  -6.217  -0.763  1.00  0.00    -0.200 F 
ATOM     89  C   UNL     1      -5.380  -4.699   0.798  1.00  0.00     0.200 A 
ATOM     90  F   UNL     1      -4.383  -3.163   2.276  1.00  0.00    -0.200 F 
ATOM     91  F   UNL     1      -5.047  -5.713   1.610  1.00  0.00    -0.200 F 
ENDBRANCH  57  81
BRANCH  69  92
ATOM     92  C   UNL     1      -5.317   4.570  -2.479  1.00  0.00     0.064 A 
ATOM     93  C   UNL     1      -5.883   4.899  -1.244  1.00  0.00     0.173 A 
ATOM     94  C   UNL     1      -5.070   5.660  -3.356  1.00  0.00     0.173 A 
ATOM     95  F   UNL     1      -6.108   3.963  -0.311  1.00  0.00    -0.203 F 
ATOM     96  C   UNL     1      -6.190   6.221  -0.915  1.00  0.00     0.198 A 
ATOM     97  C   UNL     1      -5.302   6.979  -2.994  1.00  0.00     0.198 A 
ATOM     98  F   UNL     1      -4.581   5.490  -4.591  1.00  0.00    -0.203 F 
ATOM     99  F   UNL     1      -6.772   6.492   0.261  1.00  0.00    -0.200 F 
ATOM    100  C   UNL     1      -5.872   7.260  -1.775  1.00  0.00     0.200 A 
ATOM    101  F   UNL     1      -4.952   7.967  -3.829  1.00  0.00    -0.200 F 
ATOM    102  F   UNL     1      -6.104   8.530  -1.424  1.00  0.00    -0.200 F 
ENDBRANCH  69  92
ENDBRANCH  43  44
ENDBRANCH  36  38
ENDBRANCH  35  36
ENDBRANCH  34  35
ENDBRANCH  33  34
ENDBRANCH  32  33
ENDBRANCH  31  32
ENDBRANCH   1  31
TORSDOF 20
