REMARK SMILES C[C@H]1CC[C@H](CNC(=O)NCc2ccc(C(=O)OCCOCCOCCOC(=O)c3ccc(-c4c5nc(c(-c6c(F)c(F)c(F)c(F)c6F)c6ccc([nH]6)c(-c6c(F)c(F)c(F)c(F)c6F)c6nc(c(-c7c(F)c(F)c(F)c(F)c7F)c7ccc4[nH]7)C=C6)C=C5)cc3)o2)CC1
REMARK SMILES IDX 22 1 21 2 20 3 19 4 18 5 16 6 17 7 15 8 12 9 13 10 93 11
REMARK SMILES IDX 14 12 11 13 10 14 7 15 8 16 9 18 6 20 5 21 1 22 2 23 95 24
REMARK SMILES IDX 3 25 94 26 4 27 23 28 24 29 25 30 26 31 27 32 28 33 29 34
REMARK SMILES IDX 30 35 31 36 92 37 32 38 91 39 33 40 34 41 35 42 85 43 36 44
REMARK SMILES IDX 90 45 84 46 86 47 37 48 89 49 83 50 82 51 38 53 70 54 50 55
REMARK SMILES IDX 69 56 51 57 54 58 68 59 87 60 52 61 53 62 67 64 88 65 55 66
REMARK SMILES IDX 39 67 40 68 48 69 41 70 42 71 46 72 49 73 43 74 44 75 47 76
REMARK SMILES IDX 45 77 71 78 72 79 80 80 73 81 74 82 78 83 81 84 75 85 76 86
REMARK SMILES IDX 79 87 77 88 56 89 57 90 65 91 58 92 59 93 63 94 66 95 60 96
REMARK SMILES IDX 61 97 64 98 62 99
REMARK H PARENT 7 17 10 19 86 52 54 63
REMARK Flexibility Score: inf
ROOT
ATOM      1  C   UNL     1      -8.743  -1.760   3.636  1.00  0.00     0.188 C 
ENDROOT
BRANCH   1   2
ATOM      2  O   UNL     1     -10.069  -1.927   4.133  1.00  0.00    -0.376 OA
BRANCH   2   3
ATOM      3  C   UNL     1     -10.755  -3.154   3.890  1.00  0.00     0.202 C 
BRANCH   3   4
ATOM      4  C   UNL     1     -10.945  -3.572   2.429  1.00  0.00     0.261 C 
BRANCH   4   5
ATOM      5  O   UNL     1      -9.699  -3.874   1.775  1.00  0.00    -0.457 OA
BRANCH   5   6
ATOM      6  C   UNL     1      -9.462  -3.202   0.608  1.00  0.00     0.374 C 
ATOM      7  O   UNL     1     -10.274  -2.476   0.047  1.00  0.00    -0.242 OA
BRANCH   6   8
ATOM      8  C   UNL     1      -8.082  -3.374   0.210  1.00  0.00     0.211 A 
ATOM      9  C   UNL     1      -6.188  -2.663  -0.695  1.00  0.00     0.124 A 
ATOM     10  C   UNL     1      -5.907  -3.877  -0.103  1.00  0.00     0.048 A 
ATOM     11  O   UNL     1      -7.516  -2.382  -0.545  1.00  0.00    -0.452 OA
ATOM     12  C   UNL     1      -7.120  -4.332   0.480  1.00  0.00     0.058 A 
BRANCH   9  13
ATOM     13  C   UNL     1      -5.373  -1.665  -1.442  1.00  0.00     0.193 C 
BRANCH  13  14
ATOM     14  N   UNL     1      -5.909  -0.341  -1.202  1.00  0.00    -0.331 N 
ATOM     15  N   UNL     1      -4.172   0.986  -0.321  1.00  0.00    -0.338 N 
ATOM     16  C   UNL     1      -5.373   0.839  -0.890  1.00  0.00     0.315 C 
ATOM     17  H   UNL     1      -3.784   1.883  -0.443  1.00  0.00     0.165 HD
ATOM     18  O   UNL     1      -6.026   1.857  -1.126  1.00  0.00    -0.249 OA
ATOM     19  H   UNL     1      -6.889  -0.305  -1.288  1.00  0.00     0.165 HD
BRANCH  15  20
ATOM     20  C   UNL     1      -3.326   0.087   0.441  1.00  0.00     0.121 C 
BRANCH  20  21
ATOM     21  C   UNL     1      -1.899   0.040  -0.129  1.00  0.00     0.008 C 
ATOM     22  C   UNL     1       2.495  -0.049  -0.185  1.00  0.00     0.007 C 
ATOM     23  C   UNL     1       1.051   0.002   0.310  1.00  0.00    -0.014 C 
ATOM     24  C   UNL     1       0.284  -1.257  -0.111  1.00  0.00     0.003 C 
ATOM     25  C   UNL     1       0.342   1.258  -0.208  1.00  0.00     0.003 C 
ATOM     26  C   UNL     1      -1.166  -1.213   0.370  1.00  0.00     0.006 C 
ATOM     27  C   UNL     1      -1.115   1.312   0.250  1.00  0.00     0.006 C 
ENDBRANCH  20  21
ENDBRANCH  15  20
ENDBRANCH  13  14
ENDBRANCH   9  13
ENDBRANCH   6   8
ENDBRANCH   5   6
ENDBRANCH   4   5
ENDBRANCH   3   4
ENDBRANCH   2   3
ENDBRANCH   1   2
BRANCH   1  28
ATOM     28  C   UNL     1      -7.703  -2.857   3.934  1.00  0.00     0.188 C 
BRANCH  28  29
ATOM     29  O   UNL     1      -8.197  -3.868   4.788  1.00  0.00    -0.376 OA
BRANCH  29  30
ATOM     30  C   UNL     1      -7.660  -3.970   6.093  1.00  0.00     0.202 C 
BRANCH  30  31
ATOM     31  C   UNL     1      -7.730  -2.762   7.040  1.00  0.00     0.261 C 
BRANCH  31  32
ATOM     32  O   UNL     1      -7.489  -1.471   6.467  1.00  0.00    -0.460 OA
BRANCH  32  33
ATOM     33  C   UNL     1      -6.202  -1.098   6.300  1.00  0.00     0.338 C 
ATOM     34  O   UNL     1      -5.205  -1.763   6.506  1.00  0.00    -0.246 OA
BRANCH  33  35
ATOM     35  C   UNL     1      -6.206   0.240   5.674  1.00  0.00     0.060 A 
ATOM     36  C   UNL     1      -5.606   0.412   4.421  1.00  0.00     0.016 A 
ATOM     37  C   UNL     1      -6.794   1.322   6.335  1.00  0.00     0.016 A 
ATOM     38  C   UNL     1      -5.565   1.680   3.837  1.00  0.00     0.010 A 
ATOM     39  C   UNL     1      -6.734   2.593   5.760  1.00  0.00     0.010 A 
ATOM     40  C   UNL     1      -6.092   2.782   4.524  1.00  0.00    -0.014 A 
BRANCH  40  41
ATOM     41  C   UNL     1      -5.821   4.162   4.056  1.00  0.00     0.031 A 
ATOM     42  C   UNL     1      -4.655   4.900   4.652  1.00  0.00     0.074 A 
ATOM     43  C   UNL     1      -6.606   4.759   3.144  1.00  0.00     0.049 A 
ATOM     44  N   UNL     1      -4.283   6.143   4.490  1.00  0.00    -0.248 NA
ATOM     45  C   UNL     1      -3.792   4.126   5.559  1.00  0.00     0.031 C 
ATOM     46  C   UNL     1      -7.734   4.134   2.461  1.00  0.00     0.029 A 
ATOM     47  N   UNL     1      -6.578   6.041   2.653  1.00  0.00    -0.354 N 
ATOM     48  C   UNL     1      -3.152   6.303   5.278  1.00  0.00     0.074 A 
ATOM     49  C   UNL     1      -2.907   5.037   5.934  1.00  0.00     0.031 C 
ATOM     50  C   UNL     1      -8.308   5.042   1.651  1.00  0.00     0.029 A 
ATOM     51  C   UNL     1      -7.608   6.317   1.788  1.00  0.00     0.049 A 
ATOM     52  H   UNL     1      -5.886   6.697   2.897  1.00  0.00     0.167 HD
ATOM     53  C   UNL     1      -2.385   7.406   5.439  1.00  0.00     0.037 A 
ATOM     54  C   UNL     1      -7.957   7.479   1.201  1.00  0.00     0.037 A 
ATOM     55  C   UNL     1      -2.636   8.667   4.795  1.00  0.00     0.049 A 
ATOM     56  C   UNL     1      -7.132   8.714   1.455  1.00  0.00     0.074 A 
ATOM     57  C   UNL     1      -1.916   9.844   4.890  1.00  0.00     0.029 A 
ATOM     58  N   UNL     1      -3.700   8.914   3.940  1.00  0.00    -0.354 N 
ATOM     59  N   UNL     1      -6.056   8.857   2.190  1.00  0.00    -0.248 NA
ATOM     60  C   UNL     1      -7.574   9.954   0.798  1.00  0.00     0.031 C 
ATOM     61  C   UNL     1      -2.567  10.817   4.123  1.00  0.00     0.029 A 
ATOM     62  C   UNL     1      -3.667  10.232   3.515  1.00  0.00     0.049 A 
ATOM     63  H   UNL     1      -4.378   8.252   3.675  1.00  0.00     0.167 HD
ATOM     64  C   UNL     1      -5.673  10.186   2.057  1.00  0.00     0.074 A 
ATOM     65  C   UNL     1      -6.632  10.810   1.169  1.00  0.00     0.031 C 
ATOM     66  C   UNL     1      -4.620  10.831   2.617  1.00  0.00     0.037 A 
BRANCH  53  67
ATOM     67  C   UNL     1      -1.218   7.302   6.373  1.00  0.00     0.064 A 
ATOM     68  C   UNL     1      -0.064   6.583   6.029  1.00  0.00     0.173 A 
ATOM     69  C   UNL     1      -1.247   7.943   7.620  1.00  0.00     0.173 A 
ATOM     70  F   UNL     1       0.004   5.936   4.855  1.00  0.00    -0.203 F 
ATOM     71  C   UNL     1       1.010   6.491   6.909  1.00  0.00     0.198 A 
ATOM     72  C   UNL     1      -0.161   7.870   8.488  1.00  0.00     0.198 A 
ATOM     73  F   UNL     1      -2.329   8.642   7.996  1.00  0.00    -0.203 F 
ATOM     74  F   UNL     1       2.085   5.762   6.579  1.00  0.00    -0.200 F 
ATOM     75  C   UNL     1       0.963   7.139   8.135  1.00  0.00     0.200 A 
ATOM     76  F   UNL     1      -0.205   8.502   9.669  1.00  0.00    -0.200 F 
ATOM     77  F   UNL     1       1.999   7.052   8.980  1.00  0.00    -0.200 F 
ENDBRANCH  53  67
BRANCH  54  78
ATOM     78  C   UNL     1      -9.157   7.537   0.328  1.00  0.00     0.064 A 
ATOM     79  C   UNL     1      -9.037   7.729  -1.055  1.00  0.00     0.173 A 
ATOM     80  C   UNL     1     -10.450   7.430   0.863  1.00  0.00     0.173 A 
ATOM     81  F   UNL     1      -7.824   7.875  -1.608  1.00  0.00    -0.203 F 
ATOM     82  C   UNL     1     -10.165   7.826  -1.868  1.00  0.00     0.198 A 
ATOM     83  C   UNL     1     -11.575   7.503   0.046  1.00  0.00     0.198 A 
ATOM     84  F   UNL     1     -10.619   7.260   2.183  1.00  0.00    -0.203 F 
ATOM     85  F   UNL     1     -10.024   8.062  -3.180  1.00  0.00    -0.200 F 
ATOM     86  C   UNL     1     -11.432   7.708  -1.318  1.00  0.00     0.200 A 
ATOM     87  F   UNL     1     -12.799   7.389   0.581  1.00  0.00    -0.200 F 
ATOM     88  F   UNL     1     -12.516   7.809  -2.100  1.00  0.00    -0.200 F 
ENDBRANCH  54  78
BRANCH  66  89
ATOM     89  C   UNL     1      -4.416  12.271   2.251  1.00  0.00     0.064 A 
ATOM     90  C   UNL     1      -5.235  13.285   2.766  1.00  0.00     0.173 A 
ATOM     91  C   UNL     1      -3.349  12.643   1.418  1.00  0.00     0.173 A 
ATOM     92  F   UNL     1      -6.274  12.978   3.556  1.00  0.00    -0.203 F 
ATOM     93  C   UNL     1      -5.004  14.621   2.446  1.00  0.00     0.198 A 
ATOM     94  C   UNL     1      -3.106  13.981   1.121  1.00  0.00     0.198 A 
ATOM     95  F   UNL     1      -2.532  11.710   0.908  1.00  0.00    -0.203 F 
ATOM     96  F   UNL     1      -5.819  15.572   2.920  1.00  0.00    -0.200 F 
ATOM     97  C   UNL     1      -3.936  14.968   1.631  1.00  0.00     0.200 A 
ATOM     98  F   UNL     1      -2.066  14.315   0.346  1.00  0.00    -0.200 F 
ATOM     99  F   UNL     1      -3.709  16.255   1.334  1.00  0.00    -0.200 F 
ENDBRANCH  66  89
ENDBRANCH  40  41
ENDBRANCH  33  35
ENDBRANCH  32  33
ENDBRANCH  31  32
ENDBRANCH  30  31
ENDBRANCH  29  30
ENDBRANCH  28  29
ENDBRANCH   1  28
TORSDOF 21
