REMARK SMILES CCOc1ccc(C(=O)NC(=S)Nc2cccc(C(=O)OCCOCCOCCOC(=O)c3ccc(-c4c5nc(c(-c6c(F)c(F)c(F)c(F)c6F)c6ccc([nH]6)c(-c6c(F)c(F)c(F)c(F)c6F)c6nc(c(-c7c(F)c(F)c(F)c(F)c7F)c7ccc4[nH]7)C=C6)C=C5)cc3)c2C)cc1Br
REMARK SMILES IDX 23 1 22 2 21 3 19 4 20 5 18 6 14 7 15 8 96 9 16 10 97 11
REMARK SMILES IDX 17 12 13 13 11 15 12 16 10 17 8 18 9 19 7 21 4 22 5 23 99 24
REMARK SMILES IDX 6 25 98 26 100 27 3 28 2 29 1 30 24 31 25 32 26 33 27 34
REMARK SMILES IDX 28 35 29 36 30 37 31 38 32 39 33 40 34 41 95 42 35 43 94 44
REMARK SMILES IDX 36 45 37 46 38 47 88 48 39 49 93 50 87 51 89 52 40 53 92 54
REMARK SMILES IDX 86 55 85 56 41 58 73 59 53 60 72 61 54 62 57 63 71 64 90 65
REMARK SMILES IDX 55 66 56 67 70 69 91 70 58 71 42 72 43 73 51 74 44 75 45 76
REMARK SMILES IDX 49 77 52 78 46 79 47 80 50 81 48 82 74 83 75 84 83 85 76 86
REMARK SMILES IDX 77 87 81 88 84 89 78 90 79 91 82 92 80 93 59 94 60 95 68 96
REMARK SMILES IDX 61 97 62 98 66 99 69 100 63 101 64 102 67 103 65 104
REMARK H PARENT 13 14 10 20 89 57 57 68
REMARK Flexibility Score: inf
ROOT
ATOM      1  C   UNL     1      -1.659   0.124   4.681  1.00  0.00     0.202 C 
ENDROOT
BRANCH   1   2
ATOM      2  C   UNL     1      -0.434   1.366   4.693  1.00  0.00     0.261 C 
BRANCH   2   3
ATOM      3  O   UNL     1       1.293   1.647   3.852  1.00  0.00    -0.460 OA
BRANCH   3   4
ATOM      4  C   UNL     1       2.856   0.937   3.405  1.00  0.00     0.338 C 
ATOM      5  O   UNL     1       3.145  -0.246   3.632  1.00  0.00    -0.246 OA
BRANCH   4   6
ATOM      6  C   UNL     1       4.189   1.656   2.269  1.00  0.00     0.065 A 
ATOM      7  C   UNL     1       5.950   1.170  -0.318  1.00  0.00     0.044 A 
ATOM      8  C   UNL     1       6.087   2.935  -0.621  1.00  0.00     0.026 A 
ATOM      9  C   UNL     1       4.990   0.474   1.080  1.00  0.00    -0.013 A 
ATOM     10  C   UNL     1       5.359   4.154   0.389  1.00  0.00     0.003 A 
ATOM     11  C   UNL     1       5.118  -1.026   1.178  1.00  0.00     0.047 C 
ATOM     12  C   UNL     1       4.428   3.608   1.798  1.00  0.00     0.016 A 
BRANCH   7  13
ATOM     13  N   UNL     1       7.338   0.704  -0.297  1.00  0.00    -0.332 N 
ATOM     14  H   UNL     1       7.532  -0.142  -0.763  1.00  0.00     0.169 HD
BRANCH  13  15
ATOM     15  C   UNL     1       8.428   1.355   0.330  1.00  0.00     0.177 C 
ATOM     16  S   UNL     1       9.890   1.330  -0.492  1.00  0.00    -0.040 S 
BRANCH  15  17
ATOM     17  N   UNL     1       8.381   2.017   1.679  1.00  0.00    -0.299 N 
ATOM     18  C   UNL     1       7.603   2.527   2.994  1.00  0.00     0.257 C 
ATOM     19  O   UNL     1       8.277   2.893   3.952  1.00  0.00    -0.269 OA
ATOM     20  H   UNL     1       9.317   2.271   1.847  1.00  0.00     0.172 HD
BRANCH  18  21
ATOM     21  C   UNL     1       6.047   2.672   2.992  1.00  0.00     0.041 A 
ATOM     22  C   UNL     1       2.592   2.603   1.352  1.00  0.00     0.133 A 
ATOM     23  C   UNL     1       2.927   3.131   3.115  1.00  0.00     0.048 A 
ATOM     24  C   UNL     1       4.052   2.312   0.418  1.00  0.00     0.060 A 
ATOM     25  C   UNL     1       4.603   3.080   3.896  1.00  0.00     0.018 A 
ATOM     26  C   UNL     1       5.769   2.360   1.422  1.00  0.00     0.033 A 
ATOM     27  Br  UNL     1       3.455   2.722  -1.490  1.00  0.00    -0.047 Br
BRANCH  22  28
ATOM     28  O   UNL     1       2.309   0.934   1.288  1.00  0.00    -0.493 OA
BRANCH  28  29
ATOM     29  C   UNL     1       2.314  -0.213   0.332  1.00  0.00     0.226 C 
ATOM     30  C   UNL     1       2.140  -0.128  -1.165  1.00  0.00     0.049 C 
ENDBRANCH  28  29
ENDBRANCH  22  28
ENDBRANCH  18  21
ENDBRANCH  15  17
ENDBRANCH  13  15
ENDBRANCH   7  13
ENDBRANCH   4   6
ENDBRANCH   3   4
ENDBRANCH   2   3
ENDBRANCH   1   2
BRANCH   1  31
ATOM     31  O   UNL     1      -2.021  -0.759   3.639  1.00  0.00    -0.376 OA
BRANCH  31  32
ATOM     32  C   UNL     1      -2.758  -0.262   2.558  1.00  0.00     0.188 C 
BRANCH  32  33
ATOM     33  C   UNL     1      -3.611   1.009   2.808  1.00  0.00     0.188 C 
BRANCH  33  34
ATOM     34  O   UNL     1      -4.941   0.714   3.150  1.00  0.00    -0.376 OA
BRANCH  34  35
ATOM     35  C   UNL     1      -5.396  -0.344   2.329  1.00  0.00     0.202 C 
BRANCH  35  36
ATOM     36  C   UNL     1      -5.136  -0.272   0.779  1.00  0.00     0.261 C 
BRANCH  36  37
ATOM     37  O   UNL     1      -4.099   0.547   0.010  1.00  0.00    -0.460 OA
BRANCH  37  38
ATOM     38  C   UNL     1      -3.098   1.281  -0.501  1.00  0.00     0.338 C 
ATOM     39  O   UNL     1      -2.989   1.405  -1.720  1.00  0.00    -0.246 OA
BRANCH  38  40
ATOM     40  C   UNL     1      -1.899   1.634   0.292  1.00  0.00     0.060 A 
ATOM     41  C   UNL     1      -0.871   0.802  -0.017  1.00  0.00     0.016 A 
ATOM     42  C   UNL     1      -1.635   2.465   1.370  1.00  0.00     0.016 A 
ATOM     43  C   UNL     1      -0.022   0.422   1.079  1.00  0.00     0.010 A 
ATOM     44  C   UNL     1      -0.698   1.986   2.385  1.00  0.00     0.010 A 
ATOM     45  C   UNL     1      -0.069   0.628   2.458  1.00  0.00    -0.014 A 
BRANCH  45  46
ATOM     46  C   UNL     1       0.708  -0.372   3.873  1.00  0.00     0.031 A 
ATOM     47  C   UNL     1       1.546   0.344   5.470  1.00  0.00     0.074 A 
ATOM     48  C   UNL     1       0.613  -1.719   4.014  1.00  0.00     0.049 A 
ATOM     49  N   UNL     1       2.623  -0.045   6.124  1.00  0.00    -0.248 NA
ATOM     50  C   UNL     1       1.388   1.902   6.086  1.00  0.00     0.031 C 
ATOM     51  C   UNL     1       0.613  -2.360   5.343  1.00  0.00     0.029 A 
ATOM     52  N   UNL     1       0.318  -2.769   3.140  1.00  0.00    -0.354 N 
ATOM     53  C   UNL     1       2.962   0.976   7.078  1.00  0.00     0.074 A 
ATOM     54  C   UNL     1       2.561   2.207   6.571  1.00  0.00     0.031 C 
ATOM     55  C   UNL     1       0.530  -3.688   5.209  1.00  0.00     0.029 A 
ATOM     56  C   UNL     1       0.713  -3.964   3.810  1.00  0.00     0.049 A 
ATOM     57  H   UNL     1      -0.082  -2.698   2.244  1.00  0.00     0.167 HD
ATOM     58  C   UNL     1       3.076   0.736   8.419  1.00  0.00     0.037 A 
ATOM     59  C   UNL     1       1.721  -4.760   3.342  1.00  0.00     0.037 A 
ATOM     60  C   UNL     1       3.084  -0.692   8.541  1.00  0.00     0.049 A 
ATOM     61  C   UNL     1       2.950  -4.763   4.256  1.00  0.00     0.074 A 
ATOM     62  C   UNL     1       2.105  -1.628   8.808  1.00  0.00     0.029 A 
ATOM     63  N   UNL     1       4.068  -1.332   7.822  1.00  0.00    -0.354 N 
ATOM     64  N   UNL     1       3.133  -3.933   5.255  1.00  0.00    -0.248 NA
ATOM     65  C   UNL     1       4.042  -5.728   4.162  1.00  0.00     0.031 C 
ATOM     66  C   UNL     1       2.533  -2.853   8.214  1.00  0.00     0.029 A 
ATOM     67  C   UNL     1       3.777  -2.655   7.637  1.00  0.00     0.049 A 
ATOM     68  H   UNL     1       4.881  -0.892   7.482  1.00  0.00     0.167 HD
ATOM     69  C   UNL     1       4.320  -4.197   5.898  1.00  0.00     0.074 A 
ATOM     70  C   UNL     1       4.832  -5.349   5.185  1.00  0.00     0.031 C 
ATOM     71  C   UNL     1       4.779  -3.460   6.963  1.00  0.00     0.037 A 
BRANCH  58  72
ATOM     72  C   UNL     1       2.863   1.734   9.589  1.00  0.00     0.064 A 
ATOM     73  C   UNL     1       2.712   1.218  10.894  1.00  0.00     0.173 A 
ATOM     74  C   UNL     1       2.744   3.153   9.547  1.00  0.00     0.173 A 
ATOM     75  F   UNL     1       2.870  -0.090  11.136  1.00  0.00    -0.203 F 
ATOM     76  C   UNL     1       2.404   2.014  12.012  1.00  0.00     0.198 A 
ATOM     77  C   UNL     1       2.385   3.943  10.652  1.00  0.00     0.198 A 
ATOM     78  F   UNL     1       3.026   3.885   8.468  1.00  0.00    -0.203 F 
ATOM     79  F   UNL     1       2.286   1.444  13.219  1.00  0.00    -0.200 F 
ATOM     80  C   UNL     1       2.215   3.374  11.888  1.00  0.00     0.200 A 
ATOM     81  F   UNL     1       2.222   5.268  10.498  1.00  0.00    -0.200 F 
ATOM     82  F   UNL     1       1.904   4.130  12.949  1.00  0.00    -0.200 F 
ENDBRANCH  58  72
BRANCH  59  83
ATOM     83  C   UNL     1       1.614  -4.906   1.862  1.00  0.00     0.064 A 
ATOM     84  C   UNL     1       0.339  -5.294   1.376  1.00  0.00     0.173 A 
ATOM     85  C   UNL     1       2.446  -4.216   0.983  1.00  0.00     0.173 A 
ATOM     86  F   UNL     1      -0.472  -6.041   2.145  1.00  0.00    -0.203 F 
ATOM     87  C   UNL     1      -0.186  -4.745   0.211  1.00  0.00     0.198 A 
ATOM     88  C   UNL     1       1.944  -3.748  -0.235  1.00  0.00     0.198 A 
ATOM     89  F   UNL     1       3.699  -3.901   1.334  1.00  0.00    -0.203 F 
ATOM     90  F   UNL     1      -1.482  -4.918  -0.087  1.00  0.00    -0.200 F 
ATOM     91  C   UNL     1       0.607  -3.930  -0.573  1.00  0.00     0.200 A 
ATOM     92  F   UNL     1       2.736  -3.034  -1.048  1.00  0.00    -0.200 F 
ATOM     93  F   UNL     1       0.079  -3.293  -1.627  1.00  0.00    -0.200 F 
ENDBRANCH  59  83
BRANCH  71  94
ATOM     94  C   UNL     1       6.205  -3.413   7.543  1.00  0.00     0.064 A 
ATOM     95  C   UNL     1       7.323  -3.988   6.929  1.00  0.00     0.173 A 
ATOM     96  C   UNL     1       6.522  -2.667   8.725  1.00  0.00     0.173 A 
ATOM     97  F   UNL     1       7.252  -4.548   5.718  1.00  0.00    -0.203 F 
ATOM     98  C   UNL     1       8.596  -3.958   7.513  1.00  0.00     0.198 A 
ATOM     99  C   UNL     1       7.813  -2.529   9.229  1.00  0.00     0.198 A 
ATOM    100  F   UNL     1       5.605  -2.019   9.455  1.00  0.00    -0.203 F 
ATOM    101  F   UNL     1       9.595  -4.644   6.941  1.00  0.00    -0.200 F 
ATOM    102  C   UNL     1       8.844  -3.224   8.656  1.00  0.00     0.200 A 
ATOM    103  F   UNL     1       8.035  -1.722  10.278  1.00  0.00    -0.200 F 
ATOM    104  F   UNL     1      10.068  -3.180   9.194  1.00  0.00    -0.200 F 
ENDBRANCH  71  94
ENDBRANCH  45  46
ENDBRANCH  38  40
ENDBRANCH  37  38
ENDBRANCH  36  37
ENDBRANCH  35  36
ENDBRANCH  34  35
ENDBRANCH  33  34
ENDBRANCH  32  33
ENDBRANCH  31  32
ENDBRANCH   1  31
TORSDOF 23
