REMARK SMILES O=C(OCCOCCOCCOC(=O)c1cn(C2CN(C(=O)[C@@H]3CC=CCC3)C2)nn1)c1ccc(-c2c3nc(c(-c4c(F)c(F)c(F)c(F)c4F)c4ccc([nH]4)c(-c4c(F)c(F)c(F)c(F)c4F)c4nc(c(-c5c(F)c(F)c(F)c(F)c5F)c5ccc2[nH]5)C=C4)C=C3)cc1
REMARK SMILES IDX 7 1 6 2 5 3 4 4 3 5 2 6 1 7 32 8 33 9 94 10 34 11 93 12
REMARK SMILES IDX 35 13 36 14 37 15 87 16 38 17 92 18 86 19 88 20 39 21 91 22
REMARK SMILES IDX 85 23 84 24 40 26 72 27 52 28 71 29 53 30 56 31 70 32 89 33
REMARK SMILES IDX 54 34 55 35 69 37 90 38 57 39 41 40 42 41 50 42 43 43 44 44
REMARK SMILES IDX 48 45 51 46 45 47 46 48 49 49 47 50 73 51 74 52 82 53 75 54
REMARK SMILES IDX 76 55 80 56 83 57 77 58 78 59 81 60 79 61 58 62 59 63 67 64
REMARK SMILES IDX 60 65 61 66 65 67 68 68 62 69 63 70 66 71 64 72 8 73 9 74
REMARK SMILES IDX 10 75 11 76 12 77 13 78 14 79 15 80 16 81 31 82 17 83 30 84
REMARK SMILES IDX 18 85 19 86 29 87 20 88 21 89 22 90 23 91 24 92 28 93 25 94
REMARK SMILES IDX 27 95 26 96
REMARK H PARENT 88 25 56 36
REMARK Flexibility Score: inf
ROOT
ATOM      1  C   UNL     1      -3.820  17.112  10.274  1.00  0.00     0.188 C 
ENDROOT
BRANCH   1   2
ATOM      2  O   UNL     1      -3.756  17.410  11.667  1.00  0.00    -0.376 OA
BRANCH   2   3
ATOM      3  C   UNL     1      -3.659  18.784  12.005  1.00  0.00     0.202 C 
BRANCH   3   4
ATOM      4  C   UNL     1      -4.998  19.525  11.983  1.00  0.00     0.261 C 
BRANCH   4   5
ATOM      5  O   UNL     1      -5.825  19.254  10.839  1.00  0.00    -0.460 OA
BRANCH   5   6
ATOM      6  C   UNL     1      -5.893  19.921   9.670  1.00  0.00     0.338 C 
ATOM      7  O   UNL     1      -6.948  19.980   9.046  1.00  0.00    -0.246 OA
BRANCH   6   8
ATOM      8  C   UNL     1      -4.655  20.368   8.993  1.00  0.00     0.060 A 
ATOM      9  C   UNL     1      -3.640  21.085   9.627  1.00  0.00     0.016 A 
ATOM     10  C   UNL     1      -4.591  20.148   7.604  1.00  0.00     0.016 A 
ATOM     11  C   UNL     1      -2.610  21.638   8.882  1.00  0.00     0.010 A 
ATOM     12  C   UNL     1      -3.577  20.722   6.850  1.00  0.00     0.010 A 
ATOM     13  C   UNL     1      -2.639  21.532   7.493  1.00  0.00    -0.014 A 
BRANCH  13  14
ATOM     14  C   UNL     1      -1.848  22.513   6.756  1.00  0.00     0.031 A 
ATOM     15  C   UNL     1      -0.376  22.329   6.648  1.00  0.00     0.074 A 
ATOM     16  C   UNL     1      -2.488  23.545   6.168  1.00  0.00     0.049 A 
ATOM     17  N   UNL     1       0.566  23.190   6.889  1.00  0.00    -0.248 NA
ATOM     18  C   UNL     1       0.112  21.011   6.220  1.00  0.00     0.031 C 
ATOM     19  C   UNL     1      -3.938  23.719   6.003  1.00  0.00     0.029 A 
ATOM     20  N   UNL     1      -1.970  24.602   5.484  1.00  0.00    -0.354 N 
ATOM     21  C   UNL     1       1.755  22.579   6.495  1.00  0.00     0.074 A 
ATOM     22  C   UNL     1       1.428  21.215   6.160  1.00  0.00     0.031 C 
ATOM     23  C   UNL     1      -4.167  24.667   5.072  1.00  0.00     0.029 A 
ATOM     24  C   UNL     1      -2.894  25.242   4.677  1.00  0.00     0.049 A 
ATOM     25  H   UNL     1      -1.030  24.884   5.556  1.00  0.00     0.167 HD
ATOM     26  C   UNL     1       2.913  23.268   6.296  1.00  0.00     0.037 A 
ATOM     27  C   UNL     1      -2.628  26.100   3.667  1.00  0.00     0.037 A 
ATOM     28  C   UNL     1       2.946  24.521   6.990  1.00  0.00     0.049 A 
ATOM     29  C   UNL     1      -1.264  26.639   3.871  1.00  0.00     0.074 A 
ATOM     30  C   UNL     1       2.914  24.898   8.319  1.00  0.00     0.029 A 
ATOM     31  N   UNL     1       2.775  25.683   6.283  1.00  0.00    -0.354 N 
ATOM     32  N   UNL     1      -0.927  27.438   4.846  1.00  0.00    -0.248 NA
ATOM     33  C   UNL     1      -0.158  25.965   3.208  1.00  0.00     0.031 C 
ATOM     34  C   UNL     1       2.245  26.156   8.337  1.00  0.00     0.029 A 
ATOM     35  C   UNL     1       1.917  26.462   7.016  1.00  0.00     0.049 A 
ATOM     36  H   UNL     1       3.187  25.913   5.419  1.00  0.00     0.167 HD
ATOM     37  C   UNL     1       0.369  27.073   5.175  1.00  0.00     0.074 A 
ATOM     38  C   UNL     1       0.826  26.243   4.066  1.00  0.00     0.031 C 
ATOM     39  C   UNL     1       0.853  27.246   6.440  1.00  0.00     0.037 A 
BRANCH  26  40
ATOM     40  C   UNL     1       3.914  22.904   5.234  1.00  0.00     0.064 A 
ATOM     41  C   UNL     1       5.226  23.411   5.281  1.00  0.00     0.173 A 
ATOM     42  C   UNL     1       3.534  22.288   4.023  1.00  0.00     0.173 A 
ATOM     43  F   UNL     1       5.668  24.060   6.368  1.00  0.00    -0.203 F 
ATOM     44  C   UNL     1       6.085  23.327   4.181  1.00  0.00     0.198 A 
ATOM     45  C   UNL     1       4.408  22.162   2.946  1.00  0.00     0.198 A 
ATOM     46  F   UNL     1       2.274  21.881   3.811  1.00  0.00    -0.203 F 
ATOM     47  F   UNL     1       7.293  23.905   4.232  1.00  0.00    -0.200 F 
ATOM     48  C   UNL     1       5.677  22.700   3.016  1.00  0.00     0.200 A 
ATOM     49  F   UNL     1       3.985  21.576   1.817  1.00  0.00    -0.200 F 
ATOM     50  F   UNL     1       6.483  22.657   1.947  1.00  0.00    -0.200 F 
ENDBRANCH  26  40
BRANCH  27  51
ATOM     51  C   UNL     1      -3.364  26.174   2.386  1.00  0.00     0.064 A 
ATOM     52  C   UNL     1      -3.301  27.309   1.569  1.00  0.00     0.173 A 
ATOM     53  C   UNL     1      -3.980  25.032   1.830  1.00  0.00     0.173 A 
ATOM     54  F   UNL     1      -2.675  28.414   1.999  1.00  0.00    -0.203 F 
ATOM     55  C   UNL     1      -3.836  27.306   0.276  1.00  0.00     0.198 A 
ATOM     56  C   UNL     1      -4.529  25.035   0.550  1.00  0.00     0.198 A 
ATOM     57  F   UNL     1      -3.987  23.862   2.486  1.00  0.00    -0.203 F 
ATOM     58  F   UNL     1      -3.717  28.394  -0.498  1.00  0.00    -0.200 F 
ATOM     59  C   UNL     1      -4.449  26.170  -0.231  1.00  0.00     0.200 A 
ATOM     60  F   UNL     1      -5.085  23.917   0.062  1.00  0.00    -0.200 F 
ATOM     61  F   UNL     1      -4.927  26.157  -1.483  1.00  0.00    -0.200 F 
ENDBRANCH  27  51
BRANCH  39  62
ATOM     62  C   UNL     1       0.029  28.068   7.388  1.00  0.00     0.064 A 
ATOM     63  C   UNL     1      -1.225  27.649   7.864  1.00  0.00     0.173 A 
ATOM     64  C   UNL     1       0.581  29.225   7.951  1.00  0.00     0.173 A 
ATOM     65  F   UNL     1      -1.758  26.489   7.460  1.00  0.00    -0.203 F 
ATOM     66  C   UNL     1      -1.920  28.385   8.820  1.00  0.00     0.198 A 
ATOM     67  C   UNL     1      -0.101  29.942   8.932  1.00  0.00     0.198 A 
ATOM     68  F   UNL     1       1.808  29.630   7.588  1.00  0.00    -0.203 F 
ATOM     69  F   UNL     1      -3.118  27.965   9.253  1.00  0.00    -0.200 F 
ATOM     70  C   UNL     1      -1.354  29.529   9.357  1.00  0.00     0.200 A 
ATOM     71  F   UNL     1       0.473  31.016   9.492  1.00  0.00    -0.200 F 
ATOM     72  F   UNL     1      -2.002  30.215  10.310  1.00  0.00    -0.200 F 
ENDBRANCH  39  62
ENDBRANCH  13  14
ENDBRANCH   6   8
ENDBRANCH   5   6
ENDBRANCH   4   5
ENDBRANCH   3   4
ENDBRANCH   2   3
ENDBRANCH   1   2
BRANCH   1  73
ATOM     73  C   UNL     1      -5.144  16.466   9.799  1.00  0.00     0.188 C 
BRANCH  73  74
ATOM     74  O   UNL     1      -5.809  15.445  10.541  1.00  0.00    -0.376 OA
BRANCH  74  75
ATOM     75  C   UNL     1      -5.582  15.340  11.936  1.00  0.00     0.202 C 
BRANCH  75  76
ATOM     76  C   UNL     1      -4.489  14.309  12.242  1.00  0.00     0.261 C 
BRANCH  76  77
ATOM     77  O   UNL     1      -3.389  14.355  11.316  1.00  0.00    -0.458 OA
BRANCH  77  78
ATOM     78  C   UNL     1      -3.529  13.578  10.199  1.00  0.00     0.360 C 
ATOM     79  O   UNL     1      -4.391  12.730  10.026  1.00  0.00    -0.244 OA
BRANCH  78  80
ATOM     80  C   UNL     1      -2.501  13.864   9.216  1.00  0.00     0.190 A 
ATOM     81  C   UNL     1      -1.196  13.418   9.204  1.00  0.00     0.147 A 
ATOM     82  N   UNL     1      -2.721  14.625   8.092  1.00  0.00    -0.123 NA
ATOM     83  N   UNL     1      -0.707  13.868   8.009  1.00  0.00    -0.245 N 
ATOM     84  N   UNL     1      -1.601  14.654   7.384  1.00  0.00    -0.066 NA
BRANCH  83  85
ATOM     85  C   UNL     1       0.511  13.486   7.361  1.00  0.00     0.148 C 
ATOM     86  C   UNL     1       1.730  13.304   8.280  1.00  0.00     0.148 C 
ATOM     87  C   UNL     1       0.568  11.954   7.131  1.00  0.00     0.148 C 
ATOM     88  N   UNL     1       1.925  12.028   7.609  1.00  0.00    -0.338 N 
ATOM     89  C   UNL     1       3.049  11.267   7.559  1.00  0.00     0.226 C 
ATOM     90  O   UNL     1       4.054  11.604   8.191  1.00  0.00    -0.275 OA
BRANCH  89  91
ATOM     91  C   UNL     1       3.079  10.006   6.706  1.00  0.00     0.083 C 
ATOM     92  C   UNL     1       2.900  10.295   5.209  1.00  0.00     0.040 C 
ATOM     93  C   UNL     1       2.131   8.902   7.178  1.00  0.00     0.018 C 
ATOM     94  C   UNL     1       2.814   9.036   4.393  1.00  0.00    -0.030 C 
ATOM     95  C   UNL     1       2.410   7.604   6.408  1.00  0.00     0.028 C 
ATOM     96  C   UNL     1       2.613   7.826   4.935  1.00  0.00    -0.031 C 
ENDBRANCH  89  91
ENDBRANCH  83  85
ENDBRANCH  78  80
ENDBRANCH  77  78
ENDBRANCH  76  77
ENDBRANCH  75  76
ENDBRANCH  74  75
ENDBRANCH  73  74
ENDBRANCH   1  73
TORSDOF 19
