REMARK SMILES C[C@H](C(=O)OCCOCCOCCOC(=O)c1ccc(-c2c3nc(c(-c4c(F)c(F)c(F)c(F)c4F)c4ccc([nH]4)c(-c4c(F)c(F)c(F)c(F)c4F)c4nc(c(-c5c(F)c(F)c(F)c(F)c5F)c5ccc2[nH]5)C=C4)C=C3)cc1)N1C(=O)/C(=C/c2ccccc2F)SC1=S
REMARK SMILES IDX 9 1 8 2 7 3 6 4 5 5 3 6 4 7 2 8 1 9 80 10 81 11 93 12 82 13
REMARK SMILES IDX 83 14 92 15 94 16 84 17 85 18 86 19 90 20 87 21 89 22 91 23
REMARK SMILES IDX 88 24 10 25 11 26 12 27 13 28 14 29 15 30 16 31 17 32 18 33
REMARK SMILES IDX 79 34 19 35 78 36 20 37 21 38 22 39 72 40 23 41 77 42 71 43
REMARK SMILES IDX 73 44 24 45 76 46 70 47 69 48 25 50 57 51 37 52 56 53 38 54
REMARK SMILES IDX 41 55 55 56 74 57 39 58 40 59 54 61 75 62 42 63 26 64 27 65
REMARK SMILES IDX 35 66 28 67 29 68 33 69 36 70 30 71 31 72 34 73 32 74 58 75
REMARK SMILES IDX 59 76 67 77 60 78 61 79 65 80 68 81 62 82 63 83 66 84 64 85
REMARK SMILES IDX 43 86 44 87 52 88 45 89 46 90 50 91 53 92 47 93 48 94 51 95
REMARK SMILES IDX 49 96
REMARK H PARENT 73 49 41 60
REMARK Flexibility Score: inf
ROOT
ATOM      1  C   UNL     1       3.333   0.610   0.283  1.00  0.00     0.188 C 
ENDROOT
BRANCH   1   2
ATOM      2  O   UNL     1       3.526   1.292  -0.954  1.00  0.00    -0.376 OA
BRANCH   2   3
ATOM      3  C   UNL     1       2.574   2.265  -1.361  1.00  0.00     0.202 C 
BRANCH   3   4
ATOM      4  C   UNL     1       1.135   1.776  -1.546  1.00  0.00     0.261 C 
BRANCH   4   5
ATOM      5  O   UNL     1       0.710   0.882  -0.500  1.00  0.00    -0.462 OA
BRANCH   5   6
ATOM      6  C   UNL     1       0.230  -0.329  -0.861  1.00  0.00     0.329 C 
ATOM      7  O   UNL     1       0.032  -0.668  -2.023  1.00  0.00    -0.250 OA
BRANCH   6   8
ATOM      8  C   UNL     1      -0.174  -1.217   0.332  1.00  0.00     0.199 C 
ATOM      9  C   UNL     1       0.562  -1.270   1.665  1.00  0.00     0.044 C 
BRANCH   8  10
ATOM     10  N   UNL     1      -1.620  -1.187   0.540  1.00  0.00    -0.279 N 
ATOM     11  C   UNL     1      -2.276  -2.401   0.488  1.00  0.00     0.266 C 
ATOM     12  C   UNL     1      -2.365  -0.099   0.955  1.00  0.00     0.149 C 
ATOM     13  O   UNL     1      -1.758  -3.501   0.353  1.00  0.00    -0.268 OA
ATOM     14  C   UNL     1      -3.719  -2.200   0.697  1.00  0.00     0.081 C 
ATOM     15  S   UNL     1      -4.052  -0.563   1.086  1.00  0.00    -0.054 SA
ATOM     16  S   UNL     1      -1.878   1.449   1.332  1.00  0.00    -0.052 S 
ATOM     17  C   UNL     1      -4.581  -3.208   0.536  1.00  0.00     0.032 C 
BRANCH  17  18
ATOM     18  C   UNL     1      -6.022  -2.994   0.540  1.00  0.00     0.012 A 
ATOM     19  C   UNL     1      -6.801  -3.395   1.625  1.00  0.00     0.011 A 
ATOM     20  C   UNL     1      -6.617  -2.310  -0.527  1.00  0.00     0.130 A 
ATOM     21  C   UNL     1      -8.163  -3.094   1.639  1.00  0.00     0.001 A 
ATOM     22  C   UNL     1      -7.968  -2.002  -0.512  1.00  0.00     0.040 A 
ATOM     23  F   UNL     1      -5.874  -1.912  -1.572  1.00  0.00    -0.206 F 
ATOM     24  C   UNL     1      -8.744  -2.394   0.576  1.00  0.00     0.003 A 
ENDBRANCH  17  18
ENDBRANCH   8  10
ENDBRANCH   6   8
ENDBRANCH   5   6
ENDBRANCH   4   5
ENDBRANCH   3   4
ENDBRANCH   2   3
ENDBRANCH   1   2
BRANCH   1  25
ATOM     25  C   UNL     1       2.653   1.331   1.471  1.00  0.00     0.188 C 
BRANCH  25  26
ATOM     26  O   UNL     1       2.759   2.734   1.366  1.00  0.00    -0.376 OA
BRANCH  26  27
ATOM     27  C   UNL     1       3.372   3.400   2.444  1.00  0.00     0.202 C 
BRANCH  27  28
ATOM     28  C   UNL     1       4.880   3.152   2.589  1.00  0.00     0.261 C 
BRANCH  28  29
ATOM     29  O   UNL     1       5.346   1.812   2.328  1.00  0.00    -0.460 OA
BRANCH  29  30
ATOM     30  C   UNL     1       5.282   0.915   3.335  1.00  0.00     0.338 C 
ATOM     31  O   UNL     1       4.822   1.102   4.453  1.00  0.00    -0.246 OA
BRANCH  30  32
ATOM     32  C   UNL     1       5.704  -0.415   2.828  1.00  0.00     0.060 A 
ATOM     33  C   UNL     1       4.802  -1.488   2.878  1.00  0.00     0.016 A 
ATOM     34  C   UNL     1       6.991  -0.612   2.323  1.00  0.00     0.016 A 
ATOM     35  C   UNL     1       5.196  -2.765   2.456  1.00  0.00     0.010 A 
ATOM     36  C   UNL     1       7.390  -1.894   1.921  1.00  0.00     0.010 A 
ATOM     37  C   UNL     1       6.508  -2.987   2.012  1.00  0.00    -0.014 A 
BRANCH  37  38
ATOM     38  C   UNL     1       7.023  -4.370   1.811  1.00  0.00     0.031 A 
ATOM     39  C   UNL     1       7.859  -4.992   2.899  1.00  0.00     0.074 A 
ATOM     40  C   UNL     1       6.773  -5.071   0.689  1.00  0.00     0.049 A 
ATOM     41  N   UNL     1       8.513  -6.127   2.909  1.00  0.00    -0.248 NA
ATOM     42  C   UNL     1       7.977  -4.220   4.146  1.00  0.00     0.031 C 
ATOM     43  C   UNL     1       5.943  -4.619  -0.423  1.00  0.00     0.029 A 
ATOM     44  N   UNL     1       7.218  -6.312   0.295  1.00  0.00    -0.354 N 
ATOM     45  C   UNL     1       9.128  -6.199   4.153  1.00  0.00     0.074 A 
ATOM     46  C   UNL     1       8.793  -4.981   4.859  1.00  0.00     0.031 C 
ATOM     47  C   UNL     1       5.953  -5.560  -1.385  1.00  0.00     0.029 A 
ATOM     48  C   UNL     1       6.825  -6.661  -0.975  1.00  0.00     0.049 A 
ATOM     49  H   UNL     1       7.766  -6.895   0.869  1.00  0.00     0.167 HD
ATOM     50  C   UNL     1       9.897  -7.190   4.665  1.00  0.00     0.037 A 
ATOM     51  C   UNL     1       7.159  -7.727  -1.732  1.00  0.00     0.037 A 
ATOM     52  C   UNL     1      10.238  -8.401   3.963  1.00  0.00     0.049 A 
ATOM     53  C   UNL     1       8.091  -8.778  -1.175  1.00  0.00     0.074 A 
ATOM     54  C   UNL     1      11.005  -9.466   4.403  1.00  0.00     0.029 A 
ATOM     55  N   UNL     1       9.841  -8.703   2.669  1.00  0.00    -0.354 N 
ATOM     56  N   UNL     1       8.657  -8.846   0.006  1.00  0.00    -0.248 NA
ATOM     57  C   UNL     1       8.429  -9.903  -2.061  1.00  0.00     0.031 C 
ATOM     58  C   UNL     1      11.124 -10.384   3.354  1.00  0.00     0.029 A 
ATOM     59  C   UNL     1      10.372  -9.925   2.285  1.00  0.00     0.049 A 
ATOM     60  H   UNL     1       9.268  -8.134   2.106  1.00  0.00     0.167 HD
ATOM     61  C   UNL     1       9.386 -10.030   0.016  1.00  0.00     0.074 A 
ATOM     62  C   UNL     1       9.181 -10.658  -1.271  1.00  0.00     0.031 C 
ATOM     63  C   UNL     1      10.154 -10.551   1.005  1.00  0.00     0.037 A 
BRANCH  50  64
ATOM     64  C   UNL     1      10.454  -6.992   6.046  1.00  0.00     0.064 A 
ATOM     65  C   UNL     1       9.633  -7.008   7.184  1.00  0.00     0.173 A 
ATOM     66  C   UNL     1      11.833  -6.813   6.236  1.00  0.00     0.173 A 
ATOM     67  F   UNL     1       8.306  -7.163   7.059  1.00  0.00    -0.203 F 
ATOM     68  C   UNL     1      10.168  -6.821   8.457  1.00  0.00     0.198 A 
ATOM     69  C   UNL     1      12.368  -6.661   7.512  1.00  0.00     0.198 A 
ATOM     70  F   UNL     1      12.664  -6.795   5.183  1.00  0.00    -0.203 F 
ATOM     71  F   UNL     1       9.358  -6.786   9.524  1.00  0.00    -0.200 F 
ATOM     72  C   UNL     1      11.535  -6.655   8.620  1.00  0.00     0.200 A 
ATOM     73  F   UNL     1      13.692  -6.517   7.668  1.00  0.00    -0.200 F 
ATOM     74  F   UNL     1      12.049  -6.482   9.845  1.00  0.00    -0.200 F 
ENDBRANCH  50  64
BRANCH  51  75
ATOM     75  C   UNL     1       6.633  -7.853  -3.119  1.00  0.00     0.064 A 
ATOM     76  C   UNL     1       5.751  -8.884  -3.472  1.00  0.00     0.173 A 
ATOM     77  C   UNL     1       7.034  -6.967  -4.132  1.00  0.00     0.173 A 
ATOM     78  F   UNL     1       5.365  -9.779  -2.550  1.00  0.00    -0.203 F 
ATOM     79  C   UNL     1       5.308  -9.038  -4.785  1.00  0.00     0.198 A 
ATOM     80  C   UNL     1       6.564  -7.102  -5.437  1.00  0.00     0.198 A 
ATOM     81  F   UNL     1       7.885  -5.969  -3.853  1.00  0.00    -0.203 F 
ATOM     82  F   UNL     1       4.514 -10.069  -5.105  1.00  0.00    -0.200 F 
ATOM     83  C   UNL     1       5.709  -8.143  -5.765  1.00  0.00     0.200 A 
ATOM     84  F   UNL     1       6.948  -6.229  -6.378  1.00  0.00    -0.200 F 
ATOM     85  F   UNL     1       5.284  -8.292  -7.027  1.00  0.00    -0.200 F 
ENDBRANCH  51  75
BRANCH  63  86
ATOM     86  C   UNL     1      10.794 -11.892   0.763  1.00  0.00     0.064 A 
ATOM     87  C   UNL     1      11.845 -12.060  -0.151  1.00  0.00     0.173 A 
ATOM     88  C   UNL     1      10.377 -13.017   1.492  1.00  0.00     0.173 A 
ATOM     89  F   UNL     1      12.276 -11.021  -0.883  1.00  0.00    -0.203 F 
ATOM     90  C   UNL     1      12.434 -13.307  -0.345  1.00  0.00     0.198 A 
ATOM     91  C   UNL     1      10.991 -14.255   1.321  1.00  0.00     0.198 A 
ATOM     92  F   UNL     1       9.382 -12.913   2.387  1.00  0.00    -0.203 F 
ATOM     93  F   UNL     1      13.402 -13.454  -1.260  1.00  0.00    -0.200 F 
ATOM     94  C   UNL     1      12.013 -14.401   0.396  1.00  0.00     0.200 A 
ATOM     95  F   UNL     1      10.595 -15.305   2.053  1.00  0.00    -0.200 F 
ATOM     96  F   UNL     1      12.589 -15.598   0.215  1.00  0.00    -0.200 F 
ENDBRANCH  63  86
ENDBRANCH  37  38
ENDBRANCH  30  32
ENDBRANCH  29  30
ENDBRANCH  28  29
ENDBRANCH  27  28
ENDBRANCH  26  27
ENDBRANCH  25  26
ENDBRANCH   1  25
TORSDOF 19
