REMARK SMILES O=C(OCCOCCOCCOC(=O)[C@H]1Cc2ccc(Cl)cc2C[N@@H+]1Cc1ccc(Cl)cc1)c1ccc(-c2c3nc(c(-c4c(F)c(F)c(F)c(F)c4F)c4ccc([nH]4)c(-c4c(F)c(F)c(F)c(F)c4F)c4nc(c(-c5c(F)c(F)c(F)c(F)c5F)c5ccc2[nH]5)C=C4)C=C3)cc1
REMARK SMILES IDX 7 1 6 2 5 3 4 4 3 5 2 6 1 7 34 8 35 9 96 10 36 11 95 12
REMARK SMILES IDX 37 13 38 14 39 15 89 16 40 17 94 18 88 19 90 20 41 21 93 22
REMARK SMILES IDX 87 23 86 24 42 26 74 27 54 28 73 29 55 30 58 31 72 32 91 33
REMARK SMILES IDX 56 34 57 35 71 37 92 38 59 39 43 40 44 41 52 42 45 43 46 44
REMARK SMILES IDX 50 45 53 46 47 47 48 48 51 49 49 50 75 51 76 52 84 53 77 54
REMARK SMILES IDX 78 55 82 56 85 57 79 58 80 59 83 60 81 61 60 62 61 63 69 64
REMARK SMILES IDX 62 65 63 66 67 67 70 68 64 69 65 70 68 71 66 72 8 73 9 74
REMARK SMILES IDX 10 75 11 76 12 77 13 78 14 79 15 80 16 81 25 82 17 83 24 84
REMARK SMILES IDX 18 86 23 87 19 88 22 89 20 90 21 91 26 92 27 93 28 94 33 95
REMARK SMILES IDX 29 96 32 97 30 98 31 99
REMARK H PARENT 90 25 58 36 25 85
REMARK Flexibility Score: inf
ROOT
ATOM      1  C   UNL     1       2.518   1.238   0.537  1.00  0.00     0.188 C 
ENDROOT
BRANCH   1   2
ATOM      2  O   UNL     1       3.843   0.851   0.855  1.00  0.00    -0.376 OA
BRANCH   2   3
ATOM      3  C   UNL     1       4.839   1.049  -0.137  1.00  0.00     0.202 C 
BRANCH   3   4
ATOM      4  C   UNL     1       4.547   0.704  -1.598  1.00  0.00     0.261 C 
BRANCH   4   5
ATOM      5  O   UNL     1       3.594  -0.311  -1.978  1.00  0.00    -0.460 OA
BRANCH   5   6
ATOM      6  C   UNL     1       3.098  -1.418  -1.395  1.00  0.00     0.338 C 
ATOM      7  O   UNL     1       2.080  -1.929  -1.834  1.00  0.00    -0.246 OA
BRANCH   6   8
ATOM      8  C   UNL     1       3.739  -2.014  -0.201  1.00  0.00     0.060 A 
ATOM      9  C   UNL     1       2.923  -2.767   0.643  1.00  0.00     0.016 A 
ATOM     10  C   UNL     1       5.104  -1.933   0.076  1.00  0.00     0.016 A 
ATOM     11  C   UNL     1       3.469  -3.362   1.776  1.00  0.00     0.010 A 
ATOM     12  C   UNL     1       5.620  -2.412   1.288  1.00  0.00     0.010 A 
ATOM     13  C   UNL     1       4.799  -3.127   2.162  1.00  0.00    -0.014 A 
BRANCH  13  14
ATOM     14  C   UNL     1       5.387  -3.953   3.244  1.00  0.00     0.031 A 
ATOM     15  C   UNL     1       5.666  -3.470   4.641  1.00  0.00     0.074 A 
ATOM     16  C   UNL     1       5.662  -5.221   2.890  1.00  0.00     0.049 A 
ATOM     17  N   UNL     1       5.940  -4.183   5.708  1.00  0.00    -0.248 NA
ATOM     18  C   UNL     1       5.637  -2.025   4.895  1.00  0.00     0.031 C 
ATOM     19  C   UNL     1       5.466  -5.769   1.543  1.00  0.00     0.029 A 
ATOM     20  N   UNL     1       6.165  -6.266   3.608  1.00  0.00    -0.354 N 
ATOM     21  C   UNL     1       6.013  -3.286   6.771  1.00  0.00     0.074 A 
ATOM     22  C   UNL     1       5.815  -1.966   6.214  1.00  0.00     0.031 C 
ATOM     23  C   UNL     1       5.857  -7.047   1.529  1.00  0.00     0.029 A 
ATOM     24  C   UNL     1       6.348  -7.396   2.855  1.00  0.00     0.049 A 
ATOM     25  H   UNL     1       6.376  -6.214   4.568  1.00  0.00     0.167 HD
ATOM     26  C   UNL     1       6.225  -3.567   8.082  1.00  0.00     0.037 A 
ATOM     27  C   UNL     1       6.867  -8.587   3.190  1.00  0.00     0.037 A 
ATOM     28  C   UNL     1       6.547  -4.881   8.574  1.00  0.00     0.049 A 
ATOM     29  C   UNL     1       7.241  -8.822   4.619  1.00  0.00     0.074 A 
ATOM     30  C   UNL     1       6.751  -5.284   9.882  1.00  0.00     0.029 A 
ATOM     31  N   UNL     1       6.774  -5.988   7.771  1.00  0.00    -0.354 N 
ATOM     32  N   UNL     1       7.102  -8.018   5.644  1.00  0.00    -0.248 NA
ATOM     33  C   UNL     1       7.825 -10.126   4.944  1.00  0.00     0.031 C 
ATOM     34  C   UNL     1       7.189  -6.610   9.861  1.00  0.00     0.029 A 
ATOM     35  C   UNL     1       7.207  -7.049   8.546  1.00  0.00     0.049 A 
ATOM     36  H   UNL     1       6.646  -6.015   6.795  1.00  0.00     0.167 HD
ATOM     37  C   UNL     1       7.553  -8.726   6.745  1.00  0.00     0.074 A 
ATOM     38  C   UNL     1       7.967 -10.028   6.260  1.00  0.00     0.031 C 
ATOM     39  C   UNL     1       7.613  -8.335   8.040  1.00  0.00     0.037 A 
BRANCH  26  40
ATOM     40  C   UNL     1       6.115  -2.481   9.117  1.00  0.00     0.064 A 
ATOM     41  C   UNL     1       4.890  -2.251   9.758  1.00  0.00     0.173 A 
ATOM     42  C   UNL     1       7.240  -1.835   9.642  1.00  0.00     0.173 A 
ATOM     43  F   UNL     1       3.820  -2.976   9.424  1.00  0.00    -0.203 F 
ATOM     44  C   UNL     1       4.768  -1.358  10.819  1.00  0.00     0.198 A 
ATOM     45  C   UNL     1       7.130  -0.979  10.741  1.00  0.00     0.198 A 
ATOM     46  F   UNL     1       8.457  -2.086   9.138  1.00  0.00    -0.203 F 
ATOM     47  F   UNL     1       3.570  -1.146  11.381  1.00  0.00    -0.200 F 
ATOM     48  C   UNL     1       5.893  -0.728  11.317  1.00  0.00     0.200 A 
ATOM     49  F   UNL     1       8.229  -0.422  11.269  1.00  0.00    -0.200 F 
ATOM     50  F   UNL     1       5.789   0.091  12.374  1.00  0.00    -0.200 F 
ENDBRANCH  26  40
BRANCH  27  51
ATOM     51  C   UNL     1       7.020  -9.617   2.136  1.00  0.00     0.064 A 
ATOM     52  C   UNL     1       6.206 -10.754   2.115  1.00  0.00     0.173 A 
ATOM     53  C   UNL     1       7.914  -9.426   1.069  1.00  0.00     0.173 A 
ATOM     54  F   UNL     1       5.337 -10.973   3.112  1.00  0.00    -0.203 F 
ATOM     55  C   UNL     1       6.281 -11.667   1.067  1.00  0.00     0.198 A 
ATOM     56  C   UNL     1       7.965 -10.323   0.007  1.00  0.00     0.198 A 
ATOM     57  F   UNL     1       8.696  -8.337   1.032  1.00  0.00    -0.203 F 
ATOM     58  F   UNL     1       5.503 -12.757   1.076  1.00  0.00    -0.200 F 
ATOM     59  C   UNL     1       7.152 -11.445   0.009  1.00  0.00     0.200 A 
ATOM     60  F   UNL     1       8.784 -10.087  -1.028  1.00  0.00    -0.200 F 
ATOM     61  F   UNL     1       7.202 -12.311  -1.013  1.00  0.00    -0.200 F 
ENDBRANCH  27  51
BRANCH  39  62
ATOM     62  C   UNL     1       8.154  -9.316   9.031  1.00  0.00     0.064 A 
ATOM     63  C   UNL     1       9.525  -9.596   9.098  1.00  0.00     0.173 A 
ATOM     64  C   UNL     1       7.309  -9.900   9.987  1.00  0.00     0.173 A 
ATOM     65  F   UNL     1      10.366  -9.070   8.195  1.00  0.00    -0.203 F 
ATOM     66  C   UNL     1      10.033 -10.431  10.087  1.00  0.00     0.198 A 
ATOM     67  C   UNL     1       7.825 -10.710  10.993  1.00  0.00     0.198 A 
ATOM     68  F   UNL     1       5.991  -9.653   9.967  1.00  0.00    -0.203 F 
ATOM     69  F   UNL     1      11.344 -10.705  10.120  1.00  0.00    -0.200 F 
ATOM     70  C   UNL     1       9.186 -10.975  11.041  1.00  0.00     0.200 A 
ATOM     71  F   UNL     1       7.009 -11.220  11.925  1.00  0.00    -0.200 F 
ATOM     72  F   UNL     1       9.682 -11.756  12.011  1.00  0.00    -0.200 F 
ENDBRANCH  39  62
ENDBRANCH  13  14
ENDBRANCH   6   8
ENDBRANCH   5   6
ENDBRANCH   4   5
ENDBRANCH   3   4
ENDBRANCH   2   3
ENDBRANCH   1   2
BRANCH   1  73
ATOM     73  C   UNL     1       1.993   2.477   1.260  1.00  0.00     0.188 C 
BRANCH  73  74
ATOM     74  O   UNL     1       2.740   3.675   1.227  1.00  0.00    -0.376 OA
BRANCH  74  75
ATOM     75  C   UNL     1       4.056   3.752   1.743  1.00  0.00     0.202 C 
BRANCH  75  76
ATOM     76  C   UNL     1       4.543   3.083   3.048  1.00  0.00     0.261 C 
BRANCH  76  77
ATOM     77  O   UNL     1       3.898   1.888   3.516  1.00  0.00    -0.459 OA
BRANCH  77  78
ATOM     78  C   UNL     1       2.838   2.153   4.325  1.00  0.00     0.365 C 
ATOM     79  O   UNL     1       2.422   3.300   4.462  1.00  0.00    -0.245 OA
BRANCH  78  80
ATOM     80  C   UNL     1       2.227   0.940   5.074  1.00  0.00     0.300 C 
ATOM     81  C   UNL     1       2.456  -0.398   4.331  1.00  0.00     0.113 C 
ATOM     82  N   UNL     1       2.676   0.956   6.502  1.00  0.00    -0.315 N 
ATOM     83  C   UNL     1       2.196  -1.624   5.174  1.00  0.00    -0.033 A 
ATOM     84  C   UNL     1       2.233  -0.224   7.259  1.00  0.00     0.300 C 
ATOM     85  H   UNL     1       3.695   0.943   6.444  1.00  0.00     0.349 HD
ATOM     86  C   UNL     1       1.954  -2.873   4.595  1.00  0.00     0.006 A 
ATOM     87  C   UNL     1       2.238  -1.546   6.558  1.00  0.00     0.011 A 
ATOM     88  C   UNL     1       1.907  -4.048   5.354  1.00  0.00     0.021 A 
ATOM     89  C   UNL     1       2.066  -2.712   7.327  1.00  0.00     0.030 A 
ATOM     90  C   UNL     1       1.976  -3.962   6.732  1.00  0.00     0.041 A 
ATOM     91  Cl  UNL     1       1.879  -5.377   7.702  1.00  0.00    -0.084 Cl
BRANCH  82  92
ATOM     92  C   UNL     1       2.248   2.196   7.238  1.00  0.00     0.300 C 
BRANCH  92  93
ATOM     93  C   UNL     1       0.750   2.504   7.209  1.00  0.00     0.006 A 
ATOM     94  C   UNL     1      -0.155   1.785   8.003  1.00  0.00     0.011 A 
ATOM     95  C   UNL     1       0.218   3.416   6.286  1.00  0.00     0.011 A 
ATOM     96  C   UNL     1      -1.522   1.799   7.718  1.00  0.00     0.021 A 
ATOM     97  C   UNL     1      -1.146   3.439   5.997  1.00  0.00     0.021 A 
ATOM     98  C   UNL     1      -2.006   2.595   6.686  1.00  0.00     0.041 A 
ATOM     99  Cl  UNL     1      -3.669   2.530   6.257  1.00  0.00    -0.084 Cl
ENDBRANCH  92  93
ENDBRANCH  82  92
ENDBRANCH  78  80
ENDBRANCH  77  78
ENDBRANCH  76  77
ENDBRANCH  75  76
ENDBRANCH  74  75
ENDBRANCH  73  74
ENDBRANCH   1  73
TORSDOF 19
