REMARK SMILES O=C(CCS(=O)(=O)N1CCN(C(=O)[C@@H]2CCCO2)CC1)OCCOCCOCCOC(=O)c1ccc(-c2c3nc(c(-c4c(F)c(F)c(F)c(F)c4F)c4ccc([nH]4)c(-c4c(F)c(F)c(F)c(F)c4F)c4nc(c(-c5c(F)c(F)c(F)c(F)c5F)c5ccc2[nH]5)C=C4)C=C3)cc1
REMARK SMILES IDX 25 1 24 2 23 3 22 4 21 5 2 6 1 7 3 8 4 9 5 10 6 11 7 12 8 13
REMARK SMILES IDX 9 14 20 15 10 16 19 17 11 18 12 19 13 20 14 21 15 22 18 23
REMARK SMILES IDX 16 24 17 25 26 26 27 27 28 28 29 29 30 30 31 31 32 32 33 33
REMARK SMILES IDX 34 34 95 35 35 36 94 37 36 38 37 39 38 40 88 41 39 42 93 43
REMARK SMILES IDX 87 44 89 45 40 46 92 47 86 48 85 49 41 51 73 52 53 53 72 54
REMARK SMILES IDX 54 55 57 56 71 57 90 58 55 59 56 60 70 62 91 63 58 64 42 65
REMARK SMILES IDX 43 66 51 67 44 68 45 69 49 70 52 71 46 72 47 73 50 74 48 75
REMARK SMILES IDX 74 76 75 77 83 78 76 79 77 80 81 81 84 82 78 83 79 84 82 85
REMARK SMILES IDX 80 86 59 87 60 88 68 89 61 90 62 91 66 92 69 93 63 94 64 95
REMARK SMILES IDX 67 96 65 97
REMARK H PARENT 89 50 57 61
REMARK Flexibility Score: inf
ROOT
ATOM      1  C   UNL     1       3.426   0.724  -2.821  1.00  0.00     0.188 C 
ENDROOT
BRANCH   1   2
ATOM      2  O   UNL     1       4.844   0.640  -2.962  1.00  0.00    -0.376 OA
BRANCH   2   3
ATOM      3  C   UNL     1       5.636   0.109  -1.906  1.00  0.00     0.202 C 
BRANCH   3   4
ATOM      4  C   UNL     1       5.347   0.615  -0.498  1.00  0.00     0.261 C 
BRANCH   4   5
ATOM      5  O   UNL     1       3.997   0.267  -0.156  1.00  0.00    -0.463 OA
BRANCH   5   6
ATOM      6  C   UNL     1       3.123   1.099   0.432  1.00  0.00     0.306 C 
ATOM      7  O   UNL     1       1.915   0.948   0.268  1.00  0.00    -0.252 OA
BRANCH   6   8
ATOM      8  C   UNL     1       3.650   2.080   1.417  1.00  0.00     0.140 C 
BRANCH   8   9
ATOM      9  C   UNL     1       3.543   1.496   2.806  1.00  0.00     0.166 C 
BRANCH   9  10
ATOM     10  S   UNL     1       4.715   0.204   3.210  1.00  0.00     0.214 S 
ATOM     11  O   UNL     1       6.027   0.679   2.820  1.00  0.00    -0.212 OA
ATOM     12  O   UNL     1       4.459  -0.182   4.581  1.00  0.00    -0.212 OA
BRANCH  10  13
ATOM     13  N   UNL     1       4.415  -1.153   2.269  1.00  0.00    -0.198 NA
ATOM     14  C   UNL     1       3.036  -1.691   2.077  1.00  0.00     0.123 C 
ATOM     15  C   UNL     1       5.295  -2.318   2.648  1.00  0.00     0.123 C 
ATOM     16  C   UNL     1       3.070  -2.612   0.840  1.00  0.00     0.136 C 
ATOM     17  C   UNL     1       5.336  -3.372   1.531  1.00  0.00     0.136 C 
ATOM     18  N   UNL     1       4.027  -3.712   0.959  1.00  0.00    -0.338 N 
ATOM     19  C   UNL     1       3.895  -4.756   0.040  1.00  0.00     0.251 C 
ATOM     20  O   UNL     1       3.195  -4.642  -0.971  1.00  0.00    -0.272 OA
BRANCH  19  21
ATOM     21  C   UNL     1       4.490  -6.129   0.418  1.00  0.00     0.207 C 
ATOM     22  C   UNL     1       3.760  -6.658   1.644  1.00  0.00     0.044 C 
ATOM     23  O   UNL     1       5.885  -6.198   0.695  1.00  0.00    -0.368 OA
ATOM     24  C   UNL     1       4.756  -7.584   2.282  1.00  0.00     0.032 C 
ATOM     25  C   UNL     1       6.097  -7.058   1.822  1.00  0.00     0.161 C 
ENDBRANCH  19  21
ENDBRANCH  10  13
ENDBRANCH   9  10
ENDBRANCH   8   9
ENDBRANCH   6   8
ENDBRANCH   5   6
ENDBRANCH   4   5
ENDBRANCH   3   4
ENDBRANCH   2   3
ENDBRANCH   1   2
BRANCH   1  26
ATOM     26  C   UNL     1       2.603  -0.566  -2.628  1.00  0.00     0.188 C 
BRANCH  26  27
ATOM     27  O   UNL     1       2.549  -1.452  -3.744  1.00  0.00    -0.376 OA
BRANCH  27  28
ATOM     28  C   UNL     1       3.759  -2.159  -3.998  1.00  0.00     0.202 C 
BRANCH  28  29
ATOM     29  C   UNL     1       4.359  -1.780  -5.357  1.00  0.00     0.261 C 
BRANCH  29  30
ATOM     30  O   UNL     1       4.024  -0.438  -5.737  1.00  0.00    -0.460 OA
BRANCH  30  31
ATOM     31  C   UNL     1       2.776  -0.295  -6.257  1.00  0.00     0.338 C 
ATOM     32  O   UNL     1       2.042  -1.171  -6.684  1.00  0.00    -0.246 OA
BRANCH  31  33
ATOM     33  C   UNL     1       2.352   1.110  -6.067  1.00  0.00     0.060 A 
ATOM     34  C   UNL     1       1.096   1.361  -5.493  1.00  0.00     0.016 A 
ATOM     35  C   UNL     1       3.222   2.167  -6.350  1.00  0.00     0.016 A 
ATOM     36  C   UNL     1       0.697   2.676  -5.231  1.00  0.00     0.010 A 
ATOM     37  C   UNL     1       2.816   3.480  -6.106  1.00  0.00     0.010 A 
ATOM     38  C   UNL     1       1.539   3.743  -5.578  1.00  0.00    -0.014 A 
BRANCH  38  39
ATOM     39  C   UNL     1       1.000   5.122  -5.665  1.00  0.00     0.031 A 
ATOM     40  C   UNL     1       0.391   5.532  -6.979  1.00  0.00     0.074 A 
ATOM     41  C   UNL     1       1.074   5.998  -4.648  1.00  0.00     0.049 A 
ATOM     42  N   UNL     1      -0.078   6.693  -7.357  1.00  0.00    -0.248 NA
ATOM     43  C   UNL     1       0.311   4.484  -8.013  1.00  0.00     0.031 C 
ATOM     44  C   UNL     1       1.617   5.719  -3.322  1.00  0.00     0.029 A 
ATOM     45  N   UNL     1       0.701   7.320  -4.588  1.00  0.00    -0.354 N 
ATOM     46  C   UNL     1      -0.509   6.511  -8.665  1.00  0.00     0.074 A 
ATOM     47  C   UNL     1      -0.222   5.143  -9.028  1.00  0.00     0.031 C 
ATOM     48  C   UNL     1       1.562   6.843  -2.583  1.00  0.00     0.029 A 
ATOM     49  C   UNL     1       1.005   7.928  -3.393  1.00  0.00     0.049 A 
ATOM     50  H   UNL     1       0.257   7.788  -5.331  1.00  0.00     0.167 HD
ATOM     51  C   UNL     1      -1.097   7.405  -9.491  1.00  0.00     0.037 A 
ATOM     52  C   UNL     1       0.869   9.216  -3.016  1.00  0.00     0.037 A 
ATOM     53  C   UNL     1      -1.365   8.771  -9.142  1.00  0.00     0.049 A 
ATOM     54  C   UNL     1       0.280  10.214  -3.987  1.00  0.00     0.074 A 
ATOM     55  C   UNL     1      -1.970   9.753  -9.905  1.00  0.00     0.029 A 
ATOM     56  N   UNL     1      -1.028   9.352  -7.929  1.00  0.00    -0.354 N 
ATOM     57  N   UNL     1      -0.172  10.023  -5.204  1.00  0.00    -0.248 NA
ATOM     58  C   UNL     1       0.183  11.609  -3.530  1.00  0.00     0.031 C 
ATOM     59  C   UNL     1      -1.953  10.944  -9.172  1.00  0.00     0.029 A 
ATOM     60  C   UNL     1      -1.386  10.689  -7.933  1.00  0.00     0.049 A 
ATOM     61  H   UNL     1      -0.598   8.883  -7.178  1.00  0.00     0.167 HD
ATOM     62  C   UNL     1      -0.631  11.260  -5.642  1.00  0.00     0.074 A 
ATOM     63  C   UNL     1      -0.419  12.193  -4.556  1.00  0.00     0.031 C 
ATOM     64  C   UNL     1      -1.179  11.597  -6.836  1.00  0.00     0.037 A 
BRANCH  51  65
ATOM     65  C   UNL     1      -1.465   6.933 -10.864  1.00  0.00     0.064 A 
ATOM     66  C   UNL     1      -2.541   6.058 -11.076  1.00  0.00     0.173 A 
ATOM     67  C   UNL     1      -0.749   7.381 -11.983  1.00  0.00     0.173 A 
ATOM     68  F   UNL     1      -3.242   5.585 -10.034  1.00  0.00    -0.203 F 
ATOM     69  C   UNL     1      -2.876   5.636 -12.359  1.00  0.00     0.198 A 
ATOM     70  C   UNL     1      -1.104   6.977 -13.267  1.00  0.00     0.198 A 
ATOM     71  F   UNL     1       0.291   8.215 -11.832  1.00  0.00    -0.203 F 
ATOM     72  F   UNL     1      -3.883   4.769 -12.536  1.00  0.00    -0.200 F 
ATOM     73  C   UNL     1      -2.163   6.102 -13.454  1.00  0.00     0.200 A 
ATOM     74  F   UNL     1      -0.419   7.435 -14.325  1.00  0.00    -0.200 F 
ATOM     75  F   UNL     1      -2.494   5.703 -14.689  1.00  0.00    -0.200 F 
ENDBRANCH  51  65
BRANCH  52  76
ATOM     76  C   UNL     1       1.315   9.663  -1.667  1.00  0.00     0.064 A 
ATOM     77  C   UNL     1       0.395  10.128  -0.716  1.00  0.00     0.173 A 
ATOM     78  C   UNL     1       2.675   9.700  -1.325  1.00  0.00     0.173 A 
ATOM     79  F   UNL     1      -0.914  10.145  -1.004  1.00  0.00    -0.203 F 
ATOM     80  C   UNL     1       0.820  10.637   0.511  1.00  0.00     0.198 A 
ATOM     81  C   UNL     1       3.096  10.181  -0.086  1.00  0.00     0.198 A 
ATOM     82  F   UNL     1       3.600   9.275  -2.199  1.00  0.00    -0.203 F 
ATOM     83  F   UNL     1      -0.077  11.132   1.375  1.00  0.00    -0.200 F 
ATOM     84  C   UNL     1       2.169  10.660   0.826  1.00  0.00     0.200 A 
ATOM     85  F   UNL     1       4.402  10.192   0.217  1.00  0.00    -0.200 F 
ATOM     86  F   UNL     1       2.578  11.155   2.003  1.00  0.00    -0.200 F 
ENDBRANCH  52  76
BRANCH  64  87
ATOM     87  C   UNL     1      -1.622  13.019  -7.023  1.00  0.00     0.064 A 
ATOM     88  C   UNL     1      -0.699  14.063  -7.179  1.00  0.00     0.173 A 
ATOM     89  C   UNL     1      -2.988  13.331  -7.107  1.00  0.00     0.173 A 
ATOM     90  F   UNL     1       0.618  13.819  -7.096  1.00  0.00    -0.203 F 
ATOM     91  C   UNL     1      -1.128  15.371  -7.390  1.00  0.00     0.198 A 
ATOM     92  C   UNL     1      -3.412  14.634  -7.348  1.00  0.00     0.198 A 
ATOM     93  F   UNL     1      -3.911  12.367  -6.974  1.00  0.00    -0.203 F 
ATOM     94  F   UNL     1      -0.230  16.360  -7.494  1.00  0.00    -0.200 F 
ATOM     95  C   UNL     1      -2.483  15.654  -7.483  1.00  0.00     0.200 A 
ATOM     96  F   UNL     1      -4.721  14.902  -7.455  1.00  0.00    -0.200 F 
ATOM     97  F   UNL     1      -2.893  16.912  -7.698  1.00  0.00    -0.200 F 
ENDBRANCH  64  87
ENDBRANCH  38  39
ENDBRANCH  31  33
ENDBRANCH  30  31
ENDBRANCH  29  30
ENDBRANCH  28  29
ENDBRANCH  27  28
ENDBRANCH  26  27
ENDBRANCH   1  26
TORSDOF 21
