REMARK SMILES CC(C)[NH2+][C@@]1(C(=O)OCCOCCOCCOC(=O)c2ccc(-c3c4nc(c(-c5c(F)c(F)c(F)c(F)c5F)c5ccc([nH]5)c(-c5c(F)c(F)c(F)c(F)c5F)c5nc(c(-c6c(F)c(F)c(F)c(F)c6F)c6ccc3[nH]6)C=C5)C=C4)cc2)CCC[C@@H](Sc2nncn2C)C1
REMARK SMILES IDX 12 1 11 2 10 3 9 4 8 5 6 6 7 7 5 8 83 9 94 10 84 11 86 12
REMARK SMILES IDX 85 13 4 14 2 17 1 18 3 19 87 20 88 21 89 22 92 23 90 24
REMARK SMILES IDX 91 25 93 26 13 27 14 28 15 29 16 30 17 31 18 32 19 33 20 34
REMARK SMILES IDX 21 35 82 36 22 37 81 38 23 39 24 40 25 41 75 42 26 43 80 44
REMARK SMILES IDX 74 45 76 46 27 47 79 48 73 49 72 50 28 52 60 53 40 54 59 55
REMARK SMILES IDX 41 56 44 57 58 58 77 59 42 60 43 61 57 63 78 64 45 65 29 66
REMARK SMILES IDX 30 67 38 68 31 69 32 70 36 71 39 72 33 73 34 74 37 75 35 76
REMARK SMILES IDX 61 77 62 78 70 79 63 80 64 81 68 82 71 83 65 84 66 85 69 86
REMARK SMILES IDX 67 87 46 88 47 89 55 90 48 91 49 92 53 93 56 94 50 95 51 96
REMARK SMILES IDX 54 97 52 98
REMARK H PARENT 4 15 4 16 76 51 44 62
REMARK Flexibility Score: inf
ROOT
ATOM      1  C   UNL     1       2.171   1.464  -4.324  1.00  0.00     0.188 C 
ENDROOT
BRANCH   1   2
ATOM      2  O   UNL     1       2.347   0.957  -5.642  1.00  0.00    -0.376 OA
BRANCH   2   3
ATOM      3  C   UNL     1       1.808  -0.339  -5.886  1.00  0.00     0.202 C 
BRANCH   3   4
ATOM      4  C   UNL     1       0.298  -0.335  -6.111  1.00  0.00     0.261 C 
BRANCH   4   5
ATOM      5  O   UNL     1      -0.445   0.003  -4.926  1.00  0.00    -0.459 OA
BRANCH   5   6
ATOM      6  C   UNL     1      -0.852  -0.991  -4.108  1.00  0.00     0.368 C 
ATOM      7  O   UNL     1      -0.517  -2.162  -4.258  1.00  0.00    -0.245 OA
BRANCH   6   8
ATOM      8  C   UNL     1      -1.844  -0.492  -2.994  1.00  0.00     0.195 C 
ATOM      9  C   UNL     1      -3.172  -1.246  -3.266  1.00  0.00     0.081 C 
ATOM     10  C   UNL     1      -2.204   1.024  -2.939  1.00  0.00     0.096 C 
ATOM     11  C   UNL     1      -3.844  -0.785  -4.564  1.00  0.00     0.008 C 
ATOM     12  C   UNL     1      -2.893   1.534  -4.220  1.00  0.00     0.061 C 
ATOM     13  C   UNL     1      -4.142   0.714  -4.557  1.00  0.00     0.015 C 
BRANCH   8  14
ATOM     14  N   UNL     1      -1.352  -0.923  -1.645  1.00  0.00    -0.330 N 
ATOM     15  H   UNL     1      -1.964  -0.508  -0.943  1.00  0.00     0.347 HD
ATOM     16  H   UNL     1      -1.365  -1.943  -1.661  1.00  0.00     0.347 HD
BRANCH  14  17
ATOM     17  C   UNL     1       0.031  -0.550  -1.315  1.00  0.00     0.176 C 
ATOM     18  C   UNL     1       0.073  -0.092   0.146  1.00  0.00     0.075 C 
ATOM     19  C   UNL     1       1.006  -1.723  -1.501  1.00  0.00     0.075 C 
ENDBRANCH  14  17
ENDBRANCH   8  14
BRANCH  12  20
ATOM     20  S   UNL     1      -3.220   3.336  -4.240  1.00  0.00    -0.082 SA
BRANCH  20  21
ATOM     21  C   UNL     1      -4.478   3.532  -3.082  1.00  0.00     0.191 A 
ATOM     22  N   UNL     1      -4.396   3.305  -1.792  1.00  0.00    -0.124 NA
ATOM     23  N   UNL     1      -5.720   4.009  -3.385  1.00  0.00    -0.312 N 
ATOM     24  N   UNL     1      -5.610   3.641  -1.232  1.00  0.00    -0.138 NA
ATOM     25  C   UNL     1      -6.389   4.066  -2.200  1.00  0.00     0.226 A 
ATOM     26  C   UNL     1      -6.258   4.353  -4.674  1.00  0.00     0.153 C 
ENDBRANCH  20  21
ENDBRANCH  12  20
ENDBRANCH   6   8
ENDBRANCH   5   6
ENDBRANCH   4   5
ENDBRANCH   3   4
ENDBRANCH   2   3
ENDBRANCH   1   2
BRANCH   1  27
ATOM     27  C   UNL     1       1.016   2.465  -4.186  1.00  0.00     0.188 C 
BRANCH  27  28
ATOM     28  O   UNL     1       0.692   3.345  -5.253  1.00  0.00    -0.376 OA
BRANCH  28  29
ATOM     29  C   UNL     1       1.749   3.882  -6.028  1.00  0.00     0.202 C 
BRANCH  29  30
ATOM     30  C   UNL     1       2.655   4.906  -5.340  1.00  0.00     0.261 C 
BRANCH  30  31
ATOM     31  O   UNL     1       3.137   4.477  -4.056  1.00  0.00    -0.460 OA
BRANCH  31  32
ATOM     32  C   UNL     1       2.564   5.100  -2.995  1.00  0.00     0.338 C 
ATOM     33  O   UNL     1       1.760   6.013  -3.017  1.00  0.00    -0.246 OA
BRANCH  32  34
ATOM     34  C   UNL     1       2.945   4.406  -1.745  1.00  0.00     0.060 A 
ATOM     35  C   UNL     1       1.925   4.067  -0.845  1.00  0.00     0.016 A 
ATOM     36  C   UNL     1       4.280   4.151  -1.427  1.00  0.00     0.016 A 
ATOM     37  C   UNL     1       2.240   3.514   0.396  1.00  0.00     0.010 A 
ATOM     38  C   UNL     1       4.598   3.622  -0.172  1.00  0.00     0.010 A 
ATOM     39  C   UNL     1       3.582   3.336   0.757  1.00  0.00    -0.014 A 
BRANCH  39  40
ATOM     40  C   UNL     1       3.925   3.057   2.173  1.00  0.00     0.031 A 
ATOM     41  C   UNL     1       4.163   4.222   3.093  1.00  0.00     0.074 A 
ATOM     42  C   UNL     1       4.007   1.800   2.641  1.00  0.00     0.049 A 
ATOM     43  N   UNL     1       4.517   4.230   4.353  1.00  0.00    -0.248 NA
ATOM     44  C   UNL     1       3.983   5.561   2.509  1.00  0.00     0.031 C 
ATOM     45  C   UNL     1       3.767   0.591   1.859  1.00  0.00     0.029 A 
ATOM     46  N   UNL     1       4.318   1.337   3.896  1.00  0.00    -0.354 N 
ATOM     47  C   UNL     1       4.610   5.569   4.708  1.00  0.00     0.074 A 
ATOM     48  C   UNL     1       4.292   6.346   3.530  1.00  0.00     0.031 C 
ATOM     49  C   UNL     1       3.930  -0.481   2.655  1.00  0.00     0.029 A 
ATOM     50  C   UNL     1       4.324  -0.033   3.991  1.00  0.00     0.049 A 
ATOM     51  H   UNL     1       4.516   1.931   4.655  1.00  0.00     0.167 HD
ATOM     52  C   UNL     1       4.936   6.104   5.908  1.00  0.00     0.037 A 
ATOM     53  C   UNL     1       4.634  -0.828   5.034  1.00  0.00     0.037 A 
ATOM     54  C   UNL     1       5.263   5.336   7.078  1.00  0.00     0.049 A 
ATOM     55  C   UNL     1       5.046  -0.206   6.345  1.00  0.00     0.074 A 
ATOM     56  C   UNL     1       5.614   5.788   8.338  1.00  0.00     0.029 A 
ATOM     57  N   UNL     1       5.286   3.951   7.129  1.00  0.00    -0.354 N 
ATOM     58  N   UNL     1       5.127   1.060   6.675  1.00  0.00    -0.248 NA
ATOM     59  C   UNL     1       5.419  -1.129   7.428  1.00  0.00     0.031 C 
ATOM     60  C   UNL     1       5.892   4.675   9.140  1.00  0.00     0.029 A 
ATOM     61  C   UNL     1       5.667   3.530   8.393  1.00  0.00     0.049 A 
ATOM     62  H   UNL     1       5.064   3.354   6.378  1.00  0.00     0.167 HD
ATOM     63  C   UNL     1       5.540   1.085   8.001  1.00  0.00     0.074 A 
ATOM     64  C   UNL     1       5.675  -0.292   8.423  1.00  0.00     0.031 C 
ATOM     65  C   UNL     1       5.790   2.154   8.797  1.00  0.00     0.037 A 
BRANCH  52  66
ATOM     66  C   UNL     1       4.992   7.600   5.998  1.00  0.00     0.064 A 
ATOM     67  C   UNL     1       3.828   8.382   6.002  1.00  0.00     0.173 A 
ATOM     68  C   UNL     1       6.228   8.256   6.097  1.00  0.00     0.173 A 
ATOM     69  F   UNL     1       2.624   7.801   5.891  1.00  0.00    -0.203 F 
ATOM     70  C   UNL     1       3.901   9.771   6.078  1.00  0.00     0.198 A 
ATOM     71  C   UNL     1       6.295   9.643   6.198  1.00  0.00     0.198 A 
ATOM     72  F   UNL     1       7.370   7.552   6.097  1.00  0.00    -0.203 F 
ATOM     73  F   UNL     1       2.779  10.502   6.034  1.00  0.00    -0.200 F 
ATOM     74  C   UNL     1       5.133  10.399   6.181  1.00  0.00     0.200 A 
ATOM     75  F   UNL     1       7.486  10.248   6.306  1.00  0.00    -0.200 F 
ATOM     76  F   UNL     1       5.201  11.735   6.256  1.00  0.00    -0.200 F 
ENDBRANCH  52  66
BRANCH  53  77
ATOM     77  C   UNL     1       4.588  -2.306   4.884  1.00  0.00     0.064 A 
ATOM     78  C   UNL     1       3.634  -3.072   5.570  1.00  0.00     0.173 A 
ATOM     79  C   UNL     1       5.515  -2.986   4.082  1.00  0.00     0.173 A 
ATOM     80  F   UNL     1       2.747  -2.470   6.375  1.00  0.00    -0.203 F 
ATOM     81  C   UNL     1       3.622  -4.462   5.473  1.00  0.00     0.198 A 
ATOM     82  C   UNL     1       5.484  -4.374   3.963  1.00  0.00     0.198 A 
ATOM     83  F   UNL     1       6.452  -2.302   3.410  1.00  0.00    -0.203 F 
ATOM     84  F   UNL     1       2.732  -5.173   6.179  1.00  0.00    -0.200 F 
ATOM     85  C   UNL     1       4.542  -5.112   4.665  1.00  0.00     0.200 A 
ATOM     86  F   UNL     1       6.370  -4.997   3.175  1.00  0.00    -0.200 F 
ATOM     87  F   UNL     1       4.531  -6.448   4.572  1.00  0.00    -0.200 F 
ENDBRANCH  53  77
BRANCH  65  88
ATOM     88  C   UNL     1       6.210   1.879  10.212  1.00  0.00     0.064 A 
ATOM     89  C   UNL     1       7.490   1.394  10.517  1.00  0.00     0.173 A 
ATOM     90  C   UNL     1       5.338   2.150  11.278  1.00  0.00     0.173 A 
ATOM     91  F   UNL     1       8.356   1.107   9.533  1.00  0.00    -0.203 F 
ATOM     92  C   UNL     1       7.874   1.169  11.837  1.00  0.00     0.198 A 
ATOM     93  C   UNL     1       5.735   1.949  12.597  1.00  0.00     0.198 A 
ATOM     94  F   UNL     1       4.106   2.623  11.040  1.00  0.00    -0.203 F 
ATOM     95  F   UNL     1       9.088   0.666  12.103  1.00  0.00    -0.200 F 
ATOM     96  C   UNL     1       7.000   1.453  12.875  1.00  0.00     0.200 A 
ATOM     97  F   UNL     1       4.894   2.236  13.600  1.00  0.00    -0.200 F 
ATOM     98  F   UNL     1       7.374   1.243  14.145  1.00  0.00    -0.200 F 
ENDBRANCH  65  88
ENDBRANCH  39  40
ENDBRANCH  32  34
ENDBRANCH  31  32
ENDBRANCH  30  31
ENDBRANCH  29  30
ENDBRANCH  28  29
ENDBRANCH  27  28
ENDBRANCH   1  27
TORSDOF 21
