REMARK SMILES O=C(CSc1nc(O)cc(=O)[nH]1)Nc1cccc(C(=O)OCCOCCOCCOC(=O)c2ccc(-c3c4nc(c(-c5c(F)c(F)c(F)c(F)c5F)c5ccc([nH]5)c(-c5c(F)c(F)c(F)c(F)c5F)c5nc(c(-c6c(F)c(F)c(F)c(F)c6F)c6ccc3[nH]6)C=C5)C=C4)cc2)c1
REMARK SMILES IDX 24 1 23 2 22 3 21 4 19 5 20 6 18 7 14 8 15 9 96 10 16 11
REMARK SMILES IDX 17 12 13 13 1 14 2 15 3 17 4 18 5 19 6 20 12 21 7 22 10 23
REMARK SMILES IDX 9 25 11 26 8 27 25 29 26 30 27 31 28 32 29 33 30 34 31 35
REMARK SMILES IDX 32 36 33 37 34 38 95 39 35 40 94 41 36 42 37 43 38 44 88 45
REMARK SMILES IDX 39 46 93 47 87 48 89 49 40 50 92 51 86 52 85 53 41 55 73 56
REMARK SMILES IDX 53 57 72 58 54 59 57 60 71 61 90 62 55 63 56 64 70 66 91 67
REMARK SMILES IDX 58 68 42 69 43 70 51 71 44 72 45 73 49 74 52 75 46 76 47 77
REMARK SMILES IDX 50 78 48 79 74 80 75 81 83 82 76 83 77 84 81 85 84 86 78 87
REMARK SMILES IDX 79 88 82 89 80 90 59 91 60 92 68 93 61 94 62 95 66 96 69 97
REMARK SMILES IDX 63 98 64 99 67 100 65 101
REMARK H PARENT 13 16 12 24 8 28 89 54 57 65
REMARK Flexibility Score: inf
ROOT
ATOM      1  O   UNL     1      -1.500  -3.126   6.102  1.00  0.00    -0.376 OA
ENDROOT
BRANCH   1   2
ATOM      2  C   UNL     1      -2.260  -3.417   4.938  1.00  0.00     0.202 C 
BRANCH   2   3
ATOM      3  C   UNL     1      -2.463  -2.388   3.810  1.00  0.00     0.261 C 
BRANCH   3   4
ATOM      4  O   UNL     1      -1.299  -1.650   3.419  1.00  0.00    -0.460 OA
BRANCH   4   5
ATOM      5  C   UNL     1      -1.306  -0.325   3.728  1.00  0.00     0.338 C 
ATOM      6  O   UNL     1      -2.189   0.296   4.280  1.00  0.00    -0.246 OA
BRANCH   5   7
ATOM      7  C   UNL     1       0.054   0.220   3.505  1.00  0.00     0.062 A 
ATOM      8  C   UNL     1       2.068   0.421   2.180  1.00  0.00     0.042 A 
ATOM      9  C   UNL     1       2.680   1.103   3.239  1.00  0.00     0.026 A 
ATOM     10  C   UNL     1       0.761  -0.050   2.332  1.00  0.00     0.041 A 
ATOM     11  C   UNL     1       1.970   1.381   4.410  1.00  0.00     0.003 A 
ATOM     12  C   UNL     1       0.649   0.956   4.537  1.00  0.00     0.016 A 
BRANCH   8  13
ATOM     13  N   UNL     1       2.809   0.244   0.995  1.00  0.00    -0.325 N 
ATOM     14  O   UNL     1       1.076  -0.072  -0.530  1.00  0.00    -0.274 OA
ATOM     15  C   UNL     1       2.272  -0.031  -0.248  1.00  0.00     0.234 C 
ATOM     16  H   UNL     1       3.788   0.322   1.058  1.00  0.00     0.169 HD
BRANCH  15  17
ATOM     17  C   UNL     1       3.289  -0.223  -1.348  1.00  0.00     0.178 C 
BRANCH  17  18
ATOM     18  S   UNL     1       4.278   1.248  -1.637  1.00  0.00    -0.078 SA
BRANCH  18  19
ATOM     19  C   UNL     1       3.167   2.582  -1.806  1.00  0.00     0.172 A 
ATOM     20  N   UNL     1       3.671   3.767  -1.689  1.00  0.00    -0.189 NA
ATOM     21  N   UNL     1       1.853   2.343  -2.070  1.00  0.00    -0.301 N 
ATOM     22  C   UNL     1       2.819   4.817  -1.843  1.00  0.00     0.218 A 
ATOM     23  C   UNL     1       0.961   3.364  -2.223  1.00  0.00     0.255 A 
ATOM     24  H   UNL     1       1.540   1.414  -2.153  1.00  0.00     0.172 HD
ATOM     25  C   UNL     1       1.515   4.714  -2.094  1.00  0.00     0.139 A 
ATOM     26  O   UNL     1      -0.226   3.182  -2.464  1.00  0.00    -0.269 OA
BRANCH  22  27
ATOM     27  O   UNL     1       3.392   6.055  -1.731  1.00  0.00    -0.493 OA
ATOM     28  H   UNL     1       4.309   6.133  -1.554  1.00  0.00     0.295 HD
ENDBRANCH  22  27
ENDBRANCH  18  19
ENDBRANCH  17  18
ENDBRANCH  15  17
ENDBRANCH   8  13
ENDBRANCH   5   7
ENDBRANCH   4   5
ENDBRANCH   3   4
ENDBRANCH   2   3
ENDBRANCH   1   2
BRANCH   1  29
ATOM     29  C   UNL     1      -0.264  -2.440   5.993  1.00  0.00     0.188 C 
BRANCH  29  30
ATOM     30  C   UNL     1       0.833  -2.957   5.038  1.00  0.00     0.188 C 
BRANCH  30  31
ATOM     31  O   UNL     1       0.461  -4.014   4.190  1.00  0.00    -0.376 OA
BRANCH  31  32
ATOM     32  C   UNL     1       0.595  -5.358   4.619  1.00  0.00     0.202 C 
BRANCH  32  33
ATOM     33  C   UNL     1       0.888  -5.832   6.060  1.00  0.00     0.261 C 
BRANCH  33  34
ATOM     34  O   UNL     1       1.038  -4.853   7.091  1.00  0.00    -0.460 OA
BRANCH  34  35
ATOM     35  C   UNL     1       2.311  -4.576   7.461  1.00  0.00     0.338 C 
ATOM     36  O   UNL     1       3.335  -5.040   6.992  1.00  0.00    -0.246 OA
BRANCH  35  37
ATOM     37  C   UNL     1       2.303  -3.456   8.421  1.00  0.00     0.060 A 
ATOM     38  C   UNL     1       2.879  -2.242   8.024  1.00  0.00     0.016 A 
ATOM     39  C   UNL     1       1.804  -3.615   9.715  1.00  0.00     0.016 A 
ATOM     40  C   UNL     1       3.005  -1.199   8.938  1.00  0.00     0.010 A 
ATOM     41  C   UNL     1       1.946  -2.571  10.637  1.00  0.00     0.010 A 
ATOM     42  C   UNL     1       2.591  -1.377  10.265  1.00  0.00    -0.014 A 
BRANCH  42  43
ATOM     43  C   UNL     1       3.037  -0.398  11.289  1.00  0.00     0.031 A 
ATOM     44  C   UNL     1       4.242  -0.734  12.128  1.00  0.00     0.074 A 
ATOM     45  C   UNL     1       2.440   0.800  11.420  1.00  0.00     0.049 A 
ATOM     46  N   UNL     1       4.844  -0.024  13.048  1.00  0.00    -0.248 NA
ATOM     47  C   UNL     1       4.851  -2.053  11.894  1.00  0.00     0.031 C 
ATOM     48  C   UNL     1       1.294   1.264  10.643  1.00  0.00     0.029 A 
ATOM     49  N   UNL     1       2.728   1.850  12.258  1.00  0.00    -0.354 N 
ATOM     50  C   UNL     1       5.899  -0.807  13.499  1.00  0.00     0.074 A 
ATOM     51  C   UNL     1       5.828  -2.064  12.786  1.00  0.00     0.031 C 
ATOM     52  C   UNL     1       0.976   2.509  11.039  1.00  0.00     0.029 A 
ATOM     53  C   UNL     1       1.878   2.918  12.114  1.00  0.00     0.049 A 
ATOM     54  H   UNL     1       3.473   1.837  12.902  1.00  0.00     0.167 HD
ATOM     55  C   UNL     1       6.852  -0.504  14.414  1.00  0.00     0.037 A 
ATOM     56  C   UNL     1       1.832   4.087  12.783  1.00  0.00     0.037 A 
ATOM     57  C   UNL     1       6.918   0.743  15.131  1.00  0.00     0.049 A 
ATOM     58  C   UNL     1       2.860   4.372  13.850  1.00  0.00     0.074 A 
ATOM     59  C   UNL     1       7.843   1.147  16.078  1.00  0.00     0.029 A 
ATOM     60  N   UNL     1       6.015   1.786  14.986  1.00  0.00    -0.354 N 
ATOM     61  N   UNL     1       3.869   3.638  14.252  1.00  0.00    -0.248 NA
ATOM     62  C   UNL     1       2.749   5.663  14.545  1.00  0.00     0.031 C 
ATOM     63  C   UNL     1       7.465   2.409  16.549  1.00  0.00     0.029 A 
ATOM     64  C   UNL     1       6.350   2.825  15.841  1.00  0.00     0.049 A 
ATOM     65  H   UNL     1       5.249   1.788  14.367  1.00  0.00     0.167 HD
ATOM     66  C   UNL     1       4.537   4.393  15.211  1.00  0.00     0.074 A 
ATOM     67  C   UNL     1       3.823   5.648  15.320  1.00  0.00     0.031 C 
ATOM     68  C   UNL     1       5.643   4.078  15.931  1.00  0.00     0.037 A 
BRANCH  55  69
ATOM     69  C   UNL     1       7.884  -1.555  14.710  1.00  0.00     0.064 A 
ATOM     70  C   UNL     1       8.852  -1.929  13.765  1.00  0.00     0.173 A 
ATOM     71  C   UNL     1       7.916  -2.186  15.963  1.00  0.00     0.173 A 
ATOM     72  F   UNL     1       8.858  -1.370  12.545  1.00  0.00    -0.203 F 
ATOM     73  C   UNL     1       9.791  -2.918  14.052  1.00  0.00     0.198 A 
ATOM     74  C   UNL     1       8.878  -3.148  16.259  1.00  0.00     0.198 A 
ATOM     75  F   UNL     1       7.016  -1.865  16.905  1.00  0.00    -0.203 F 
ATOM     76  F   UNL     1      10.668  -3.300  13.113  1.00  0.00    -0.200 F 
ATOM     77  C   UNL     1       9.808  -3.520  15.301  1.00  0.00     0.200 A 
ATOM     78  F   UNL     1       8.902  -3.718  17.472  1.00  0.00    -0.200 F 
ATOM     79  F   UNL     1      10.715  -4.467  15.578  1.00  0.00    -0.200 F 
ENDBRANCH  55  69
BRANCH  56  80
ATOM     80  C   UNL     1       0.780   5.090  12.464  1.00  0.00     0.064 A 
ATOM     81  C   UNL     1       1.108   6.331  11.898  1.00  0.00     0.173 A 
ATOM     82  C   UNL     1      -0.570   4.845  12.755  1.00  0.00     0.173 A 
ATOM     83  F   UNL     1       2.388   6.625  11.626  1.00  0.00    -0.203 F 
ATOM     84  C   UNL     1       0.131   7.297  11.662  1.00  0.00     0.198 A 
ATOM     85  C   UNL     1      -1.550   5.798  12.488  1.00  0.00     0.198 A 
ATOM     86  F   UNL     1      -0.938   3.676  13.300  1.00  0.00    -0.203 F 
ATOM     87  F   UNL     1       0.482   8.496  11.179  1.00  0.00    -0.200 F 
ATOM     88  C   UNL     1      -1.198   7.028  11.952  1.00  0.00     0.200 A 
ATOM     89  F   UNL     1      -2.835   5.530  12.759  1.00  0.00    -0.200 F 
ATOM     90  F   UNL     1      -2.136   7.957  11.727  1.00  0.00    -0.200 F 
ENDBRANCH  56  80
BRANCH  68  91
ATOM     91  C   UNL     1       6.196   5.135  16.848  1.00  0.00     0.064 A 
ATOM     92  C   UNL     1       5.515   5.561  17.998  1.00  0.00     0.173 A 
ATOM     93  C   UNL     1       7.441   5.725  16.572  1.00  0.00     0.173 A 
ATOM     94  F   UNL     1       4.318   5.038  18.307  1.00  0.00    -0.203 F 
ATOM     95  C   UNL     1       6.033   6.570  18.808  1.00  0.00     0.198 A 
ATOM     96  C   UNL     1       7.975   6.704  17.406  1.00  0.00     0.198 A 
ATOM     97  F   UNL     1       8.145   5.349  15.494  1.00  0.00    -0.203 F 
ATOM     98  F   UNL     1       5.328   7.011  19.859  1.00  0.00    -0.200 F 
ATOM     99  C   UNL     1       7.264   7.137  18.514  1.00  0.00     0.200 A 
ATOM    100  F   UNL     1       9.174   7.235  17.130  1.00  0.00    -0.200 F 
ATOM    101  F   UNL     1       7.760   8.108  19.293  1.00  0.00    -0.200 F 
ENDBRANCH  68  91
ENDBRANCH  42  43
ENDBRANCH  35  37
ENDBRANCH  34  35
ENDBRANCH  33  34
ENDBRANCH  32  33
ENDBRANCH  31  32
ENDBRANCH  30  31
ENDBRANCH  29  30
ENDBRANCH   1  29
TORSDOF 22
