REMARK SMILES CCCc1nnc(SCC(=O)OCCOCCOCCOC(=O)c2ccc(-c3c4nc(c(-c5c(F)c(F)c(F)c(F)c5F)c5ccc([nH]5)c(-c5c(F)c(F)c(F)c(F)c5F)c5nc(c(-c6c(F)c(F)c(F)c(F)c6F)c6ccc3[nH]6)C=C5)C=C4)cc2)n1C[C@H]1CCCO1
REMARK SMILES IDX 16 1 15 2 14 3 13 4 12 5 10 6 11 7 9 8 8 9 7 10 4 11 5 12
REMARK SMILES IDX 87 13 6 14 3 15 2 16 1 17 88 18 89 19 90 20 93 21 91 22
REMARK SMILES IDX 92 23 17 24 18 25 19 26 20 27 21 28 22 29 23 30 24 31 25 32
REMARK SMILES IDX 86 33 26 34 85 35 27 36 28 37 29 38 79 39 30 40 84 41 78 42
REMARK SMILES IDX 80 43 31 44 83 45 77 46 76 47 32 49 64 50 44 51 63 52 45 53
REMARK SMILES IDX 48 54 62 55 81 56 46 57 47 58 61 60 82 61 49 62 33 63 34 64
REMARK SMILES IDX 42 65 35 66 36 67 40 68 43 69 37 70 38 71 41 72 39 73 65 74
REMARK SMILES IDX 66 75 74 76 67 77 68 78 72 79 75 80 69 81 70 82 73 83 71 84
REMARK SMILES IDX 50 85 51 86 59 87 52 88 53 89 57 90 60 91 54 92 55 93 58 94
REMARK SMILES IDX 56 95
REMARK H PARENT 80 48 48 59
REMARK Flexibility Score: inf
ROOT
ATOM      1  C   UNL     1      -6.697   0.581  -2.258  1.00  0.00     0.188 C 
ENDROOT
BRANCH   1   2
ATOM      2  O   UNL     1      -7.697  -0.027  -3.070  1.00  0.00    -0.376 OA
BRANCH   2   3
ATOM      3  C   UNL     1      -8.844  -0.544  -2.389  1.00  0.00     0.202 C 
BRANCH   3   4
ATOM      4  C   UNL     1      -8.759  -2.080  -2.274  1.00  0.00     0.261 C 
BRANCH   4   5
ATOM      5  O   UNL     1      -8.049  -2.514  -1.081  1.00  0.00    -0.463 OA
BRANCH   5   6
ATOM      6  C   UNL     1      -7.137  -3.510  -1.228  1.00  0.00     0.316 C 
ATOM      7  O   UNL     1      -7.042  -4.187  -2.252  1.00  0.00    -0.251 OA
BRANCH   6   8
ATOM      8  C   UNL     1      -6.070  -3.615  -0.142  1.00  0.00     0.200 C 
BRANCH   8   9
ATOM      9  S   UNL     1      -6.344  -2.905   1.491  1.00  0.00    -0.074 SA
BRANCH   9  10
ATOM     10  C   UNL     1      -4.772  -2.337   2.007  1.00  0.00     0.191 A 
ATOM     11  C   UNL     1      -3.772  -0.555   2.802  1.00  0.00     0.133 A 
ATOM     12  N   UNL     1      -3.234  -1.632   3.390  1.00  0.00    -0.134 NA
ATOM     13  N   UNL     1      -4.177  -1.167   1.560  1.00  0.00    -0.303 N 
ATOM     14  N   UNL     1      -4.089  -2.697   3.075  1.00  0.00    -0.123 NA
BRANCH  11  15
ATOM     15  C   UNL     1      -4.645   0.396   3.738  1.00  0.00     0.077 C 
BRANCH  15  16
ATOM     16  C   UNL     1      -4.381   1.900   4.073  1.00  0.00     0.005 C 
ATOM     17  C   UNL     1      -5.346   3.002   3.604  1.00  0.00     0.004 C 
ENDBRANCH  15  16
ENDBRANCH  11  15
BRANCH  13  18
ATOM     18  C   UNL     1      -3.342  -1.216   0.348  1.00  0.00     0.158 C 
BRANCH  18  19
ATOM     19  C   UNL     1      -2.256  -2.265  -0.047  1.00  0.00     0.138 C 
ATOM     20  C   UNL     1      -2.604  -3.717  -0.356  1.00  0.00     0.036 C 
ATOM     21  O   UNL     1      -1.707  -1.811  -1.327  1.00  0.00    -0.376 OA
ATOM     22  C   UNL     1      -2.910  -3.793  -1.841  1.00  0.00     0.031 C 
ATOM     23  C   UNL     1      -2.347  -2.512  -2.408  1.00  0.00     0.160 C 
ENDBRANCH  18  19
ENDBRANCH  13  18
ENDBRANCH   9  10
ENDBRANCH   8   9
ENDBRANCH   6   8
ENDBRANCH   5   6
ENDBRANCH   4   5
ENDBRANCH   3   4
ENDBRANCH   2   3
ENDBRANCH   1   2
BRANCH   1  24
ATOM     24  C   UNL     1      -6.296  -0.239  -1.052  1.00  0.00     0.188 C 
BRANCH  24  25
ATOM     25  O   UNL     1      -7.199  -0.308   0.033  1.00  0.00    -0.376 OA
BRANCH  25  26
ATOM     26  C   UNL     1      -7.491   0.891   0.722  1.00  0.00     0.202 C 
BRANCH  26  27
ATOM     27  C   UNL     1      -6.317   1.837   0.998  1.00  0.00     0.261 C 
BRANCH  27  28
ATOM     28  O   UNL     1      -5.607   2.367  -0.147  1.00  0.00    -0.460 OA
BRANCH  28  29
ATOM     29  C   UNL     1      -4.259   2.154  -0.249  1.00  0.00     0.338 C 
ATOM     30  O   UNL     1      -3.744   1.493  -1.146  1.00  0.00    -0.246 OA
BRANCH  29  31
ATOM     31  C   UNL     1      -3.416   2.909   0.682  1.00  0.00     0.060 A 
ATOM     32  C   UNL     1      -2.393   2.298   1.420  1.00  0.00     0.016 A 
ATOM     33  C   UNL     1      -3.624   4.283   0.764  1.00  0.00     0.016 A 
ATOM     34  C   UNL     1      -1.671   3.039   2.346  1.00  0.00     0.010 A 
ATOM     35  C   UNL     1      -2.918   5.020   1.701  1.00  0.00     0.010 A 
ATOM     36  C   UNL     1      -1.976   4.389   2.524  1.00  0.00    -0.014 A 
BRANCH  36  37
ATOM     37  C   UNL     1      -1.105   5.185   3.387  1.00  0.00     0.031 A 
ATOM     38  C   UNL     1       0.234   5.428   2.794  1.00  0.00     0.074 A 
ATOM     39  C   UNL     1      -1.514   5.837   4.492  1.00  0.00     0.049 A 
ATOM     40  N   UNL     1       1.400   5.230   3.318  1.00  0.00    -0.248 NA
ATOM     41  C   UNL     1       0.264   5.866   1.386  1.00  0.00     0.031 C 
ATOM     42  C   UNL     1      -2.874   5.889   5.022  1.00  0.00     0.029 A 
ATOM     43  N   UNL     1      -0.830   6.707   5.299  1.00  0.00    -0.354 N 
ATOM     44  C   UNL     1       2.300   5.679   2.361  1.00  0.00     0.074 A 
ATOM     45  C   UNL     1       1.569   5.889   1.140  1.00  0.00     0.031 C 
ATOM     46  C   UNL     1      -2.969   6.901   5.910  1.00  0.00     0.029 A 
ATOM     47  C   UNL     1      -1.658   7.506   6.078  1.00  0.00     0.049 A 
ATOM     48  H   UNL     1       0.153   6.761   5.324  1.00  0.00     0.167 HD
ATOM     49  C   UNL     1       3.524   6.160   2.691  1.00  0.00     0.037 A 
ATOM     50  C   UNL     1      -1.319   8.627   6.759  1.00  0.00     0.037 A 
ATOM     51  C   UNL     1       3.958   5.764   3.995  1.00  0.00     0.049 A 
ATOM     52  C   UNL     1       0.148   8.644   6.940  1.00  0.00     0.074 A 
ATOM     53  C   UNL     1       4.350   4.586   4.590  1.00  0.00     0.029 A 
ATOM     54  N   UNL     1       3.710   6.659   4.999  1.00  0.00    -0.354 N 
ATOM     55  N   UNL     1       0.796   7.860   7.752  1.00  0.00    -0.248 NA
ATOM     56  C   UNL     1       0.980   9.412   6.019  1.00  0.00     0.031 C 
ATOM     57  C   UNL     1       4.085   4.735   5.982  1.00  0.00     0.029 A 
ATOM     58  C   UNL     1       3.527   5.996   6.185  1.00  0.00     0.049 A 
ATOM     59  H   UNL     1       3.670   7.637   4.887  1.00  0.00     0.167 HD
ATOM     60  C   UNL     1       2.037   7.715   7.166  1.00  0.00     0.074 A 
ATOM     61  C   UNL     1       2.160   8.831   6.245  1.00  0.00     0.031 C 
ATOM     62  C   UNL     1       2.693   6.525   7.239  1.00  0.00     0.037 A 
BRANCH  49  63
ATOM     63  C   UNL     1       4.093   7.348   1.972  1.00  0.00     0.064 A 
ATOM     64  C   UNL     1       5.475   7.571   1.941  1.00  0.00     0.173 A 
ATOM     65  C   UNL     1       3.277   8.406   1.506  1.00  0.00     0.173 A 
ATOM     66  F   UNL     1       6.320   6.660   2.444  1.00  0.00    -0.203 F 
ATOM     67  C   UNL     1       6.005   8.766   1.446  1.00  0.00     0.198 A 
ATOM     68  C   UNL     1       3.807   9.564   0.952  1.00  0.00     0.198 A 
ATOM     69  F   UNL     1       1.945   8.383   1.664  1.00  0.00    -0.203 F 
ATOM     70  F   UNL     1       7.325   8.983   1.503  1.00  0.00    -0.200 F 
ATOM     71  C   UNL     1       5.173   9.752   0.935  1.00  0.00     0.200 A 
ATOM     72  F   UNL     1       2.982  10.517   0.495  1.00  0.00    -0.200 F 
ATOM     73  F   UNL     1       5.681  10.901   0.474  1.00  0.00    -0.200 F 
ENDBRANCH  49  63
BRANCH  50  74
ATOM     74  C   UNL     1      -2.150   9.790   7.153  1.00  0.00     0.064 A 
ATOM     75  C   UNL     1      -1.716  10.679   8.153  1.00  0.00     0.173 A 
ATOM     76  C   UNL     1      -3.254  10.206   6.385  1.00  0.00     0.173 A 
ATOM     77  F   UNL     1      -0.650  10.380   8.909  1.00  0.00    -0.203 F 
ATOM     78  C   UNL     1      -2.325  11.921   8.348  1.00  0.00     0.198 A 
ATOM     79  C   UNL     1      -3.872  11.440   6.592  1.00  0.00     0.198 A 
ATOM     80  F   UNL     1      -3.697   9.467   5.358  1.00  0.00    -0.203 F 
ATOM     81  F   UNL     1      -1.833  12.769   9.261  1.00  0.00    -0.200 F 
ATOM     82  C   UNL     1      -3.397  12.305   7.561  1.00  0.00     0.200 A 
ATOM     83  F   UNL     1      -4.891  11.812   5.805  1.00  0.00    -0.200 F 
ATOM     84  F   UNL     1      -3.944  13.519   7.706  1.00  0.00    -0.200 F 
ENDBRANCH  50  74
BRANCH  62  85
ATOM     85  C   UNL     1       2.326   5.627   8.380  1.00  0.00     0.064 A 
ATOM     86  C   UNL     1       1.063   5.037   8.545  1.00  0.00     0.173 A 
ATOM     87  C   UNL     1       3.314   5.327   9.328  1.00  0.00     0.173 A 
ATOM     88  F   UNL     1       0.097   5.208   7.631  1.00  0.00    -0.203 F 
ATOM     89  C   UNL     1       0.784   4.234   9.649  1.00  0.00     0.198 A 
ATOM     90  C   UNL     1       3.045   4.492  10.407  1.00  0.00     0.198 A 
ATOM     91  F   UNL     1       4.551   5.829   9.193  1.00  0.00    -0.203 F 
ATOM     92  F   UNL     1      -0.441   3.715   9.810  1.00  0.00    -0.200 F 
ATOM     93  C   UNL     1       1.776   3.960  10.577  1.00  0.00     0.200 A 
ATOM     94  F   UNL     1       4.019   4.195  11.279  1.00  0.00    -0.200 F 
ATOM     95  F   UNL     1       1.515   3.169  11.627  1.00  0.00    -0.200 F 
ENDBRANCH  62  85
ENDBRANCH  36  37
ENDBRANCH  29  31
ENDBRANCH  28  29
ENDBRANCH  27  28
ENDBRANCH  26  27
ENDBRANCH  25  26
ENDBRANCH  24  25
ENDBRANCH   1  24
TORSDOF 23
