REMARK SMILES CC(C)[C@H](NC(=O)Cc1csc(-c2c(Cl)cccc2Cl)n1)C(=O)OCCOCCOCCOC(=O)c1ccc(-c2c3nc(c(-c4c(F)c(F)c(F)c(F)c4F)c4ccc([nH]4)c(-c4c(F)c(F)c(F)c(F)c4F)c4nc(c(-c5c(F)c(F)c(F)c(F)c5F)c5ccc2[nH]5)C=C4)C=C3)cc1
REMARK SMILES IDX 28 1 27 2 26 3 25 4 24 5 22 6 23 7 4 8 2 9 1 10 3 11 5 12
REMARK SMILES IDX 6 13 7 15 8 16 9 17 10 18 21 19 11 20 12 21 13 22 14 23
REMARK SMILES IDX 19 24 15 25 16 26 18 27 20 28 17 29 29 30 30 31 31 32 32 33
REMARK SMILES IDX 33 34 34 35 35 36 36 37 37 38 98 39 38 40 97 41 39 42 40 43
REMARK SMILES IDX 41 44 91 45 42 46 96 47 90 48 92 49 43 50 95 51 89 52 88 53
REMARK SMILES IDX 44 55 76 56 56 57 75 58 57 59 60 60 74 61 93 62 58 63 59 64
REMARK SMILES IDX 73 66 94 67 61 68 45 69 46 70 54 71 47 72 48 73 52 74 55 75
REMARK SMILES IDX 49 76 50 77 53 78 51 79 77 80 78 81 86 82 79 83 80 84 84 85
REMARK SMILES IDX 87 86 81 87 82 88 85 89 83 90 62 91 63 92 71 93 64 94 65 95
REMARK SMILES IDX 69 96 72 97 66 98 67 99 70 100 68 101
REMARK H PARENT 5 14 92 54 60 65
REMARK Flexibility Score: inf
ROOT
ATOM      1  C   UNL     1      -1.047  -4.884   0.584  1.00  0.00     0.188 C 
ENDROOT
BRANCH   1   2
ATOM      2  O   UNL     1      -1.942  -5.706  -0.154  1.00  0.00    -0.376 OA
BRANCH   2   3
ATOM      3  C   UNL     1      -1.847  -5.741  -1.565  1.00  0.00     0.202 C 
BRANCH   3   4
ATOM      4  C   UNL     1      -2.233  -4.467  -2.314  1.00  0.00     0.261 C 
BRANCH   4   5
ATOM      5  O   UNL     1      -1.574  -3.256  -1.895  1.00  0.00    -0.462 OA
BRANCH   5   6
ATOM      6  C   UNL     1      -2.376  -2.309  -1.341  1.00  0.00     0.328 C 
ATOM      7  O   UNL     1      -3.573  -2.475  -1.123  1.00  0.00    -0.250 OA
BRANCH   6   8
ATOM      8  C   UNL     1      -1.631  -1.016  -0.893  1.00  0.00     0.194 C 
BRANCH   8   9
ATOM      9  C   UNL     1      -2.326   0.322  -1.271  1.00  0.00     0.017 C 
ATOM     10  C   UNL     1      -3.610   0.193  -2.092  1.00  0.00     0.010 C 
ATOM     11  C   UNL     1      -2.599   1.155  -0.014  1.00  0.00     0.010 C 
ENDBRANCH   8   9
BRANCH   8  12
ATOM     12  N   UNL     1      -0.152  -0.984  -0.971  1.00  0.00    -0.342 N 
ATOM     13  C   UNL     1       0.802  -0.543  -1.826  1.00  0.00     0.226 C 
ATOM     14  H   UNL     1       0.252  -1.401  -0.176  1.00  0.00     0.164 HD
ATOM     15  O   UNL     1       1.961  -0.874  -1.533  1.00  0.00    -0.275 OA
BRANCH  13  16
ATOM     16  C   UNL     1       0.573   0.448  -2.942  1.00  0.00     0.157 C 
BRANCH  16  17
ATOM     17  C   UNL     1      -0.353   0.021  -4.025  1.00  0.00     0.061 A 
ATOM     18  C   UNL     1      -1.087   0.865  -4.840  1.00  0.00     0.091 A 
ATOM     19  N   UNL     1      -0.480  -1.317  -4.334  1.00  0.00    -0.240 NA
ATOM     20  S   UNL     1      -1.925  -0.037  -6.033  1.00  0.00    -0.122 S 
ATOM     21  C   UNL     1      -1.254  -1.475  -5.387  1.00  0.00     0.126 A 
BRANCH  21  22
ATOM     22  C   UNL     1      -1.494  -2.772  -6.011  1.00  0.00     0.048 A 
ATOM     23  C   UNL     1      -2.653  -3.513  -5.734  1.00  0.00     0.052 A 
ATOM     24  C   UNL     1      -0.491  -3.370  -6.794  1.00  0.00     0.052 A 
ATOM     25  Cl  UNL     1      -3.989  -2.851  -4.853  1.00  0.00    -0.084 Cl
ATOM     26  C   UNL     1      -2.762  -4.847  -6.146  1.00  0.00     0.021 A 
ATOM     27  C   UNL     1      -0.615  -4.695  -7.226  1.00  0.00     0.021 A 
ATOM     28  Cl  UNL     1       0.933  -2.513  -7.282  1.00  0.00    -0.084 Cl
ATOM     29  C   UNL     1      -1.737  -5.443  -6.877  1.00  0.00     0.003 A 
ENDBRANCH  21  22
ENDBRANCH  16  17
ENDBRANCH  13  16
ENDBRANCH   8  12
ENDBRANCH   6   8
ENDBRANCH   5   6
ENDBRANCH   4   5
ENDBRANCH   3   4
ENDBRANCH   2   3
ENDBRANCH   1   2
BRANCH   1  30
ATOM     30  C   UNL     1       0.321  -4.466   0.010  1.00  0.00     0.188 C 
BRANCH  30  31
ATOM     31  O   UNL     1       0.871  -5.356  -0.945  1.00  0.00    -0.376 OA
BRANCH  31  32
ATOM     32  C   UNL     1       2.117  -5.940  -0.599  1.00  0.00     0.202 C 
BRANCH  32  33
ATOM     33  C   UNL     1       1.913  -7.161   0.301  1.00  0.00     0.261 C 
BRANCH  33  34
ATOM     34  O   UNL     1       1.354  -6.829   1.583  1.00  0.00    -0.460 OA
BRANCH  34  35
ATOM     35  C   UNL     1       2.122  -6.051   2.380  1.00  0.00     0.338 C 
ATOM     36  O   UNL     1       3.270  -5.695   2.182  1.00  0.00    -0.246 OA
BRANCH  35  37
ATOM     37  C   UNL     1       1.260  -5.512   3.447  1.00  0.00     0.060 A 
ATOM     38  C   UNL     1       1.257  -4.129   3.667  1.00  0.00     0.016 A 
ATOM     39  C   UNL     1       0.455  -6.358   4.213  1.00  0.00     0.016 A 
ATOM     40  C   UNL     1       0.478  -3.590   4.689  1.00  0.00     0.010 A 
ATOM     41  C   UNL     1      -0.309  -5.823   5.250  1.00  0.00     0.010 A 
ATOM     42  C   UNL     1      -0.267  -4.443   5.515  1.00  0.00    -0.014 A 
BRANCH  42  43
ATOM     43  C   UNL     1      -0.790  -3.933   6.802  1.00  0.00     0.031 A 
ATOM     44  C   UNL     1       0.097  -4.046   8.010  1.00  0.00     0.074 A 
ATOM     45  C   UNL     1      -2.010  -3.379   6.899  1.00  0.00     0.049 A 
ATOM     46  N   UNL     1      -0.131  -3.695   9.249  1.00  0.00    -0.248 NA
ATOM     47  C   UNL     1       1.425  -4.642   7.787  1.00  0.00     0.031 C 
ATOM     48  C   UNL     1      -2.949  -3.193   5.796  1.00  0.00     0.029 A 
ATOM     49  N   UNL     1      -2.667  -2.876   7.994  1.00  0.00    -0.354 N 
ATOM     50  C   UNL     1       1.023  -4.022   9.947  1.00  0.00     0.074 A 
ATOM     51  C   UNL     1       1.938  -4.630   9.007  1.00  0.00     0.031 C 
ATOM     52  C   UNL     1      -4.071  -2.626   6.273  1.00  0.00     0.029 A 
ATOM     53  C   UNL     1      -3.934  -2.429   7.716  1.00  0.00     0.049 A 
ATOM     54  H   UNL     1      -2.268  -2.840   8.893  1.00  0.00     0.167 HD
ATOM     55  C   UNL     1       1.302  -3.825  11.257  1.00  0.00     0.037 A 
ATOM     56  C   UNL     1      -4.874  -1.932   8.543  1.00  0.00     0.037 A 
ATOM     57  C   UNL     1       0.387  -3.241  12.197  1.00  0.00     0.049 A 
ATOM     58  C   UNL     1      -4.564  -1.782  10.011  1.00  0.00     0.074 A 
ATOM     59  C   UNL     1       0.571  -2.998  13.546  1.00  0.00     0.029 A 
ATOM     60  N   UNL     1      -0.896  -2.817  11.883  1.00  0.00    -0.354 N 
ATOM     61  N   UNL     1      -3.459  -2.060  10.660  1.00  0.00    -0.248 NA
ATOM     62  C   UNL     1      -5.635  -1.240  10.861  1.00  0.00     0.031 C 
ATOM     63  C   UNL     1      -0.617  -2.463  14.058  1.00  0.00     0.029 A 
ATOM     64  C   UNL     1      -1.523  -2.330  13.018  1.00  0.00     0.049 A 
ATOM     65  H   UNL     1      -1.301  -2.856  10.986  1.00  0.00     0.167 HD
ATOM     66  C   UNL     1      -3.689  -1.702  11.982  1.00  0.00     0.074 A 
ATOM     67  C   UNL     1      -5.036  -1.174  12.042  1.00  0.00     0.031 C 
ATOM     68  C   UNL     1      -2.861  -1.800  13.053  1.00  0.00     0.037 A 
BRANCH  55  69
ATOM     69  C   UNL     1       2.647  -4.274  11.742  1.00  0.00     0.064 A 
ATOM     70  C   UNL     1       3.818  -3.583  11.396  1.00  0.00     0.173 A 
ATOM     71  C   UNL     1       2.766  -5.405  12.562  1.00  0.00     0.173 A 
ATOM     72  F   UNL     1       3.757  -2.509  10.595  1.00  0.00    -0.203 F 
ATOM     73  C   UNL     1       5.064  -4.025  11.834  1.00  0.00     0.198 A 
ATOM     74  C   UNL     1       4.011  -5.828  13.019  1.00  0.00     0.198 A 
ATOM     75  F   UNL     1       1.676  -6.101  12.917  1.00  0.00    -0.203 F 
ATOM     76  F   UNL     1       6.175  -3.380  11.451  1.00  0.00    -0.200 F 
ATOM     77  C   UNL     1       5.158  -5.143  12.649  1.00  0.00     0.200 A 
ATOM     78  F   UNL     1       4.100  -6.905  13.811  1.00  0.00    -0.200 F 
ATOM     79  F   UNL     1       6.358  -5.567  13.070  1.00  0.00    -0.200 F 
ENDBRANCH  55  69
BRANCH  56  80
ATOM     80  C   UNL     1      -6.202  -1.534   8.009  1.00  0.00     0.064 A 
ATOM     81  C   UNL     1      -6.585  -0.186   7.958  1.00  0.00     0.173 A 
ATOM     82  C   UNL     1      -7.127  -2.493   7.569  1.00  0.00     0.173 A 
ATOM     83  F   UNL     1      -5.747   0.764   8.395  1.00  0.00    -0.203 F 
ATOM     84  C   UNL     1      -7.850   0.186   7.506  1.00  0.00     0.198 A 
ATOM     85  C   UNL     1      -8.382  -2.118   7.094  1.00  0.00     0.198 A 
ATOM     86  F   UNL     1      -6.810  -3.795   7.604  1.00  0.00    -0.203 F 
ATOM     87  F   UNL     1      -8.209   1.477   7.515  1.00  0.00    -0.200 F 
ATOM     88  C   UNL     1      -8.745  -0.780   7.071  1.00  0.00     0.200 A 
ATOM     89  F   UNL     1      -9.242  -3.053   6.670  1.00  0.00    -0.200 F 
ATOM     90  F   UNL     1      -9.963  -0.421   6.641  1.00  0.00    -0.200 F 
ENDBRANCH  56  80
BRANCH  68  91
ATOM     91  C   UNL     1      -3.373  -1.289  14.368  1.00  0.00     0.064 A 
ATOM     92  C   UNL     1      -4.354  -1.979  15.095  1.00  0.00     0.173 A 
ATOM     93  C   UNL     1      -2.847  -0.114  14.925  1.00  0.00     0.173 A 
ATOM     94  F   UNL     1      -4.898  -3.101  14.599  1.00  0.00    -0.203 F 
ATOM     95  C   UNL     1      -4.810  -1.495  16.318  1.00  0.00     0.198 A 
ATOM     96  C   UNL     1      -3.284   0.351  16.162  1.00  0.00     0.198 A 
ATOM     97  F   UNL     1      -1.899   0.578  14.274  1.00  0.00    -0.203 F 
ATOM     98  F   UNL     1      -5.782  -2.144  16.973  1.00  0.00    -0.200 F 
ATOM     99  C   UNL     1      -4.270  -0.334  16.853  1.00  0.00     0.200 A 
ATOM    100  F   UNL     1      -2.752   1.466  16.683  1.00  0.00    -0.200 F 
ATOM    101  F   UNL     1      -4.707   0.128  18.033  1.00  0.00    -0.200 F 
ENDBRANCH  68  91
ENDBRANCH  42  43
ENDBRANCH  35  37
ENDBRANCH  34  35
ENDBRANCH  33  34
ENDBRANCH  32  33
ENDBRANCH  31  32
ENDBRANCH  30  31
ENDBRANCH   1  30
TORSDOF 22
