REMARK SMILES O=C(OCCOCCOCCOC(=O)c1ccc(-c2c3nc(c(-c4c(F)c(F)c(F)c(F)c4F)c4ccc([nH]4)c(-c4c(F)c(F)c(F)c(F)c4F)c4nc(c(-c5c(F)c(F)c(F)c(F)c5F)c5ccc2[nH]5)C=C4)C=C3)cc1)C1=Cc2cc(Cl)cc(-c3ccccc3)c2O[C@@H]1C(F)(F)F
REMARK SMILES IDX 8 1 7 2 6 3 5 4 4 5 3 6 2 7 1 8 78 9 79 10 94 11 80 12 93 13
REMARK SMILES IDX 81 14 92 15 82 16 85 17 83 18 84 19 95 20 96 21 97 22 98 23
REMARK SMILES IDX 86 24 87 25 91 26 88 27 90 28 89 29 9 30 10 31 11 32 12 33
REMARK SMILES IDX 13 34 14 35 15 36 16 37 77 38 17 39 76 40 18 41 19 42 20 43
REMARK SMILES IDX 70 44 21 45 75 46 69 47 71 48 22 49 74 50 68 51 67 52 23 54
REMARK SMILES IDX 55 55 35 56 54 57 36 58 39 59 53 60 72 61 37 62 38 63 52 65
REMARK SMILES IDX 73 66 40 67 24 68 25 69 33 70 26 71 27 72 31 73 34 74 28 75
REMARK SMILES IDX 29 76 32 77 30 78 56 79 57 80 65 81 58 82 59 83 63 84 66 85
REMARK SMILES IDX 60 86 61 87 64 88 62 89 41 90 42 91 50 92 43 93 44 94 48 95
REMARK SMILES IDX 51 96 45 97 46 98 49 99 47 100
REMARK H PARENT 71 53 39 64
REMARK Flexibility Score: inf
ROOT
ATOM      1  C   UNL     1       1.709  -3.492  -0.142  1.00  0.00     0.188 C 
ENDROOT
BRANCH   1   2
ATOM      2  C   UNL     1       2.255  -2.150  -0.654  1.00  0.00     0.188 C 
BRANCH   2   3
ATOM      3  O   UNL     1       3.719  -1.904  -1.003  1.00  0.00    -0.376 OA
BRANCH   3   4
ATOM      4  C   UNL     1       4.619  -0.384  -0.798  1.00  0.00     0.202 C 
BRANCH   4   5
ATOM      5  C   UNL     1       4.002   1.119   0.652  1.00  0.00     0.261 C 
BRANCH   5   6
ATOM      6  O   UNL     1       3.049   2.294   0.380  1.00  0.00    -0.460 OA
BRANCH   6   7
ATOM      7  C   UNL     1       3.190   2.789  -0.859  1.00  0.00     0.338 C 
ATOM      8  O   UNL     1       2.483   3.571  -1.445  1.00  0.00    -0.246 OA
BRANCH   7   9
ATOM      9  C   UNL     1       4.045   1.726  -1.349  1.00  0.00     0.087 C 
ATOM     10  C   UNL     1       5.438   1.799  -0.978  1.00  0.00     0.027 C 
ATOM     11  C   UNL     1       2.837   0.337  -0.833  1.00  0.00     0.316 C 
ATOM     12  C   UNL     1       6.185   0.779   0.279  1.00  0.00     0.019 A 
ATOM     13  O   UNL     1       3.581  -0.697   0.673  1.00  0.00    -0.475 OA
ATOM     14  C   UNL     1       7.461   1.115   0.652  1.00  0.00     0.032 A 
ATOM     15  C   UNL     1       5.321  -0.425   1.176  1.00  0.00     0.135 A 
ATOM     16  C   UNL     1       7.982   0.386   1.720  1.00  0.00     0.042 A 
ATOM     17  C   UNL     1       5.950  -1.144   2.182  1.00  0.00     0.026 A 
ATOM     18  Cl  UNL     1       9.581   0.785   2.255  1.00  0.00    -0.084 Cl
ATOM     19  C   UNL     1       7.288  -0.671   2.410  1.00  0.00     0.033 A 
BRANCH  11  20
ATOM     20  C   UNL     1       2.560  -0.055  -2.499  1.00  0.00     0.430 C 
ATOM     21  F   UNL     1       2.765  -1.292  -2.978  1.00  0.00    -0.167 F 
ATOM     22  F   UNL     1       1.286   0.289  -2.823  1.00  0.00    -0.167 F 
ATOM     23  F   UNL     1       3.341   0.711  -3.328  1.00  0.00    -0.167 F 
ENDBRANCH  11  20
BRANCH  17  24
ATOM     24  C   UNL     1       5.580  -2.316   2.972  1.00  0.00    -0.015 A 
ATOM     25  C   UNL     1       5.023  -2.193   4.251  1.00  0.00     0.009 A 
ATOM     26  C   UNL     1       6.069  -3.586   2.599  1.00  0.00     0.009 A 
ATOM     27  C   UNL     1       4.872  -3.314   5.081  1.00  0.00     0.001 A 
ATOM     28  C   UNL     1       5.888  -4.713   3.411  1.00  0.00     0.001 A 
ATOM     29  C   UNL     1       5.272  -4.577   4.648  1.00  0.00     0.000 A 
ENDBRANCH  17  24
ENDBRANCH   7   9
ENDBRANCH   6   7
ENDBRANCH   5   6
ENDBRANCH   4   5
ENDBRANCH   3   4
ENDBRANCH   2   3
ENDBRANCH   1   2
BRANCH   1  30
ATOM     30  O   UNL     1       2.358  -4.128   0.921  1.00  0.00    -0.376 OA
BRANCH  30  31
ATOM     31  C   UNL     1       3.745  -4.301   0.736  1.00  0.00     0.202 C 
BRANCH  31  32
ATOM     32  C   UNL     1       4.252  -5.153  -0.432  1.00  0.00     0.261 C 
BRANCH  32  33
ATOM     33  O   UNL     1       3.901  -4.653  -1.732  1.00  0.00    -0.460 OA
BRANCH  33  34
ATOM     34  C   UNL     1       2.933  -5.331  -2.393  1.00  0.00     0.338 C 
ATOM     35  O   UNL     1       2.346  -6.338  -2.039  1.00  0.00    -0.246 OA
BRANCH  34  36
ATOM     36  C   UNL     1       2.546  -4.543  -3.575  1.00  0.00     0.060 A 
ATOM     37  C   UNL     1       1.277  -3.945  -3.635  1.00  0.00     0.016 A 
ATOM     38  C   UNL     1       3.429  -4.452  -4.648  1.00  0.00     0.016 A 
ATOM     39  C   UNL     1       0.892  -3.236  -4.768  1.00  0.00     0.010 A 
ATOM     40  C   UNL     1       3.025  -3.788  -5.803  1.00  0.00     0.010 A 
ATOM     41  C   UNL     1       1.748  -3.201  -5.873  1.00  0.00    -0.014 A 
BRANCH  41  42
ATOM     42  C   UNL     1       1.215  -2.794  -7.189  1.00  0.00     0.031 A 
ATOM     43  C   UNL     1       0.642  -3.869  -8.064  1.00  0.00     0.074 A 
ATOM     44  C   UNL     1       1.255  -1.515  -7.595  1.00  0.00     0.049 A 
ATOM     45  N   UNL     1       0.203  -3.798  -9.292  1.00  0.00    -0.248 NA
ATOM     46  C   UNL     1       0.566  -5.216  -7.472  1.00  0.00     0.031 C 
ATOM     47  C   UNL     1       1.745  -0.392  -6.802  1.00  0.00     0.029 A 
ATOM     48  N   UNL     1       0.889  -0.955  -8.792  1.00  0.00    -0.354 N 
ATOM     49  C   UNL     1      -0.192  -5.088  -9.620  1.00  0.00     0.074 A 
ATOM     50  C   UNL     1       0.086  -5.928  -8.478  1.00  0.00     0.031 C 
ATOM     51  C   UNL     1       1.670   0.727  -7.545  1.00  0.00     0.029 A 
ATOM     52  C   UNL     1       1.165   0.387  -8.874  1.00  0.00     0.049 A 
ATOM     53  H   UNL     1       0.470  -1.466  -9.522  1.00  0.00     0.167 HD
ATOM     54  C   UNL     1      -0.740  -5.528 -10.776  1.00  0.00     0.037 A 
ATOM     55  C   UNL     1       1.049   1.227  -9.922  1.00  0.00     0.037 A 
ATOM     56  C   UNL     1      -0.985  -4.683 -11.913  1.00  0.00     0.049 A 
ATOM     57  C   UNL     1       0.523   0.691 -11.232  1.00  0.00     0.074 A 
ATOM     58  C   UNL     1      -1.543  -5.019 -13.132  1.00  0.00     0.029 A 
ATOM     59  N   UNL     1      -0.667  -3.333 -11.974  1.00  0.00    -0.354 N 
ATOM     60  N   UNL     1       0.119  -0.521 -11.533  1.00  0.00    -0.248 NA
ATOM     61  C   UNL     1       0.436   1.641 -12.351  1.00  0.00     0.031 C 
ATOM     62  C   UNL     1      -1.490  -3.893 -13.957  1.00  0.00     0.029 A 
ATOM     63  C   UNL     1      -0.981  -2.831 -13.225  1.00  0.00     0.049 A 
ATOM     64  H   UNL     1      -0.276  -2.811 -11.237  1.00  0.00     0.167 HD
ATOM     65  C   UNL     1      -0.300  -0.470 -12.857  1.00  0.00     0.074 A 
ATOM     66  C   UNL     1      -0.115   0.896 -13.298  1.00  0.00     0.031 C 
ATOM     67  C   UNL     1      -0.796  -1.463 -13.639  1.00  0.00     0.037 A 
BRANCH  54  68
ATOM     68  C   UNL     1      -1.058  -6.991 -10.879  1.00  0.00     0.064 A 
ATOM     69  C   UNL     1      -2.072  -7.586 -10.112  1.00  0.00     0.173 A 
ATOM     70  C   UNL     1      -0.346  -7.808 -11.770  1.00  0.00     0.173 A 
ATOM     71  F   UNL     1      -2.772  -6.855  -9.232  1.00  0.00    -0.203 F 
ATOM     72  C   UNL     1      -2.338  -8.950 -10.211  1.00  0.00     0.198 A 
ATOM     73  C   UNL     1      -0.641  -9.163 -11.893  1.00  0.00     0.198 A 
ATOM     74  F   UNL     1       0.635  -7.293 -12.526  1.00  0.00    -0.203 F 
ATOM     75  F   UNL     1      -3.270  -9.507  -9.425  1.00  0.00    -0.200 F 
ATOM     76  C   UNL     1      -1.629  -9.735 -11.107  1.00  0.00     0.200 A 
ATOM     77  F   UNL     1       0.036  -9.916 -12.771  1.00  0.00    -0.200 F 
ATOM     78  F   UNL     1      -1.892 -11.045 -11.207  1.00  0.00    -0.200 F 
ENDBRANCH  54  68
BRANCH  55  79
ATOM     79  C   UNL     1       1.457   2.652  -9.789  1.00  0.00     0.064 A 
ATOM     80  C   UNL     1       0.519   3.688  -9.904  1.00  0.00     0.173 A 
ATOM     81  C   UNL     1       2.797   3.011  -9.576  1.00  0.00     0.173 A 
ATOM     82  F   UNL     1      -0.771   3.401 -10.135  1.00  0.00    -0.203 F 
ATOM     83  C   UNL     1       0.908   5.025  -9.839  1.00  0.00     0.198 A 
ATOM     84  C   UNL     1       3.179   4.348  -9.474  1.00  0.00     0.198 A 
ATOM     85  F   UNL     1       3.738   2.063  -9.464  1.00  0.00    -0.203 F 
ATOM     86  F   UNL     1      -0.000   5.994 -10.018  1.00  0.00    -0.200 F 
ATOM     87  C   UNL     1       2.237   5.354  -9.618  1.00  0.00     0.200 A 
ATOM     88  F   UNL     1       4.463   4.659  -9.247  1.00  0.00    -0.200 F 
ATOM     89  F   UNL     1       2.611   6.639  -9.557  1.00  0.00    -0.200 F 
ENDBRANCH  55  79
BRANCH  67  90
ATOM     90  C   UNL     1      -1.219  -1.103 -15.037  1.00  0.00     0.064 A 
ATOM     91  C   UNL     1      -0.290  -0.762 -16.030  1.00  0.00     0.173 A 
ATOM     92  C   UNL     1      -2.575  -1.164 -15.400  1.00  0.00     0.173 A 
ATOM     93  F   UNL     1       1.016  -0.680 -15.735  1.00  0.00    -0.203 F 
ATOM     94  C   UNL     1      -0.705  -0.468 -17.327  1.00  0.00     0.198 A 
ATOM     95  C   UNL     1      -2.981  -0.910 -16.707  1.00  0.00     0.198 A 
ATOM     96  F   UNL     1      -3.505  -1.497 -14.492  1.00  0.00    -0.203 F 
ATOM     97  F   UNL     1       0.195  -0.094 -18.247  1.00  0.00    -0.200 F 
ATOM     98  C   UNL     1      -2.047  -0.553 -17.667  1.00  0.00     0.200 A 
ATOM     99  F   UNL     1      -4.275  -1.017 -17.037  1.00  0.00    -0.200 F 
ATOM    100  F   UNL     1      -2.441  -0.286 -18.919  1.00  0.00    -0.200 F 
ENDBRANCH  67  90
ENDBRANCH  41  42
ENDBRANCH  34  36
ENDBRANCH  33  34
ENDBRANCH  32  33
ENDBRANCH  31  32
ENDBRANCH  30  31
ENDBRANCH   1  30
TORSDOF 19
