REMARK SMILES C[NH+](C)[C@@H]1CC[N@@H+](Cc2ccc(C(=O)OCCOCCOCCOC(=O)c3ccc(-c4c5nc(c(-c6c(F)c(F)c(F)c(F)c6F)c6ccc([nH]6)c(-c6c(F)c(F)c(F)c(F)c6F)c6nc(c(-c7c(F)c(F)c(F)c(F)c7F)c7ccc4[nH]7)C=C6)C=C5)cc3)cn2)C1
REMARK SMILES IDX 19 1 18 2 17 3 16 4 15 5 13 6 14 7 12 8 9 9 10 10 91 11
REMARK SMILES IDX 11 12 90 13 8 14 7 15 4 16 5 17 92 18 6 19 2 21 1 22 3 23
REMARK SMILES IDX 20 25 21 26 22 27 23 28 24 29 25 30 26 31 27 32 28 33 89 34
REMARK SMILES IDX 29 35 88 36 30 37 31 38 32 39 82 40 33 41 87 42 81 43 83 44
REMARK SMILES IDX 34 45 86 46 80 47 79 48 35 50 67 51 47 52 66 53 48 54 51 55
REMARK SMILES IDX 65 56 84 57 49 58 50 59 64 61 85 62 52 63 36 64 37 65 45 66
REMARK SMILES IDX 38 67 39 68 43 69 46 70 40 71 41 72 44 73 42 74 68 75 69 76
REMARK SMILES IDX 77 77 70 78 71 79 75 80 78 81 72 82 73 83 76 84 74 85 53 86
REMARK SMILES IDX 54 87 62 88 55 89 56 90 60 91 63 92 57 93 58 94 61 95 59 96
REMARK H PARENT 7 20 2 24 83 49 51 60
REMARK Flexibility Score: inf
ROOT
ATOM      1  C   UNL     1       1.627   2.792   9.591  1.00  0.00     0.188 C 
ENDROOT
BRANCH   1   2
ATOM      2  O   UNL     1       0.939   3.848  10.247  1.00  0.00    -0.376 OA
BRANCH   2   3
ATOM      3  C   UNL     1      -0.342   4.262   9.784  1.00  0.00     0.202 C 
BRANCH   3   4
ATOM      4  C   UNL     1      -0.546   4.606   8.302  1.00  0.00     0.261 C 
BRANCH   4   5
ATOM      5  O   UNL     1      -0.151   3.552   7.414  1.00  0.00    -0.460 OA
BRANCH   5   6
ATOM      6  C   UNL     1       0.828   3.877   6.531  1.00  0.00     0.339 C 
ATOM      7  O   UNL     1       1.312   4.972   6.340  1.00  0.00    -0.246 OA
BRANCH   6   8
ATOM      8  C   UNL     1       1.390   2.644   5.953  1.00  0.00     0.078 A 
ATOM      9  C   UNL     1       2.660   0.461   4.881  1.00  0.00     0.095 A 
ATOM     10  C   UNL     1       1.300   0.372   5.180  1.00  0.00     0.031 A 
ATOM     11  N   UNL     1       3.403   1.555   5.192  1.00  0.00    -0.254 NA
ATOM     12  C   UNL     1       0.651   1.489   5.701  1.00  0.00     0.019 A 
ATOM     13  C   UNL     1       2.755   2.620   5.713  1.00  0.00     0.127 A 
BRANCH   9  14
ATOM     14  C   UNL     1       3.329  -0.591   4.016  1.00  0.00     0.319 C 
BRANCH  14  15
ATOM     15  N   UNL     1       3.160  -0.448   2.557  1.00  0.00    -0.325 N 
ATOM     16  C   UNL     1       1.151   0.712   1.792  1.00  0.00     0.245 C 
ATOM     17  C   UNL     1       2.309   1.708   1.914  1.00  0.00     0.132 C 
ATOM     18  C   UNL     1       1.800  -0.673   2.049  1.00  0.00     0.328 C 
ATOM     19  C   UNL     1       3.566   0.860   2.028  1.00  0.00     0.269 C 
ATOM     20  H   UNL     1       3.779  -1.190   2.230  1.00  0.00     0.348 HD
BRANCH  16  21
ATOM     21  N   UNL     1       0.404   0.971   0.549  1.00  0.00    -0.333 N 
ATOM     22  C   UNL     1       0.827   0.183  -0.602  1.00  0.00     0.332 C 
ATOM     23  C   UNL     1      -1.041   0.904   0.733  1.00  0.00     0.332 C 
ATOM     24  H   UNL     1       0.648   1.935   0.321  1.00  0.00     0.348 HD
ENDBRANCH  16  21
ENDBRANCH  14  15
ENDBRANCH   9  14
ENDBRANCH   6   8
ENDBRANCH   5   6
ENDBRANCH   4   5
ENDBRANCH   3   4
ENDBRANCH   2   3
ENDBRANCH   1   2
BRANCH   1  25
ATOM     25  C   UNL     1       0.914   1.453   9.312  1.00  0.00     0.188 C 
BRANCH  25  26
ATOM     26  O   UNL     1      -0.456   1.407   9.614  1.00  0.00    -0.376 OA
BRANCH  26  27
ATOM     27  C   UNL     1      -0.893   0.959  10.885  1.00  0.00     0.202 C 
BRANCH  27  28
ATOM     28  C   UNL     1      -0.010   0.784  12.139  1.00  0.00     0.261 C 
BRANCH  28  29
ATOM     29  O   UNL     1       1.395   1.021  12.029  1.00  0.00    -0.460 OA
BRANCH  29  30
ATOM     30  C   UNL     1       2.176  -0.079  11.901  1.00  0.00     0.338 C 
ATOM     31  O   UNL     1       1.816  -1.239  11.819  1.00  0.00    -0.246 OA
BRANCH  30  32
ATOM     32  C   UNL     1       3.569   0.362  11.689  1.00  0.00     0.060 A 
ATOM     33  C   UNL     1       4.181   0.095  10.457  1.00  0.00     0.016 A 
ATOM     34  C   UNL     1       4.271   1.007  12.708  1.00  0.00     0.016 A 
ATOM     35  C   UNL     1       5.514   0.453  10.250  1.00  0.00     0.010 A 
ATOM     36  C   UNL     1       5.612   1.346  12.505  1.00  0.00     0.010 A 
ATOM     37  C   UNL     1       6.247   1.045  11.286  1.00  0.00    -0.014 A 
BRANCH  37  38
ATOM     38  C   UNL     1       7.718   1.196  11.165  1.00  0.00     0.031 A 
ATOM     39  C   UNL     1       8.601   0.149  11.784  1.00  0.00     0.074 A 
ATOM     40  C   UNL     1       8.262   2.242  10.520  1.00  0.00     0.049 A 
ATOM     41  N   UNL     1       9.907   0.097  11.860  1.00  0.00    -0.248 NA
ATOM     42  C   UNL     1       7.916  -0.996  12.405  1.00  0.00     0.031 C 
ATOM     43  C   UNL     1       7.516   3.298   9.841  1.00  0.00     0.029 A 
ATOM     44  N   UNL     1       9.579   2.589  10.342  1.00  0.00    -0.354 N 
ATOM     45  C   UNL     1      10.197  -1.073  12.548  1.00  0.00     0.074 A 
ATOM     46  C   UNL     1       8.934  -1.691  12.888  1.00  0.00     0.031 C 
ATOM     47  C   UNL     1       8.388   4.182   9.325  1.00  0.00     0.029 A 
ATOM     48  C   UNL     1       9.749   3.772   9.668  1.00  0.00     0.049 A 
ATOM     49  H   UNL     1      10.329   2.041  10.668  1.00  0.00     0.167 HD
ATOM     50  C   UNL     1      11.409  -1.588  12.864  1.00  0.00     0.037 A 
ATOM     51  C   UNL     1      10.877   4.453   9.381  1.00  0.00     0.037 A 
ATOM     52  C   UNL     1      12.665  -0.975  12.523  1.00  0.00     0.049 A 
ATOM     53  C   UNL     1      12.210   3.898   9.817  1.00  0.00     0.074 A 
ATOM     54  C   UNL     1      13.946  -1.439  12.765  1.00  0.00     0.029 A 
ATOM     55  N   UNL     1      12.797   0.246  11.876  1.00  0.00    -0.354 N 
ATOM     56  N   UNL     1      12.481   2.773  10.433  1.00  0.00    -0.248 NA
ATOM     57  C   UNL     1      13.396   4.714   9.517  1.00  0.00     0.031 C 
ATOM     58  C   UNL     1      14.853  -0.470  12.321  1.00  0.00     0.029 A 
ATOM     59  C   UNL     1      14.139   0.568  11.745  1.00  0.00     0.049 A 
ATOM     60  H   UNL     1      12.049   0.800  11.558  1.00  0.00     0.167 HD
ATOM     61  C   UNL     1      13.865   2.728  10.560  1.00  0.00     0.074 A 
ATOM     62  C   UNL     1      14.378   3.937   9.951  1.00  0.00     0.031 C 
ATOM     63  C   UNL     1      14.639   1.770  11.126  1.00  0.00     0.037 A 
BRANCH  50  64
ATOM     64  C   UNL     1      11.433  -2.864  13.656  1.00  0.00     0.064 A 
ATOM     65  C   UNL     1      11.049  -4.092  13.098  1.00  0.00     0.173 A 
ATOM     66  C   UNL     1      11.869  -2.857  14.990  1.00  0.00     0.173 A 
ATOM     67  F   UNL     1      10.610  -4.150  11.831  1.00  0.00    -0.203 F 
ATOM     68  C   UNL     1      11.071  -5.261  13.855  1.00  0.00     0.198 A 
ATOM     69  C   UNL     1      11.920  -4.032  15.734  1.00  0.00     0.198 A 
ATOM     70  F   UNL     1      12.251  -1.710  15.572  1.00  0.00    -0.203 F 
ATOM     71  F   UNL     1      10.649  -6.413  13.317  1.00  0.00    -0.200 F 
ATOM     72  C   UNL     1      11.512  -5.231  15.169  1.00  0.00     0.200 A 
ATOM     73  F   UNL     1      12.358  -4.004  17.000  1.00  0.00    -0.200 F 
ATOM     74  F   UNL     1      11.537  -6.357  15.895  1.00  0.00    -0.200 F 
ENDBRANCH  50  64
BRANCH  51  75
ATOM     75  C   UNL     1      10.802   5.741   8.643  1.00  0.00     0.064 A 
ATOM     76  C   UNL     1      11.310   5.854   7.341  1.00  0.00     0.173 A 
ATOM     77  C   UNL     1      10.251   6.889   9.229  1.00  0.00     0.173 A 
ATOM     78  F   UNL     1      11.876   4.791   6.749  1.00  0.00    -0.203 F 
ATOM     79  C   UNL     1      11.285   7.069   6.660  1.00  0.00     0.198 A 
ATOM     80  C   UNL     1      10.201   8.098   8.537  1.00  0.00     0.198 A 
ATOM     81  F   UNL     1       9.761   6.838  10.476  1.00  0.00    -0.203 F 
ATOM     82  F   UNL     1      11.823   7.161   5.437  1.00  0.00    -0.200 F 
ATOM     83  C   UNL     1      10.725   8.189   7.257  1.00  0.00     0.200 A 
ATOM     84  F   UNL     1       9.654   9.176   9.115  1.00  0.00    -0.200 F 
ATOM     85  F   UNL     1      10.702   9.358   6.603  1.00  0.00    -0.200 F 
ENDBRANCH  51  75
BRANCH  63  86
ATOM     86  C   UNL     1      16.129   1.960  11.075  1.00  0.00     0.064 A 
ATOM     87  C   UNL     1      16.779   2.932  11.850  1.00  0.00     0.173 A 
ATOM     88  C   UNL     1      16.922   1.126  10.270  1.00  0.00     0.173 A 
ATOM     89  F   UNL     1      16.067   3.764  12.625  1.00  0.00    -0.203 F 
ATOM     90  C   UNL     1      18.164   3.078  11.802  1.00  0.00     0.198 A 
ATOM     91  C   UNL     1      18.308   1.254  10.249  1.00  0.00     0.198 A 
ATOM     92  F   UNL     1      16.353   0.175   9.515  1.00  0.00    -0.203 F 
ATOM     93  F   UNL     1      18.758   4.045  12.515  1.00  0.00    -0.200 F 
ATOM     94  C   UNL     1      18.927   2.235  11.009  1.00  0.00     0.200 A 
ATOM     95  F   UNL     1      19.045   0.426   9.495  1.00  0.00    -0.200 F 
ATOM     96  F   UNL     1      20.260   2.371  10.972  1.00  0.00    -0.200 F 
ENDBRANCH  63  86
ENDBRANCH  37  38
ENDBRANCH  30  32
ENDBRANCH  29  30
ENDBRANCH  28  29
ENDBRANCH  27  28
ENDBRANCH  26  27
ENDBRANCH  25  26
ENDBRANCH   1  25
TORSDOF 20
