REMARK SMILES Cc1cccc(O[C@H](C)C(=O)NNC(=O)[C@H]2[C@@H]3CC[C@@H](C3)[C@@H]2C(=O)OCCOCCOCCOC(=O)c2ccc(-c3c4nc(c(-c5c(F)c(F)c(F)c(F)c5F)c5ccc([nH]5)c(-c5c(F)c(F)c(F)c(F)c5F)c5nc(c(-c6c(F)c(F)c(F)c(F)c6F)c6ccc3[nH]6)C=C5)C=C4)cc2)c1
REMARK SMILES IDX 28 1 27 2 26 3 25 4 23 5 24 6 22 7 16 8 17 9 18 10 21 11
REMARK SMILES IDX 20 12 19 13 14 14 13 15 15 17 12 18 10 19 11 20 8 22 9 23
REMARK SMILES IDX 7 24 6 25 1 26 2 27 3 28 100 29 4 30 5 31 29 32 30 33 31 34
REMARK SMILES IDX 32 35 33 36 34 37 35 38 36 39 37 40 38 41 99 42 39 43 98 44
REMARK SMILES IDX 40 45 41 46 42 47 92 48 43 49 97 50 91 51 93 52 44 53 96 54
REMARK SMILES IDX 90 55 89 56 45 58 77 59 57 60 76 61 58 62 61 63 75 64 94 65
REMARK SMILES IDX 59 66 60 67 74 69 95 70 62 71 46 72 47 73 55 74 48 75 49 76
REMARK SMILES IDX 53 77 56 78 50 79 51 80 54 81 52 82 78 83 79 84 87 85 80 86
REMARK SMILES IDX 81 87 85 88 88 89 82 90 83 91 86 92 84 93 63 94 64 95 72 96
REMARK SMILES IDX 65 97 66 98 70 99 73 100 67 101 68 102 71 103 69 104
REMARK H PARENT 13 16 12 21 93 57 61 68
REMARK Flexibility Score: inf
ROOT
ATOM      1  O   UNL     1       6.838   5.414  -0.705  1.00  0.00    -0.376 OA
ENDROOT
BRANCH   1   2
ATOM      2  C   UNL     1       5.622   6.173  -0.875  1.00  0.00     0.202 C 
BRANCH   2   3
ATOM      3  C   UNL     1       4.258   6.005  -1.912  1.00  0.00     0.261 C 
BRANCH   3   4
ATOM      4  O   UNL     1       3.131   4.658  -2.444  1.00  0.00    -0.463 OA
BRANCH   4   5
ATOM      5  C   UNL     1       3.102   3.319  -3.080  1.00  0.00     0.310 C 
ATOM      6  O   UNL     1       4.063   2.619  -3.415  1.00  0.00    -0.252 OA
BRANCH   5   7
ATOM      7  C   UNL     1       1.837   2.582  -3.390  1.00  0.00     0.115 C 
ATOM      8  C   UNL     1       1.915   1.164  -2.714  1.00  0.00     0.098 C 
ATOM      9  C   UNL     1       1.546   0.157  -3.846  1.00  0.00     0.003 C 
ATOM     10  C   UNL     1       2.792  -0.084  -4.713  1.00  0.00     0.005 C 
ATOM     11  C   UNL     1       0.678   0.994  -4.782  1.00  0.00     0.009 C 
ATOM     12  C   UNL     1       1.723   2.110  -4.912  1.00  0.00     0.004 C 
ATOM     13  C   UNL     1       2.895   1.239  -5.484  1.00  0.00     0.005 C 
BRANCH   8  14
ATOM     14  C   UNL     1       1.164   0.785  -1.465  1.00  0.00     0.242 C 
ATOM     15  N   UNL     1      -0.010   1.347  -1.097  1.00  0.00    -0.267 N 
ATOM     16  H   UNL     1      -0.484   0.915  -0.350  1.00  0.00     0.191 HD
ATOM     17  O   UNL     1       1.560  -0.169  -0.785  1.00  0.00    -0.273 OA
BRANCH  15  18
ATOM     18  N   UNL     1      -0.615   2.443  -1.642  1.00  0.00    -0.264 N 
ATOM     19  C   UNL     1      -0.803   3.591  -0.916  1.00  0.00     0.279 C 
ATOM     20  O   UNL     1      -0.590   4.677  -1.463  1.00  0.00    -0.269 OA
ATOM     21  H   UNL     1      -0.923   2.408  -2.576  1.00  0.00     0.191 HD
BRANCH  19  22
ATOM     22  C   UNL     1      -1.503   3.494   0.469  1.00  0.00     0.260 C 
ATOM     23  C   UNL     1      -2.876   2.832   0.311  1.00  0.00     0.064 C 
BRANCH  22  24
ATOM     24  O   UNL     1      -0.832   3.305   1.699  1.00  0.00    -0.481 OA
BRANCH  24  25
ATOM     25  C   UNL     1      -0.383   2.153   2.254  1.00  0.00     0.120 A 
ATOM     26  C   UNL     1       2.025   1.485   5.156  1.00  0.00     0.044 C 
ATOM     27  C   UNL     1       1.124   1.273   3.977  1.00  0.00    -0.047 A 
ATOM     28  C   UNL     1       0.849  -0.025   3.550  1.00  0.00     0.003 A 
ATOM     29  C   UNL     1       0.519   2.350   3.310  1.00  0.00     0.049 A 
ATOM     30  C   UNL     1      -0.085  -0.237   2.544  1.00  0.00     0.004 A 
ATOM     31  C   UNL     1      -0.737   0.847   1.944  1.00  0.00     0.046 A 
ENDBRANCH  24  25
ENDBRANCH  22  24
ENDBRANCH  19  22
ENDBRANCH  15  18
ENDBRANCH   8  14
ENDBRANCH   5   7
ENDBRANCH   4   5
ENDBRANCH   3   4
ENDBRANCH   2   3
ENDBRANCH   1   2
BRANCH   1  32
ATOM     32  C   UNL     1       7.160   4.585   0.428  1.00  0.00     0.188 C 
BRANCH  32  33
ATOM     33  C   UNL     1       6.722   4.955   1.830  1.00  0.00     0.188 C 
BRANCH  33  34
ATOM     34  O   UNL     1       5.440   5.527   1.746  1.00  0.00    -0.376 OA
BRANCH  34  35
ATOM     35  C   UNL     1       5.016   6.243   2.882  1.00  0.00     0.202 C 
BRANCH  35  36
ATOM     36  C   UNL     1       4.479   5.287   3.949  1.00  0.00     0.261 C 
BRANCH  36  37
ATOM     37  O   UNL     1       3.552   4.348   3.352  1.00  0.00    -0.460 OA
BRANCH  37  38
ATOM     38  C   UNL     1       4.054   3.095   3.058  1.00  0.00     0.338 C 
ATOM     39  O   UNL     1       4.784   2.456   3.777  1.00  0.00    -0.246 OA
BRANCH  38  40
ATOM     40  C   UNL     1       3.831   2.787   1.602  1.00  0.00     0.060 A 
ATOM     41  C   UNL     1       4.640   1.908   0.864  1.00  0.00     0.016 A 
ATOM     42  C   UNL     1       3.165   3.721   0.897  1.00  0.00     0.016 A 
ATOM     43  C   UNL     1       5.058   2.196  -0.496  1.00  0.00     0.010 A 
ATOM     44  C   UNL     1       3.750   4.068  -0.312  1.00  0.00     0.010 A 
ATOM     45  C   UNL     1       4.798   3.421  -1.111  1.00  0.00    -0.014 A 
BRANCH  45  46
ATOM     46  C   UNL     1       5.646   3.986  -2.607  1.00  0.00     0.031 A 
ATOM     47  C   UNL     1       5.018   4.716  -4.147  1.00  0.00     0.074 A 
ATOM     48  C   UNL     1       6.937   3.619  -2.771  1.00  0.00     0.049 A 
ATOM     49  N   UNL     1       5.389   4.362  -5.368  1.00  0.00    -0.248 NA
ATOM     50  C   UNL     1       3.789   5.643  -4.389  1.00  0.00     0.031 C 
ATOM     51  C   UNL     1       7.857   4.047  -3.819  1.00  0.00     0.029 A 
ATOM     52  N   UNL     1       7.687   2.700  -2.025  1.00  0.00    -0.354 N 
ATOM     53  C   UNL     1       4.589   5.079  -6.286  1.00  0.00     0.074 A 
ATOM     54  C   UNL     1       3.414   5.422  -5.623  1.00  0.00     0.031 C 
ATOM     55  C   UNL     1       8.895   3.195  -3.844  1.00  0.00     0.029 A 
ATOM     56  C   UNL     1       8.582   2.111  -2.931  1.00  0.00     0.049 A 
ATOM     57  H   UNL     1       7.603   2.508  -1.063  1.00  0.00     0.167 HD
ATOM     58  C   UNL     1       5.052   5.672  -7.423  1.00  0.00     0.037 A 
ATOM     59  C   UNL     1       8.471   0.785  -3.223  1.00  0.00     0.037 A 
ATOM     60  C   UNL     1       6.324   5.084  -7.730  1.00  0.00     0.049 A 
ATOM     61  C   UNL     1       8.201   0.537  -4.695  1.00  0.00     0.074 A 
ATOM     62  C   UNL     1       7.644   5.371  -7.453  1.00  0.00     0.029 A 
ATOM     63  N   UNL     1       6.269   3.744  -8.010  1.00  0.00    -0.354 N 
ATOM     64  N   UNL     1       8.105   1.475  -5.601  1.00  0.00    -0.248 NA
ATOM     65  C   UNL     1       7.943  -0.790  -5.252  1.00  0.00     0.031 C 
ATOM     66  C   UNL     1       8.355   4.123  -7.471  1.00  0.00     0.029 A 
ATOM     67  C   UNL     1       7.467   3.113  -7.806  1.00  0.00     0.049 A 
ATOM     68  H   UNL     1       5.457   3.285  -8.323  1.00  0.00     0.167 HD
ATOM     69  C   UNL     1       7.710   0.930  -6.788  1.00  0.00     0.074 A 
ATOM     70  C   UNL     1       7.622  -0.494  -6.522  1.00  0.00     0.031 C 
ATOM     71  C   UNL     1       7.437   1.664  -7.905  1.00  0.00     0.037 A 
BRANCH  58  72
ATOM     72  C   UNL     1       4.443   6.941  -8.046  1.00  0.00     0.064 A 
ATOM     73  C   UNL     1       5.276   7.815  -8.769  1.00  0.00     0.173 A 
ATOM     74  C   UNL     1       3.112   7.422  -7.911  1.00  0.00     0.173 A 
ATOM     75  F   UNL     1       6.530   7.464  -9.082  1.00  0.00    -0.203 F 
ATOM     76  C   UNL     1       4.859   9.085  -9.201  1.00  0.00     0.198 A 
ATOM     77  C   UNL     1       2.717   8.721  -8.265  1.00  0.00     0.198 A 
ATOM     78  F   UNL     1       2.101   6.640  -7.521  1.00  0.00    -0.203 F 
ATOM     79  F   UNL     1       5.703   9.857  -9.898  1.00  0.00    -0.200 F 
ATOM     80  C   UNL     1       3.595   9.557  -8.909  1.00  0.00     0.200 A 
ATOM     81  F   UNL     1       1.471   9.139  -7.993  1.00  0.00    -0.200 F 
ATOM     82  F   UNL     1       3.215  10.787  -9.281  1.00  0.00    -0.200 F 
ENDBRANCH  58  72
BRANCH  59  83
ATOM     83  C   UNL     1       8.003  -0.040  -2.057  1.00  0.00     0.064 A 
ATOM     84  C   UNL     1       8.672   0.116  -0.816  1.00  0.00     0.173 A 
ATOM     85  C   UNL     1       6.771  -0.707  -2.020  1.00  0.00     0.173 A 
ATOM     86  F   UNL     1       9.864   0.735  -0.767  1.00  0.00    -0.203 F 
ATOM     87  C   UNL     1       8.080  -0.240   0.395  1.00  0.00     0.198 A 
ATOM     88  C   UNL     1       6.199  -1.107  -0.803  1.00  0.00     0.198 A 
ATOM     89  F   UNL     1       6.053  -0.878  -3.138  1.00  0.00    -0.203 F 
ATOM     90  F   UNL     1       8.676   0.081   1.553  1.00  0.00    -0.200 F 
ATOM     91  C   UNL     1       6.837  -0.843   0.401  1.00  0.00     0.200 A 
ATOM     92  F   UNL     1       4.968  -1.639  -0.790  1.00  0.00    -0.200 F 
ATOM     93  F   UNL     1       6.220  -1.095   1.565  1.00  0.00    -0.200 F 
ENDBRANCH  59  83
BRANCH  71  94
ATOM     94  C   UNL     1       7.040   1.018  -9.204  1.00  0.00     0.064 A 
ATOM     95  C   UNL     1       7.804  -0.027  -9.738  1.00  0.00     0.173 A 
ATOM     96  C   UNL     1       5.980   1.489 -10.013  1.00  0.00     0.173 A 
ATOM     97  F   UNL     1       8.861  -0.511  -9.068  1.00  0.00    -0.203 F 
ATOM     98  C   UNL     1       7.503  -0.592 -10.975  1.00  0.00     0.198 A 
ATOM     99  C   UNL     1       5.734   0.979 -11.283  1.00  0.00     0.198 A 
ATOM    100  F   UNL     1       5.123   2.430  -9.593  1.00  0.00    -0.203 F 
ATOM    101  F   UNL     1       8.211  -1.641 -11.412  1.00  0.00    -0.200 F 
ATOM    102  C   UNL     1       6.483  -0.076 -11.756  1.00  0.00     0.200 A 
ATOM    103  F   UNL     1       4.758   1.511 -12.033  1.00  0.00    -0.200 F 
ATOM    104  F   UNL     1       6.214  -0.602 -12.957  1.00  0.00    -0.200 F 
ENDBRANCH  71  94
ENDBRANCH  45  46
ENDBRANCH  38  40
ENDBRANCH  37  38
ENDBRANCH  36  37
ENDBRANCH  35  36
ENDBRANCH  34  35
ENDBRANCH  33  34
ENDBRANCH  32  33
ENDBRANCH   1  32
TORSDOF 22
