REMARK SMILES CC(C)c1cc(N2CCC(C(=O)OCCOCCOCCOC(=O)c3ccc(-c4c5nc(c(-c6c(F)c(F)c(F)c(F)c6F)c6ccc([nH]6)c(-c6c(F)c(F)c(F)c(F)c6F)c6nc(c(-c7c(F)c(F)c(F)c(F)c7F)c7ccc4[nH]7)C=C6)C=C5)cc3)CC2)nc(-c2ccc(F)cc2)n1
REMARK SMILES IDX 17 1 16 2 15 3 14 4 13 5 11 6 12 7 10 8 7 9 8 10 89 11 9 12
REMARK SMILES IDX 88 13 6 14 4 15 5 16 99 17 91 18 90 19 2 20 1 21 3 22 92 23
REMARK SMILES IDX 93 24 98 25 94 26 97 27 95 28 96 29 18 30 19 31 20 32 21 33
REMARK SMILES IDX 22 34 23 35 24 36 25 37 26 38 87 39 27 40 86 41 28 42 29 43
REMARK SMILES IDX 30 44 80 45 31 46 85 47 79 48 81 49 32 50 84 51 78 52 77 53
REMARK SMILES IDX 33 55 65 56 45 57 64 58 46 59 49 60 63 61 82 62 47 63 48 64
REMARK SMILES IDX 62 66 83 67 50 68 34 69 35 70 43 71 36 72 37 73 41 74 44 75
REMARK SMILES IDX 38 76 39 77 42 78 40 79 66 80 67 81 75 82 68 83 69 84 73 85
REMARK SMILES IDX 76 86 70 87 71 88 74 89 72 90 51 91 52 92 60 93 53 94 54 95
REMARK SMILES IDX 58 96 61 97 55 98 56 99 59 100 57 101
REMARK H PARENT 81 54 49 65
REMARK Flexibility Score: inf
ROOT
ATOM      1  C   UNL     1      -8.894  -4.489  -0.161  1.00  0.00     0.188 C 
ENDROOT
BRANCH   1   2
ATOM      2  O   UNL     1     -10.011  -4.726   0.678  1.00  0.00    -0.376 OA
BRANCH   2   3
ATOM      3  C   UNL     1     -10.386  -3.677   1.567  1.00  0.00     0.202 C 
BRANCH   3   4
ATOM      4  C   UNL     1      -9.331  -3.184   2.570  1.00  0.00     0.261 C 
BRANCH   4   5
ATOM      5  O   UNL     1      -8.047  -2.846   2.001  1.00  0.00    -0.463 OA
BRANCH   5   6
ATOM      6  C   UNL     1      -7.007  -3.645   2.368  1.00  0.00     0.309 C 
ATOM      7  O   UNL     1      -7.102  -4.606   3.125  1.00  0.00    -0.252 OA
BRANCH   6   8
ATOM      8  C   UNL     1      -5.674  -3.274   1.732  1.00  0.00     0.103 C 
ATOM      9  N   UNL     1      -3.602  -1.367   1.387  1.00  0.00    -0.356 N 
ATOM     10  C   UNL     1      -4.363  -1.699   0.200  1.00  0.00     0.119 C 
ATOM     11  C   UNL     1      -3.373  -2.411   2.360  1.00  0.00     0.119 C 
ATOM     12  C   UNL     1      -5.733  -2.235   0.603  1.00  0.00     0.037 C 
ATOM     13  C   UNL     1      -4.734  -2.863   2.872  1.00  0.00     0.037 C 
BRANCH   9  14
ATOM     14  C   UNL     1      -2.880  -0.201   1.364  1.00  0.00     0.132 A 
ATOM     15  C   UNL     1      -0.849   0.999   1.205  1.00  0.00     0.049 A 
ATOM     16  C   UNL     1      -1.500  -0.209   1.380  1.00  0.00     0.071 A 
ATOM     17  N   UNL     1      -1.531   2.156   1.099  1.00  0.00    -0.233 NA
ATOM     18  C   UNL     1      -2.870   2.080   1.175  1.00  0.00     0.161 A 
ATOM     19  N   UNL     1      -3.574   0.943   1.272  1.00  0.00    -0.211 NA
BRANCH  15  20
ATOM     20  C   UNL     1       0.668   1.043   1.119  1.00  0.00     0.032 C 
ATOM     21  C   UNL     1       1.186   0.195  -0.049  1.00  0.00     0.014 C 
ATOM     22  C   UNL     1       1.216   2.469   0.988  1.00  0.00     0.014 C 
ENDBRANCH  15  20
BRANCH  18  23
ATOM     23  C   UNL     1      -3.616   3.341   1.221  1.00  0.00     0.019 A 
ATOM     24  C   UNL     1      -3.393   4.355   0.272  1.00  0.00     0.015 A 
ATOM     25  C   UNL     1      -4.557   3.582   2.242  1.00  0.00     0.015 A 
ATOM     26  C   UNL     1      -4.084   5.567   0.341  1.00  0.00     0.040 A 
ATOM     27  C   UNL     1      -5.235   4.801   2.324  1.00  0.00     0.040 A 
ATOM     28  C   UNL     1      -4.992   5.781   1.371  1.00  0.00     0.123 A 
ATOM     29  F   UNL     1      -5.639   6.951   1.448  1.00  0.00    -0.207 F 
ENDBRANCH  18  23
ENDBRANCH   9  14
ENDBRANCH   6   8
ENDBRANCH   5   6
ENDBRANCH   4   5
ENDBRANCH   3   4
ENDBRANCH   2   3
ENDBRANCH   1   2
BRANCH   1  30
ATOM     30  C   UNL     1      -8.936  -3.264  -1.077  1.00  0.00     0.188 C 
BRANCH  30  31
ATOM     31  O   UNL     1      -9.738  -2.173  -0.671  1.00  0.00    -0.376 OA
BRANCH  31  32
ATOM     32  C   UNL     1     -10.013  -1.208  -1.692  1.00  0.00     0.202 C 
BRANCH  32  33
ATOM     33  C   UNL     1     -10.860  -1.713  -2.886  1.00  0.00     0.261 C 
BRANCH  33  34
ATOM     34  O   UNL     1     -10.331  -2.825  -3.653  1.00  0.00    -0.460 OA
BRANCH  34  35
ATOM     35  C   UNL     1      -9.083  -2.712  -4.170  1.00  0.00     0.338 C 
ATOM     36  O   UNL     1      -8.429  -1.684  -4.248  1.00  0.00    -0.246 OA
BRANCH  35  37
ATOM     37  C   UNL     1      -8.501  -4.079  -4.357  1.00  0.00     0.060 A 
ATOM     38  C   UNL     1      -7.192  -4.310  -3.900  1.00  0.00     0.016 A 
ATOM     39  C   UNL     1      -9.233  -5.146  -4.884  1.00  0.00     0.016 A 
ATOM     40  C   UNL     1      -6.610  -5.584  -3.994  1.00  0.00     0.010 A 
ATOM     41  C   UNL     1      -8.640  -6.418  -4.998  1.00  0.00     0.010 A 
ATOM     42  C   UNL     1      -7.317  -6.646  -4.572  1.00  0.00    -0.014 A 
BRANCH  42  43
ATOM     43  C   UNL     1      -6.646  -7.948  -4.861  1.00  0.00     0.031 A 
ATOM     44  C   UNL     1      -6.149  -8.217  -6.260  1.00  0.00     0.074 A 
ATOM     45  C   UNL     1      -6.473  -8.893  -3.916  1.00  0.00     0.049 A 
ATOM     46  N   UNL     1      -5.631  -9.307  -6.769  1.00  0.00    -0.248 NA
ATOM     47  C   UNL     1      -6.250  -7.100  -7.212  1.00  0.00     0.031 C 
ATOM     48  C   UNL     1      -6.849  -8.766  -2.511  1.00  0.00     0.029 A 
ATOM     49  N   UNL     1      -5.949 -10.165  -4.007  1.00  0.00    -0.354 N 
ATOM     50  C   UNL     1      -5.360  -9.014  -8.101  1.00  0.00     0.074 A 
ATOM     51  C   UNL     1      -5.784  -7.648  -8.325  1.00  0.00     0.031 C 
ATOM     52  C   UNL     1      -6.565  -9.918  -1.876  1.00  0.00     0.029 A 
ATOM     53  C   UNL     1      -6.027 -10.882  -2.836  1.00  0.00     0.049 A 
ATOM     54  H   UNL     1      -5.555 -10.526  -4.834  1.00  0.00     0.167 HD
ATOM     55  C   UNL     1      -4.809  -9.808  -9.051  1.00  0.00     0.037 A 
ATOM     56  C   UNL     1      -5.734 -12.175  -2.576  1.00  0.00     0.037 A 
ATOM     57  C   UNL     1      -4.378 -11.165  -8.839  1.00  0.00     0.049 A 
ATOM     58  C   UNL     1      -5.211 -13.066  -3.680  1.00  0.00     0.074 A 
ATOM     59  C   UNL     1      -3.775 -12.027  -9.741  1.00  0.00     0.029 A 
ATOM     60  N   UNL     1      -4.513 -11.864  -7.651  1.00  0.00    -0.354 N 
ATOM     61  N   UNL     1      -4.926 -12.769  -4.924  1.00  0.00    -0.248 NA
ATOM     62  C   UNL     1      -4.973 -14.479  -3.340  1.00  0.00     0.031 C 
ATOM     63  C   UNL     1      -3.607 -13.268  -9.119  1.00  0.00     0.029 A 
ATOM     64  C   UNL     1      -4.043 -13.160  -7.809  1.00  0.00     0.049 A 
ATOM     65  H   UNL     1      -4.887 -11.496  -6.818  1.00  0.00     0.167 HD
ATOM     66  C   UNL     1      -4.451 -13.943  -5.501  1.00  0.00     0.074 A 
ATOM     67  C   UNL     1      -4.464 -14.953  -4.468  1.00  0.00     0.031 C 
ATOM     68  C   UNL     1      -4.045 -14.163  -6.776  1.00  0.00     0.037 A 
BRANCH  55  69
ATOM     69  C   UNL     1      -4.661  -9.245 -10.435  1.00  0.00     0.064 A 
ATOM     70  C   UNL     1      -3.696  -8.274 -10.739  1.00  0.00     0.173 A 
ATOM     71  C   UNL     1      -5.443  -9.748 -11.488  1.00  0.00     0.173 A 
ATOM     72  F   UNL     1      -2.930  -7.755  -9.768  1.00  0.00    -0.203 F 
ATOM     73  C   UNL     1      -3.529  -7.817 -12.044  1.00  0.00     0.198 A 
ATOM     74  C   UNL     1      -5.253  -9.310 -12.795  1.00  0.00     0.198 A 
ATOM     75  F   UNL     1      -6.375 -10.683 -11.251  1.00  0.00    -0.203 F 
ATOM     76  F   UNL     1      -2.622  -6.866 -12.308  1.00  0.00    -0.200 F 
ATOM     77  C   UNL     1      -4.299  -8.342 -13.072  1.00  0.00     0.200 A 
ATOM     78  F   UNL     1      -5.986  -9.831 -13.788  1.00  0.00    -0.200 F 
ATOM     79  F   UNL     1      -4.122  -7.915 -14.330  1.00  0.00    -0.200 F 
ENDBRANCH  55  69
BRANCH  56  80
ATOM     80  C   UNL     1      -5.966 -12.746  -1.218  1.00  0.00     0.064 A 
ATOM     81  C   UNL     1      -4.901 -13.220  -0.437  1.00  0.00     0.173 A 
ATOM     82  C   UNL     1      -7.263 -12.902  -0.706  1.00  0.00     0.173 A 
ATOM     83  F   UNL     1      -3.643 -13.131  -0.896  1.00  0.00    -0.203 F 
ATOM     84  C   UNL     1      -5.126 -13.853   0.784  1.00  0.00     0.198 A 
ATOM     85  C   UNL     1      -7.484 -13.503   0.532  1.00  0.00     0.198 A 
ATOM     86  F   UNL     1      -8.321 -12.482  -1.415  1.00  0.00    -0.203 F 
ATOM     87  F   UNL     1      -4.094 -14.361   1.473  1.00  0.00    -0.200 F 
ATOM     88  C   UNL     1      -6.417 -13.990   1.271  1.00  0.00     0.200 A 
ATOM     89  F   UNL     1      -8.734 -13.628   1.000  1.00  0.00    -0.200 F 
ATOM     90  F   UNL     1      -6.633 -14.607   2.440  1.00  0.00    -0.200 F 
ENDBRANCH  56  80
BRANCH  68  91
ATOM     91  C   UNL     1      -3.544 -15.537  -7.125  1.00  0.00     0.064 A 
ATOM     92  C   UNL     1      -4.405 -16.642  -7.199  1.00  0.00     0.173 A 
ATOM     93  C   UNL     1      -2.189 -15.745  -7.432  1.00  0.00     0.173 A 
ATOM     94  F   UNL     1      -5.707 -16.504  -6.904  1.00  0.00    -0.203 F 
ATOM     95  C   UNL     1      -3.925 -17.906  -7.539  1.00  0.00     0.198 A 
ATOM     96  C   UNL     1      -1.719 -17.002  -7.804  1.00  0.00     0.198 A 
ATOM     97  F   UNL     1      -1.321 -14.723  -7.387  1.00  0.00    -0.203 F 
ATOM     98  F   UNL     1      -4.759 -18.955  -7.552  1.00  0.00    -0.200 F 
ATOM     99  C   UNL     1      -2.586 -18.083  -7.849  1.00  0.00     0.200 A 
ATOM    100  F   UNL     1      -0.427 -17.167  -8.121  1.00  0.00    -0.200 F 
ATOM    101  F   UNL     1      -2.128 -19.297  -8.184  1.00  0.00    -0.200 F 
ENDBRANCH  68  91
ENDBRANCH  42  43
ENDBRANCH  35  37
ENDBRANCH  34  35
ENDBRANCH  33  34
ENDBRANCH  32  33
ENDBRANCH  31  32
ENDBRANCH  30  31
ENDBRANCH   1  30
TORSDOF 20
