REMARK SMILES O=C(CCCNC(=O)[C@@H]1CCCN(S(=O)(=O)c2ccc(F)cc2)C1)OCCOCCOCCOC(=O)c1ccc(-c2c3nc(c(-c4c(F)c(F)c(F)c(F)c4F)c4ccc([nH]4)c(-c4c(F)c(F)c(F)c(F)c4F)c4nc(c(-c5c(F)c(F)c(F)c(F)c5F)c5ccc2[nH]5)C=C4)C=C3)cc1
REMARK SMILES IDX 27 1 26 2 25 3 2 4 1 5 3 6 4 7 5 8 6 9 7 10 8 12 9 13 10 14
REMARK SMILES IDX 24 15 11 16 13 17 12 18 14 19 15 20 16 21 17 22 18 23 23 24
REMARK SMILES IDX 19 25 22 26 20 27 21 28 28 29 29 30 30 31 31 32 32 33 33 34
REMARK SMILES IDX 34 35 35 36 36 37 37 38 38 39 99 40 39 41 98 42 40 43 41 44
REMARK SMILES IDX 42 45 92 46 43 47 97 48 91 49 93 50 44 51 96 52 90 53 89 54
REMARK SMILES IDX 45 56 77 57 57 58 76 59 58 60 61 61 75 62 94 63 59 64 60 65
REMARK SMILES IDX 74 67 95 68 62 69 46 70 47 71 55 72 48 73 49 74 53 75 56 76
REMARK SMILES IDX 50 77 51 78 54 79 52 80 78 81 79 82 87 83 80 84 81 85 85 86
REMARK SMILES IDX 88 87 82 88 83 89 86 90 84 91 63 92 64 93 72 94 65 95 66 96
REMARK SMILES IDX 70 97 73 98 67 99 68 100 71 101 69 102
REMARK H PARENT 6 11 93 55 61 66
REMARK Flexibility Score: inf
ROOT
ATOM      1  C   UNL     1       4.086  -1.835   0.608  1.00  0.00     0.202 C 
ENDROOT
BRANCH   1   2
ATOM      2  C   UNL     1       3.242  -1.165   1.683  1.00  0.00     0.261 C 
BRANCH   2   3
ATOM      3  O   UNL     1       1.992  -0.647   1.199  1.00  0.00    -0.463 OA
BRANCH   3   4
ATOM      4  C   UNL     1       1.757   0.685   1.103  1.00  0.00     0.305 C 
ATOM      5  O   UNL     1       0.776   1.186   1.648  1.00  0.00    -0.252 OA
BRANCH   4   6
ATOM      6  C   UNL     1       2.582   1.495   0.122  1.00  0.00     0.124 C 
BRANCH   6   7
ATOM      7  C   UNL     1       3.541   2.500   0.726  1.00  0.00     0.033 C 
BRANCH   7   8
ATOM      8  C   UNL     1       4.815   1.919   1.326  1.00  0.00     0.116 C 
BRANCH   8   9
ATOM      9  N   UNL     1       5.640   1.188   0.377  1.00  0.00    -0.356 N 
ATOM     10  C   UNL     1       6.982   1.051   0.201  1.00  0.00     0.224 C 
ATOM     11  H   UNL     1       5.112   0.682  -0.283  1.00  0.00     0.163 HD
ATOM     12  O   UNL     1       7.320   0.177  -0.608  1.00  0.00    -0.275 OA
BRANCH  10  13
ATOM     13  C   UNL     1       8.060   1.812   0.987  1.00  0.00     0.093 C 
ATOM     14  C   UNL     1       7.719   3.103   1.710  1.00  0.00     0.016 C 
ATOM     15  C   UNL     1       9.245   2.132   0.053  1.00  0.00     0.116 C 
ATOM     16  C   UNL     1       7.232   4.132   0.704  1.00  0.00     0.018 C 
ATOM     17  N   UNL     1       8.919   3.233  -0.926  1.00  0.00    -0.197 NA
ATOM     18  C   UNL     1       8.318   4.450  -0.304  1.00  0.00     0.102 C 
BRANCH  17  19
ATOM     19  S   UNL     1      10.286   3.590  -1.937  1.00  0.00     0.243 S 
ATOM     20  O   UNL     1      11.106   4.565  -1.233  1.00  0.00    -0.207 OA
ATOM     21  O   UNL     1      10.848   2.345  -2.393  1.00  0.00    -0.207 OA
BRANCH  19  22
ATOM     22  C   UNL     1       9.569   4.412  -3.346  1.00  0.00     0.082 A 
ATOM     23  C   UNL     1       9.108   5.731  -3.235  1.00  0.00     0.025 A 
ATOM     24  C   UNL     1       9.530   3.751  -4.579  1.00  0.00     0.025 A 
ATOM     25  C   UNL     1       8.514   6.351  -4.333  1.00  0.00     0.040 A 
ATOM     26  C   UNL     1       8.977   4.396  -5.687  1.00  0.00     0.040 A 
ATOM     27  C   UNL     1       8.456   5.679  -5.549  1.00  0.00     0.123 A 
ATOM     28  F   UNL     1       7.902   6.284  -6.608  1.00  0.00    -0.207 F 
ENDBRANCH  19  22
ENDBRANCH  17  19
ENDBRANCH  10  13
ENDBRANCH   8   9
ENDBRANCH   7   8
ENDBRANCH   6   7
ENDBRANCH   4   6
ENDBRANCH   3   4
ENDBRANCH   2   3
ENDBRANCH   1   2
BRANCH   1  29
ATOM     29  O   UNL     1       4.044  -1.171  -0.645  1.00  0.00    -0.376 OA
BRANCH  29  30
ATOM     30  C   UNL     1       2.928  -1.467  -1.491  1.00  0.00     0.188 C 
BRANCH  30  31
ATOM     31  C   UNL     1       2.442  -2.915  -1.581  1.00  0.00     0.188 C 
BRANCH  31  32
ATOM     32  O   UNL     1       3.414  -3.947  -1.673  1.00  0.00    -0.376 OA
BRANCH  32  33
ATOM     33  C   UNL     1       4.630  -3.692  -2.368  1.00  0.00     0.202 C 
BRANCH  33  34
ATOM     34  C   UNL     1       4.520  -3.660  -3.892  1.00  0.00     0.261 C 
BRANCH  34  35
ATOM     35  O   UNL     1       4.038  -2.394  -4.380  1.00  0.00    -0.460 OA
BRANCH  35  36
ATOM     36  C   UNL     1       2.776  -2.379  -4.865  1.00  0.00     0.338 C 
ATOM     37  O   UNL     1       1.979  -3.299  -4.903  1.00  0.00    -0.246 OA
BRANCH  36  38
ATOM     38  C   UNL     1       2.429  -1.003  -5.261  1.00  0.00     0.060 A 
ATOM     39  C   UNL     1       1.293  -0.400  -4.703  1.00  0.00     0.016 A 
ATOM     40  C   UNL     1       3.178  -0.342  -6.235  1.00  0.00     0.016 A 
ATOM     41  C   UNL     1       0.887   0.862  -5.142  1.00  0.00     0.010 A 
ATOM     42  C   UNL     1       2.764   0.914  -6.681  1.00  0.00     0.010 A 
ATOM     43  C   UNL     1       1.604   1.512  -6.156  1.00  0.00    -0.014 A 
BRANCH  43  44
ATOM     44  C   UNL     1       1.118   2.780  -6.751  1.00  0.00     0.031 A 
ATOM     45  C   UNL     1       0.444   2.747  -8.094  1.00  0.00     0.074 A 
ATOM     46  C   UNL     1       1.335   3.952  -6.128  1.00  0.00     0.049 A 
ATOM     47  N   UNL     1       0.107   3.740  -8.875  1.00  0.00    -0.248 NA
ATOM     48  C   UNL     1       0.110   1.417  -8.632  1.00  0.00     0.031 C 
ATOM     49  C   UNL     1       1.945   4.103  -4.809  1.00  0.00     0.029 A 
ATOM     50  N   UNL     1       1.097   5.241  -6.540  1.00  0.00    -0.354 N 
ATOM     51  C   UNL     1      -0.460   3.158 -10.001  1.00  0.00     0.074 A 
ATOM     52  C   UNL     1      -0.415   1.725  -9.811  1.00  0.00     0.031 C 
ATOM     53  C   UNL     1       2.067   5.412  -4.534  1.00  0.00     0.029 A 
ATOM     54  C   UNL     1       1.590   6.189  -5.677  1.00  0.00     0.049 A 
ATOM     55  H   UNL     1       0.621   5.463  -7.373  1.00  0.00     0.167 HD
ATOM     56  C   UNL     1      -0.973   3.773 -11.091  1.00  0.00     0.037 A 
ATOM     57  C   UNL     1       1.690   7.527  -5.816  1.00  0.00     0.037 A 
ATOM     58  C   UNL     1      -1.031   5.200 -11.263  1.00  0.00     0.049 A 
ATOM     59  C   UNL     1       1.178   8.181  -7.075  1.00  0.00     0.074 A 
ATOM     60  C   UNL     1      -1.581   5.916 -12.312  1.00  0.00     0.029 A 
ATOM     61  N   UNL     1      -0.515   6.127 -10.370  1.00  0.00    -0.354 N 
ATOM     62  N   UNL     1       0.607   7.629  -8.118  1.00  0.00    -0.248 NA
ATOM     63  C   UNL     1       1.327   9.641  -7.182  1.00  0.00     0.031 C 
ATOM     64  C   UNL     1      -1.343   7.272 -12.086  1.00  0.00     0.029 A 
ATOM     65  C   UNL     1      -0.700   7.406 -10.866  1.00  0.00     0.049 A 
ATOM     66  H   UNL     1      -0.083   5.908  -9.514  1.00  0.00     0.167 HD
ATOM     67  C   UNL     1       0.312   8.669  -8.990  1.00  0.00     0.074 A 
ATOM     68  C   UNL     1       0.752   9.890  -8.351  1.00  0.00     0.031 C 
ATOM     69  C   UNL     1      -0.270   8.615 -10.212  1.00  0.00     0.037 A 
BRANCH  56  70
ATOM     70  C   UNL     1      -1.517   2.930 -12.205  1.00  0.00     0.064 A 
ATOM     71  C   UNL     1      -0.856   2.888 -13.443  1.00  0.00     0.173 A 
ATOM     72  C   UNL     1      -2.760   2.292 -12.099  1.00  0.00     0.173 A 
ATOM     73  F   UNL     1       0.332   3.491 -13.595  1.00  0.00    -0.203 F 
ATOM     74  C   UNL     1      -1.438   2.267 -14.544  1.00  0.00     0.198 A 
ATOM     75  C   UNL     1      -3.328   1.651 -13.197  1.00  0.00     0.198 A 
ATOM     76  F   UNL     1      -3.426   2.300 -10.935  1.00  0.00    -0.203 F 
ATOM     77  F   UNL     1      -0.815   2.287 -15.730  1.00  0.00    -0.200 F 
ATOM     78  C   UNL     1      -2.675   1.653 -14.421  1.00  0.00     0.200 A 
ATOM     79  F   UNL     1      -4.518   1.046 -13.076  1.00  0.00    -0.200 F 
ATOM     80  F   UNL     1      -3.243   1.070 -15.486  1.00  0.00    -0.200 F 
ENDBRANCH  56  70
BRANCH  57  81
ATOM     81  C   UNL     1       2.335   8.335  -4.746  1.00  0.00     0.064 A 
ATOM     82  C   UNL     1       3.704   8.206  -4.460  1.00  0.00     0.173 A 
ATOM     83  C   UNL     1       1.597   9.252  -3.986  1.00  0.00     0.173 A 
ATOM     84  F   UNL     1       4.459   7.342  -5.154  1.00  0.00    -0.203 F 
ATOM     85  C   UNL     1       4.303   8.948  -3.445  1.00  0.00     0.198 A 
ATOM     86  C   UNL     1       2.204  10.019  -2.993  1.00  0.00     0.198 A 
ATOM     87  F   UNL     1       0.291   9.429  -4.235  1.00  0.00    -0.203 F 
ATOM     88  F   UNL     1       5.603   8.775  -3.168  1.00  0.00    -0.200 F 
ATOM     89  C   UNL     1       3.554   9.860  -2.717  1.00  0.00     0.200 A 
ATOM     90  F   UNL     1       1.483  10.919  -2.310  1.00  0.00    -0.200 F 
ATOM     91  F   UNL     1       4.133  10.587  -1.752  1.00  0.00    -0.200 F 
ENDBRANCH  57  81
BRANCH  69  92
ATOM     92  C   UNL     1      -0.493   9.901 -10.951  1.00  0.00     0.064 A 
ATOM     93  C   UNL     1      -1.795  10.386 -11.154  1.00  0.00     0.173 A 
ATOM     94  C   UNL     1       0.566  10.580 -11.569  1.00  0.00     0.173 A 
ATOM     95  F   UNL     1      -2.843   9.764 -10.592  1.00  0.00    -0.203 F 
ATOM     96  C   UNL     1      -2.030  11.484 -11.976  1.00  0.00     0.198 A 
ATOM     97  C   UNL     1       0.329  11.695 -12.368  1.00  0.00     0.198 A 
ATOM     98  F   UNL     1       1.829  10.162 -11.396  1.00  0.00    -0.203 F 
ATOM     99  F   UNL     1      -3.286  11.896 -12.200  1.00  0.00    -0.200 F 
ATOM    100  C   UNL     1      -0.968  12.137 -12.584  1.00  0.00     0.200 A 
ATOM    101  F   UNL     1       1.357  12.338 -12.940  1.00  0.00    -0.200 F 
ATOM    102  F   UNL     1      -1.196  13.189 -13.381  1.00  0.00    -0.200 F 
ENDBRANCH  69  92
ENDBRANCH  43  44
ENDBRANCH  36  38
ENDBRANCH  35  36
ENDBRANCH  34  35
ENDBRANCH  33  34
ENDBRANCH  32  33
ENDBRANCH  31  32
ENDBRANCH  30  31
ENDBRANCH  29  30
ENDBRANCH   1  29
TORSDOF 23
