REMARK SMILES CC(C)C[NH+]1CC[NH+]([C@@H]2CC[C@]([NH3+])(C(=O)OCCOCCOCCOC(=O)c3ccc(-c4c5nc(c(-c6c(F)c(F)c(F)c(F)c6F)c6ccc([nH]6)c(-c6c(F)c(F)c(F)c(F)c6F)c6nc(c(-c7c(F)c(F)c(F)c(F)c7F)c7ccc4[nH]7)C=C6)C=C5)cc3)C2)CC1
REMARK SMILES IDX 20 1 19 2 18 3 17 4 16 5 14 6 15 7 12 8 9 9 10 10 91 11
REMARK SMILES IDX 11 12 8 13 5 14 6 15 93 16 7 18 92 19 4 21 2 22 1 23 3 24
REMARK SMILES IDX 13 25 21 29 22 30 23 31 24 32 25 33 26 34 27 35 28 36 29 37
REMARK SMILES IDX 90 38 30 39 89 40 31 41 32 42 33 43 83 44 34 45 88 46 82 47
REMARK SMILES IDX 84 48 35 49 87 50 81 51 80 52 36 54 68 55 48 56 67 57 49 58
REMARK SMILES IDX 52 59 66 60 85 61 50 62 51 63 65 65 86 66 53 67 37 68 38 69
REMARK SMILES IDX 46 70 39 71 40 72 44 73 47 74 41 75 42 76 45 77 43 78 69 79
REMARK SMILES IDX 70 80 78 81 71 82 72 83 76 84 79 85 73 86 74 87 77 88 75 89
REMARK SMILES IDX 54 90 55 91 63 92 56 93 57 94 61 95 64 96 58 97 59 98 62 99
REMARK SMILES IDX 60 100
REMARK H PARENT 5 17 8 20 13 26 13 27 13 28 84 53 52 64
REMARK Flexibility Score: inf
ROOT
ATOM      1  C   UNL     1      -3.936   8.456   3.959  1.00  0.00     0.188 C 
ENDROOT
BRANCH   1   2
ATOM      2  O   UNL     1      -5.120   8.886   3.294  1.00  0.00    -0.376 OA
BRANCH   2   3
ATOM      3  C   UNL     1      -5.948   7.929   2.647  1.00  0.00     0.202 C 
BRANCH   3   4
ATOM      4  C   UNL     1      -5.320   7.005   1.597  1.00  0.00     0.261 C 
BRANCH   4   5
ATOM      5  O   UNL     1      -4.193   6.259   2.078  1.00  0.00    -0.459 OA
BRANCH   5   6
ATOM      6  C   UNL     1      -2.964   6.622   1.619  1.00  0.00     0.368 C 
ATOM      7  O   UNL     1      -2.765   7.492   0.776  1.00  0.00    -0.245 OA
BRANCH   6   8
ATOM      8  C   UNL     1      -1.812   5.862   2.339  1.00  0.00     0.198 C 
ATOM      9  C   UNL     1      -0.204   4.133   1.724  1.00  0.00     0.191 C 
ATOM     10  C   UNL     1      -1.218   3.498   2.677  1.00  0.00     0.072 C 
ATOM     11  C   UNL     1      -0.831   5.440   1.251  1.00  0.00     0.145 C 
ATOM     12  C   UNL     1      -2.254   4.550   3.002  1.00  0.00     0.087 C 
BRANCH   9  13
ATOM     13  N   UNL     1       0.368   3.305   0.659  1.00  0.00    -0.323 N 
ATOM     14  N   UNL     1      -1.174   0.881  -0.255  1.00  0.00    -0.325 N 
ATOM     15  C   UNL     1      -0.351   0.834   0.960  1.00  0.00     0.324 C 
ATOM     16  C   UNL     1      -1.577   2.264  -0.561  1.00  0.00     0.324 C 
ATOM     17  H   UNL     1      -2.004   0.334  -0.028  1.00  0.00     0.348 HD
ATOM     18  C   UNL     1       0.735   1.946   1.112  1.00  0.00     0.324 C 
ATOM     19  C   UNL     1      -0.386   3.230  -0.605  1.00  0.00     0.324 C 
ATOM     20  H   UNL     1       1.214   3.828   0.432  1.00  0.00     0.348 HD
BRANCH  14  21
ATOM     21  C   UNL     1      -0.634   0.183  -1.431  1.00  0.00     0.265 C 
BRANCH  21  22
ATOM     22  C   UNL     1       0.883   0.193  -1.752  1.00  0.00     0.038 C 
ATOM     23  C   UNL     1       1.690  -0.817  -0.928  1.00  0.00     0.013 C 
ATOM     24  C   UNL     1       1.083  -0.109  -3.240  1.00  0.00     0.013 C 
ENDBRANCH  21  22
ENDBRANCH  14  21
ENDBRANCH   9  13
BRANCH   8  25
ATOM     25  N   UNL     1      -1.112   6.733   3.319  1.00  0.00    -0.343 N 
ATOM     26  H   UNL     1      -0.365   6.205   3.771  1.00  0.00     0.345 HD
ATOM     27  H   UNL     1      -1.776   7.054   4.024  1.00  0.00     0.345 HD
ATOM     28  H   UNL     1      -0.714   7.538   2.835  1.00  0.00     0.345 HD
ENDBRANCH   8  25
ENDBRANCH   6   8
ENDBRANCH   5   6
ENDBRANCH   4   5
ENDBRANCH   3   4
ENDBRANCH   2   3
ENDBRANCH   1   2
BRANCH   1  29
ATOM     29  C   UNL     1      -3.965   7.181   4.829  1.00  0.00     0.188 C 
BRANCH  29  30
ATOM     30  O   UNL     1      -5.254   6.642   4.989  1.00  0.00    -0.376 OA
BRANCH  30  31
ATOM     31  C   UNL     1      -5.864   6.762   6.253  1.00  0.00     0.202 C 
BRANCH  31  32
ATOM     32  C   UNL     1      -5.841   8.099   7.019  1.00  0.00     0.261 C 
BRANCH  32  33
ATOM     33  O   UNL     1      -4.766   9.021   6.756  1.00  0.00    -0.460 OA
BRANCH  33  34
ATOM     34  C   UNL     1      -3.644   8.919   7.504  1.00  0.00     0.338 C 
ATOM     35  O   UNL     1      -3.424   8.099   8.386  1.00  0.00    -0.246 OA
BRANCH  34  36
ATOM     36  C   UNL     1      -2.621   9.859   6.982  1.00  0.00     0.060 A 
ATOM     37  C   UNL     1      -1.428   9.353   6.442  1.00  0.00     0.016 A 
ATOM     38  C   UNL     1      -2.827  11.239   7.038  1.00  0.00     0.016 A 
ATOM     39  C   UNL     1      -0.425  10.224   5.997  1.00  0.00     0.010 A 
ATOM     40  C   UNL     1      -1.815  12.109   6.608  1.00  0.00     0.010 A 
ATOM     41  C   UNL     1      -0.594  11.611   6.116  1.00  0.00    -0.014 A 
BRANCH  41  42
ATOM     42  C   UNL     1       0.550  12.543   5.904  1.00  0.00     0.031 A 
ATOM     43  C   UNL     1       1.276  13.075   7.111  1.00  0.00     0.074 A 
ATOM     44  C   UNL     1       0.936  12.934   4.675  1.00  0.00     0.049 A 
ATOM     45  N   UNL     1       2.215  13.986   7.191  1.00  0.00    -0.248 NA
ATOM     46  C   UNL     1       0.881  12.504   8.408  1.00  0.00     0.031 C 
ATOM     47  C   UNL     1       0.358  12.470   3.418  1.00  0.00     0.029 A 
ATOM     48  N   UNL     1       1.900  13.838   4.290  1.00  0.00    -0.354 N 
ATOM     49  C   UNL     1       2.511  14.105   8.543  1.00  0.00     0.074 A 
ATOM     50  C   UNL     1       1.633  13.197   9.250  1.00  0.00     0.031 C 
ATOM     51  C   UNL     1       0.962  13.108   2.399  1.00  0.00     0.029 A 
ATOM     52  C   UNL     1       1.941  14.056   2.934  1.00  0.00     0.049 A 
ATOM     53  H   UNL     1       2.504  14.285   4.926  1.00  0.00     0.167 HD
ATOM     54  C   UNL     1       3.434  14.895   9.144  1.00  0.00     0.037 A 
ATOM     55  C   UNL     1       2.658  14.941   2.212  1.00  0.00     0.037 A 
ATOM     56  C   UNL     1       4.305  15.805   8.447  1.00  0.00     0.049 A 
ATOM     57  C   UNL     1       3.620  15.874   2.910  1.00  0.00     0.074 A 
ATOM     58  C   UNL     1       5.281  16.637   8.970  1.00  0.00     0.029 A 
ATOM     59  N   UNL     1       4.299  16.012   7.075  1.00  0.00    -0.354 N 
ATOM     60  N   UNL     1       3.909  15.969   4.185  1.00  0.00    -0.248 NA
ATOM     61  C   UNL     1       4.358  16.825   2.063  1.00  0.00     0.031 C 
ATOM     62  C   UNL     1       5.822  17.391   7.924  1.00  0.00     0.029 A 
ATOM     63  C   UNL     1       5.234  16.979   6.739  1.00  0.00     0.049 A 
ATOM     64  H   UNL     1       3.716  15.542   6.436  1.00  0.00     0.167 HD
ATOM     65  C   UNL     1       4.881  16.958   4.288  1.00  0.00     0.074 A 
ATOM     66  C   UNL     1       5.144  17.426   2.945  1.00  0.00     0.031 C 
ATOM     67  C   UNL     1       5.501  17.433   5.397  1.00  0.00     0.037 A 
BRANCH  54  68
ATOM     68  C   UNL     1       3.529  14.834  10.642  1.00  0.00     0.064 A 
ATOM     69  C   UNL     1       4.031  13.704  11.306  1.00  0.00     0.173 A 
ATOM     70  C   UNL     1       3.146  15.935  11.423  1.00  0.00     0.173 A 
ATOM     71  F   UNL     1       4.401  12.620  10.608  1.00  0.00    -0.203 F 
ATOM     72  C   UNL     1       4.117  13.668  12.696  1.00  0.00     0.198 A 
ATOM     73  C   UNL     1       3.266  15.909  12.810  1.00  0.00     0.198 A 
ATOM     74  F   UNL     1       2.666  17.044  10.841  1.00  0.00    -0.203 F 
ATOM     75  F   UNL     1       4.550  12.559  13.310  1.00  0.00    -0.200 F 
ATOM     76  C   UNL     1       3.742  14.773  13.446  1.00  0.00     0.200 A 
ATOM     77  F   UNL     1       2.919  16.984  13.532  1.00  0.00    -0.200 F 
ATOM     78  F   UNL     1       3.834  14.740  14.782  1.00  0.00    -0.200 F 
ENDBRANCH  54  68
BRANCH  55  79
ATOM     79  C   UNL     1       2.485  15.015   0.734  1.00  0.00     0.064 A 
ATOM     80  C   UNL     1       3.525  14.661  -0.137  1.00  0.00     0.173 A 
ATOM     81  C   UNL     1       1.289  15.477   0.163  1.00  0.00     0.173 A 
ATOM     82  F   UNL     1       4.701  14.246   0.358  1.00  0.00    -0.203 F 
ATOM     83  C   UNL     1       3.384  14.784  -1.518  1.00  0.00     0.198 A 
ATOM     84  C   UNL     1       1.137  15.569  -1.219  1.00  0.00     0.198 A 
ATOM     85  F   UNL     1       0.266  15.840   0.950  1.00  0.00    -0.203 F 
ATOM     86  F   UNL     1       4.415  14.494  -2.324  1.00  0.00    -0.200 F 
ATOM     87  C   UNL     1       2.187  15.231  -2.058  1.00  0.00     0.200 A 
ATOM     88  F   UNL     1      -0.024  15.994  -1.737  1.00  0.00    -0.200 F 
ATOM     89  F   UNL     1       2.052  15.350  -3.386  1.00  0.00    -0.200 F 
ENDBRANCH  55  79
BRANCH  67  90
ATOM     90  C   UNL     1       6.566  18.480   5.211  1.00  0.00     0.064 A 
ATOM     91  C   UNL     1       6.259  19.790   4.814  1.00  0.00     0.173 A 
ATOM     92  C   UNL     1       7.910  18.177   5.481  1.00  0.00     0.173 A 
ATOM     93  F   UNL     1       4.993  20.131   4.532  1.00  0.00    -0.203 F 
ATOM     94  C   UNL     1       7.261  20.748   4.667  1.00  0.00     0.198 A 
ATOM     95  C   UNL     1       8.904  19.146   5.367  1.00  0.00     0.198 A 
ATOM     96  F   UNL     1       8.261  16.943   5.874  1.00  0.00    -0.203 F 
ATOM     97  F   UNL     1       6.949  21.979   4.237  1.00  0.00    -0.200 F 
ATOM     98  C   UNL     1       8.579  20.428   4.952  1.00  0.00     0.200 A 
ATOM     99  F   UNL     1      10.175  18.839   5.661  1.00  0.00    -0.200 F 
ATOM    100  F   UNL     1       9.539  21.354   4.819  1.00  0.00    -0.200 F 
ENDBRANCH  67  90
ENDBRANCH  41  42
ENDBRANCH  34  36
ENDBRANCH  33  34
ENDBRANCH  32  33
ENDBRANCH  31  32
ENDBRANCH  30  31
ENDBRANCH  29  30
ENDBRANCH   1  29
TORSDOF 21
