REMARK SMILES Cc1csc(C[C@@H](Cc2ccc(Br)cc2)C(=O)OCCOCCOCCOC(=O)c2ccc(-c3c4nc(c(-c5c(F)c(F)c(F)c(F)c5F)c5ccc([nH]5)c(-c5c(F)c(F)c(F)c(F)c5F)c5nc(c(-c6c(F)c(F)c(F)c(F)c6F)c6ccc3[nH]6)C=C5)C=C4)cc2)n1
REMARK SMILES IDX 22 1 21 2 20 3 19 4 18 5 16 6 17 7 7 8 6 9 5 10 1 11 2 12
REMARK SMILES IDX 3 13 93 14 4 15 8 16 9 17 10 18 15 19 11 20 14 21 12 22
REMARK SMILES IDX 13 23 23 24 24 25 25 26 26 27 27 28 28 29 29 30 30 31 31 32
REMARK SMILES IDX 92 33 32 34 91 35 33 36 34 37 35 38 85 39 36 40 90 41 84 42
REMARK SMILES IDX 86 43 37 44 89 45 83 46 82 47 38 49 70 50 50 51 69 52 51 53
REMARK SMILES IDX 54 54 68 55 87 56 52 57 53 58 67 60 88 61 55 62 39 63 40 64
REMARK SMILES IDX 48 65 41 66 42 67 46 68 49 69 43 70 44 71 47 72 45 73 71 74
REMARK SMILES IDX 72 75 80 76 73 77 74 78 78 79 81 80 75 81 76 82 79 83 77 84
REMARK SMILES IDX 56 85 57 86 65 87 58 88 59 89 63 90 66 91 60 92 61 93 64 94
REMARK SMILES IDX 62 95
REMARK H PARENT 86 48 54 59
REMARK Flexibility Score: inf
ROOT
ATOM      1  C   UNL     1       4.229   5.021  -1.723  1.00  0.00     0.188 C 
ENDROOT
BRANCH   1   2
ATOM      2  O   UNL     1       4.187   6.437  -1.840  1.00  0.00    -0.376 OA
BRANCH   2   3
ATOM      3  C   UNL     1       3.350   7.169  -0.956  1.00  0.00     0.202 C 
BRANCH   3   4
ATOM      4  C   UNL     1       1.851   6.852  -0.975  1.00  0.00     0.261 C 
BRANCH   4   5
ATOM      5  O   UNL     1       1.463   5.476  -0.747  1.00  0.00    -0.463 OA
BRANCH   5   6
ATOM      6  C   UNL     1       0.873   4.829  -1.789  1.00  0.00     0.309 C 
ATOM      7  O   UNL     1       0.835   5.270  -2.934  1.00  0.00    -0.252 OA
BRANCH   6   8
ATOM      8  C   UNL     1       0.135   3.547  -1.406  1.00  0.00     0.110 C 
BRANCH   8   9
ATOM      9  C   UNL     1       0.866   2.649  -0.392  1.00  0.00     0.083 C 
BRANCH   9  10
ATOM     10  C   UNL     1       0.244   1.283  -0.228  1.00  0.00     0.094 A 
ATOM     11  C   UNL     1      -2.716  -0.754   0.025  1.00  0.00     0.067 C 
ATOM     12  C   UNL     1      -1.301  -0.306  -0.031  1.00  0.00     0.048 A 
ATOM     13  C   UNL     1      -0.170  -1.096   0.018  1.00  0.00     0.090 A 
ATOM     14  N   UNL     1      -1.048   1.048  -0.156  1.00  0.00    -0.247 NA
ATOM     15  S   UNL     1       1.235  -0.120  -0.095  1.00  0.00    -0.127 S 
ENDBRANCH   9  10
ENDBRANCH   8   9
BRANCH   8  16
ATOM     16  C   UNL     1      -1.323   3.927  -1.072  1.00  0.00     0.051 C 
BRANCH  16  17
ATOM     17  C   UNL     1      -1.473   4.696   0.219  1.00  0.00    -0.047 A 
ATOM     18  C   UNL     1      -1.607   4.025   1.441  1.00  0.00     0.005 A 
ATOM     19  C   UNL     1      -1.387   6.094   0.215  1.00  0.00     0.005 A 
ATOM     20  C   UNL     1      -1.573   4.733   2.642  1.00  0.00     0.016 A 
ATOM     21  C   UNL     1      -1.346   6.804   1.414  1.00  0.00     0.016 A 
ATOM     22  C   UNL     1      -1.422   6.117   2.623  1.00  0.00     0.017 A 
ATOM     23  Br  UNL     1      -1.294   7.070   4.249  1.00  0.00    -0.051 Br
ENDBRANCH  16  17
ENDBRANCH   8  16
ENDBRANCH   6   8
ENDBRANCH   5   6
ENDBRANCH   4   5
ENDBRANCH   3   4
ENDBRANCH   2   3
ENDBRANCH   1   2
BRANCH   1  24
ATOM     24  C   UNL     1       4.110   4.387  -0.329  1.00  0.00     0.188 C 
BRANCH  24  25
ATOM     25  O   UNL     1       4.453   5.276   0.713  1.00  0.00    -0.376 OA
BRANCH  25  26
ATOM     26  C   UNL     1       5.202   4.733   1.784  1.00  0.00     0.202 C 
BRANCH  26  27
ATOM     27  C   UNL     1       6.692   4.668   1.437  1.00  0.00     0.261 C 
BRANCH  27  28
ATOM     28  O   UNL     1       7.004   3.917   0.246  1.00  0.00    -0.460 OA
BRANCH  28  29
ATOM     29  C   UNL     1       6.795   2.580   0.277  1.00  0.00     0.338 C 
ATOM     30  O   UNL     1       6.434   1.918   1.236  1.00  0.00    -0.246 OA
BRANCH  29  31
ATOM     31  C   UNL     1       6.811   2.096  -1.127  1.00  0.00     0.060 A 
ATOM     32  C   UNL     1       5.709   1.372  -1.613  1.00  0.00     0.016 A 
ATOM     33  C   UNL     1       7.864   2.420  -1.983  1.00  0.00     0.016 A 
ATOM     34  C   UNL     1       5.658   0.979  -2.955  1.00  0.00     0.010 A 
ATOM     35  C   UNL     1       7.825   2.001  -3.317  1.00  0.00     0.010 A 
ATOM     36  C   UNL     1       6.730   1.268  -3.809  1.00  0.00    -0.014 A 
BRANCH  36  37
ATOM     37  C   UNL     1       6.817   0.665  -5.165  1.00  0.00     0.031 A 
ATOM     38  C   UNL     1       7.630  -0.588  -5.333  1.00  0.00     0.074 A 
ATOM     39  C   UNL     1       6.231   1.226  -6.237  1.00  0.00     0.049 A 
ATOM     40  N   UNL     1       7.987  -1.213  -6.426  1.00  0.00    -0.248 NA
ATOM     41  C   UNL     1       8.107  -1.217  -4.092  1.00  0.00     0.031 C 
ATOM     42  C   UNL     1       5.363   2.399  -6.214  1.00  0.00     0.029 A 
ATOM     43  N   UNL     1       6.302   0.884  -7.568  1.00  0.00    -0.354 N 
ATOM     44  C   UNL     1       8.740  -2.302  -6.005  1.00  0.00     0.074 A 
ATOM     45  C   UNL     1       8.809  -2.236  -4.561  1.00  0.00     0.031 C 
ATOM     46  C   UNL     1       4.994   2.692  -7.475  1.00  0.00     0.029 A 
ATOM     47  C   UNL     1       5.640   1.757  -8.397  1.00  0.00     0.049 A 
ATOM     48  H   UNL     1       6.782   0.089  -7.894  1.00  0.00     0.167 HD
ATOM     49  C   UNL     1       9.318  -3.272  -6.753  1.00  0.00     0.037 A 
ATOM     50  C   UNL     1       5.595   1.814  -9.744  1.00  0.00     0.037 A 
ATOM     51  C   UNL     1       9.267  -3.329  -8.189  1.00  0.00     0.049 A 
ATOM     52  C   UNL     1       6.362   0.802 -10.563  1.00  0.00     0.074 A 
ATOM     53  C   UNL     1       9.819  -4.276  -9.035  1.00  0.00     0.029 A 
ATOM     54  N   UNL     1       8.639  -2.392  -8.995  1.00  0.00    -0.354 N 
ATOM     55  N   UNL     1       7.062  -0.231 -10.164  1.00  0.00    -0.248 NA
ATOM     56  C   UNL     1       6.340   0.977 -12.025  1.00  0.00     0.031 C 
ATOM     57  C   UNL     1       9.578  -3.878 -10.354  1.00  0.00     0.029 A 
ATOM     58  C   UNL     1       8.822  -2.716 -10.330  1.00  0.00     0.049 A 
ATOM     59  H   UNL     1       8.136  -1.611  -8.667  1.00  0.00     0.167 HD
ATOM     60  C   UNL     1       7.536  -0.845 -11.319  1.00  0.00     0.074 A 
ATOM     61  C   UNL     1       7.037  -0.073 -12.437  1.00  0.00     0.031 C 
ATOM     62  C   UNL     1       8.314  -1.949 -11.440  1.00  0.00     0.037 A 
BRANCH  49  63
ATOM     63  C   UNL     1      10.095  -4.328  -6.021  1.00  0.00     0.064 A 
ATOM     64  C   UNL     1       9.461  -5.282  -5.211  1.00  0.00     0.173 A 
ATOM     65  C   UNL     1      11.492  -4.388  -6.135  1.00  0.00     0.173 A 
ATOM     66  F   UNL     1       8.128  -5.259  -5.057  1.00  0.00    -0.203 F 
ATOM     67  C   UNL     1      10.200  -6.233  -4.512  1.00  0.00     0.198 A 
ATOM     68  C   UNL     1      12.225  -5.361  -5.462  1.00  0.00     0.198 A 
ATOM     69  F   UNL     1      12.148  -3.502  -6.900  1.00  0.00    -0.203 F 
ATOM     70  F   UNL     1       9.578  -7.094  -3.695  1.00  0.00    -0.200 F 
ATOM     71  C   UNL     1      11.580  -6.275  -4.642  1.00  0.00     0.200 A 
ATOM     72  F   UNL     1      13.557  -5.409  -5.600  1.00  0.00    -0.200 F 
ATOM     73  F   UNL     1      12.290  -7.190  -3.969  1.00  0.00    -0.200 F 
ENDBRANCH  49  63
BRANCH  50  74
ATOM     74  C   UNL     1       4.812   2.884 -10.421  1.00  0.00     0.064 A 
ATOM     75  C   UNL     1       3.672   2.571 -11.175  1.00  0.00     0.173 A 
ATOM     76  C   UNL     1       5.204   4.229 -10.361  1.00  0.00     0.173 A 
ATOM     77  F   UNL     1       3.279   1.294 -11.295  1.00  0.00    -0.203 F 
ATOM     78  C   UNL     1       2.960   3.561 -11.850  1.00  0.00     0.198 A 
ATOM     79  C   UNL     1       4.475   5.222 -11.014  1.00  0.00     0.198 A 
ATOM     80  F   UNL     1       6.297   4.581  -9.669  1.00  0.00    -0.203 F 
ATOM     81  F   UNL     1       1.903   3.227 -12.604  1.00  0.00    -0.200 F 
ATOM     82  C   UNL     1       3.357   4.886 -11.763  1.00  0.00     0.200 A 
ATOM     83  F   UNL     1       4.860   6.502 -10.924  1.00  0.00    -0.200 F 
ATOM     84  F   UNL     1       2.672   5.838 -12.413  1.00  0.00    -0.200 F 
ENDBRANCH  50  74
BRANCH  62  85
ATOM     85  C   UNL     1       8.652  -2.423 -12.826  1.00  0.00     0.064 A 
ATOM     86  C   UNL     1       9.556  -1.730 -13.643  1.00  0.00     0.173 A 
ATOM     87  C   UNL     1       8.116  -3.625 -13.315  1.00  0.00     0.173 A 
ATOM     88  F   UNL     1      10.087  -0.570 -13.230  1.00  0.00    -0.203 F 
ATOM     89  C   UNL     1       9.900  -2.215 -14.904  1.00  0.00     0.198 A 
ATOM     90  C   UNL     1       8.485  -4.123 -14.562  1.00  0.00     0.198 A 
ATOM     91  F   UNL     1       7.251  -4.332 -12.572  1.00  0.00    -0.203 F 
ATOM     92  F   UNL     1      10.739  -1.518 -15.682  1.00  0.00    -0.200 F 
ATOM     93  C   UNL     1       9.373  -3.415 -15.357  1.00  0.00     0.200 A 
ATOM     94  F   UNL     1       7.987  -5.291 -14.991  1.00  0.00    -0.200 F 
ATOM     95  F   UNL     1       9.719  -3.888 -16.563  1.00  0.00    -0.200 F 
ENDBRANCH  62  85
ENDBRANCH  36  37
ENDBRANCH  29  31
ENDBRANCH  28  29
ENDBRANCH  27  28
ENDBRANCH  26  27
ENDBRANCH  25  26
ENDBRANCH  24  25
ENDBRANCH   1  24
TORSDOF 21
