REMARK SMILES CN1C(=O)/C(=C\c2ccc(-c3ccccc3C(=O)OCCOCCOCCOC(=O)c3ccc(-c4c5nc(c(-c6c(F)c(F)c(F)c(F)c6F)c6ccc([nH]6)c(-c6c(F)c(F)c(F)c(F)c6F)c6nc(c(-c7c(F)c(F)c(F)c(F)c7F)c7ccc4[nH]7)C=C6)C=C5)cc3)o2)C(=O)[NH+]=C1S
REMARK SMILES IDX 23 1 22 2 21 3 20 4 19 5 17 6 18 7 16 8 11 9 12 10 13 11
REMARK SMILES IDX 15 12 14 13 10 14 7 15 8 16 94 17 9 18 6 19 1 20 2 21 3 22
REMARK SMILES IDX 98 23 4 24 5 25 97 26 95 27 96 29 99 30 24 32 25 33 26 34
REMARK SMILES IDX 27 35 28 36 29 37 30 38 31 39 32 40 93 41 33 42 92 43 34 44
REMARK SMILES IDX 35 45 36 46 86 47 37 48 91 49 85 50 87 51 38 52 90 53 84 54
REMARK SMILES IDX 83 55 39 57 71 58 51 59 70 60 52 61 55 62 69 63 88 64 53 65
REMARK SMILES IDX 54 66 68 68 89 69 56 70 40 71 41 72 49 73 42 74 43 75 47 76
REMARK SMILES IDX 50 77 44 78 45 79 48 80 46 81 72 82 73 83 81 84 74 85 75 86
REMARK SMILES IDX 79 87 82 88 76 89 77 90 80 91 78 92 57 93 58 94 66 95 59 96
REMARK SMILES IDX 60 97 64 98 67 99 61 100 62 101 65 102 63 103
REMARK H PARENT 97 28 99 31 87 56 55 67
REMARK Flexibility Score: inf
ROOT
ATOM      1  C   UNL     1       2.401  -9.935   1.906  1.00  0.00     0.188 C 
ENDROOT
BRANCH   1   2
ATOM      2  O   UNL     1       1.089 -10.306   2.305  1.00  0.00    -0.376 OA
BRANCH   2   3
ATOM      3  C   UNL     1       0.105  -9.294   2.486  1.00  0.00     0.202 C 
BRANCH   3   4
ATOM      4  C   UNL     1       0.466  -7.985   3.199  1.00  0.00     0.261 C 
BRANCH   4   5
ATOM      5  O   UNL     1       1.670  -7.393   2.701  1.00  0.00    -0.460 OA
BRANCH   5   6
ATOM      6  C   UNL     1       2.626  -7.047   3.593  1.00  0.00     0.338 C 
ATOM      7  O   UNL     1       2.570  -7.184   4.803  1.00  0.00    -0.246 OA
BRANCH   6   8
ATOM      8  C   UNL     1       3.859  -6.624   2.877  1.00  0.00     0.071 A 
ATOM      9  C   UNL     1       3.873  -5.749   1.770  1.00  0.00     0.032 A 
ATOM     10  C   UNL     1       5.114  -5.457   1.173  1.00  0.00     0.013 A 
ATOM     11  C   UNL     1       6.298  -6.042   1.635  1.00  0.00     0.001 A 
ATOM     12  C   UNL     1       5.053  -7.218   3.326  1.00  0.00     0.016 A 
ATOM     13  C   UNL     1       6.265  -6.936   2.700  1.00  0.00     0.001 A 
BRANCH   9  14
ATOM     14  C   UNL     1       2.654  -5.182   1.204  1.00  0.00     0.135 A 
ATOM     15  C   UNL     1       1.375  -4.590  -0.505  1.00  0.00     0.128 A 
ATOM     16  C   UNL     1       0.601  -4.519   0.645  1.00  0.00     0.051 A 
ATOM     17  O   UNL     1       2.616  -5.062  -0.158  1.00  0.00    -0.457 OA
ATOM     18  C   UNL     1       1.450  -4.776   1.736  1.00  0.00     0.051 A 
BRANCH  15  19
ATOM     19  C   UNL     1       1.015  -4.139  -1.800  1.00  0.00     0.071 C 
ATOM     20  C   UNL     1       0.903   0.377  -0.110  1.00  0.00     0.301 C 
ATOM     21  N   UNL     1       0.671  -0.554  -1.213  1.00  0.00    -0.189 N 
ATOM     22  C   UNL     1       1.276  -1.781  -1.056  1.00  0.00     0.349 C 
ATOM     23  C   UNL     1       0.022  -0.269  -2.386  1.00  0.00     0.318 C 
ATOM     24  O   UNL     1       2.124  -1.974  -0.189  1.00  0.00    -0.240 OA
ATOM     25  C   UNL     1       0.872  -2.818  -2.033  1.00  0.00     0.157 C 
ATOM     26  N   UNL     1      -0.179  -1.089  -3.352  1.00  0.00    -0.200 N 
ATOM     27  C   UNL     1       0.206  -2.400  -3.284  1.00  0.00     0.347 C 
ATOM     28  H   UNL     1      -0.624  -0.765  -4.167  1.00  0.00     0.316 HD
ATOM     29  O   UNL     1      -0.033  -3.197  -4.176  1.00  0.00    -0.241 OA
BRANCH  23  30
ATOM     30  S   UNL     1      -0.579   1.351  -2.639  1.00  0.00    -0.055 SA
ATOM     31  H   UNL     1      -0.302   2.113  -1.548  1.00  0.00     0.116 HD
ENDBRANCH  23  30
ENDBRANCH  15  19
ENDBRANCH   9  14
ENDBRANCH   6   8
ENDBRANCH   5   6
ENDBRANCH   4   5
ENDBRANCH   3   4
ENDBRANCH   2   3
ENDBRANCH   1   2
BRANCH   1  32
ATOM     32  C   UNL     1       2.617  -9.132   0.603  1.00  0.00     0.188 C 
BRANCH  32  33
ATOM     33  O   UNL     1       1.465  -8.597   0.000  1.00  0.00    -0.376 OA
BRANCH  33  34
ATOM     34  C   UNL     1       0.721  -9.361  -0.931  1.00  0.00     0.202 C 
BRANCH  34  35
ATOM     35  C   UNL     1       0.953 -10.847  -1.280  1.00  0.00     0.261 C 
BRANCH  35  36
ATOM     36  O   UNL     1       1.899 -11.592  -0.510  1.00  0.00    -0.460 OA
BRANCH  36  37
ATOM     37  C   UNL     1       3.100 -11.814  -1.101  1.00  0.00     0.338 C 
ATOM     38  O   UNL     1       3.474 -11.431  -2.194  1.00  0.00    -0.246 OA
BRANCH  37  39
ATOM     39  C   UNL     1       3.988 -12.461  -0.118  1.00  0.00     0.060 A 
ATOM     40  C   UNL     1       5.112 -11.763   0.352  1.00  0.00     0.016 A 
ATOM     41  C   UNL     1       3.719 -13.757   0.322  1.00  0.00     0.016 A 
ATOM     42  C   UNL     1       5.986 -12.373   1.252  1.00  0.00     0.010 A 
ATOM     43  C   UNL     1       4.610 -14.375   1.199  1.00  0.00     0.010 A 
ATOM     44  C   UNL     1       5.763 -13.699   1.642  1.00  0.00    -0.014 A 
BRANCH  44  45
ATOM     45  C   UNL     1       6.831 -14.471   2.321  1.00  0.00     0.031 A 
ATOM     46  C   UNL     1       7.694 -15.365   1.477  1.00  0.00     0.074 A 
ATOM     47  C   UNL     1       7.012 -14.413   3.650  1.00  0.00     0.049 A 
ATOM     48  N   UNL     1       8.585 -16.252   1.838  1.00  0.00    -0.248 NA
ATOM     49  C   UNL     1       7.512 -15.249   0.021  1.00  0.00     0.031 C 
ATOM     50  C   UNL     1       6.276 -13.551   4.568  1.00  0.00     0.029 A 
ATOM     51  N   UNL     1       7.864 -15.125   4.460  1.00  0.00    -0.354 N 
ATOM     52  C   UNL     1       9.053 -16.813   0.657  1.00  0.00     0.074 A 
ATOM     53  C   UNL     1       8.328 -16.189  -0.428  1.00  0.00     0.031 C 
ATOM     54  C   UNL     1       6.686 -13.804   5.824  1.00  0.00     0.029 A 
ATOM     55  C   UNL     1       7.681 -14.876   5.797  1.00  0.00     0.049 A 
ATOM     56  H   UNL     1       8.539 -15.753   4.114  1.00  0.00     0.167 HD
ATOM     57  C   UNL     1      10.003 -17.764   0.493  1.00  0.00     0.037 A 
ATOM     58  C   UNL     1       8.228 -15.476   6.873  1.00  0.00     0.037 A 
ATOM     59  C   UNL     1      10.711 -18.388   1.579  1.00  0.00     0.049 A 
ATOM     60  C   UNL     1       9.226 -16.591   6.675  1.00  0.00     0.074 A 
ATOM     61  C   UNL     1      11.701 -19.353   1.522  1.00  0.00     0.029 A 
ATOM     62  N   UNL     1      10.491 -18.118   2.922  1.00  0.00    -0.354 N 
ATOM     63  N   UNL     1       9.678 -17.111   5.559  1.00  0.00    -0.248 NA
ATOM     64  C   UNL     1       9.790 -17.202   7.888  1.00  0.00     0.031 C 
ATOM     65  C   UNL     1      12.033 -19.714   2.832  1.00  0.00     0.029 A 
ATOM     66  C   UNL     1      11.307 -18.918   3.705  1.00  0.00     0.049 A 
ATOM     67  H   UNL     1       9.850 -17.456   3.268  1.00  0.00     0.167 HD
ATOM     68  C   UNL     1      10.605 -18.078   5.932  1.00  0.00     0.074 A 
ATOM     69  C   UNL     1      10.651 -18.072   7.379  1.00  0.00     0.031 C 
ATOM     70  C   UNL     1      11.355 -18.891   5.147  1.00  0.00     0.037 A 
BRANCH  57  71
ATOM     71  C   UNL     1      10.290 -18.215  -0.911  1.00  0.00     0.064 A 
ATOM     72  C   UNL     1      10.893 -17.369  -1.855  1.00  0.00     0.173 A 
ATOM     73  C   UNL     1       9.953 -19.515  -1.319  1.00  0.00     0.173 A 
ATOM     74  F   UNL     1      11.222 -16.111  -1.522  1.00  0.00    -0.203 F 
ATOM     75  C   UNL     1      11.106 -17.792  -3.164  1.00  0.00     0.198 A 
ATOM     76  C   UNL     1      10.203 -19.947  -2.618  1.00  0.00     0.198 A 
ATOM     77  F   UNL     1       9.379 -20.367  -0.457  1.00  0.00    -0.203 F 
ATOM     78  F   UNL     1      11.618 -16.943  -4.066  1.00  0.00    -0.200 F 
ATOM     79  C   UNL     1      10.767 -19.082  -3.543  1.00  0.00     0.200 A 
ATOM     80  F   UNL     1       9.889 -21.200  -2.977  1.00  0.00    -0.200 F 
ATOM     81  F   UNL     1      10.973 -19.489  -4.803  1.00  0.00    -0.200 F 
ENDBRANCH  57  71
BRANCH  58  82
ATOM     82  C   UNL     1       7.832 -15.043   8.240  1.00  0.00     0.064 A 
ATOM     83  C   UNL     1       8.741 -14.386   9.081  1.00  0.00     0.173 A 
ATOM     84  C   UNL     1       6.540 -15.279   8.733  1.00  0.00     0.173 A 
ATOM     85  F   UNL     1       9.996 -14.163   8.666  1.00  0.00    -0.203 F 
ATOM     86  C   UNL     1       8.376 -13.993  10.367  1.00  0.00     0.198 A 
ATOM     87  C   UNL     1       6.168 -14.858  10.008  1.00  0.00     0.198 A 
ATOM     88  F   UNL     1       5.635 -15.909   7.971  1.00  0.00    -0.203 F 
ATOM     89  F   UNL     1       9.277 -13.406  11.166  1.00  0.00    -0.200 F 
ATOM     90  C   UNL     1       7.088 -14.221  10.827  1.00  0.00     0.200 A 
ATOM     91  F   UNL     1       4.918 -15.071  10.444  1.00  0.00    -0.200 F 
ATOM     92  F   UNL     1       6.735 -13.835  12.061  1.00  0.00    -0.200 F 
ENDBRANCH  58  82
BRANCH  70  93
ATOM     93  C   UNL     1      12.344 -19.801   5.821  1.00  0.00     0.064 A 
ATOM     94  C   UNL     1      11.943 -20.918   6.567  1.00  0.00     0.173 A 
ATOM     95  C   UNL     1      13.723 -19.584   5.659  1.00  0.00     0.173 A 
ATOM     96  F   UNL     1      10.639 -21.166   6.764  1.00  0.00    -0.203 F 
ATOM     97  C   UNL     1      12.883 -21.771   7.143  1.00  0.00     0.198 A 
ATOM     98  C   UNL     1      14.658 -20.457   6.205  1.00  0.00     0.198 A 
ATOM     99  F   UNL     1      14.163 -18.535   4.947  1.00  0.00    -0.203 F 
ATOM    100  F   UNL     1      12.476 -22.808   7.889  1.00  0.00    -0.200 F 
ATOM    101  C   UNL     1      14.238 -21.546   6.953  1.00  0.00     0.200 A 
ATOM    102  F   UNL     1      15.967 -20.247   6.003  1.00  0.00    -0.200 F 
ATOM    103  F   UNL     1      15.140 -22.376   7.494  1.00  0.00    -0.200 F 
ENDBRANCH  70  93
ENDBRANCH  44  45
ENDBRANCH  37  39
ENDBRANCH  36  37
ENDBRANCH  35  36
ENDBRANCH  34  35
ENDBRANCH  33  34
ENDBRANCH  32  33
ENDBRANCH   1  32
TORSDOF 20
