REMARK SMILES COc1ccc(NS(=O)(=O)c2ccc(NC(=O)[C@H]3CCCC[C@@H]3C(=O)OCCOCCOCCOC(=O)c3ccc(-c4c5nc(c(-c6c(F)c(F)c(F)c(F)c6F)c6ccc([nH]6)c(-c6c(F)c(F)c(F)c(F)c6F)c6nc(c(-c7c(F)c(F)c(F)c(F)c7F)c7ccc4[nH]7)C=C6)C=C5)cc3)cc2)cc1
REMARK SMILES IDX 28 1 27 2 26 3 24 4 25 5 23 6 18 7 19 8 20 9 22 10 21 11
REMARK SMILES IDX 16 12 15 13 17 15 14 16 11 17 12 18 102 19 13 20 101 21 8 22
REMARK SMILES IDX 9 23 10 24 7 25 6 27 3 28 4 29 104 30 5 31 103 32 2 33 1 34
REMARK SMILES IDX 29 35 30 36 31 37 32 38 33 39 34 40 35 41 36 42 37 43 38 44
REMARK SMILES IDX 39 45 100 46 40 47 99 48 41 49 42 50 43 51 93 52 44 53 98 54
REMARK SMILES IDX 92 55 94 56 45 57 97 58 91 59 90 60 46 62 78 63 58 64 77 65
REMARK SMILES IDX 59 66 62 67 76 68 95 69 60 70 61 71 75 73 96 74 63 75 47 76
REMARK SMILES IDX 48 77 56 78 49 79 50 80 54 81 57 82 51 83 52 84 55 85 53 86
REMARK SMILES IDX 79 87 80 88 88 89 81 90 82 91 86 92 89 93 83 94 84 95 87 96
REMARK SMILES IDX 85 97 64 98 65 99 73 100 66 101 67 102 71 103 74 104 68 105
REMARK SMILES IDX 69 106 72 107 70 108
REMARK H PARENT 15 14 7 26 94 61 62 72
REMARK Flexibility Score: inf
ROOT
ATOM      1  C   UNL     1      -8.070   4.595  -8.278  1.00  0.00     0.202 C 
ENDROOT
BRANCH   1   2
ATOM      2  C   UNL     1      -6.969   3.975  -7.386  1.00  0.00     0.261 C 
BRANCH   2   3
ATOM      3  O   UNL     1      -6.383   4.869  -6.398  1.00  0.00    -0.463 OA
BRANCH   3   4
ATOM      4  C   UNL     1      -5.079   4.640  -6.052  1.00  0.00     0.309 C 
ATOM      5  O   UNL     1      -4.411   3.728  -6.530  1.00  0.00    -0.252 OA
BRANCH   4   6
ATOM      6  C   UNL     1      -4.455   5.685  -5.090  1.00  0.00     0.111 C 
ATOM      7  C   UNL     1      -4.966   5.759  -3.636  1.00  0.00     0.093 C 
ATOM      8  C   UNL     1      -6.414   6.184  -3.534  1.00  0.00     0.014 C 
ATOM      9  C   UNL     1      -6.877   7.125  -4.643  1.00  0.00     0.001 C 
ATOM     10  C   UNL     1      -4.474   7.059  -5.715  1.00  0.00     0.016 C 
ATOM     11  C   UNL     1      -5.803   7.766  -5.529  1.00  0.00     0.001 C 
BRANCH   7  12
ATOM     12  C   UNL     1      -3.958   6.435  -2.648  1.00  0.00     0.228 C 
ATOM     13  N   UNL     1      -3.686   7.755  -2.412  1.00  0.00    -0.326 N 
ATOM     14  H   UNL     1      -2.844   7.843  -1.908  1.00  0.00     0.169 HD
ATOM     15  O   UNL     1      -3.176   5.664  -2.059  1.00  0.00    -0.274 OA
BRANCH  13  16
ATOM     16  C   UNL     1      -4.237   9.029  -2.666  1.00  0.00     0.041 A 
ATOM     17  C   UNL     1      -5.156  11.582  -3.518  1.00  0.00     0.087 A 
ATOM     18  C   UNL     1      -6.028  10.507  -3.401  1.00  0.00     0.024 A 
ATOM     19  C   UNL     1      -3.834  11.415  -3.104  1.00  0.00     0.024 A 
ATOM     20  C   UNL     1      -5.580   9.285  -2.863  1.00  0.00     0.027 A 
ATOM     21  C   UNL     1      -3.378  10.143  -2.694  1.00  0.00     0.027 A 
BRANCH  17  22
ATOM     22  S   UNL     1      -5.712  13.134  -4.198  1.00  0.00     0.261 S 
ATOM     23  O   UNL     1      -6.118  12.899  -5.558  1.00  0.00    -0.201 OA
ATOM     24  O   UNL     1      -4.714  14.146  -3.915  1.00  0.00    -0.201 OA
BRANCH  22  25
ATOM     25  N   UNL     1      -7.146  13.609  -3.405  1.00  0.00    -0.280 N 
ATOM     26  H   UNL     1      -7.959  13.866  -3.897  1.00  0.00     0.180 HD
BRANCH  25  27
ATOM     27  C   UNL     1      -7.085  13.607  -1.987  1.00  0.00     0.049 A 
ATOM     28  C   UNL     1      -6.466  13.336   0.677  1.00  0.00     0.119 A 
ATOM     29  C   UNL     1      -6.965  12.241  -0.016  1.00  0.00     0.048 A 
ATOM     30  C   UNL     1      -6.312  14.578   0.061  1.00  0.00     0.048 A 
ATOM     31  C   UNL     1      -7.340  12.403  -1.336  1.00  0.00     0.030 A 
ATOM     32  C   UNL     1      -6.605  14.713  -1.293  1.00  0.00     0.030 A 
BRANCH  28  33
ATOM     33  O   UNL     1      -6.074  13.181   1.975  1.00  0.00    -0.497 OA
ATOM     34  C   UNL     1      -7.218  13.277   2.820  1.00  0.00     0.278 C 
ENDBRANCH  28  33
ENDBRANCH  25  27
ENDBRANCH  22  25
ENDBRANCH  17  22
ENDBRANCH  13  16
ENDBRANCH   7  12
ENDBRANCH   4   6
ENDBRANCH   3   4
ENDBRANCH   2   3
ENDBRANCH   1   2
BRANCH   1  35
ATOM     35  O   UNL     1      -7.627   5.569  -9.225  1.00  0.00    -0.376 OA
BRANCH  35  36
ATOM     36  C   UNL     1      -7.260   6.809  -8.647  1.00  0.00     0.188 C 
BRANCH  36  37
ATOM     37  C   UNL     1      -8.433   7.654  -8.143  1.00  0.00     0.188 C 
BRANCH  37  38
ATOM     38  O   UNL     1      -9.074   7.208  -6.952  1.00  0.00    -0.376 OA
BRANCH  38  39
ATOM     39  C   UNL     1     -10.449   7.586  -6.845  1.00  0.00     0.202 C 
BRANCH  39  40
ATOM     40  C   UNL     1     -10.840   9.084  -6.911  1.00  0.00     0.261 C 
BRANCH  40  41
ATOM     41  O   UNL     1      -9.944   9.944  -7.638  1.00  0.00    -0.460 OA
BRANCH  41  42
ATOM     42  C   UNL     1      -9.029  10.579  -6.858  1.00  0.00     0.338 C 
ATOM     43  O   UNL     1      -8.961  10.528  -5.639  1.00  0.00    -0.246 OA
BRANCH  42  44
ATOM     44  C   UNL     1      -7.950  11.179  -7.683  1.00  0.00     0.060 A 
ATOM     45  C   UNL     1      -6.649  10.776  -7.378  1.00  0.00     0.016 A 
ATOM     46  C   UNL     1      -8.150  12.185  -8.622  1.00  0.00     0.016 A 
ATOM     47  C   UNL     1      -5.541  11.428  -7.908  1.00  0.00     0.010 A 
ATOM     48  C   UNL     1      -7.031  12.853  -9.158  1.00  0.00     0.010 A 
ATOM     49  C   UNL     1      -5.718  12.525  -8.754  1.00  0.00    -0.014 A 
BRANCH  49  50
ATOM     50  C   UNL     1      -4.549  13.397  -9.075  1.00  0.00     0.031 A 
ATOM     51  C   UNL     1      -4.507  14.831  -8.599  1.00  0.00     0.074 A 
ATOM     52  C   UNL     1      -3.473  12.902  -9.718  1.00  0.00     0.049 A 
ATOM     53  N   UNL     1      -3.643  15.779  -8.876  1.00  0.00    -0.248 NA
ATOM     54  C   UNL     1      -5.571  15.251  -7.677  1.00  0.00     0.031 C 
ATOM     55  C   UNL     1      -3.298  11.510 -10.128  1.00  0.00     0.029 A 
ATOM     56  N   UNL     1      -2.327  13.526 -10.153  1.00  0.00    -0.354 N 
ATOM     57  C   UNL     1      -4.070  16.903  -8.176  1.00  0.00     0.074 A 
ATOM     58  C   UNL     1      -5.271  16.524  -7.465  1.00  0.00     0.031 C 
ATOM     59  C   UNL     1      -2.132  11.390 -10.779  1.00  0.00     0.029 A 
ATOM     60  C   UNL     1      -1.524  12.711 -10.911  1.00  0.00     0.049 A 
ATOM     61  H   UNL     1      -2.106  14.462  -9.943  1.00  0.00     0.167 HD
ATOM     62  C   UNL     1      -3.523  18.144  -8.142  1.00  0.00     0.037 A 
ATOM     63  C   UNL     1      -0.467  12.999 -11.695  1.00  0.00     0.037 A 
ATOM     64  C   UNL     1      -2.338  18.531  -8.866  1.00  0.00     0.049 A 
ATOM     65  C   UNL     1       0.030  14.414 -11.786  1.00  0.00     0.074 A 
ATOM     66  C   UNL     1      -1.718  19.768  -8.910  1.00  0.00     0.029 A 
ATOM     67  N   UNL     1      -1.607  17.690  -9.691  1.00  0.00    -0.354 N 
ATOM     68  N   UNL     1      -0.398  15.482 -11.160  1.00  0.00    -0.248 NA
ATOM     69  C   UNL     1       1.151  14.665 -12.702  1.00  0.00     0.031 C 
ATOM     70  C   UNL     1      -0.666  19.698  -9.830  1.00  0.00     0.029 A 
ATOM     71  C   UNL     1      -0.579  18.396 -10.297  1.00  0.00     0.049 A 
ATOM     72  H   UNL     1      -1.791  16.732  -9.827  1.00  0.00     0.167 HD
ATOM     73  C   UNL     1       0.409  16.527 -11.588  1.00  0.00     0.074 A 
ATOM     74  C   UNL     1       1.362  15.962 -12.521  1.00  0.00     0.031 C 
ATOM     75  C   UNL     1       0.364  17.835 -11.233  1.00  0.00     0.037 A 
BRANCH  62  76
ATOM     76  C   UNL     1      -4.256  19.205  -7.369  1.00  0.00     0.064 A 
ATOM     77  C   UNL     1      -4.306  19.218  -5.968  1.00  0.00     0.173 A 
ATOM     78  C   UNL     1      -4.910  20.241  -8.056  1.00  0.00     0.173 A 
ATOM     79  F   UNL     1      -3.707  18.249  -5.260  1.00  0.00    -0.203 F 
ATOM     80  C   UNL     1      -5.014  20.206  -5.285  1.00  0.00     0.198 A 
ATOM     81  C   UNL     1      -5.590  21.244  -7.370  1.00  0.00     0.198 A 
ATOM     82  F   UNL     1      -4.888  20.284  -9.396  1.00  0.00    -0.203 F 
ATOM     83  F   UNL     1      -5.099  20.167  -3.948  1.00  0.00    -0.200 F 
ATOM     84  C   UNL     1      -5.651  21.220  -5.986  1.00  0.00     0.200 A 
ATOM     85  F   UNL     1      -6.192  22.229  -8.050  1.00  0.00    -0.200 F 
ATOM     86  F   UNL     1      -6.334  22.167  -5.328  1.00  0.00    -0.200 F 
ENDBRANCH  62  76
BRANCH  63  87
ATOM     87  C   UNL     1       0.122  11.920 -12.530  1.00  0.00     0.064 A 
ATOM     88  C   UNL     1       1.408  11.425 -12.287  1.00  0.00     0.173 A 
ATOM     89  C   UNL     1      -0.617  11.338 -13.574  1.00  0.00     0.173 A 
ATOM     90  F   UNL     1       2.164  11.969 -11.322  1.00  0.00    -0.203 F 
ATOM     91  C   UNL     1       1.931  10.384 -13.053  1.00  0.00     0.198 A 
ATOM     92  C   UNL     1      -0.107  10.276 -14.315  1.00  0.00     0.198 A 
ATOM     93  F   UNL     1      -1.852  11.782 -13.852  1.00  0.00    -0.203 F 
ATOM     94  F   UNL     1       3.176   9.947 -12.821  1.00  0.00    -0.200 F 
ATOM     95  C   UNL     1       1.169   9.802 -14.056  1.00  0.00     0.200 A 
ATOM     96  F   UNL     1      -0.855   9.708 -15.271  1.00  0.00    -0.200 F 
ATOM     97  F   UNL     1       1.666   8.787 -14.775  1.00  0.00    -0.200 F 
ENDBRANCH  63  87
BRANCH  75  98
ATOM     98  C   UNL     1       1.394  18.753 -11.830  1.00  0.00     0.064 A 
ATOM     99  C   UNL     1       1.362  19.121 -13.183  1.00  0.00     0.173 A 
ATOM    100  C   UNL     1       2.403  19.305 -11.025  1.00  0.00     0.173 A 
ATOM    101  F   UNL     1       0.429  18.610 -14.000  1.00  0.00    -0.203 F 
ATOM    102  C   UNL     1       2.315  19.989 -13.712  1.00  0.00     0.198 A 
ATOM    103  C   UNL     1       3.333  20.198 -11.549  1.00  0.00     0.198 A 
ATOM    104  F   UNL     1       2.477  18.991  -9.722  1.00  0.00    -0.203 F 
ATOM    105  F   UNL     1       2.293  20.290 -15.018  1.00  0.00    -0.200 F 
ATOM    106  C   UNL     1       3.293  20.534 -12.893  1.00  0.00     0.200 A 
ATOM    107  F   UNL     1       4.268  20.734 -10.753  1.00  0.00    -0.200 F 
ATOM    108  F   UNL     1       4.202  21.377 -13.402  1.00  0.00    -0.200 F 
ENDBRANCH  75  98
ENDBRANCH  49  50
ENDBRANCH  42  44
ENDBRANCH  41  42
ENDBRANCH  40  41
ENDBRANCH  39  40
ENDBRANCH  38  39
ENDBRANCH  37  38
ENDBRANCH  36  37
ENDBRANCH  35  36
ENDBRANCH   1  35
TORSDOF 23
