REMARK SMILES CCCc1c(C(=O)OCCOCCOCCOC(=O)c2ccc(-c3c4nc(c(-c5c(F)c(F)c(F)c(F)c5F)c5ccc([nH]5)c(-c5c(F)c(F)c(F)c(F)c5F)c5nc(c(-c6c(F)c(F)c(F)c(F)c6F)c6ccc3[nH]6)C=C5)C=C4)cc2)nnn1-c1cccc(C(F)(F)F)c1
REMARK SMILES IDX 12 1 11 2 10 3 9 4 8 5 6 6 7 7 5 8 4 9 85 10 83 11 84 12
REMARK SMILES IDX 3 13 2 14 1 15 86 16 87 17 95 18 88 19 90 20 89 21 91 22
REMARK SMILES IDX 92 23 93 24 94 25 13 26 14 27 15 28 16 29 17 30 18 31 19 32
REMARK SMILES IDX 20 33 21 34 82 35 22 36 81 37 23 38 24 39 25 40 75 41 26 42
REMARK SMILES IDX 80 43 74 44 76 45 27 46 79 47 73 48 72 49 28 51 60 52 40 53
REMARK SMILES IDX 59 54 41 55 44 56 58 57 77 58 42 59 43 60 57 62 78 63 45 64
REMARK SMILES IDX 29 65 30 66 38 67 31 68 32 69 36 70 39 71 33 72 34 73 37 74
REMARK SMILES IDX 35 75 61 76 62 77 70 78 63 79 64 80 68 81 71 82 65 83 66 84
REMARK SMILES IDX 69 85 67 86 46 87 47 88 55 89 48 90 49 91 53 92 56 93 50 94
REMARK SMILES IDX 51 95 54 96 52 97
REMARK H PARENT 76 50 44 61
REMARK Flexibility Score: inf
ROOT
ATOM      1  C   UNL     1       0.255  -4.284   5.785  1.00  0.00     0.188 C 
ENDROOT
BRANCH   1   2
ATOM      2  O   UNL     1      -0.257  -5.589   5.927  1.00  0.00    -0.376 OA
BRANCH   2   3
ATOM      3  C   UNL     1      -0.946  -6.220   4.862  1.00  0.00     0.202 C 
BRANCH   3   4
ATOM      4  C   UNL     1      -1.572  -5.493   3.651  1.00  0.00     0.261 C 
BRANCH   4   5
ATOM      5  O   UNL     1      -0.954  -4.274   3.222  1.00  0.00    -0.458 OA
BRANCH   5   6
ATOM      6  C   UNL     1      -1.682  -3.131   3.431  1.00  0.00     0.360 C 
ATOM      7  O   UNL     1      -2.826  -3.121   3.840  1.00  0.00    -0.244 OA
BRANCH   6   8
ATOM      8  C   UNL     1      -0.892  -1.910   3.267  1.00  0.00     0.194 A 
ATOM      9  C   UNL     1       0.099  -1.560   2.356  1.00  0.00     0.079 A 
ATOM     10  N   UNL     1       0.419  -0.259   2.723  1.00  0.00    -0.217 N 
ATOM     11  N   UNL     1      -1.003  -0.907   4.206  1.00  0.00    -0.122 NA
ATOM     12  N   UNL     1      -0.130   0.043   3.915  1.00  0.00    -0.061 NA
BRANCH   9  13
ATOM     13  C   UNL     1       0.835  -2.339   1.303  1.00  0.00     0.059 C 
BRANCH  13  14
ATOM     14  C   UNL     1       0.453  -2.018  -0.143  1.00  0.00     0.003 C 
ATOM     15  C   UNL     1       1.545  -1.262  -0.896  1.00  0.00     0.004 C 
ENDBRANCH  13  14
ENDBRANCH   9  13
BRANCH  10  16
ATOM     16  C   UNL     1       0.876   0.786   1.903  1.00  0.00     0.067 A 
ATOM     17  C   UNL     1       2.073   1.440   2.192  1.00  0.00     0.028 A 
ATOM     18  C   UNL     1       0.103   1.144   0.792  1.00  0.00     0.041 A 
ATOM     19  C   UNL     1       2.541   2.406   1.299  1.00  0.00     0.003 A 
ATOM     20  C   UNL     1       0.578   2.098  -0.115  1.00  0.00     0.058 A 
ATOM     21  C   UNL     1       1.807   2.723   0.148  1.00  0.00     0.013 A 
BRANCH  20  22
ATOM     22  C   UNL     1      -0.186   2.394  -1.383  1.00  0.00     0.416 C 
ATOM     23  F   UNL     1      -0.562   3.696  -1.484  1.00  0.00    -0.166 F 
ATOM     24  F   UNL     1       0.548   2.123  -2.498  1.00  0.00    -0.166 F 
ATOM     25  F   UNL     1      -1.327   1.660  -1.508  1.00  0.00    -0.166 F 
ENDBRANCH  20  22
ENDBRANCH  10  16
ENDBRANCH   6   8
ENDBRANCH   5   6
ENDBRANCH   4   5
ENDBRANCH   3   4
ENDBRANCH   2   3
ENDBRANCH   1   2
BRANCH   1  26
ATOM     26  C   UNL     1       1.441  -4.026   4.832  1.00  0.00     0.188 C 
BRANCH  26  27
ATOM     27  O   UNL     1       1.706  -4.867   3.728  1.00  0.00    -0.376 OA
BRANCH  27  28
ATOM     28  C   UNL     1       2.197  -6.197   3.811  1.00  0.00     0.202 C 
BRANCH  28  29
ATOM     29  C   UNL     1       2.845  -6.844   5.032  1.00  0.00     0.261 C 
BRANCH  29  30
ATOM     30  O   UNL     1       2.576  -6.196   6.248  1.00  0.00    -0.460 OA
BRANCH  30  31
ATOM     31  C   UNL     1       3.501  -5.266   6.558  1.00  0.00     0.338 C 
ATOM     32  O   UNL     1       4.434  -4.890   5.872  1.00  0.00    -0.246 OA
BRANCH  31  33
ATOM     33  C   UNL     1       3.245  -4.806   7.928  1.00  0.00     0.060 A 
ATOM     34  C   UNL     1       4.105  -3.791   8.348  1.00  0.00     0.016 A 
ATOM     35  C   UNL     1       2.708  -5.764   8.795  1.00  0.00     0.016 A 
ATOM     36  C   UNL     1       4.755  -3.988   9.536  1.00  0.00     0.010 A 
ATOM     37  C   UNL     1       3.393  -5.991   9.952  1.00  0.00     0.010 A 
ATOM     38  C   UNL     1       4.473  -5.160  10.244  1.00  0.00    -0.014 A 
BRANCH  38  39
ATOM     39  C   UNL     1       5.279  -5.458  11.399  1.00  0.00     0.031 A 
ATOM     40  C   UNL     1       4.848  -4.657  12.559  1.00  0.00     0.074 A 
ATOM     41  C   UNL     1       6.202  -6.436  11.376  1.00  0.00     0.049 A 
ATOM     42  N   UNL     1       5.501  -3.715  13.152  1.00  0.00    -0.248 NA
ATOM     43  C   UNL     1       3.429  -4.747  12.951  1.00  0.00     0.031 C 
ATOM     44  C   UNL     1       6.459  -7.412  10.310  1.00  0.00     0.029 A 
ATOM     45  N   UNL     1       7.041  -6.837  12.365  1.00  0.00    -0.354 N 
ATOM     46  C   UNL     1       4.640  -3.255  14.141  1.00  0.00     0.074 A 
ATOM     47  C   UNL     1       3.330  -3.727  13.799  1.00  0.00     0.031 C 
ATOM     48  C   UNL     1       7.218  -8.418  10.802  1.00  0.00     0.029 A 
ATOM     49  C   UNL     1       7.590  -8.099  12.169  1.00  0.00     0.049 A 
ATOM     50  H   UNL     1       7.242  -6.282  13.153  1.00  0.00     0.167 HD
ATOM     51  C   UNL     1       5.137  -2.838  15.334  1.00  0.00     0.037 A 
ATOM     52  C   UNL     1       8.208  -8.841  13.122  1.00  0.00     0.037 A 
ATOM     53  C   UNL     1       6.532  -2.488  15.203  1.00  0.00     0.049 A 
ATOM     54  C   UNL     1       8.576  -7.917  14.226  1.00  0.00     0.074 A 
ATOM     55  C   UNL     1       7.238  -1.546  14.483  1.00  0.00     0.029 A 
ATOM     56  N   UNL     1       7.445  -3.432  15.601  1.00  0.00    -0.354 N 
ATOM     57  N   UNL     1       9.482  -6.985  14.120  1.00  0.00    -0.248 NA
ATOM     58  C   UNL     1       7.616  -7.729  15.305  1.00  0.00     0.031 C 
ATOM     59  C   UNL     1       8.472  -2.175  14.144  1.00  0.00     0.029 A 
ATOM     60  C   UNL     1       8.486  -3.449  14.714  1.00  0.00     0.049 A 
ATOM     61  H   UNL     1       7.364  -4.004  16.398  1.00  0.00     0.167 HD
ATOM     62  C   UNL     1       8.960  -5.902  14.814  1.00  0.00     0.074 A 
ATOM     63  C   UNL     1       7.866  -6.452  15.608  1.00  0.00     0.031 C 
ATOM     64  C   UNL     1       9.279  -4.627  14.443  1.00  0.00     0.037 A 
BRANCH  51  65
ATOM     65  C   UNL     1       4.519  -3.217  16.666  1.00  0.00     0.064 A 
ATOM     66  C   UNL     1       5.132  -2.733  17.838  1.00  0.00     0.173 A 
ATOM     67  C   UNL     1       3.584  -4.261  16.866  1.00  0.00     0.173 A 
ATOM     68  F   UNL     1       6.032  -1.739  17.777  1.00  0.00    -0.203 F 
ATOM     69  C   UNL     1       4.920  -3.327  19.084  1.00  0.00     0.198 A 
ATOM     70  C   UNL     1       3.338  -4.818  18.118  1.00  0.00     0.198 A 
ATOM     71  F   UNL     1       2.940  -4.869  15.866  1.00  0.00    -0.203 F 
ATOM     72  F   UNL     1       5.637  -2.925  20.140  1.00  0.00    -0.200 F 
ATOM     73  C   UNL     1       4.034  -4.379  19.220  1.00  0.00     0.200 A 
ATOM     74  F   UNL     1       2.482  -5.845  18.222  1.00  0.00    -0.200 F 
ATOM     75  F   UNL     1       3.885  -5.000  20.396  1.00  0.00    -0.200 F 
ENDBRANCH  51  65
BRANCH  52  76
ATOM     76  C   UNL     1       8.185 -10.313  13.296  1.00  0.00     0.064 A 
ATOM     77  C   UNL     1       9.112 -10.959  14.132  1.00  0.00     0.173 A 
ATOM     78  C   UNL     1       7.089 -11.086  12.866  1.00  0.00     0.173 A 
ATOM     79  F   UNL     1      10.157 -10.282  14.629  1.00  0.00    -0.203 F 
ATOM     80  C   UNL     1       8.941 -12.291  14.526  1.00  0.00     0.198 A 
ATOM     81  C   UNL     1       6.924 -12.416  13.253  1.00  0.00     0.198 A 
ATOM     82  F   UNL     1       6.104 -10.539  12.139  1.00  0.00    -0.203 F 
ATOM     83  F   UNL     1       9.815 -12.855  15.372  1.00  0.00    -0.200 F 
ATOM     84  C   UNL     1       7.843 -13.015  14.093  1.00  0.00     0.200 A 
ATOM     85  F   UNL     1       5.835 -13.092  12.859  1.00  0.00    -0.200 F 
ATOM     86  F   UNL     1       7.648 -14.272  14.517  1.00  0.00    -0.200 F 
ENDBRANCH  52  76
BRANCH  64  87
ATOM     87  C   UNL     1      10.438  -4.457  13.501  1.00  0.00     0.064 A 
ATOM     88  C   UNL     1      10.450  -4.917  12.173  1.00  0.00     0.173 A 
ATOM     89  C   UNL     1      11.525  -3.684  13.928  1.00  0.00     0.173 A 
ATOM     90  F   UNL     1       9.405  -5.581  11.664  1.00  0.00    -0.203 F 
ATOM     91  C   UNL     1      11.526  -4.650  11.327  1.00  0.00     0.198 A 
ATOM     92  C   UNL     1      12.579  -3.386  13.070  1.00  0.00     0.198 A 
ATOM     93  F   UNL     1      11.540  -3.175  15.169  1.00  0.00    -0.203 F 
ATOM     94  F   UNL     1      11.524  -5.113  10.068  1.00  0.00    -0.200 F 
ATOM     95  C   UNL     1      12.586  -3.878  11.775  1.00  0.00     0.200 A 
ATOM     96  F   UNL     1      13.577  -2.598  13.493  1.00  0.00    -0.200 F 
ATOM     97  F   UNL     1      13.601  -3.585  10.951  1.00  0.00    -0.200 F 
ENDBRANCH  64  87
ENDBRANCH  38  39
ENDBRANCH  31  33
ENDBRANCH  30  31
ENDBRANCH  29  30
ENDBRANCH  28  29
ENDBRANCH  27  28
ENDBRANCH  26  27
ENDBRANCH   1  26
TORSDOF 21
