REMARK SMILES NS(=O)(=O)CCNC(=O)N1[C@@H]2CC[C@H]1C[C@H](CC(=O)OCCOCCOCCOC(=O)c1ccc(-c3c4nc(c(-c5c(F)c(F)c(F)c(F)c5F)c5ccc([nH]5)c(-c5c(F)c(F)c(F)c(F)c5F)c5nc(c(-c6c(F)c(F)c(F)c(F)c6F)c6ccc3[nH]6)C=C5)C=C4)cc1)C2
REMARK SMILES IDX 22 1 21 2 20 3 18 4 19 5 17 6 16 7 10 8 11 9 14 10 12 11
REMARK SMILES IDX 95 12 13 13 15 14 8 15 7 16 9 18 6 19 5 20 2 21 3 22 4 23
REMARK SMILES IDX 1 24 23 27 24 28 25 29 26 30 27 31 28 32 29 33 30 34 31 35
REMARK SMILES IDX 32 36 33 37 94 38 34 39 93 40 35 41 36 42 37 43 87 44 38 45
REMARK SMILES IDX 92 46 86 47 88 48 39 49 91 50 85 51 84 52 40 54 72 55 52 56
REMARK SMILES IDX 71 57 53 58 56 59 70 60 89 61 54 62 55 63 69 65 90 66 57 67
REMARK SMILES IDX 41 68 42 69 50 70 43 71 44 72 48 73 51 74 45 75 46 76 49 77
REMARK SMILES IDX 47 78 73 79 74 80 82 81 75 82 76 83 80 84 83 85 77 86 78 87
REMARK SMILES IDX 81 88 79 89 58 90 59 91 67 92 60 93 61 94 65 95 68 96 62 97
REMARK SMILES IDX 63 98 66 99 64 100
REMARK H PARENT 7 17 1 25 1 26 88 53 56 64
REMARK Flexibility Score: inf
ROOT
ATOM      1  C   UNL     1       0.908   6.303   7.928  1.00  0.00     0.202 C 
ENDROOT
BRANCH   1   2
ATOM      2  C   UNL     1       0.847   5.862   6.457  1.00  0.00     0.261 C 
BRANCH   2   3
ATOM      3  O   UNL     1       1.581   4.651   6.178  1.00  0.00    -0.463 OA
BRANCH   3   4
ATOM      4  C   UNL     1       2.613   4.759   5.306  1.00  0.00     0.306 C 
ATOM      5  O   UNL     1       2.900   5.781   4.691  1.00  0.00    -0.252 OA
BRANCH   4   6
ATOM      6  C   UNL     1       3.474   3.512   5.186  1.00  0.00     0.126 C 
BRANCH   6   7
ATOM      7  C   UNL     1       3.095   2.176   5.863  1.00  0.00     0.004 C 
ATOM      8  N   UNL     1       2.182  -0.334   4.806  1.00  0.00    -0.319 N 
ATOM      9  C   UNL     1       3.493  -0.364   5.428  1.00  0.00     0.087 C 
ATOM     10  C   UNL     1       1.307   0.314   5.758  1.00  0.00     0.087 C 
ATOM     11  C   UNL     1       3.196  -0.741   6.878  1.00  0.00     0.027 C 
ATOM     12  C   UNL     1       4.053   1.064   5.313  1.00  0.00     0.029 C 
ATOM     13  C   UNL     1       1.752  -0.285   7.102  1.00  0.00     0.027 C 
ATOM     14  C   UNL     1       1.600   1.819   5.695  1.00  0.00     0.029 C 
BRANCH   8  15
ATOM     15  C   UNL     1       1.945  -0.883   3.592  1.00  0.00     0.317 C 
ATOM     16  N   UNL     1       0.852  -0.555   2.870  1.00  0.00    -0.337 N 
ATOM     17  H   UNL     1       0.533  -1.274   2.278  1.00  0.00     0.165 HD
ATOM     18  O   UNL     1       2.729  -1.680   3.073  1.00  0.00    -0.249 OA
BRANCH  16  19
ATOM     19  C   UNL     1       0.055   0.664   2.804  1.00  0.00     0.135 C 
BRANCH  19  20
ATOM     20  C   UNL     1       0.773   1.786   2.067  1.00  0.00     0.175 C 
BRANCH  20  21
ATOM     21  S   UNL     1       0.503   1.722   0.304  1.00  0.00     0.210 S 
ATOM     22  O   UNL     1       1.397   2.657  -0.344  1.00  0.00    -0.213 OA
ATOM     23  O   UNL     1      -0.912   1.710   0.032  1.00  0.00    -0.213 OA
BRANCH  21  24
ATOM     24  N   UNL     1       1.067   0.204  -0.114  1.00  0.00    -0.229 NA
ATOM     25  H   UNL     1       0.957   0.065  -1.119  1.00  0.00     0.137 HD
ATOM     26  H   UNL     1       0.535  -0.507   0.388  1.00  0.00     0.137 HD
ENDBRANCH  21  24
ENDBRANCH  20  21
ENDBRANCH  19  20
ENDBRANCH  16  19
ENDBRANCH   8  15
ENDBRANCH   6   7
ENDBRANCH   4   6
ENDBRANCH   3   4
ENDBRANCH   2   3
ENDBRANCH   1   2
BRANCH   1  27
ATOM     27  O   UNL     1       2.211   6.428   8.498  1.00  0.00    -0.376 OA
BRANCH  27  28
ATOM     28  C   UNL     1       2.987   5.239   8.577  1.00  0.00     0.188 C 
BRANCH  28  29
ATOM     29  C   UNL     1       2.353   4.069   9.327  1.00  0.00     0.188 C 
BRANCH  29  30
ATOM     30  O   UNL     1       1.021   3.731   8.978  1.00  0.00    -0.376 OA
BRANCH  30  31
ATOM     31  C   UNL     1       0.373   2.744   9.787  1.00  0.00     0.202 C 
BRANCH  31  32
ATOM     32  C   UNL     1       0.537   2.806  11.324  1.00  0.00     0.261 C 
BRANCH  32  33
ATOM     33  O   UNL     1       1.886   2.835  11.847  1.00  0.00    -0.460 OA
BRANCH  33  34
ATOM     34  C   UNL     1       2.774   1.911  11.411  1.00  0.00     0.338 C 
ATOM     35  O   UNL     1       2.511   0.900  10.783  1.00  0.00    -0.246 OA
BRANCH  34  36
ATOM     36  C   UNL     1       4.155   2.469  11.557  1.00  0.00     0.060 A 
ATOM     37  C   UNL     1       5.084   2.204  10.539  1.00  0.00     0.016 A 
ATOM     38  C   UNL     1       4.522   3.308  12.615  1.00  0.00     0.016 A 
ATOM     39  C   UNL     1       6.380   2.731  10.596  1.00  0.00     0.010 A 
ATOM     40  C   UNL     1       5.827   3.822  12.682  1.00  0.00     0.010 A 
ATOM     41  C   UNL     1       6.777   3.507  11.692  1.00  0.00    -0.014 A 
BRANCH  41  42
ATOM     42  C   UNL     1       8.222   3.803  11.911  1.00  0.00     0.031 A 
ATOM     43  C   UNL     1       8.984   2.938  12.882  1.00  0.00     0.074 A 
ATOM     44  C   UNL     1       8.869   4.783  11.254  1.00  0.00     0.049 A 
ATOM     45  N   UNL     1      10.228   3.023  13.284  1.00  0.00    -0.248 NA
ATOM     46  C   UNL     1       8.235   1.823  13.482  1.00  0.00     0.031 C 
ATOM     47  C   UNL     1       8.281   5.665  10.250  1.00  0.00     0.029 A 
ATOM     48  N   UNL     1      10.177   5.205  11.346  1.00  0.00    -0.354 N 
ATOM     49  C   UNL     1      10.404   1.982  14.187  1.00  0.00     0.074 A 
ATOM     50  C   UNL     1       9.133   1.301  14.302  1.00  0.00     0.031 C 
ATOM     51  C   UNL     1       9.219   6.533   9.828  1.00  0.00     0.029 A 
ATOM     52  C   UNL     1      10.465   6.294  10.558  1.00  0.00     0.049 A 
ATOM     53  H   UNL     1      10.843   4.768  11.924  1.00  0.00     0.167 HD
ATOM     54  C   UNL     1      11.524   1.617  14.857  1.00  0.00     0.037 A 
ATOM     55  C   UNL     1      11.593   7.028  10.458  1.00  0.00     0.037 A 
ATOM     56  C   UNL     1      12.792   2.291  14.750  1.00  0.00     0.049 A 
ATOM     57  C   UNL     1      12.804   6.659  11.283  1.00  0.00     0.074 A 
ATOM     58  C   UNL     1      13.986   1.984  15.381  1.00  0.00     0.029 A 
ATOM     59  N   UNL     1      13.029   3.413  13.972  1.00  0.00    -0.354 N 
ATOM     60  N   UNL     1      12.969   5.662  12.119  1.00  0.00    -0.248 NA
ATOM     61  C   UNL     1      13.991   7.519  11.146  1.00  0.00     0.031 C 
ATOM     62  C   UNL     1      14.927   2.959  15.037  1.00  0.00     0.029 A 
ATOM     63  C   UNL     1      14.342   3.830  14.132  1.00  0.00     0.049 A 
ATOM     64  H   UNL     1      12.364   3.849  13.392  1.00  0.00     0.167 HD
ATOM     65  C   UNL     1      14.279   5.755  12.577  1.00  0.00     0.074 A 
ATOM     66  C   UNL     1      14.872   6.897  11.916  1.00  0.00     0.031 C 
ATOM     67  C   UNL     1      14.932   4.962  13.463  1.00  0.00     0.037 A 
BRANCH  54  68
ATOM     68  C   UNL     1      11.420   0.450  15.797  1.00  0.00     0.064 A 
ATOM     69  C   UNL     1      11.239  -0.862  15.334  1.00  0.00     0.173 A 
ATOM     70  C   UNL     1      11.533   0.646  17.182  1.00  0.00     0.173 A 
ATOM     71  F   UNL     1      11.109  -1.103  14.020  1.00  0.00    -0.203 F 
ATOM     72  C   UNL     1      11.144  -1.929  16.223  1.00  0.00     0.198 A 
ATOM     73  C   UNL     1      11.474  -0.428  18.066  1.00  0.00     0.198 A 
ATOM     74  F   UNL     1      11.712   1.879  17.679  1.00  0.00    -0.203 F 
ATOM     75  F   UNL     1      10.914  -3.166  15.761  1.00  0.00    -0.200 F 
ATOM     76  C   UNL     1      11.270  -1.713  17.587  1.00  0.00     0.200 A 
ATOM     77  F   UNL     1      11.612  -0.218  19.382  1.00  0.00    -0.200 F 
ATOM     78  F   UNL     1      11.186  -2.742  18.441  1.00  0.00    -0.200 F 
ENDBRANCH  54  68
BRANCH  55  79
ATOM     79  C   UNL     1      11.637   8.214   9.556  1.00  0.00     0.064 A 
ATOM     80  C   UNL     1      12.477   8.245   8.434  1.00  0.00     0.173 A 
ATOM     81  C   UNL     1      10.873   9.359   9.826  1.00  0.00     0.173 A 
ATOM     82  F   UNL     1      13.256   7.190   8.151  1.00  0.00    -0.203 F 
ATOM     83  C   UNL     1      12.567   9.380   7.629  1.00  0.00     0.198 A 
ATOM     84  C   UNL     1      10.938  10.482   9.002  1.00  0.00     0.198 A 
ATOM     85  F   UNL     1      10.062   9.390  10.893  1.00  0.00    -0.203 F 
ATOM     86  F   UNL     1      13.423   9.403   6.599  1.00  0.00    -0.200 F 
ATOM     87  C   UNL     1      11.791  10.495   7.910  1.00  0.00     0.200 A 
ATOM     88  F   UNL     1      10.180  11.553   9.273  1.00  0.00    -0.200 F 
ATOM     89  F   UNL     1      11.878  11.586   7.137  1.00  0.00    -0.200 F 
ENDBRANCH  55  79
BRANCH  67  90
ATOM     90  C   UNL     1      16.381   5.262  13.739  1.00  0.00     0.064 A 
ATOM     91  C   UNL     1      16.782   6.404  14.448  1.00  0.00     0.173 A 
ATOM     92  C   UNL     1      17.380   4.365  13.328  1.00  0.00     0.173 A 
ATOM     93  F   UNL     1      15.872   7.301  14.856  1.00  0.00    -0.203 F 
ATOM     94  C   UNL     1      18.129   6.652  14.707  1.00  0.00     0.198 A 
ATOM     95  C   UNL     1      18.722   4.597  13.620  1.00  0.00     0.198 A 
ATOM     96  F   UNL     1      17.054   3.250  12.656  1.00  0.00    -0.203 F 
ATOM     97  F   UNL     1      18.492   7.776  15.340  1.00  0.00    -0.200 F 
ATOM     98  C   UNL     1      19.096   5.744  14.301  1.00  0.00     0.200 A 
ATOM     99  F   UNL     1      19.651   3.708  13.244  1.00  0.00    -0.200 F 
ATOM    100  F   UNL     1      20.390   5.979  14.561  1.00  0.00    -0.200 F 
ENDBRANCH  67  90
ENDBRANCH  41  42
ENDBRANCH  34  36
ENDBRANCH  33  34
ENDBRANCH  32  33
ENDBRANCH  31  32
ENDBRANCH  30  31
ENDBRANCH  29  30
ENDBRANCH  28  29
ENDBRANCH  27  28
ENDBRANCH   1  27
TORSDOF 23
