REMARK SMILES Cc1ncc(CO)c([C@H]2[NH2+][C@@H](C(=O)OCCOCCOCCOC(=O)c3ccc(-c4c5nc(c(-c6c(F)c(F)c(F)c(F)c6F)c6ccc([nH]6)c(-c6c(F)c(F)c(F)c(F)c6F)c6nc(c(-c7c(F)c(F)c(F)c(F)c7F)c7ccc4[nH]7)C=C6)C=C5)cc3)Cc3[nH]cnc32)c1O
REMARK SMILES IDX 18 1 17 2 16 3 15 4 14 5 12 6 13 7 11 8 9 9 10 10 94 11
REMARK SMILES IDX 90 14 93 15 89 16 91 17 92 18 8 20 1 21 2 22 3 23 95 24 4 25
REMARK SMILES IDX 5 26 96 27 6 29 7 30 19 32 20 33 21 34 22 35 23 36 24 37
REMARK SMILES IDX 25 38 26 39 27 40 88 41 28 42 87 43 29 44 30 45 31 46 81 47
REMARK SMILES IDX 32 48 86 49 80 50 82 51 33 52 85 53 79 54 78 55 34 57 66 58
REMARK SMILES IDX 46 59 65 60 47 61 50 62 64 63 83 64 48 65 49 66 63 68 84 69
REMARK SMILES IDX 51 70 35 71 36 72 44 73 37 74 38 75 42 76 45 77 39 78 40 79
REMARK SMILES IDX 43 80 41 81 67 82 68 83 76 84 69 85 70 86 74 87 77 88 71 89
REMARK SMILES IDX 72 90 75 91 73 92 52 93 53 94 61 95 54 96 55 97 59 98 62 99
REMARK SMILES IDX 56 100 57 101 60 102 58 103
REMARK H PARENT 10 12 10 13 91 19 96 28 7 31 82 56 50 67
REMARK Flexibility Score: inf
ROOT
ATOM      1  C   UNL     1      -2.860   1.617   3.577  1.00  0.00     0.188 C 
ENDROOT
BRANCH   1   2
ATOM      2  O   UNL     1      -3.587   2.090   4.703  1.00  0.00    -0.376 OA
BRANCH   2   3
ATOM      3  C   UNL     1      -4.653   3.003   4.505  1.00  0.00     0.202 C 
BRANCH   3   4
ATOM      4  C   UNL     1      -4.317   4.362   3.882  1.00  0.00     0.261 C 
BRANCH   4   5
ATOM      5  O   UNL     1      -3.590   4.276   2.644  1.00  0.00    -0.459 OA
BRANCH   5   6
ATOM      6  C   UNL     1      -2.383   4.920   2.586  1.00  0.00     0.365 C 
ATOM      7  O   UNL     1      -1.886   5.559   3.503  1.00  0.00    -0.245 OA
BRANCH   6   8
ATOM      8  C   UNL     1      -1.743   4.714   1.204  1.00  0.00     0.300 C 
ATOM      9  C   UNL     1      -0.444   3.206  -0.201  1.00  0.00     0.270 C 
ATOM     10  N   UNL     1      -0.862   3.496   1.194  1.00  0.00    -0.323 N 
ATOM     11  C   UNL     1       0.319   4.386  -0.715  1.00  0.00     0.124 A 
ATOM     12  H   UNL     1      -0.036   3.668   1.768  1.00  0.00     0.347 HD
ATOM     13  H   UNL     1      -1.375   2.699   1.571  1.00  0.00     0.347 HD
ATOM     14  C   UNL     1       0.019   5.664  -0.278  1.00  0.00     0.051 A 
ATOM     15  N   UNL     1       1.260   4.438  -1.708  1.00  0.00    -0.235 NA
ATOM     16  C   UNL     1      -0.976   6.004   0.780  1.00  0.00     0.133 C 
ATOM     17  N   UNL     1       0.835   6.503  -0.972  1.00  0.00    -0.348 N 
ATOM     18  C   UNL     1       1.570   5.715  -1.819  1.00  0.00     0.197 A 
ATOM     19  H   UNL     1       0.886   7.482  -0.883  1.00  0.00     0.167 HD
BRANCH   9  20
ATOM     20  C   UNL     1       0.232   1.852  -0.315  1.00  0.00     0.066 A 
ATOM     21  C   UNL     1      -1.016  -1.730  -0.950  1.00  0.00     0.071 C 
ATOM     22  C   UNL     1      -0.130  -0.564  -0.621  1.00  0.00     0.079 A 
ATOM     23  N   UNL     1       1.176  -0.837  -0.439  1.00  0.00    -0.257 NA
ATOM     24  C   UNL     1      -0.618   0.744  -0.573  1.00  0.00     0.146 A 
ATOM     25  C   UNL     1       1.988   0.211  -0.170  1.00  0.00     0.118 A 
ATOM     26  C   UNL     1       1.586   1.552  -0.059  1.00  0.00     0.009 A 
BRANCH  24  27
ATOM     27  O   UNL     1      -1.972   0.930  -0.716  1.00  0.00    -0.505 OA
ATOM     28  H   UNL     1      -2.530   0.197  -0.886  1.00  0.00     0.293 HD
ENDBRANCH  24  27
BRANCH  26  29
ATOM     29  C   UNL     1       2.651   2.558   0.283  1.00  0.00     0.194 C 
BRANCH  29  30
ATOM     30  O   UNL     1       3.504   2.048   1.310  1.00  0.00    -0.392 OA
ATOM     31  H   UNL     1       2.979   1.867   2.106  1.00  0.00     0.211 HD
ENDBRANCH  29  30
ENDBRANCH  26  29
ENDBRANCH   9  20
ENDBRANCH   6   8
ENDBRANCH   5   6
ENDBRANCH   4   5
ENDBRANCH   3   4
ENDBRANCH   2   3
ENDBRANCH   1   2
BRANCH   1  32
ATOM     32  C   UNL     1      -3.560   1.360   2.220  1.00  0.00     0.188 C 
BRANCH  32  33
ATOM     33  O   UNL     1      -4.978   1.279   2.264  1.00  0.00    -0.376 OA
BRANCH  33  34
ATOM     34  C   UNL     1      -5.525   0.037   1.838  1.00  0.00     0.202 C 
BRANCH  34  35
ATOM     35  C   UNL     1      -5.590  -0.956   2.995  1.00  0.00     0.261 C 
BRANCH  35  36
ATOM     36  O   UNL     1      -4.316  -1.222   3.582  1.00  0.00    -0.460 OA
BRANCH  36  37
ATOM     37  C   UNL     1      -3.421  -1.829   2.777  1.00  0.00     0.338 C 
ATOM     38  O   UNL     1      -3.568  -2.118   1.602  1.00  0.00    -0.246 OA
BRANCH  37  39
ATOM     39  C   UNL     1      -2.219  -2.165   3.552  1.00  0.00     0.060 A 
ATOM     40  C   UNL     1      -1.082  -2.543   2.835  1.00  0.00     0.016 A 
ATOM     41  C   UNL     1      -2.308  -2.352   4.936  1.00  0.00     0.016 A 
ATOM     42  C   UNL     1      -0.136  -3.335   3.451  1.00  0.00     0.010 A 
ATOM     43  C   UNL     1      -1.365  -3.144   5.557  1.00  0.00     0.010 A 
ATOM     44  C   UNL     1      -0.360  -3.721   4.773  1.00  0.00    -0.014 A 
BRANCH  44  45
ATOM     45  C   UNL     1       0.296  -4.934   5.234  1.00  0.00     0.031 A 
ATOM     46  C   UNL     1       1.651  -4.829   5.813  1.00  0.00     0.074 A 
ATOM     47  C   UNL     1      -0.400  -6.090   5.251  1.00  0.00     0.049 A 
ATOM     48  N   UNL     1       2.682  -5.570   5.557  1.00  0.00    -0.248 NA
ATOM     49  C   UNL     1       1.894  -3.771   6.802  1.00  0.00     0.031 C 
ATOM     50  C   UNL     1      -1.829  -6.272   4.967  1.00  0.00     0.029 A 
ATOM     51  N   UNL     1      -0.005  -7.328   5.664  1.00  0.00    -0.354 N 
ATOM     52  C   UNL     1       3.668  -5.168   6.448  1.00  0.00     0.074 A 
ATOM     53  C   UNL     1       3.157  -4.015   7.147  1.00  0.00     0.031 C 
ATOM     54  C   UNL     1      -2.221  -7.476   5.433  1.00  0.00     0.029 A 
ATOM     55  C   UNL     1      -1.060  -8.179   5.951  1.00  0.00     0.049 A 
ATOM     56  H   UNL     1       0.940  -7.591   5.750  1.00  0.00     0.167 HD
ATOM     57  C   UNL     1       4.784  -5.907   6.682  1.00  0.00     0.037 A 
ATOM     58  C   UNL     1      -1.003  -9.338   6.649  1.00  0.00     0.037 A 
ATOM     59  C   UNL     1       5.068  -6.839   5.629  1.00  0.00     0.049 A 
ATOM     60  C   UNL     1       0.408  -9.791   6.672  1.00  0.00     0.074 A 
ATOM     61  C   UNL     1       5.321  -6.711   4.276  1.00  0.00     0.029 A 
ATOM     62  N   UNL     1       4.843  -8.176   5.834  1.00  0.00    -0.354 N 
ATOM     63  N   UNL     1       1.046 -10.282   5.646  1.00  0.00    -0.248 NA
ATOM     64  C   UNL     1       1.249  -9.348   7.775  1.00  0.00     0.031 C 
ATOM     65  C   UNL     1       4.774  -7.881   3.676  1.00  0.00     0.029 A 
ATOM     66  C   UNL     1       4.224  -8.647   4.703  1.00  0.00     0.049 A 
ATOM     67  H   UNL     1       5.079  -8.696   6.636  1.00  0.00     0.167 HD
ATOM     68  C   UNL     1       2.350  -9.834   5.797  1.00  0.00     0.074 A 
ATOM     69  C   UNL     1       2.441  -9.374   7.177  1.00  0.00     0.031 C 
ATOM     70  C   UNL     1       3.150  -9.609   4.715  1.00  0.00     0.037 A 
BRANCH  57  71
ATOM     71  C   UNL     1       5.476  -5.936   8.009  1.00  0.00     0.064 A 
ATOM     72  C   UNL     1       6.810  -6.364   8.109  1.00  0.00     0.173 A 
ATOM     73  C   UNL     1       4.776  -5.787   9.226  1.00  0.00     0.173 A 
ATOM     74  F   UNL     1       7.538  -6.588   7.005  1.00  0.00    -0.203 F 
ATOM     75  C   UNL     1       7.398  -6.638   9.346  1.00  0.00     0.198 A 
ATOM     76  C   UNL     1       5.380  -6.012  10.460  1.00  0.00     0.198 A 
ATOM     77  F   UNL     1       3.463  -5.515   9.248  1.00  0.00    -0.203 F 
ATOM     78  F   UNL     1       8.643  -7.130   9.396  1.00  0.00    -0.200 F 
ATOM     79  C   UNL     1       6.685  -6.456  10.519  1.00  0.00     0.200 A 
ATOM     80  F   UNL     1       4.667  -5.856  11.584  1.00  0.00    -0.200 F 
ATOM     81  F   UNL     1       7.238  -6.753  11.703  1.00  0.00    -0.200 F 
ENDBRANCH  57  71
BRANCH  58  82
ATOM     82  C   UNL     1      -2.061  -9.958   7.480  1.00  0.00     0.064 A 
ATOM     83  C   UNL     1      -1.991 -11.308   7.855  1.00  0.00     0.173 A 
ATOM     84  C   UNL     1      -3.059  -9.187   8.111  1.00  0.00     0.173 A 
ATOM     85  F   UNL     1      -1.034 -12.101   7.351  1.00  0.00    -0.203 F 
ATOM     86  C   UNL     1      -2.867 -11.854   8.799  1.00  0.00     0.198 A 
ATOM     87  C   UNL     1      -3.947  -9.737   9.035  1.00  0.00     0.198 A 
ATOM     88  F   UNL     1      -3.142  -7.864   7.912  1.00  0.00    -0.203 F 
ATOM     89  F   UNL     1      -2.733 -13.134   9.172  1.00  0.00    -0.200 F 
ATOM     90  C   UNL     1      -3.845 -11.069   9.387  1.00  0.00     0.200 A 
ATOM     91  F   UNL     1      -4.866  -8.955   9.620  1.00  0.00    -0.200 F 
ATOM     92  F   UNL     1      -4.660 -11.582  10.318  1.00  0.00    -0.200 F 
ENDBRANCH  58  82
BRANCH  70  93
ATOM     93  C   UNL     1       2.698 -10.142   3.387  1.00  0.00     0.064 A 
ATOM     94  C   UNL     1       1.527  -9.712   2.740  1.00  0.00     0.173 A 
ATOM     95  C   UNL     1       3.548 -11.005   2.682  1.00  0.00     0.173 A 
ATOM     96  F   UNL     1       0.722  -8.802   3.306  1.00  0.00    -0.203 F 
ATOM     97  C   UNL     1       1.196 -10.172   1.468  1.00  0.00     0.198 A 
ATOM     98  C   UNL     1       3.232 -11.435   1.395  1.00  0.00     0.198 A 
ATOM     99  F   UNL     1       4.711 -11.398   3.225  1.00  0.00    -0.203 F 
ATOM    100  F   UNL     1       0.063  -9.761   0.878  1.00  0.00    -0.200 F 
ATOM    101  C   UNL     1       2.051 -11.028   0.794  1.00  0.00     0.200 A 
ATOM    102  F   UNL     1       4.085 -12.224   0.727  1.00  0.00    -0.200 F 
ATOM    103  F   UNL     1       1.750 -11.442  -0.445  1.00  0.00    -0.200 F 
ENDBRANCH  70  93
ENDBRANCH  44  45
ENDBRANCH  37  39
ENDBRANCH  36  37
ENDBRANCH  35  36
ENDBRANCH  34  35
ENDBRANCH  33  34
ENDBRANCH  32  33
ENDBRANCH   1  32
TORSDOF 21
