REMARK SMILES CCCC1(C(=O)N2CCO[C@@H](CC(=O)OCCOCCOCCOC(=O)c3ccc(-c4c5nc(c(-c6c(F)c(F)c(F)c(F)c6F)c6ccc([nH]6)c(-c6c(F)c(F)c(F)c(F)c6F)c6nc(c(-c7c(F)c(F)c(F)c(F)c7F)c7ccc4[nH]7)C=C6)C=C5)cc3)C2)CC[NH2+]CC1
REMARK SMILES IDX 18 1 17 2 16 3 15 4 13 5 14 6 12 7 11 8 7 9 8 10 90 11 9 12
REMARK SMILES IDX 10 13 5 14 6 15 4 16 91 17 95 18 92 19 94 20 93 21 3 24 2 25
REMARK SMILES IDX 1 26 19 27 20 28 21 29 22 30 23 31 24 32 25 33 26 34 27 35
REMARK SMILES IDX 28 36 89 37 29 38 88 39 30 40 31 41 32 42 82 43 33 44 87 45
REMARK SMILES IDX 81 46 83 47 34 48 86 49 80 50 79 51 35 53 67 54 47 55 66 56
REMARK SMILES IDX 48 57 51 58 65 59 84 60 49 61 50 62 64 64 85 65 52 66 36 67
REMARK SMILES IDX 37 68 45 69 38 70 39 71 43 72 46 73 40 74 41 75 44 76 42 77
REMARK SMILES IDX 68 78 69 79 77 80 70 81 71 82 75 83 78 84 72 85 73 86 76 87
REMARK SMILES IDX 74 88 53 89 54 90 62 91 55 92 56 93 60 94 63 95 57 96 58 97
REMARK SMILES IDX 61 98 59 99
REMARK H PARENT 93 22 93 23 83 52 51 63
REMARK Flexibility Score: inf
ROOT
ATOM      1  O   UNL     1      -4.087  -0.695   2.626  1.00  0.00    -0.376 OA
ENDROOT
BRANCH   1   2
ATOM      2  C   UNL     1      -3.117  -0.653   3.658  1.00  0.00     0.202 C 
BRANCH   2   3
ATOM      3  C   UNL     1      -2.086  -1.750   3.991  1.00  0.00     0.261 C 
BRANCH   3   4
ATOM      4  O   UNL     1      -1.911  -2.846   3.083  1.00  0.00    -0.463 OA
BRANCH   4   5
ATOM      5  C   UNL     1      -2.214  -4.074   3.561  1.00  0.00     0.308 C 
ATOM      6  O   UNL     1      -2.779  -4.273   4.631  1.00  0.00    -0.252 OA
BRANCH   5   7
ATOM      7  C   UNL     1      -1.759  -5.221   2.691  1.00  0.00     0.156 C 
BRANCH   7   8
ATOM      8  C   UNL     1      -1.264  -5.020   1.257  1.00  0.00     0.148 C 
ATOM      9  N   UNL     1       0.426  -4.085  -0.314  1.00  0.00    -0.337 N 
ATOM     10  C   UNL     1       0.773  -5.452  -0.699  1.00  0.00     0.148 C 
ATOM     11  C   UNL     1      -0.068  -4.051   1.075  1.00  0.00     0.152 C 
ATOM     12  C   UNL     1      -0.447  -6.353  -0.558  1.00  0.00     0.182 C 
ATOM     13  O   UNL     1      -0.902  -6.356   0.803  1.00  0.00    -0.374 OA
BRANCH   9  14
ATOM     14  C   UNL     1       1.220  -3.024  -0.742  1.00  0.00     0.229 C 
ATOM     15  O   UNL     1       2.092  -2.587   0.011  1.00  0.00    -0.274 OA
BRANCH  14  16
ATOM     16  C   UNL     1       0.985  -2.424  -2.175  1.00  0.00     0.060 C 
ATOM     17  C   UNL     1       1.497  -3.421  -3.252  1.00  0.00     0.078 C 
ATOM     18  C   UNL     1      -0.518  -2.199  -2.469  1.00  0.00     0.078 C 
ATOM     19  C   UNL     1       1.185  -3.014  -4.692  1.00  0.00     0.261 C 
ATOM     20  C   UNL     1      -0.780  -1.821  -3.934  1.00  0.00     0.261 C 
ATOM     21  N   UNL     1      -0.251  -2.821  -4.861  1.00  0.00    -0.346 N 
ATOM     22  H   UNL     1      -0.725  -3.709  -4.693  1.00  0.00     0.346 HD
ATOM     23  H   UNL     1      -0.416  -2.490  -5.811  1.00  0.00     0.346 HD
BRANCH  16  24
ATOM     24  C   UNL     1       1.815  -1.091  -2.324  1.00  0.00     0.017 C 
BRANCH  24  25
ATOM     25  C   UNL     1       1.318   0.200  -1.650  1.00  0.00    -0.002 C 
ATOM     26  C   UNL     1       1.630   0.324  -0.169  1.00  0.00     0.004 C 
ENDBRANCH  24  25
ENDBRANCH  16  24
ENDBRANCH  14  16
ENDBRANCH   9  14
ENDBRANCH   7   8
ENDBRANCH   5   7
ENDBRANCH   4   5
ENDBRANCH   3   4
ENDBRANCH   2   3
ENDBRANCH   1   2
BRANCH   1  27
ATOM     27  C   UNL     1      -4.144  -1.777   1.733  1.00  0.00     0.188 C 
BRANCH  27  28
ATOM     28  C   UNL     1      -3.048  -1.853   0.663  1.00  0.00     0.188 C 
BRANCH  28  29
ATOM     29  O   UNL     1      -1.973  -0.931   0.675  1.00  0.00    -0.376 OA
BRANCH  29  30
ATOM     30  C   UNL     1      -2.284   0.443   0.466  1.00  0.00     0.202 C 
BRANCH  30  31
ATOM     31  C   UNL     1      -2.963   0.819  -0.855  1.00  0.00     0.261 C 
BRANCH  31  32
ATOM     32  O   UNL     1      -4.250   0.190  -0.992  1.00  0.00    -0.460 OA
BRANCH  32  33
ATOM     33  C   UNL     1      -4.431  -0.503  -2.143  1.00  0.00     0.338 C 
ATOM     34  O   UNL     1      -3.699  -0.541  -3.114  1.00  0.00    -0.246 OA
BRANCH  33  35
ATOM     35  C   UNL     1      -5.601  -1.383  -1.992  1.00  0.00     0.060 A 
ATOM     36  C   UNL     1      -5.407  -2.773  -1.946  1.00  0.00     0.016 A 
ATOM     37  C   UNL     1      -6.882  -0.838  -1.964  1.00  0.00     0.016 A 
ATOM     38  C   UNL     1      -6.505  -3.628  -1.876  1.00  0.00     0.010 A 
ATOM     39  C   UNL     1      -7.980  -1.695  -1.929  1.00  0.00     0.010 A 
ATOM     40  C   UNL     1      -7.797  -3.090  -1.910  1.00  0.00    -0.014 A 
BRANCH  40  41
ATOM     41  C   UNL     1      -8.967  -3.968  -2.125  1.00  0.00     0.031 A 
ATOM     42  C   UNL     1      -9.467  -4.147  -3.530  1.00  0.00     0.074 A 
ATOM     43  C   UNL     1      -9.596  -4.551  -1.091  1.00  0.00     0.049 A 
ATOM     44  N   UNL     1     -10.564  -4.713  -3.958  1.00  0.00    -0.248 NA
ATOM     45  C   UNL     1      -8.612  -3.601  -4.598  1.00  0.00     0.031 C 
ATOM     46  C   UNL     1      -9.166  -4.487   0.304  1.00  0.00     0.029 A 
ATOM     47  N   UNL     1     -10.751  -5.290  -1.057  1.00  0.00    -0.354 N 
ATOM     48  C   UNL     1     -10.542  -4.574  -5.339  1.00  0.00     0.074 A 
ATOM     49  C   UNL     1      -9.332  -3.861  -5.679  1.00  0.00     0.031 C 
ATOM     50  C   UNL     1     -10.066  -5.133   1.065  1.00  0.00     0.029 A 
ATOM     51  C   UNL     1     -11.153  -5.615   0.214  1.00  0.00     0.049 A 
ATOM     52  H   UNL     1     -11.243  -5.560  -1.866  1.00  0.00     0.167 HD
ATOM     53  C   UNL     1     -11.457  -5.003  -6.240  1.00  0.00     0.037 A 
ATOM     54  C   UNL     1     -12.291  -6.199   0.637  1.00  0.00     0.037 A 
ATOM     55  C   UNL     1     -12.659  -5.709  -5.887  1.00  0.00     0.049 A 
ATOM     56  C   UNL     1     -13.329  -6.602  -0.381  1.00  0.00     0.074 A 
ATOM     57  C   UNL     1     -13.649  -6.198  -6.720  1.00  0.00     0.029 A 
ATOM     58  N   UNL     1     -13.036  -6.019  -4.588  1.00  0.00    -0.354 N 
ATOM     59  N   UNL     1     -13.303  -6.479  -1.687  1.00  0.00    -0.248 NA
ATOM     60  C   UNL     1     -14.557  -7.223   0.134  1.00  0.00     0.031 C 
ATOM     61  C   UNL     1     -14.650  -6.762  -5.921  1.00  0.00     0.029 A 
ATOM     62  C   UNL     1     -14.255  -6.675  -4.595  1.00  0.00     0.049 A 
ATOM     63  H   UNL     1     -12.514  -5.804  -3.782  1.00  0.00     0.167 HD
ATOM     64  C   UNL     1     -14.488  -7.037  -2.149  1.00  0.00     0.074 A 
ATOM     65  C   UNL     1     -15.208  -7.507  -0.985  1.00  0.00     0.031 C 
ATOM     66  C   UNL     1     -14.943  -7.151  -3.422  1.00  0.00     0.037 A 
BRANCH  53  67
ATOM     67  C   UNL     1     -11.210  -4.690  -7.686  1.00  0.00     0.064 A 
ATOM     68  C   UNL     1     -10.202  -5.334  -8.419  1.00  0.00     0.173 A 
ATOM     69  C   UNL     1     -12.016  -3.757  -8.356  1.00  0.00     0.173 A 
ATOM     70  F   UNL     1      -9.392  -6.219  -7.820  1.00  0.00    -0.203 F 
ATOM     71  C   UNL     1      -9.999  -5.041  -9.766  1.00  0.00     0.198 A 
ATOM     72  C   UNL     1     -11.829  -3.489  -9.709  1.00  0.00     0.198 A 
ATOM     73  F   UNL     1     -12.992  -3.113  -7.700  1.00  0.00    -0.203 F 
ATOM     74  F   UNL     1      -9.004  -5.637 -10.436  1.00  0.00    -0.200 F 
ATOM     75  C   UNL     1     -10.818  -4.126 -10.411  1.00  0.00     0.200 A 
ATOM     76  F   UNL     1     -12.627  -2.611 -10.333  1.00  0.00    -0.200 F 
ATOM     77  F   UNL     1     -10.628  -3.854 -11.709  1.00  0.00    -0.200 F 
ENDBRANCH  53  67
BRANCH  54  78
ATOM     78  C   UNL     1     -12.530  -6.414   2.089  1.00  0.00     0.064 A 
ATOM     79  C   UNL     1     -12.591  -7.707   2.627  1.00  0.00     0.173 A 
ATOM     80  C   UNL     1     -12.738  -5.336   2.962  1.00  0.00     0.173 A 
ATOM     81  F   UNL     1     -12.428  -8.772   1.828  1.00  0.00    -0.203 F 
ATOM     82  C   UNL     1     -12.874  -7.915   3.975  1.00  0.00     0.198 A 
ATOM     83  C   UNL     1     -12.990  -5.543   4.317  1.00  0.00     0.198 A 
ATOM     84  F   UNL     1     -12.695  -4.078   2.500  1.00  0.00    -0.203 F 
ATOM     85  F   UNL     1     -12.983  -9.163   4.450  1.00  0.00    -0.200 F 
ATOM     86  C   UNL     1     -13.069  -6.833   4.821  1.00  0.00     0.200 A 
ATOM     87  F   UNL     1     -13.168  -4.494   5.132  1.00  0.00    -0.200 F 
ATOM     88  F   UNL     1     -13.344  -7.033   6.117  1.00  0.00    -0.200 F 
ENDBRANCH  54  78
BRANCH  66  89
ATOM     89  C   UNL     1     -16.251  -7.859  -3.627  1.00  0.00     0.064 A 
ATOM     90  C   UNL     1     -17.473  -7.273  -3.268  1.00  0.00     0.173 A 
ATOM     91  C   UNL     1     -16.281  -9.122  -4.239  1.00  0.00     0.173 A 
ATOM     92  F   UNL     1     -17.496  -6.073  -2.668  1.00  0.00    -0.203 F 
ATOM     93  C   UNL     1     -18.676  -7.937  -3.490  1.00  0.00     0.198 A 
ATOM     94  C   UNL     1     -17.487  -9.769  -4.488  1.00  0.00     0.198 A 
ATOM     95  F   UNL     1     -15.139  -9.721  -4.610  1.00  0.00    -0.203 F 
ATOM     96  F   UNL     1     -19.829  -7.380  -3.096  1.00  0.00    -0.200 F 
ATOM     97  C   UNL     1     -18.683  -9.180  -4.107  1.00  0.00     0.200 A 
ATOM     98  F   UNL     1     -17.492 -10.961  -5.099  1.00  0.00    -0.200 F 
ATOM     99  F   UNL     1     -19.843  -9.813  -4.329  1.00  0.00    -0.200 F 
ENDBRANCH  66  89
ENDBRANCH  40  41
ENDBRANCH  33  35
ENDBRANCH  32  33
ENDBRANCH  31  32
ENDBRANCH  30  31
ENDBRANCH  29  30
ENDBRANCH  28  29
ENDBRANCH  27  28
ENDBRANCH   1  27
TORSDOF 22
