REMARK SMILES Cn1nc(N2CCC(CC(=O)OCCOCCOCCOC(=O)c3ccc(-c4c5nc(c(-c6c(F)c(F)c(F)c(F)c6F)c6ccc([nH]6)c(-c6c(F)c(F)c(F)c(F)c6F)c6nc(c(-c7c(F)c(F)c(F)c(F)c7F)c7ccc4[nH]7)C=C6)C=C5)cc3)CC2)c(=O)n(C)c1=O
REMARK SMILES IDX 16 1 15 2 14 3 13 4 12 5 10 6 11 7 9 8 8 9 5 10 6 11 88 12
REMARK SMILES IDX 7 13 87 14 4 15 1 16 2 17 3 18 93 19 91 20 94 21 89 22 92 23
REMARK SMILES IDX 90 24 17 25 18 26 19 27 20 28 21 29 22 30 23 31 24 32 25 33
REMARK SMILES IDX 86 34 26 35 85 36 27 37 28 38 29 39 79 40 30 41 84 42 78 43
REMARK SMILES IDX 80 44 31 45 83 46 77 47 76 48 32 50 64 51 44 52 63 53 45 54
REMARK SMILES IDX 48 55 62 56 81 57 46 58 47 59 61 61 82 62 49 63 33 64 34 65
REMARK SMILES IDX 42 66 35 67 36 68 40 69 43 70 37 71 38 72 41 73 39 74 65 75
REMARK SMILES IDX 66 76 74 77 67 78 68 79 72 80 75 81 69 82 70 83 73 84 71 85
REMARK SMILES IDX 50 86 51 87 59 88 52 89 53 90 57 91 60 92 54 93 55 94 58 95
REMARK SMILES IDX 56 96
REMARK H PARENT 80 49 48 60
REMARK Flexibility Score: inf
ROOT
ATOM      1  C   UNL     1      -5.281  -0.378   8.105  1.00  0.00     0.188 C 
ENDROOT
BRANCH   1   2
ATOM      2  O   UNL     1      -5.205  -1.653   8.733  1.00  0.00    -0.376 OA
BRANCH   2   3
ATOM      3  C   UNL     1      -3.991  -2.381   8.544  1.00  0.00     0.202 C 
BRANCH   3   4
ATOM      4  C   UNL     1      -3.664  -2.778   7.097  1.00  0.00     0.261 C 
BRANCH   4   5
ATOM      5  O   UNL     1      -3.605  -1.658   6.187  1.00  0.00    -0.463 OA
BRANCH   5   6
ATOM      6  C   UNL     1      -4.411  -1.730   5.097  1.00  0.00     0.306 C 
ATOM      7  O   UNL     1      -5.121  -2.691   4.820  1.00  0.00    -0.252 OA
BRANCH   6   8
ATOM      8  C   UNL     1      -4.464  -0.459   4.265  1.00  0.00     0.126 C 
BRANCH   8   9
ATOM      9  C   UNL     1      -3.463   0.688   4.491  1.00  0.00     0.003 C 
ATOM     10  N   UNL     1      -1.343   2.345   3.410  1.00  0.00    -0.351 N 
ATOM     11  C   UNL     1      -1.051   1.418   4.493  1.00  0.00     0.118 C 
ATOM     12  C   UNL     1      -2.681   2.920   3.438  1.00  0.00     0.118 C 
ATOM     13  C   UNL     1      -1.999   0.228   4.422  1.00  0.00     0.026 C 
ATOM     14  C   UNL     1      -3.718   1.788   3.422  1.00  0.00     0.026 C 
BRANCH  10  15
ATOM     15  C   UNL     1      -0.555   2.366   2.265  1.00  0.00     0.215 A 
ATOM     16  C   UNL     1       1.037   0.017   0.063  1.00  0.00     0.180 C 
ATOM     17  N   UNL     1       0.676   1.299   0.638  1.00  0.00    -0.216 N 
ATOM     18  N   UNL     1      -0.120   1.253   1.745  1.00  0.00    -0.145 NA
ATOM     19  C   UNL     1       1.173   2.459   0.054  1.00  0.00     0.346 A 
ATOM     20  N   UNL     1       0.768   3.649   0.621  1.00  0.00    -0.259 N 
ATOM     21  O   UNL     1       1.924   2.417  -0.924  1.00  0.00    -0.246 OA
ATOM     22  C   UNL     1      -0.152   3.713   1.648  1.00  0.00     0.299 A 
ATOM     23  C   UNL     1       1.283   4.901   0.106  1.00  0.00     0.159 C 
ATOM     24  O   UNL     1      -0.624   4.752   2.100  1.00  0.00    -0.265 OA
ENDBRANCH  10  15
ENDBRANCH   8   9
ENDBRANCH   6   8
ENDBRANCH   5   6
ENDBRANCH   4   5
ENDBRANCH   3   4
ENDBRANCH   2   3
ENDBRANCH   1   2
BRANCH   1  25
ATOM     25  C   UNL     1      -4.215   0.634   8.524  1.00  0.00     0.188 C 
BRANCH  25  26
ATOM     26  O   UNL     1      -2.869   0.185   8.490  1.00  0.00    -0.376 OA
BRANCH  26  27
ATOM     27  C   UNL     1      -1.881   1.099   8.977  1.00  0.00     0.202 C 
BRANCH  27  28
ATOM     28  C   UNL     1      -2.129   1.772  10.348  1.00  0.00     0.261 C 
BRANCH  28  29
ATOM     29  O   UNL     1      -3.347   2.539  10.482  1.00  0.00    -0.460 OA
BRANCH  29  30
ATOM     30  C   UNL     1      -3.624   3.472   9.542  1.00  0.00     0.338 C 
ATOM     31  O   UNL     1      -2.849   3.913   8.711  1.00  0.00    -0.246 OA
BRANCH  30  32
ATOM     32  C   UNL     1      -5.104   3.658   9.484  1.00  0.00     0.060 A 
ATOM     33  C   UNL     1      -5.699   3.790   8.219  1.00  0.00     0.016 A 
ATOM     34  C   UNL     1      -5.914   3.613  10.623  1.00  0.00     0.016 A 
ATOM     35  C   UNL     1      -7.087   3.907   8.094  1.00  0.00     0.010 A 
ATOM     36  C   UNL     1      -7.305   3.755  10.499  1.00  0.00     0.010 A 
ATOM     37  C   UNL     1      -7.897   3.933   9.236  1.00  0.00    -0.014 A 
BRANCH  37  38
ATOM     38  C   UNL     1      -9.310   4.385   9.122  1.00  0.00     0.031 A 
ATOM     39  C   UNL     1      -9.600   5.846   9.343  1.00  0.00     0.074 A 
ATOM     40  C   UNL     1     -10.312   3.556   8.773  1.00  0.00     0.049 A 
ATOM     41  N   UNL     1     -10.742   6.486   9.315  1.00  0.00    -0.248 NA
ATOM     42  C   UNL     1      -8.437   6.705   9.624  1.00  0.00     0.031 C 
ATOM     43  C   UNL     1     -10.171   2.138   8.457  1.00  0.00     0.029 A 
ATOM     44  N   UNL     1     -11.658   3.802   8.618  1.00  0.00    -0.354 N 
ATOM     45  C   UNL     1     -10.432   7.817   9.562  1.00  0.00     0.074 A 
ATOM     46  C   UNL     1      -9.004   7.891   9.778  1.00  0.00     0.031 C 
ATOM     47  C   UNL     1     -11.380   1.638   8.143  1.00  0.00     0.029 A 
ATOM     48  C   UNL     1     -12.389   2.692   8.266  1.00  0.00     0.049 A 
ATOM     49  H   UNL     1     -12.060   4.691   8.748  1.00  0.00     0.167 HD
ATOM     50  C   UNL     1     -11.258   8.889   9.588  1.00  0.00     0.037 A 
ATOM     51  C   UNL     1     -13.717   2.544   8.080  1.00  0.00     0.037 A 
ATOM     52  C   UNL     1     -12.680   8.828   9.387  1.00  0.00     0.049 A 
ATOM     53  C   UNL     1     -14.635   3.733   8.248  1.00  0.00     0.074 A 
ATOM     54  C   UNL     1     -13.598   9.863   9.422  1.00  0.00     0.029 A 
ATOM     55  N   UNL     1     -13.390   7.670   9.116  1.00  0.00    -0.354 N 
ATOM     56  N   UNL     1     -14.336   4.987   8.486  1.00  0.00    -0.248 NA
ATOM     57  C   UNL     1     -16.081   3.482   8.124  1.00  0.00     0.031 C 
ATOM     58  C   UNL     1     -14.871   9.323   9.221  1.00  0.00     0.029 A 
ATOM     59  C   UNL     1     -14.740   7.962   9.005  1.00  0.00     0.049 A 
ATOM     60  H   UNL     1     -12.995   6.773   9.018  1.00  0.00     0.167 HD
ATOM     61  C   UNL     1     -15.544   5.674   8.508  1.00  0.00     0.074 A 
ATOM     62  C   UNL     1     -16.584   4.703   8.247  1.00  0.00     0.031 C 
ATOM     63  C   UNL     1     -15.769   6.993   8.727  1.00  0.00     0.037 A 
BRANCH  50  64
ATOM     64  C   UNL     1     -10.643  10.231   9.853  1.00  0.00     0.064 A 
ATOM     65  C   UNL     1      -9.860  10.879   8.886  1.00  0.00     0.173 A 
ATOM     66  C   UNL     1     -10.889  10.903  11.059  1.00  0.00     0.173 A 
ATOM     67  F   UNL     1      -9.582  10.269   7.723  1.00  0.00    -0.203 F 
ATOM     68  C   UNL     1      -9.336  12.147   9.122  1.00  0.00     0.198 A 
ATOM     69  C   UNL     1     -10.388  12.182  11.280  1.00  0.00     0.198 A 
ATOM     70  F   UNL     1     -11.632  10.326  12.016  1.00  0.00    -0.203 F 
ATOM     71  F   UNL     1      -8.562  12.732   8.198  1.00  0.00    -0.200 F 
ATOM     72  C   UNL     1      -9.610  12.801  10.313  1.00  0.00     0.200 A 
ATOM     73  F   UNL     1     -10.664  12.819  12.427  1.00  0.00    -0.200 F 
ATOM     74  F   UNL     1      -9.120  14.029  10.532  1.00  0.00    -0.200 F 
ENDBRANCH  50  64
BRANCH  51  75
ATOM     75  C   UNL     1     -14.280   1.216   7.712  1.00  0.00     0.064 A 
ATOM     76  C   UNL     1     -14.878   1.008   6.460  1.00  0.00     0.173 A 
ATOM     77  C   UNL     1     -14.268   0.140   8.611  1.00  0.00     0.173 A 
ATOM     78  F   UNL     1     -14.950   2.015   5.577  1.00  0.00    -0.203 F 
ATOM     79  C   UNL     1     -15.450  -0.219   6.127  1.00  0.00     0.198 A 
ATOM     80  C   UNL     1     -14.814  -1.096   8.267  1.00  0.00     0.198 A 
ATOM     81  F   UNL     1     -13.725   0.288   9.829  1.00  0.00    -0.203 F 
ATOM     82  F   UNL     1     -16.058  -0.374   4.943  1.00  0.00    -0.200 F 
ATOM     83  C   UNL     1     -15.411  -1.273   7.028  1.00  0.00     0.200 A 
ATOM     84  F   UNL     1     -14.771  -2.112   9.139  1.00  0.00    -0.200 F 
ATOM     85  F   UNL     1     -15.959  -2.453   6.707  1.00  0.00    -0.200 F 
ENDBRANCH  51  75
BRANCH  63  86
ATOM     86  C   UNL     1     -17.186   7.491   8.666  1.00  0.00     0.064 A 
ATOM     87  C   UNL     1     -18.114   7.197   9.675  1.00  0.00     0.173 A 
ATOM     88  C   UNL     1     -17.594   8.350   7.632  1.00  0.00     0.173 A 
ATOM     89  F   UNL     1     -17.778   6.374  10.681  1.00  0.00    -0.203 F 
ATOM     90  C   UNL     1     -19.399   7.732   9.646  1.00  0.00     0.198 A 
ATOM     91  C   UNL     1     -18.869   8.909   7.622  1.00  0.00     0.198 A 
ATOM     92  F   UNL     1     -16.742   8.675   6.647  1.00  0.00    -0.203 F 
ATOM     93  F   UNL     1     -20.279   7.412  10.605  1.00  0.00    -0.200 F 
ATOM     94  C   UNL     1     -19.772   8.596   8.626  1.00  0.00     0.200 A 
ATOM     95  F   UNL     1     -19.220   9.759   6.647  1.00  0.00    -0.200 F 
ATOM     96  F   UNL     1     -21.002   9.128   8.612  1.00  0.00    -0.200 F 
ENDBRANCH  63  86
ENDBRANCH  37  38
ENDBRANCH  30  32
ENDBRANCH  29  30
ENDBRANCH  28  29
ENDBRANCH  27  28
ENDBRANCH  26  27
ENDBRANCH  25  26
ENDBRANCH   1  25
TORSDOF 19
