REMARK SMILES Cc1cc2nc(NC3=[NH+][C@H](CC(=O)OCCOCCOCCOC(=O)c4ccc(-c5c6nc(c(-c7c(F)c(F)c(F)c(F)c7F)c7ccc([nH]7)c(-c7c(F)c(F)c(F)c(F)c7F)c7nc(c(-c8c(F)c(F)c(F)c(F)c8F)c8ccc5[nH]8)C=C7)C=C6)cc4)C(=O)N3)nc(C)c2cc1C
REMARK SMILES IDX 18 1 17 2 16 3 15 4 14 5 12 6 13 7 11 8 10 9 7 10 8 11 9 13
REMARK SMILES IDX 91 14 89 16 90 18 6 19 1 20 2 21 3 22 97 23 4 24 96 25 98 26
REMARK SMILES IDX 5 27 95 28 93 29 92 30 94 31 19 32 20 33 21 34 22 35 23 36
REMARK SMILES IDX 24 37 25 38 26 39 27 40 88 41 28 42 87 43 29 44 30 45 31 46
REMARK SMILES IDX 81 47 32 48 86 49 80 50 82 51 33 52 85 53 79 54 78 55 34 57
REMARK SMILES IDX 66 58 46 59 65 60 47 61 50 62 64 63 83 64 48 65 49 66 63 68
REMARK SMILES IDX 84 69 51 70 35 71 36 72 44 73 37 74 38 75 42 76 45 77 39 78
REMARK SMILES IDX 40 79 43 80 41 81 67 82 68 83 76 84 69 85 70 86 74 87 77 88
REMARK SMILES IDX 71 89 72 90 75 91 73 92 52 93 53 94 61 95 54 96 55 97 59 98
REMARK SMILES IDX 62 99 56 100 57 101 60 102 58 103
REMARK H PARENT 7 12 9 15 91 17 82 56 50 67
REMARK Flexibility Score: inf
ROOT
ATOM      1  C   UNL     1      -5.494  -4.111  -1.558  1.00  0.00     0.188 C 
ENDROOT
BRANCH   1   2
ATOM      2  O   UNL     1      -5.196  -3.774  -0.207  1.00  0.00    -0.376 OA
BRANCH   2   3
ATOM      3  C   UNL     1      -4.758  -2.432   0.025  1.00  0.00     0.202 C 
BRANCH   3   4
ATOM      4  C   UNL     1      -3.453  -2.019  -0.674  1.00  0.00     0.261 C 
BRANCH   4   5
ATOM      5  O   UNL     1      -3.470  -2.246  -2.098  1.00  0.00    -0.463 OA
BRANCH   5   6
ATOM      6  C   UNL     1      -2.458  -2.988  -2.614  1.00  0.00     0.310 C 
ATOM      7  O   UNL     1      -1.509  -3.411  -1.956  1.00  0.00    -0.252 OA
BRANCH   6   8
ATOM      8  C   UNL     1      -2.644  -3.404  -4.060  1.00  0.00     0.175 C 
BRANCH   8   9
ATOM      9  C   UNL     1      -3.682  -2.677  -4.903  1.00  0.00     0.262 C 
ATOM     10  N   UNL     1      -2.691   0.506  -6.106  1.00  0.00    -0.212 N 
ATOM     11  C   UNL     1      -3.112  -0.762  -5.892  1.00  0.00     0.358 C 
ATOM     12  H   UNL     1      -2.934   0.964  -6.942  1.00  0.00     0.270 HD
ATOM     13  N   UNL     1      -3.523  -1.224  -4.755  1.00  0.00    -0.263 N 
ATOM     14  N   UNL     1      -3.104  -1.665  -6.890  1.00  0.00    -0.211 N 
ATOM     15  H   UNL     1      -3.697  -0.699  -3.941  1.00  0.00     0.261 HD
ATOM     16  C   UNL     1      -3.400  -2.887  -6.380  1.00  0.00     0.320 C 
ATOM     17  H   UNL     1      -2.914  -1.470  -7.837  1.00  0.00     0.270 HD
ATOM     18  O   UNL     1      -3.373  -3.945  -6.985  1.00  0.00    -0.252 OA
BRANCH  10  19
ATOM     19  C   UNL     1      -1.919   1.171  -5.160  1.00  0.00     0.291 A 
ATOM     20  C   UNL     1       1.003   0.009   0.009  1.00  0.00     0.044 C 
ATOM     21  C   UNL     1       0.568   0.887  -1.131  1.00  0.00    -0.046 A 
ATOM     22  C   UNL     1      -0.219   0.336  -2.150  1.00  0.00     0.033 A 
ATOM     23  C   UNL     1       0.920   2.243  -1.210  1.00  0.00    -0.047 A 
ATOM     24  C   UNL     1      -0.673   1.085  -3.223  1.00  0.00     0.078 A 
ATOM     25  C   UNL     1       0.466   3.004  -2.301  1.00  0.00     0.016 A 
ATOM     26  C   UNL     1       1.749   2.897  -0.140  1.00  0.00     0.044 C 
ATOM     27  N   UNL     1      -1.423   0.475  -4.129  1.00  0.00    -0.198 NA
ATOM     28  C   UNL     1      -0.339   2.430  -3.317  1.00  0.00     0.022 A 
ATOM     29  C   UNL     1      -0.861   3.081  -4.449  1.00  0.00     0.052 A 
ATOM     30  N   UNL     1      -1.632   2.458  -5.377  1.00  0.00    -0.203 NA
ATOM     31  C   UNL     1      -0.587   4.533  -4.712  1.00  0.00     0.067 C 
ENDBRANCH  10  19
ENDBRANCH   8   9
ENDBRANCH   6   8
ENDBRANCH   5   6
ENDBRANCH   4   5
ENDBRANCH   3   4
ENDBRANCH   2   3
ENDBRANCH   1   2
BRANCH   1  32
ATOM     32  C   UNL     1      -6.564  -3.255  -2.236  1.00  0.00     0.188 C 
BRANCH  32  33
ATOM     33  O   UNL     1      -6.435  -1.853  -2.095  1.00  0.00    -0.376 OA
BRANCH  33  34
ATOM     34  C   UNL     1      -7.500  -1.044  -2.595  1.00  0.00     0.202 C 
BRANCH  34  35
ATOM     35  C   UNL     1      -8.955  -1.421  -2.232  1.00  0.00     0.261 C 
BRANCH  35  36
ATOM     36  O   UNL     1      -9.376  -2.780  -2.483  1.00  0.00    -0.460 OA
BRANCH  36  37
ATOM     37  C   UNL     1      -9.209  -3.304  -3.720  1.00  0.00     0.338 C 
ATOM     38  O   UNL     1      -8.955  -2.681  -4.738  1.00  0.00    -0.246 OA
BRANCH  37  39
ATOM     39  C   UNL     1      -9.092  -4.791  -3.583  1.00  0.00     0.060 A 
ATOM     40  C   UNL     1      -9.791  -5.505  -2.604  1.00  0.00     0.016 A 
ATOM     41  C   UNL     1      -8.152  -5.467  -4.379  1.00  0.00     0.016 A 
ATOM     42  C   UNL     1      -9.568  -6.881  -2.443  1.00  0.00     0.010 A 
ATOM     43  C   UNL     1      -7.924  -6.841  -4.211  1.00  0.00     0.010 A 
ATOM     44  C   UNL     1      -8.645  -7.569  -3.254  1.00  0.00    -0.014 A 
BRANCH  44  45
ATOM     45  C   UNL     1      -8.593  -9.058  -3.224  1.00  0.00     0.031 A 
ATOM     46  C   UNL     1      -7.485  -9.831  -2.566  1.00  0.00     0.074 A 
ATOM     47  C   UNL     1      -9.595  -9.731  -3.825  1.00  0.00     0.049 A 
ATOM     48  N   UNL     1      -7.385 -11.126  -2.381  1.00  0.00    -0.248 NA
ATOM     49  C   UNL     1      -6.341  -9.063  -2.061  1.00  0.00     0.031 C 
ATOM     50  C   UNL     1     -10.706  -9.103  -4.540  1.00  0.00     0.029 A 
ATOM     51  N   UNL     1      -9.852 -11.076  -3.921  1.00  0.00    -0.354 N 
ATOM     52  C   UNL     1      -6.185 -11.330  -1.714  1.00  0.00     0.074 A 
ATOM     53  C   UNL     1      -5.564 -10.026  -1.574  1.00  0.00     0.031 C 
ATOM     54  C   UNL     1     -11.545 -10.056  -4.968  1.00  0.00     0.029 A 
ATOM     55  C   UNL     1     -11.021 -11.364  -4.583  1.00  0.00     0.049 A 
ATOM     56  H   UNL     1      -9.256 -11.768  -3.552  1.00  0.00     0.167 HD
ATOM     57  C   UNL     1      -5.663 -12.492  -1.244  1.00  0.00     0.037 A 
ATOM     58  C   UNL     1     -11.617 -12.543  -4.844  1.00  0.00     0.037 A 
ATOM     59  C   UNL     1      -6.273 -13.793  -1.400  1.00  0.00     0.049 A 
ATOM     60  C   UNL     1     -10.995 -13.819  -4.350  1.00  0.00     0.074 A 
ATOM     61  C   UNL     1      -5.836 -15.013  -0.909  1.00  0.00     0.029 A 
ATOM     62  N   UNL     1      -7.435 -14.049  -2.112  1.00  0.00    -0.354 N 
ATOM     63  N   UNL     1      -9.914 -13.986  -3.629  1.00  0.00    -0.248 NA
ATOM     64  C   UNL     1     -11.681 -15.072  -4.699  1.00  0.00     0.031 C 
ATOM     65  C   UNL     1      -6.697 -16.012  -1.374  1.00  0.00     0.029 A 
ATOM     66  C   UNL     1      -7.708 -15.411  -2.104  1.00  0.00     0.049 A 
ATOM     67  H   UNL     1      -7.987 -13.366  -2.558  1.00  0.00     0.167 HD
ATOM     68  C   UNL     1      -9.800 -15.354  -3.422  1.00  0.00     0.074 A 
ATOM     69  C   UNL     1     -10.936 -15.973  -4.073  1.00  0.00     0.031 C 
ATOM     70  C   UNL     1      -8.835 -16.031  -2.754  1.00  0.00     0.037 A 
BRANCH  57  71
ATOM     71  C   UNL     1      -4.367 -12.431  -0.483  1.00  0.00     0.064 A 
ATOM     72  C   UNL     1      -4.308 -11.881   0.807  1.00  0.00     0.173 A 
ATOM     73  C   UNL     1      -3.204 -13.032  -0.990  1.00  0.00     0.173 A 
ATOM     74  F   UNL     1      -5.393 -11.304   1.345  1.00  0.00    -0.203 F 
ATOM     75  C   UNL     1      -3.132 -11.921   1.553  1.00  0.00     0.198 A 
ATOM     76  C   UNL     1      -2.037 -13.096  -0.230  1.00  0.00     0.198 A 
ATOM     77  F   UNL     1      -3.209 -13.595  -2.208  1.00  0.00    -0.203 F 
ATOM     78  F   UNL     1      -3.096 -11.372   2.775  1.00  0.00    -0.200 F 
ATOM     79  C   UNL     1      -2.001 -12.537   1.038  1.00  0.00     0.200 A 
ATOM     80  F   UNL     1      -0.954 -13.716  -0.718  1.00  0.00    -0.200 F 
ATOM     81  F   UNL     1      -0.878 -12.599   1.768  1.00  0.00    -0.200 F 
ENDBRANCH  57  71
BRANCH  58  82
ATOM     82  C   UNL     1     -12.909 -12.560  -5.580  1.00  0.00     0.064 A 
ATOM     83  C   UNL     1     -14.099 -12.921  -4.933  1.00  0.00     0.173 A 
ATOM     84  C   UNL     1     -12.984 -12.189  -6.930  1.00  0.00     0.173 A 
ATOM     85  F   UNL     1     -14.074 -13.301  -3.647  1.00  0.00    -0.203 F 
ATOM     86  C   UNL     1     -15.314 -12.920  -5.613  1.00  0.00     0.198 A 
ATOM     87  C   UNL     1     -14.205 -12.159  -7.600  1.00  0.00     0.198 A 
ATOM     88  F   UNL     1     -11.874 -11.830  -7.592  1.00  0.00    -0.203 F 
ATOM     89  F   UNL     1     -16.432 -13.305  -4.982  1.00  0.00    -0.200 F 
ATOM     90  C   UNL     1     -15.368 -12.530  -6.943  1.00  0.00     0.200 A 
ATOM     91  F   UNL     1     -14.255 -11.763  -8.879  1.00  0.00    -0.200 F 
ATOM     92  F   UNL     1     -16.540 -12.515  -7.592  1.00  0.00    -0.200 F 
ENDBRANCH  58  82
BRANCH  70  93
ATOM     93  C   UNL     1      -8.953 -17.529  -2.679  1.00  0.00     0.064 A 
ATOM     94  C   UNL     1      -8.741 -18.338  -3.806  1.00  0.00     0.173 A 
ATOM     95  C   UNL     1      -9.207 -18.167  -1.455  1.00  0.00     0.173 A 
ATOM     96  F   UNL     1      -8.510 -17.780  -5.004  1.00  0.00    -0.203 F 
ATOM     97  C   UNL     1      -8.790 -19.727  -3.712  1.00  0.00     0.198 A 
ATOM     98  C   UNL     1      -9.224 -19.557  -1.358  1.00  0.00     0.198 A 
ATOM     99  F   UNL     1      -9.413 -17.443  -0.344  1.00  0.00    -0.203 F 
ATOM    100  F   UNL     1      -8.619 -20.478  -4.809  1.00  0.00    -0.200 F 
ATOM    101  C   UNL     1      -9.020 -20.335  -2.487  1.00  0.00     0.200 A 
ATOM    102  F   UNL     1      -9.430 -20.142  -0.170  1.00  0.00    -0.200 F 
ATOM    103  F   UNL     1      -9.046 -21.672  -2.395  1.00  0.00    -0.200 F 
ENDBRANCH  70  93
ENDBRANCH  44  45
ENDBRANCH  37  39
ENDBRANCH  36  37
ENDBRANCH  35  36
ENDBRANCH  34  35
ENDBRANCH  33  34
ENDBRANCH  32  33
ENDBRANCH   1  32
TORSDOF 19
