REMARK SMILES C[C@H](NC(=O)c1cccc(NC(=O)c2ccccc2C(=O)OCCOCCOCCOC(=O)c2ccc(-c3c4nc(c(-c5c(F)c(F)c(F)c(F)c5F)c5ccc([nH]5)c(-c5c(F)c(F)c(F)c(F)c5F)c5nc(c(-c6c(F)c(F)c(F)c(F)c6F)c6ccc3[nH]6)C=C5)C=C4)cc2)c1)c1ccccc1
REMARK SMILES IDX 25 1 24 2 23 3 22 4 20 5 21 6 19 7 14 8 15 9 16 10 18 11
REMARK SMILES IDX 17 12 12 13 11 14 13 16 10 17 6 18 7 19 97 20 8 21 9 22 4 23
REMARK SMILES IDX 3 24 5 26 2 27 1 28 98 29 99 30 103 31 100 32 102 33 101 34
REMARK SMILES IDX 26 35 27 36 28 37 29 38 30 39 31 40 32 41 33 42 34 43 35 44
REMARK SMILES IDX 96 45 36 46 95 47 37 48 38 49 39 50 89 51 40 52 94 53 88 54
REMARK SMILES IDX 90 55 41 56 93 57 87 58 86 59 42 61 74 62 54 63 73 64 55 65
REMARK SMILES IDX 58 66 72 67 91 68 56 69 57 70 71 72 92 73 59 74 43 75 44 76
REMARK SMILES IDX 52 77 45 78 46 79 50 80 53 81 47 82 48 83 51 84 49 85 75 86
REMARK SMILES IDX 76 87 84 88 77 89 78 90 82 91 85 92 79 93 80 94 83 95 81 96
REMARK SMILES IDX 60 97 61 98 69 99 62 100 63 101 67 102 70 103 64 104 65 105
REMARK SMILES IDX 68 106 66 107
REMARK H PARENT 11 15 3 25 90 60 58 71
REMARK Flexibility Score: inf
ROOT
ATOM      1  O   UNL     1      -2.247  -4.653  -2.261  1.00  0.00    -0.376 OA
ENDROOT
BRANCH   1   2
ATOM      2  C   UNL     1      -1.278  -3.656  -2.494  1.00  0.00     0.202 C 
BRANCH   2   3
ATOM      3  C   UNL     1       0.017  -3.760  -1.705  1.00  0.00     0.261 C 
BRANCH   3   4
ATOM      4  O   UNL     1       0.603  -5.051  -1.580  1.00  0.00    -0.460 OA
BRANCH   4   5
ATOM      5  C   UNL     1       0.409  -5.677  -0.404  1.00  0.00     0.339 C 
ATOM      6  O   UNL     1      -0.377  -5.374   0.477  1.00  0.00    -0.246 OA
BRANCH   5   7
ATOM      7  C   UNL     1       1.233  -6.899  -0.384  1.00  0.00     0.072 A 
ATOM      8  C   UNL     1       2.546  -6.978  -0.877  1.00  0.00     0.054 A 
ATOM      9  C   UNL     1       3.159  -8.247  -0.913  1.00  0.00     0.015 A 
ATOM     10  C   UNL     1       2.510  -9.385  -0.421  1.00  0.00     0.001 A 
ATOM     11  C   UNL     1       0.598  -8.042   0.143  1.00  0.00     0.016 A 
ATOM     12  C   UNL     1       1.234  -9.280   0.122  1.00  0.00     0.001 A 
BRANCH   8  13
ATOM     13  C   UNL     1       3.340  -5.864  -1.476  1.00  0.00     0.256 C 
ATOM     14  N   UNL     1       3.407  -4.566  -1.002  1.00  0.00    -0.322 N 
ATOM     15  H   UNL     1       3.888  -3.954  -1.604  1.00  0.00     0.170 HD
ATOM     16  O   UNL     1       3.968  -6.122  -2.508  1.00  0.00    -0.269 OA
BRANCH  14  17
ATOM     17  C   UNL     1       2.928  -3.943   0.163  1.00  0.00     0.042 A 
ATOM     18  C   UNL     1       1.948  -1.934   1.140  1.00  0.00     0.041 A 
ATOM     19  C   UNL     1       1.571  -2.704   2.253  1.00  0.00     0.014 A 
ATOM     20  C   UNL     1       2.674  -2.553   0.116  1.00  0.00     0.040 A 
ATOM     21  C   UNL     1       1.944  -4.043   2.362  1.00  0.00     0.003 A 
ATOM     22  C   UNL     1       2.648  -4.653   1.328  1.00  0.00     0.026 A 
BRANCH  18  23
ATOM     23  C   UNL     1       1.756  -0.472   1.282  1.00  0.00     0.251 C 
ATOM     24  N   UNL     1       1.196   0.400   0.396  1.00  0.00    -0.346 N 
ATOM     25  H   UNL     1       1.306   1.319   0.731  1.00  0.00     0.164 HD
ATOM     26  O   UNL     1       2.135   0.018   2.351  1.00  0.00    -0.269 OA
BRANCH  24  27
ATOM     27  C   UNL     1       0.488   0.432  -0.883  1.00  0.00     0.109 C 
ATOM     28  C   UNL     1       1.102  -0.375  -2.008  1.00  0.00     0.036 C 
BRANCH  27  29
ATOM     29  C   UNL     1      -1.019   0.272  -0.778  1.00  0.00    -0.026 A 
ATOM     30  C   UNL     1      -1.852   1.245  -1.366  1.00  0.00     0.006 A 
ATOM     31  C   UNL     1      -1.631  -0.833  -0.176  1.00  0.00     0.006 A 
ATOM     32  C   UNL     1      -3.242   1.105  -1.376  1.00  0.00     0.000 A 
ATOM     33  C   UNL     1      -3.023  -0.988  -0.210  1.00  0.00     0.000 A 
ATOM     34  C   UNL     1      -3.828  -0.022  -0.811  1.00  0.00     0.000 A 
ENDBRANCH  27  29
ENDBRANCH  24  27
ENDBRANCH  18  23
ENDBRANCH  14  17
ENDBRANCH   8  13
ENDBRANCH   5   7
ENDBRANCH   4   5
ENDBRANCH   3   4
ENDBRANCH   2   3
ENDBRANCH   1   2
BRANCH   1  35
ATOM     35  C   UNL     1      -1.914  -6.007  -2.529  1.00  0.00     0.188 C 
BRANCH  35  36
ATOM     36  C   UNL     1      -0.864  -6.407  -3.596  1.00  0.00     0.188 C 
BRANCH  36  37
ATOM     37  O   UNL     1      -0.480  -5.386  -4.502  1.00  0.00    -0.376 OA
BRANCH  37  38
ATOM     38  C   UNL     1      -0.992  -5.504  -5.824  1.00  0.00     0.202 C 
BRANCH  38  39
ATOM     39  C   UNL     1      -2.478  -5.147  -5.956  1.00  0.00     0.261 C 
BRANCH  39  40
ATOM     40  O   UNL     1      -3.372  -5.981  -5.198  1.00  0.00    -0.460 OA
BRANCH  40  41
ATOM     41  C   UNL     1      -3.384  -7.303  -5.476  1.00  0.00     0.338 C 
ATOM     42  O   UNL     1      -2.787  -7.876  -6.370  1.00  0.00    -0.246 OA
BRANCH  41  43
ATOM     43  C   UNL     1      -4.058  -7.989  -4.350  1.00  0.00     0.060 A 
ATOM     44  C   UNL     1      -3.379  -9.029  -3.696  1.00  0.00     0.016 A 
ATOM     45  C   UNL     1      -5.301  -7.554  -3.881  1.00  0.00     0.016 A 
ATOM     46  C   UNL     1      -3.962  -9.664  -2.599  1.00  0.00     0.010 A 
ATOM     47  C   UNL     1      -5.901  -8.212  -2.804  1.00  0.00     0.010 A 
ATOM     48  C   UNL     1      -5.253  -9.300  -2.191  1.00  0.00    -0.014 A 
BRANCH  48  49
ATOM     49  C   UNL     1      -6.044 -10.264  -1.389  1.00  0.00     0.031 A 
ATOM     50  C   UNL     1      -6.809 -11.311  -2.156  1.00  0.00     0.074 A 
ATOM     51  C   UNL     1      -6.077 -10.249  -0.046  1.00  0.00     0.049 A 
ATOM     52  N   UNL     1      -7.576 -12.277  -1.720  1.00  0.00    -0.248 NA
ATOM     53  C   UNL     1      -6.689 -11.256  -3.624  1.00  0.00     0.031 C 
ATOM     54  C   UNL     1      -5.360  -9.313   0.815  1.00  0.00     0.029 A 
ATOM     55  N   UNL     1      -6.758 -11.060   0.829  1.00  0.00    -0.354 N 
ATOM     56  C   UNL     1      -8.016 -12.943  -2.856  1.00  0.00     0.074 A 
ATOM     57  C   UNL     1      -7.467 -12.255  -4.001  1.00  0.00     0.031 C 
ATOM     58  C   UNL     1      -5.647  -9.597   2.099  1.00  0.00     0.029 A 
ATOM     59  C   UNL     1      -6.583 -10.721   2.147  1.00  0.00     0.049 A 
ATOM     60  H   UNL     1      -7.320 -11.814   0.537  1.00  0.00     0.167 HD
ATOM     61  C   UNL     1      -8.801 -14.041  -2.943  1.00  0.00     0.037 A 
ATOM     62  C   UNL     1      -7.131 -11.256   3.258  1.00  0.00     0.037 A 
ATOM     63  C   UNL     1      -9.373 -14.714  -1.812  1.00  0.00     0.049 A 
ATOM     64  C   UNL     1      -8.071 -12.432   3.131  1.00  0.00     0.074 A 
ATOM     65  C   UNL     1     -10.192 -15.828  -1.794  1.00  0.00     0.029 A 
ATOM     66  N   UNL     1      -9.194 -14.322  -0.495  1.00  0.00    -0.354 N 
ATOM     67  N   UNL     1      -8.454 -13.081   2.058  1.00  0.00    -0.248 NA
ATOM     68  C   UNL     1      -8.651 -12.954   4.379  1.00  0.00     0.031 C 
ATOM     69  C   UNL     1     -10.546 -16.084  -0.466  1.00  0.00     0.029 A 
ATOM     70  C   UNL     1      -9.903 -15.163   0.346  1.00  0.00     0.049 A 
ATOM     71  H   UNL     1      -8.646 -13.559  -0.201  1.00  0.00     0.167 HD
ATOM     72  C   UNL     1      -9.282 -14.105   2.501  1.00  0.00     0.074 A 
ATOM     73  C   UNL     1      -9.343 -13.997   3.943  1.00  0.00     0.031 C 
ATOM     74  C   UNL     1      -9.933 -15.053   1.781  1.00  0.00     0.037 A 
BRANCH  61  75
ATOM     75  C   UNL     1      -9.104 -14.553  -4.319  1.00  0.00     0.064 A 
ATOM     76  C   UNL     1      -8.122 -15.182  -5.100  1.00  0.00     0.173 A 
ATOM     77  C   UNL     1     -10.386 -14.405  -4.865  1.00  0.00     0.173 A 
ATOM     78  F   UNL     1      -6.873 -15.322  -4.631  1.00  0.00    -0.203 F 
ATOM     79  C   UNL     1      -8.408 -15.621  -6.389  1.00  0.00     0.198 A 
ATOM     80  C   UNL     1     -10.676 -14.872  -6.144  1.00  0.00     0.198 A 
ATOM     81  F   UNL     1     -11.357 -13.803  -4.161  1.00  0.00    -0.203 F 
ATOM     82  F   UNL     1      -7.441 -16.169  -7.138  1.00  0.00    -0.200 F 
ATOM     83  C   UNL     1      -9.686 -15.472  -6.908  1.00  0.00     0.200 A 
ATOM     84  F   UNL     1     -11.912 -14.732  -6.642  1.00  0.00    -0.200 F 
ATOM     85  F   UNL     1      -9.960 -15.896  -8.149  1.00  0.00    -0.200 F 
ENDBRANCH  61  75
BRANCH  62  86
ATOM     86  C   UNL     1      -6.812 -10.695   4.598  1.00  0.00     0.064 A 
ATOM     87  C   UNL     1      -6.071 -11.433   5.534  1.00  0.00     0.173 A 
ATOM     88  C   UNL     1      -7.283  -9.434   4.991  1.00  0.00     0.173 A 
ATOM     89  F   UNL     1      -5.626 -12.658   5.218  1.00  0.00    -0.203 F 
ATOM     90  C   UNL     1      -5.834 -10.941   6.816  1.00  0.00     0.198 A 
ATOM     91  C   UNL     1      -7.022  -8.931   6.264  1.00  0.00     0.198 A 
ATOM     92  F   UNL     1      -8.005  -8.692   4.138  1.00  0.00    -0.203 F 
ATOM     93  F   UNL     1      -5.171 -11.691   7.707  1.00  0.00    -0.200 F 
ATOM     94  C   UNL     1      -6.306  -9.688   7.179  1.00  0.00     0.200 A 
ATOM     95  F   UNL     1      -7.477  -7.719   6.610  1.00  0.00    -0.200 F 
ATOM     96  F   UNL     1      -6.083  -9.218   8.414  1.00  0.00    -0.200 F 
ENDBRANCH  62  86
BRANCH  74  97
ATOM     97  C   UNL     1     -10.719 -16.085   2.537  1.00  0.00     0.064 A 
ATOM     98  C   UNL     1     -11.929 -15.775   3.175  1.00  0.00     0.173 A 
ATOM     99  C   UNL     1     -10.279 -17.418   2.576  1.00  0.00     0.173 A 
ATOM    100  F   UNL     1     -12.388 -14.515   3.175  1.00  0.00    -0.203 F 
ATOM    101  C   UNL     1     -12.655 -16.756   3.847  1.00  0.00     0.198 A 
ATOM    102  C   UNL     1     -11.022 -18.401   3.221  1.00  0.00     0.198 A 
ATOM    103  F   UNL     1      -9.134 -17.770   1.971  1.00  0.00    -0.203 F 
ATOM    104  F   UNL     1     -13.785 -16.428   4.488  1.00  0.00    -0.200 F 
ATOM    105  C   UNL     1     -12.205 -18.068   3.863  1.00  0.00     0.200 A 
ATOM    106  F   UNL     1     -10.595 -19.671   3.221  1.00  0.00    -0.200 F 
ATOM    107  F   UNL     1     -12.910 -19.012   4.502  1.00  0.00    -0.200 F 
ENDBRANCH  74  97
ENDBRANCH  48  49
ENDBRANCH  41  43
ENDBRANCH  40  41
ENDBRANCH  39  40
ENDBRANCH  38  39
ENDBRANCH  37  38
ENDBRANCH  36  37
ENDBRANCH  35  36
ENDBRANCH   1  35
TORSDOF 22
