REMARK SMILES O=C(OCCOCCOCCOC(=O)c1cnc(OCC2CC2)c(Cl)c1)c1ccc(-c2c3nc(c(-c4c(F)c(F)c(F)c(F)c4F)c4ccc([nH]4)c(-c4c(F)c(F)c(F)c(F)c4F)c4nc(c(-c5c(F)c(F)c(F)c(F)c5F)c5ccc2[nH]5)C=C4)C=C3)cc1
REMARK SMILES IDX 8 1 7 2 6 3 5 4 4 5 3 6 2 7 1 8 27 9 28 10 89 11 29 12 88 13
REMARK SMILES IDX 30 14 31 15 32 16 82 17 33 18 87 19 81 20 83 21 34 22 86 23
REMARK SMILES IDX 80 24 79 25 35 27 67 28 47 29 66 30 48 31 51 32 65 33 84 34
REMARK SMILES IDX 49 35 50 36 64 38 85 39 52 40 36 41 37 42 45 43 38 44 39 45
REMARK SMILES IDX 43 46 46 47 40 48 41 49 44 50 42 51 68 52 69 53 77 54 70 55
REMARK SMILES IDX 71 56 75 57 78 58 72 59 73 60 76 61 74 62 53 63 54 64 62 65
REMARK SMILES IDX 55 66 56 67 60 68 63 69 57 70 58 71 61 72 59 73 9 74 10 75
REMARK SMILES IDX 11 76 12 77 13 78 14 79 15 80 16 81 26 82 17 83 24 84 18 85
REMARK SMILES IDX 25 86 19 87 20 88 21 89 22 90 23 91
REMARK H PARENT 83 26 51 37
REMARK Flexibility Score: inf
ROOT
ATOM      1  C   UNL     1       1.955  -0.336  -3.243  1.00  0.00     0.188 C 
ENDROOT
BRANCH   1   2
ATOM      2  C   UNL     1       2.512  -0.858  -1.917  1.00  0.00     0.188 C 
BRANCH   2   3
ATOM      3  O   UNL     1       3.782  -0.262  -1.610  1.00  0.00    -0.376 OA
BRANCH   3   4
ATOM      4  C   UNL     1       4.671  -1.153  -0.923  1.00  0.00     0.202 C 
BRANCH   4   5
ATOM      5  C   UNL     1       4.445  -1.243   0.593  1.00  0.00     0.261 C 
BRANCH   5   6
ATOM      6  O   UNL     1       3.071  -1.043   0.962  1.00  0.00    -0.460 OA
BRANCH   6   7
ATOM      7  C   UNL     1       2.448   0.111   1.309  1.00  0.00     0.338 C 
ATOM      8  O   UNL     1       1.263   0.057   1.634  1.00  0.00    -0.246 OA
BRANCH   7   9
ATOM      9  C   UNL     1       3.126   1.446   1.365  1.00  0.00     0.060 A 
ATOM     10  C   UNL     1       4.285   1.798   0.674  1.00  0.00     0.016 A 
ATOM     11  C   UNL     1       2.523   2.434   2.165  1.00  0.00     0.016 A 
ATOM     12  C   UNL     1       4.919   3.019   0.887  1.00  0.00     0.010 A 
ATOM     13  C   UNL     1       3.120   3.690   2.338  1.00  0.00     0.010 A 
ATOM     14  C   UNL     1       4.361   3.960   1.748  1.00  0.00    -0.014 A 
BRANCH  14  15
ATOM     15  C   UNL     1       5.191   5.110   2.171  1.00  0.00     0.031 A 
ATOM     16  C   UNL     1       5.779   5.091   3.555  1.00  0.00     0.074 A 
ATOM     17  C   UNL     1       5.564   6.064   1.300  1.00  0.00     0.049 A 
ATOM     18  N   UNL     1       6.533   5.978   4.152  1.00  0.00    -0.248 NA
ATOM     19  C   UNL     1       5.509   3.890   4.363  1.00  0.00     0.031 C 
ATOM     20  C   UNL     1       5.215   6.105  -0.119  1.00  0.00     0.029 A 
ATOM     21  N   UNL     1       6.351   7.173   1.482  1.00  0.00    -0.354 N 
ATOM     22  C   UNL     1       6.823   5.444   5.399  1.00  0.00     0.074 A 
ATOM     23  C   UNL     1       6.139   4.173   5.491  1.00  0.00     0.031 C 
ATOM     24  C   UNL     1       5.796   7.181  -0.675  1.00  0.00     0.029 A 
ATOM     25  C   UNL     1       6.459   7.953   0.359  1.00  0.00     0.049 A 
ATOM     26  H   UNL     1       6.795   7.388   2.334  1.00  0.00     0.167 HD
ATOM     27  C   UNL     1       7.604   5.960   6.376  1.00  0.00     0.037 A 
ATOM     28  C   UNL     1       6.985   9.179   0.200  1.00  0.00     0.037 A 
ATOM     29  C   UNL     1       8.284   7.223   6.279  1.00  0.00     0.049 A 
ATOM     30  C   UNL     1       7.684   9.819   1.356  1.00  0.00     0.074 A 
ATOM     31  C   UNL     1       9.087   7.851   7.214  1.00  0.00     0.029 A 
ATOM     32  N   UNL     1       8.231   8.058   5.172  1.00  0.00    -0.354 N 
ATOM     33  N   UNL     1       7.882   9.352   2.562  1.00  0.00    -0.248 NA
ATOM     34  C   UNL     1       8.263  11.145   1.109  1.00  0.00     0.031 C 
ATOM     35  C   UNL     1       9.479   9.090   6.692  1.00  0.00     0.029 A 
ATOM     36  C   UNL     1       8.964   9.209   5.412  1.00  0.00     0.049 A 
ATOM     37  H   UNL     1       7.744   7.861   4.339  1.00  0.00     0.167 HD
ATOM     38  C   UNL     1       8.635  10.311   3.214  1.00  0.00     0.074 A 
ATOM     39  C   UNL     1       8.849  11.391   2.270  1.00  0.00     0.031 C 
ATOM     40  C   UNL     1       9.132  10.286   4.473  1.00  0.00     0.037 A 
BRANCH  27  41
ATOM     41  C   UNL     1       7.698   5.175   7.650  1.00  0.00     0.064 A 
ATOM     42  C   UNL     1       8.400   3.962   7.728  1.00  0.00     0.173 A 
ATOM     43  C   UNL     1       7.031   5.623   8.799  1.00  0.00     0.173 A 
ATOM     44  F   UNL     1       9.030   3.475   6.647  1.00  0.00    -0.203 F 
ATOM     45  C   UNL     1       8.397   3.208   8.899  1.00  0.00     0.198 A 
ATOM     46  C   UNL     1       7.054   4.881   9.976  1.00  0.00     0.198 A 
ATOM     47  F   UNL     1       6.340   6.773   8.774  1.00  0.00    -0.203 F 
ATOM     48  F   UNL     1       9.016   2.019   8.931  1.00  0.00    -0.200 F 
ATOM     49  C   UNL     1       7.727   3.670  10.022  1.00  0.00     0.200 A 
ATOM     50  F   UNL     1       6.408   5.330  11.061  1.00  0.00    -0.200 F 
ATOM     51  F   UNL     1       7.713   2.937  11.144  1.00  0.00    -0.200 F 
ENDBRANCH  27  41
BRANCH  28  52
ATOM     52  C   UNL     1       6.825   9.937  -1.063  1.00  0.00     0.064 A 
ATOM     53  C   UNL     1       7.776   9.869  -2.087  1.00  0.00     0.173 A 
ATOM     54  C   UNL     1       5.752  10.828  -1.214  1.00  0.00     0.173 A 
ATOM     55  F   UNL     1       8.831   9.050  -1.968  1.00  0.00    -0.203 F 
ATOM     56  C   UNL     1       7.662  10.672  -3.220  1.00  0.00     0.198 A 
ATOM     57  C   UNL     1       5.642  11.635  -2.345  1.00  0.00     0.198 A 
ATOM     58  F   UNL     1       4.818  10.922  -0.255  1.00  0.00    -0.203 F 
ATOM     59  F   UNL     1       8.589  10.600  -4.186  1.00  0.00    -0.200 F 
ATOM     60  C   UNL     1       6.598  11.556  -3.347  1.00  0.00     0.200 A 
ATOM     61  F   UNL     1       4.601  12.468  -2.475  1.00  0.00    -0.200 F 
ATOM     62  F   UNL     1       6.487  12.321  -4.442  1.00  0.00    -0.200 F 
ENDBRANCH  28  52
BRANCH  40  63
ATOM     63  C   UNL     1       9.983  11.451   4.866  1.00  0.00     0.064 A 
ATOM     64  C   UNL     1       9.431  12.716   5.116  1.00  0.00     0.173 A 
ATOM     65  C   UNL     1      11.375  11.306   4.946  1.00  0.00     0.173 A 
ATOM     66  F   UNL     1       8.107  12.906   5.014  1.00  0.00    -0.203 F 
ATOM     67  C   UNL     1      10.250  13.804   5.397  1.00  0.00     0.198 A 
ATOM     68  C   UNL     1      12.187  12.390   5.256  1.00  0.00     0.198 A 
ATOM     69  F   UNL     1      11.946  10.116   4.703  1.00  0.00    -0.203 F 
ATOM     70  F   UNL     1       9.710  15.020   5.561  1.00  0.00    -0.200 F 
ATOM     71  C   UNL     1      11.625  13.640   5.471  1.00  0.00     0.200 A 
ATOM     72  F   UNL     1      13.516  12.230   5.328  1.00  0.00    -0.200 F 
ATOM     73  F   UNL     1      12.413  14.693   5.729  1.00  0.00    -0.200 F 
ENDBRANCH  40  63
ENDBRANCH  14  15
ENDBRANCH   7   9
ENDBRANCH   6   7
ENDBRANCH   5   6
ENDBRANCH   4   5
ENDBRANCH   3   4
ENDBRANCH   2   3
ENDBRANCH   1   2
BRANCH   1  74
ATOM     74  O   UNL     1       2.630  -0.762  -4.427  1.00  0.00    -0.376 OA
BRANCH  74  75
ATOM     75  C   UNL     1       4.037  -0.575  -4.488  1.00  0.00     0.202 C 
BRANCH  75  76
ATOM     76  C   UNL     1       4.560   0.856  -4.682  1.00  0.00     0.261 C 
BRANCH  76  77
ATOM     77  O   UNL     1       3.845   1.880  -3.976  1.00  0.00    -0.460 OA
BRANCH  77  78
ATOM     78  C   UNL     1       2.940   2.543  -4.740  1.00  0.00     0.339 C 
ATOM     79  O   UNL     1       2.675   2.312  -5.908  1.00  0.00    -0.246 OA
BRANCH  78  80
ATOM     80  C   UNL     1       2.331   3.678  -4.019  1.00  0.00     0.080 A 
ATOM     81  C   UNL     1       2.416   3.871  -2.649  1.00  0.00     0.131 A 
ATOM     82  C   UNL     1       1.628   4.624  -4.770  1.00  0.00     0.043 A 
ATOM     83  N   UNL     1       1.933   4.974  -2.019  1.00  0.00    -0.220 NA
ATOM     84  C   UNL     1       1.072   5.736  -4.148  1.00  0.00     0.104 A 
ATOM     85  C   UNL     1       1.305   5.908  -2.784  1.00  0.00     0.232 A 
ATOM     86  Cl  UNL     1       0.174   6.835  -5.125  1.00  0.00    -0.078 Cl
BRANCH  85  87
ATOM     87  O   UNL     1       0.964   7.042  -2.097  1.00  0.00    -0.476 OA
BRANCH  87  88
ATOM     88  C   UNL     1       1.634   8.237  -2.542  1.00  0.00     0.235 C 
BRANCH  88  89
ATOM     89  C   UNL     1       3.119   8.084  -2.661  1.00  0.00     0.027 C 
ATOM     90  C   UNL     1       3.789   7.466  -3.873  1.00  0.00     0.007 C 
ATOM     91  C   UNL     1       3.920   8.931  -3.617  1.00  0.00     0.007 C 
ENDBRANCH  88  89
ENDBRANCH  87  88
ENDBRANCH  85  87
ENDBRANCH  78  80
ENDBRANCH  77  78
ENDBRANCH  76  77
ENDBRANCH  75  76
ENDBRANCH  74  75
ENDBRANCH   1  74
TORSDOF 20
