REMARK SMILES CCC[C@@](C)(C(=O)OCCOCCOCCOC(=O)c1ccc(-c2c3nc(c(-c4c(F)c(F)c(F)c(F)c4F)c4ccc([nH]4)c(-c4c(F)c(F)c(F)c(F)c4F)c4nc(c(-c5c(F)c(F)c(F)c(F)c5F)c5ccc2[nH]5)C=C4)C=C3)cc1)[C@H]1CCOC1
REMARK SMILES IDX 12 1 11 2 10 3 9 4 8 5 6 6 7 7 4 8 5 9 3 10 2 11 1 12 83 13
REMARK SMILES IDX 84 14 87 15 85 16 86 17 13 18 14 19 15 20 16 21 17 22 18 23
REMARK SMILES IDX 19 24 20 25 21 26 82 27 22 28 81 29 23 30 24 31 25 32 75 33
REMARK SMILES IDX 26 34 80 35 74 36 76 37 27 38 79 39 73 40 72 41 28 43 60 44
REMARK SMILES IDX 40 45 59 46 41 47 44 48 58 49 77 50 42 51 43 52 57 54 78 55
REMARK SMILES IDX 45 56 29 57 30 58 38 59 31 60 32 61 36 62 39 63 33 64 34 65
REMARK SMILES IDX 37 66 35 67 61 68 62 69 70 70 63 71 64 72 68 73 71 74 65 75
REMARK SMILES IDX 66 76 69 77 67 78 46 79 47 80 55 81 48 82 49 83 53 84 56 85
REMARK SMILES IDX 50 86 51 87 54 88 52 89
REMARK H PARENT 76 42 44 53
REMARK Flexibility Score: inf
ROOT
ATOM      1  C   UNL     1       2.759  -0.473   3.575  1.00  0.00     0.188 C 
ENDROOT
BRANCH   1   2
ATOM      2  O   UNL     1       3.305  -0.837   4.833  1.00  0.00    -0.376 OA
BRANCH   2   3
ATOM      3  C   UNL     1       4.299  -1.854   4.873  1.00  0.00     0.202 C 
BRANCH   3   4
ATOM      4  C   UNL     1       4.063  -3.189   4.137  1.00  0.00     0.261 C 
BRANCH   4   5
ATOM      5  O   UNL     1       3.588  -3.107   2.769  1.00  0.00    -0.463 OA
BRANCH   5   6
ATOM      6  C   UNL     1       2.479  -3.834   2.479  1.00  0.00     0.312 C 
ATOM      7  O   UNL     1       1.908  -4.526   3.320  1.00  0.00    -0.252 OA
BRANCH   6   8
ATOM      8  C   UNL     1       1.959  -3.743   1.005  1.00  0.00     0.070 C 
ATOM      9  C   UNL     1       1.772  -5.241   0.642  1.00  0.00     0.024 C 
BRANCH   8  10
ATOM     10  C   UNL     1       2.971  -3.136  -0.030  1.00  0.00     0.018 C 
BRANCH  10  11
ATOM     11  C   UNL     1       2.818  -3.458  -1.536  1.00  0.00    -0.002 C 
ATOM     12  C   UNL     1       1.607  -2.868  -2.243  1.00  0.00     0.004 C 
ENDBRANCH  10  11
ENDBRANCH   8  10
BRANCH   8  13
ATOM     13  C   UNL     1       0.559  -3.033   0.951  1.00  0.00     0.034 C 
ATOM     14  C   UNL     1      -0.356  -3.146   2.165  1.00  0.00     0.035 C 
ATOM     15  C   UNL     1       0.521  -1.525   0.748  1.00  0.00     0.165 C 
ATOM     16  C   UNL     1      -1.407  -2.083   1.909  1.00  0.00     0.160 C 
ATOM     17  O   UNL     1      -0.827  -1.122   1.019  1.00  0.00    -0.381 OA
ENDBRANCH   8  13
ENDBRANCH   6   8
ENDBRANCH   5   6
ENDBRANCH   4   5
ENDBRANCH   3   4
ENDBRANCH   2   3
ENDBRANCH   1   2
BRANCH   1  18
ATOM     18  C   UNL     1       3.698  -0.339   2.362  1.00  0.00     0.188 C 
BRANCH  18  19
ATOM     19  O   UNL     1       5.064  -0.469   2.654  1.00  0.00    -0.376 OA
BRANCH  19  20
ATOM     20  C   UNL     1       5.882   0.679   2.714  1.00  0.00     0.202 C 
BRANCH  20  21
ATOM     21  C   UNL     1       5.374   2.048   3.207  1.00  0.00     0.261 C 
BRANCH  21  22
ATOM     22  O   UNL     1       3.979   2.349   3.051  1.00  0.00    -0.460 OA
BRANCH  22  23
ATOM     23  C   UNL     1       3.592   2.863   1.863  1.00  0.00     0.338 C 
ATOM     24  O   UNL     1       4.306   3.091   0.895  1.00  0.00    -0.246 OA
BRANCH  23  25
ATOM     25  C   UNL     1       2.112   2.908   1.821  1.00  0.00     0.060 A 
ATOM     26  C   UNL     1       1.449   2.163   0.837  1.00  0.00     0.016 A 
ATOM     27  C   UNL     1       1.381   3.697   2.712  1.00  0.00     0.016 A 
ATOM     28  C   UNL     1       0.060   2.234   0.715  1.00  0.00     0.010 A 
ATOM     29  C   UNL     1      -0.012   3.792   2.569  1.00  0.00     0.010 A 
ATOM     30  C   UNL     1      -0.676   3.089   1.545  1.00  0.00    -0.014 A 
BRANCH  30  31
ATOM     31  C   UNL     1      -2.081   3.417   1.181  1.00  0.00     0.031 A 
ATOM     32  C   UNL     1      -2.332   4.651   0.356  1.00  0.00     0.074 A 
ATOM     33  C   UNL     1      -3.113   2.618   1.508  1.00  0.00     0.049 A 
ATOM     34  N   UNL     1      -3.462   5.155  -0.074  1.00  0.00    -0.248 NA
ATOM     35  C   UNL     1      -1.142   5.420  -0.041  1.00  0.00     0.031 C 
ATOM     36  C   UNL     1      -3.009   1.363   2.242  1.00  0.00     0.029 A 
ATOM     37  N   UNL     1      -4.459   2.749   1.254  1.00  0.00    -0.354 N 
ATOM     38  C   UNL     1      -3.118   6.300  -0.782  1.00  0.00     0.074 A 
ATOM     39  C   UNL     1      -1.679   6.430  -0.705  1.00  0.00     0.031 C 
ATOM     40  C   UNL     1      -4.239   0.836   2.385  1.00  0.00     0.029 A 
ATOM     41  C   UNL     1      -5.222   1.737   1.783  1.00  0.00     0.049 A 
ATOM     42  H   UNL     1      -4.840   3.498   0.741  1.00  0.00     0.167 HD
ATOM     43  C   UNL     1      -3.927   7.164  -1.439  1.00  0.00     0.037 A 
ATOM     44  C   UNL     1      -6.560   1.569   1.796  1.00  0.00     0.037 A 
ATOM     45  C   UNL     1      -5.359   7.044  -1.516  1.00  0.00     0.049 A 
ATOM     46  C   UNL     1      -7.445   2.591   1.120  1.00  0.00     0.074 A 
ATOM     47  C   UNL     1      -6.261   7.879  -2.151  1.00  0.00     0.029 A 
ATOM     48  N   UNL     1      -6.099   6.027  -0.932  1.00  0.00    -0.354 N 
ATOM     49  N   UNL     1      -7.114   3.668   0.451  1.00  0.00    -0.248 NA
ATOM     50  C   UNL     1      -8.897   2.365   1.198  1.00  0.00     0.031 C 
ATOM     51  C   UNL     1      -7.552   7.402  -1.901  1.00  0.00     0.029 A 
ATOM     52  C   UNL     1      -7.450   6.228  -1.174  1.00  0.00     0.049 A 
ATOM     53  H   UNL     1      -5.722   5.274  -0.422  1.00  0.00     0.167 HD
ATOM     54  C   UNL     1      -8.306   4.222  -0.003  1.00  0.00     0.074 A 
ATOM     55  C   UNL     1      -9.369   3.353   0.453  1.00  0.00     0.031 C 
ATOM     56  C   UNL     1      -8.503   5.348  -0.733  1.00  0.00     0.037 A 
BRANCH  43  57
ATOM     57  C   UNL     1      -3.280   8.351  -2.091  1.00  0.00     0.064 A 
ATOM     58  C   UNL     1      -2.482   8.227  -3.238  1.00  0.00     0.173 A 
ATOM     59  C   UNL     1      -3.485   9.638  -1.570  1.00  0.00     0.173 A 
ATOM     60  F   UNL     1      -2.240   7.017  -3.765  1.00  0.00    -0.203 F 
ATOM     61  C   UNL     1      -1.892   9.344  -3.824  1.00  0.00     0.198 A 
ATOM     62  C   UNL     1      -2.921  10.756  -2.178  1.00  0.00     0.198 A 
ATOM     63  F   UNL     1      -4.240   9.813  -0.475  1.00  0.00    -0.203 F 
ATOM     64  F   UNL     1      -1.091   9.197  -4.889  1.00  0.00    -0.200 F 
ATOM     65  C   UNL     1      -2.119  10.608  -3.299  1.00  0.00     0.200 A 
ATOM     66  F   UNL     1      -3.152  11.977  -1.676  1.00  0.00    -0.200 F 
ATOM     67  F   UNL     1      -1.557  11.683  -3.868  1.00  0.00    -0.200 F 
ENDBRANCH  43  57
BRANCH  44  68
ATOM     68  C   UNL     1      -7.170   0.405   2.499  1.00  0.00     0.064 A 
ATOM     69  C   UNL     1      -7.900  -0.570   1.801  1.00  0.00     0.173 A 
ATOM     70  C   UNL     1      -7.099   0.284   3.895  1.00  0.00     0.173 A 
ATOM     71  F   UNL     1      -8.028  -0.484   0.468  1.00  0.00    -0.203 F 
ATOM     72  C   UNL     1      -8.564  -1.595   2.474  1.00  0.00     0.198 A 
ATOM     73  C   UNL     1      -7.732  -0.762   4.563  1.00  0.00     0.198 A 
ATOM     74  F   UNL     1      -6.423   1.191   4.615  1.00  0.00    -0.203 F 
ATOM     75  F   UNL     1      -9.316  -2.466   1.788  1.00  0.00    -0.200 F 
ATOM     76  C   UNL     1      -8.476  -1.692   3.854  1.00  0.00     0.200 A 
ATOM     77  F   UNL     1      -7.636  -0.858   5.896  1.00  0.00    -0.200 F 
ATOM     78  F   UNL     1      -9.122  -2.671   4.502  1.00  0.00    -0.200 F 
ENDBRANCH  44  68
BRANCH  56  79
ATOM     79  C   UNL     1      -9.913   5.673  -1.147  1.00  0.00     0.064 A 
ATOM     80  C   UNL     1     -10.895   6.057  -0.221  1.00  0.00     0.173 A 
ATOM     81  C   UNL     1     -10.281   5.617  -2.502  1.00  0.00     0.173 A 
ATOM     82  F   UNL     1     -10.603   6.121   1.087  1.00  0.00    -0.203 F 
ATOM     83  C   UNL     1     -12.200   6.327  -0.629  1.00  0.00     0.198 A 
ATOM     84  C   UNL     1     -11.576   5.926  -2.910  1.00  0.00     0.198 A 
ATOM     85  F   UNL     1      -9.381   5.269  -3.434  1.00  0.00    -0.203 F 
ATOM     86  F   UNL     1     -13.136   6.625   0.282  1.00  0.00    -0.200 F 
ATOM     87  C   UNL     1     -12.538   6.267  -1.973  1.00  0.00     0.200 A 
ATOM     88  F   UNL     1     -11.894   5.886  -4.211  1.00  0.00    -0.200 F 
ATOM     89  F   UNL     1     -13.793   6.528  -2.363  1.00  0.00    -0.200 F 
ENDBRANCH  56  79
ENDBRANCH  30  31
ENDBRANCH  23  25
ENDBRANCH  22  23
ENDBRANCH  21  22
ENDBRANCH  20  21
ENDBRANCH  19  20
ENDBRANCH  18  19
ENDBRANCH   1  18
TORSDOF 20
