REMARK SMILES Cc1cc(C)c(C(=O)OCCOCCOCCOC(=O)c2ccc(-c3c4nc(c(-c5c(F)c(F)c(F)c(F)c5F)c5ccc([nH]5)c(-c5c(F)c(F)c(F)c(F)c5F)c5nc(c(-c6c(F)c(F)c(F)c(F)c6F)c6ccc3[nH]6)C=C5)C=C4)cc2)c(Sc2cccc(F)c2)n1
REMARK SMILES IDX 13 1 12 2 11 3 10 4 9 5 7 6 8 7 6 8 1 9 2 10 3 11 93 12 4 13
REMARK SMILES IDX 84 14 5 15 85 16 86 17 87 18 92 19 88 20 90 21 89 22 91 23
REMARK SMILES IDX 14 24 15 25 16 26 17 27 18 28 19 29 20 30 21 31 22 32 83 33
REMARK SMILES IDX 23 34 82 35 24 36 25 37 26 38 76 39 27 40 81 41 75 42 77 43
REMARK SMILES IDX 28 44 80 45 74 46 73 47 29 49 61 50 41 51 60 52 42 53 45 54
REMARK SMILES IDX 59 55 78 56 43 57 44 58 58 60 79 61 46 62 30 63 31 64 39 65
REMARK SMILES IDX 32 66 33 67 37 68 40 69 34 70 35 71 38 72 36 73 62 74 63 75
REMARK SMILES IDX 71 76 64 77 65 78 69 79 72 80 66 81 67 82 70 83 68 84 47 85
REMARK SMILES IDX 48 86 56 87 49 88 50 89 54 90 57 91 51 92 52 93 55 94 53 95
REMARK H PARENT 77 48 45 59
REMARK Flexibility Score: inf
ROOT
ATOM      1  C   UNL     1       3.216  -1.520   1.645  1.00  0.00     0.188 C 
ENDROOT
BRANCH   1   2
ATOM      2  O   UNL     1       3.776  -2.816   1.454  1.00  0.00    -0.376 OA
BRANCH   2   3
ATOM      3  C   UNL     1       4.801  -2.929   0.450  1.00  0.00     0.202 C 
BRANCH   3   4
ATOM      4  C   UNL     1       4.623  -2.260  -0.931  1.00  0.00     0.261 C 
BRANCH   4   5
ATOM      5  O   UNL     1       3.474  -1.419  -0.955  1.00  0.00    -0.460 OA
BRANCH   5   6
ATOM      6  C   UNL     1       2.425  -1.732  -1.730  1.00  0.00     0.341 C 
ATOM      7  O   UNL     1       2.433  -2.450  -2.712  1.00  0.00    -0.246 OA
BRANCH   6   8
ATOM      8  C   UNL     1       1.236  -1.109  -1.107  1.00  0.00     0.095 A 
ATOM      9  C   UNL     1      -2.405   0.664   0.175  1.00  0.00     0.067 C 
ATOM     10  C   UNL     1      -1.084   0.034  -0.149  1.00  0.00     0.039 A 
ATOM     11  C   UNL     1       0.046   0.823  -0.243  1.00  0.00     0.028 A 
ATOM     12  N   UNL     1      -1.059  -1.290  -0.409  1.00  0.00    -0.246 NA
ATOM     13  C   UNL     1       1.240   0.260  -0.707  1.00  0.00    -0.032 A 
ATOM     14  C   UNL     1       0.085  -1.876  -0.875  1.00  0.00     0.116 A 
ATOM     15  C   UNL     1       2.426   1.190  -0.788  1.00  0.00     0.045 C 
BRANCH  14  16
ATOM     16  S   UNL     1      -0.211  -3.608  -1.183  1.00  0.00    -0.069 SA
BRANCH  16  17
ATOM     17  C   UNL     1       1.212  -4.577  -0.735  1.00  0.00     0.017 A 
ATOM     18  C   UNL     1       1.910  -5.225  -1.766  1.00  0.00     0.015 A 
ATOM     19  C   UNL     1       1.549  -4.884   0.585  1.00  0.00     0.054 A 
ATOM     20  C   UNL     1       2.953  -6.116  -1.497  1.00  0.00     0.004 A 
ATOM     21  C   UNL     1       2.580  -5.791   0.848  1.00  0.00     0.124 A 
ATOM     22  C   UNL     1       3.289  -6.402  -0.180  1.00  0.00     0.039 A 
ATOM     23  F   UNL     1       2.896  -6.090   2.116  1.00  0.00    -0.207 F 
ENDBRANCH  16  17
ENDBRANCH  14  16
ENDBRANCH   6   8
ENDBRANCH   5   6
ENDBRANCH   4   5
ENDBRANCH   3   4
ENDBRANCH   2   3
ENDBRANCH   1   2
BRANCH   1  24
ATOM     24  C   UNL     1       3.004  -1.040   3.074  1.00  0.00     0.188 C 
BRANCH  24  25
ATOM     25  O   UNL     1       4.196  -0.741   3.787  1.00  0.00    -0.376 OA
BRANCH  25  26
ATOM     26  C   UNL     1       5.097  -1.828   3.972  1.00  0.00     0.202 C 
BRANCH  26  27
ATOM     27  C   UNL     1       4.624  -2.943   4.912  1.00  0.00     0.261 C 
BRANCH  27  28
ATOM     28  O   UNL     1       3.471  -3.676   4.448  1.00  0.00    -0.460 OA
BRANCH  28  29
ATOM     29  C   UNL     1       2.345  -3.522   5.187  1.00  0.00     0.338 C 
ATOM     30  O   UNL     1       2.186  -2.796   6.155  1.00  0.00    -0.246 OA
BRANCH  29  31
ATOM     31  C   UNL     1       1.238  -4.324   4.636  1.00  0.00     0.060 A 
ATOM     32  C   UNL     1       0.143  -3.685   4.037  1.00  0.00     0.016 A 
ATOM     33  C   UNL     1       1.204  -5.696   4.885  1.00  0.00     0.016 A 
ATOM     34  C   UNL     1      -1.004  -4.420   3.711  1.00  0.00     0.010 A 
ATOM     35  C   UNL     1       0.055  -6.425   4.567  1.00  0.00     0.010 A 
ATOM     36  C   UNL     1      -1.069  -5.788   4.011  1.00  0.00    -0.014 A 
BRANCH  36  37
ATOM     37  C   UNL     1      -2.344  -6.541   3.886  1.00  0.00     0.031 A 
ATOM     38  C   UNL     1      -3.178  -6.785   5.115  1.00  0.00     0.074 A 
ATOM     39  C   UNL     1      -2.743  -7.042   2.704  1.00  0.00     0.049 A 
ATOM     40  N   UNL     1      -4.276  -7.486   5.254  1.00  0.00    -0.248 NA
ATOM     41  C   UNL     1      -2.703  -6.159   6.358  1.00  0.00     0.031 C 
ATOM     42  C   UNL     1      -2.046  -6.863   1.434  1.00  0.00     0.029 A 
ATOM     43  N   UNL     1      -3.827  -7.825   2.389  1.00  0.00    -0.354 N 
ATOM     44  C   UNL     1      -4.620  -7.390   6.596  1.00  0.00     0.074 A 
ATOM     45  C   UNL     1      -3.595  -6.591   7.236  1.00  0.00     0.031 C 
ATOM     46  C   UNL     1      -2.711  -7.531   0.476  1.00  0.00     0.029 A 
ATOM     47  C   UNL     1      -3.861  -8.211   1.072  1.00  0.00     0.049 A 
ATOM     48  H   UNL     1      -4.514  -8.085   3.045  1.00  0.00     0.167 HD
ATOM     49  C   UNL     1      -5.694  -7.912   7.237  1.00  0.00     0.037 A 
ATOM     50  C   UNL     1      -4.709  -9.036   0.427  1.00  0.00     0.037 A 
ATOM     51  C   UNL     1      -6.709  -8.717   6.606  1.00  0.00     0.049 A 
ATOM     52  C   UNL     1      -5.854  -9.670   1.177  1.00  0.00     0.074 A 
ATOM     53  C   UNL     1      -7.851  -9.262   7.168  1.00  0.00     0.029 A 
ATOM     54  N   UNL     1      -6.696  -9.106   5.275  1.00  0.00    -0.354 N 
ATOM     55  N   UNL     1      -6.200  -9.537   2.434  1.00  0.00    -0.248 NA
ATOM     56  C   UNL     1      -6.729 -10.571   0.412  1.00  0.00     0.031 C 
ATOM     57  C   UNL     1      -8.496 -10.031   6.193  1.00  0.00     0.029 A 
ATOM     58  C   UNL     1      -7.792  -9.913   5.006  1.00  0.00     0.049 A 
ATOM     59  H   UNL     1      -6.010  -8.847   4.618  1.00  0.00     0.167 HD
ATOM     60  C   UNL     1      -7.347 -10.303   2.601  1.00  0.00     0.074 A 
ATOM     61  C   UNL     1      -7.645 -10.895   1.314  1.00  0.00     0.031 C 
ATOM     62  C   UNL     1      -8.088 -10.495   3.721  1.00  0.00     0.037 A 
BRANCH  49  63
ATOM     63  C   UNL     1      -5.812  -7.650   8.711  1.00  0.00     0.064 A 
ATOM     64  C   UNL     1      -6.104  -6.372   9.212  1.00  0.00     0.173 A 
ATOM     65  C   UNL     1      -5.656  -8.695   9.634  1.00  0.00     0.173 A 
ATOM     66  F   UNL     1      -6.256  -5.335   8.374  1.00  0.00    -0.203 F 
ATOM     67  C   UNL     1      -6.199  -6.144  10.583  1.00  0.00     0.198 A 
ATOM     68  C   UNL     1      -5.783  -8.470  11.002  1.00  0.00     0.198 A 
ATOM     69  F   UNL     1      -5.385  -9.939   9.209  1.00  0.00    -0.203 F 
ATOM     70  F   UNL     1      -6.425  -4.905  11.041  1.00  0.00    -0.200 F 
ATOM     71  C   UNL     1      -6.044  -7.194  11.476  1.00  0.00     0.200 A 
ATOM     72  F   UNL     1      -5.649  -9.489  11.863  1.00  0.00    -0.200 F 
ATOM     73  F   UNL     1      -6.140  -6.973  12.794  1.00  0.00    -0.200 F 
ENDBRANCH  49  63
BRANCH  50  74
ATOM     74  C   UNL     1      -4.511  -9.315  -1.019  1.00  0.00     0.064 A 
ATOM     75  C   UNL     1      -5.420  -8.840  -1.974  1.00  0.00     0.173 A 
ATOM     76  C   UNL     1      -3.425 -10.076  -1.474  1.00  0.00     0.173 A 
ATOM     77  F   UNL     1      -6.494  -8.136  -1.585  1.00  0.00    -0.203 F 
ATOM     78  C   UNL     1      -5.259  -9.129  -3.328  1.00  0.00     0.198 A 
ATOM     79  C   UNL     1      -3.248 -10.340  -2.830  1.00  0.00     0.198 A 
ATOM     80  F   UNL     1      -2.532 -10.562  -0.599  1.00  0.00    -0.203 F 
ATOM     81  F   UNL     1      -6.171  -8.706  -4.214  1.00  0.00    -0.200 F 
ATOM     82  C   UNL     1      -4.170  -9.873  -3.755  1.00  0.00     0.200 A 
ATOM     83  F   UNL     1      -2.192 -11.055  -3.240  1.00  0.00    -0.200 F 
ATOM     84  F   UNL     1      -4.015 -10.151  -5.057  1.00  0.00    -0.200 F 
ENDBRANCH  50  74
BRANCH  62  85
ATOM     85  C   UNL     1      -9.322 -11.346   3.604  1.00  0.00     0.064 A 
ATOM     86  C   UNL     1      -9.250 -12.735   3.418  1.00  0.00     0.173 A 
ATOM     87  C   UNL     1     -10.597 -10.769   3.723  1.00  0.00     0.173 A 
ATOM     88  F   UNL     1      -8.058 -13.337   3.284  1.00  0.00    -0.203 F 
ATOM     89  C   UNL     1     -10.405 -13.509   3.331  1.00  0.00     0.198 A 
ATOM     90  C   UNL     1     -11.748 -11.549   3.668  1.00  0.00     0.198 A 
ATOM     91  F   UNL     1     -10.726  -9.447   3.909  1.00  0.00    -0.203 F 
ATOM     92  F   UNL     1     -10.312 -14.827   3.106  1.00  0.00    -0.200 F 
ATOM     93  C   UNL     1     -11.652 -12.917   3.465  1.00  0.00     0.200 A 
ATOM     94  F   UNL     1     -12.952 -10.977   3.813  1.00  0.00    -0.200 F 
ATOM     95  F   UNL     1     -12.762 -13.665   3.391  1.00  0.00    -0.200 F 
ENDBRANCH  62  85
ENDBRANCH  36  37
ENDBRANCH  29  31
ENDBRANCH  28  29
ENDBRANCH  27  28
ENDBRANCH  26  27
ENDBRANCH  25  26
ENDBRANCH  24  25
ENDBRANCH   1  24
TORSDOF 19
