REMARK SMILES C[C@H](NS(=O)(=O)c1ccc(-c2cc(-c3ccccc3)c3cc([N+](=O)[O-])ccc3n2)cc1)C(=O)OCCOCCOCCOC(=O)c1ccc(-c2c3nc(c(-c4c(F)c(F)c(F)c(F)c4F)c4ccc([nH]4)c(-c4c(F)c(F)c(F)c(F)c4F)c4nc(c(-c5c(F)c(F)c(F)c(F)c5F)c5ccc2[nH]5)C=C4)C=C3)cc1
REMARK SMILES IDX 37 1 36 2 35 3 34 4 32 5 33 6 2 7 1 8 3 9 4 11 5 12 6 13
REMARK SMILES IDX 7 14 8 15 31 16 9 17 30 18 10 19 11 20 12 21 29 22 13 23
REMARK SMILES IDX 28 24 20 25 27 26 21 27 26 28 22 29 14 30 15 31 19 32 16 33
REMARK SMILES IDX 18 34 17 35 23 36 24 37 25 38 38 39 39 40 40 41 41 42 42 43
REMARK SMILES IDX 43 44 44 45 45 46 46 47 47 48 108 49 48 50 107 51 49 52
REMARK SMILES IDX 50 53 51 54 101 55 52 56 106 57 100 58 102 59 53 60 105 61
REMARK SMILES IDX 99 62 98 63 54 65 86 66 66 67 85 68 67 69 70 70 84 71 103 72
REMARK SMILES IDX 68 73 69 74 83 76 104 77 71 78 55 79 56 80 64 81 57 82 58 83
REMARK SMILES IDX 62 84 65 85 59 86 60 87 63 88 61 89 87 90 88 91 96 92 89 93
REMARK SMILES IDX 90 94 94 95 97 96 91 97 92 98 95 99 93 100 72 101 73 102
REMARK SMILES IDX 81 103 74 104 75 105 79 106 82 107 76 108 77 109 80 110
REMARK SMILES IDX 78 111
REMARK H PARENT 3 10 102 64 70 75
REMARK Flexibility Score: inf
ROOT
ATOM      1  O   UNL     1      -3.797   1.297   1.679  1.00  0.00    -0.376 OA
ENDROOT
BRANCH   1   2
ATOM      2  C   UNL     1      -4.321   1.151   0.365  1.00  0.00     0.202 C 
BRANCH   2   3
ATOM      3  C   UNL     1      -3.443   1.839  -0.680  1.00  0.00     0.261 C 
BRANCH   3   4
ATOM      4  O   UNL     1      -2.094   1.340  -0.656  1.00  0.00    -0.462 OA
BRANCH   4   5
ATOM      5  C   UNL     1      -1.151   2.141  -0.098  1.00  0.00     0.323 C 
ATOM      6  O   UNL     1      -1.377   3.281   0.293  1.00  0.00    -0.250 OA
BRANCH   5   7
ATOM      7  C   UNL     1       0.205   1.448   0.040  1.00  0.00     0.176 C 
ATOM      8  C   UNL     1       1.191   2.543   0.500  1.00  0.00     0.038 C 
BRANCH   7   9
ATOM      9  N   UNL     1       0.870   0.810  -1.124  1.00  0.00    -0.197 NA
ATOM     10  H   UNL     1       1.808   0.569  -0.805  1.00  0.00     0.142 HD
BRANCH   9  11
ATOM     11  S   UNL     1       0.296  -0.561  -1.923  1.00  0.00     0.241 S 
ATOM     12  O   UNL     1       1.520  -1.296  -2.195  1.00  0.00    -0.207 OA
ATOM     13  O   UNL     1      -0.787  -1.175  -1.216  1.00  0.00    -0.207 OA
BRANCH  11  14
ATOM     14  C   UNL     1      -0.288   0.063  -3.481  1.00  0.00     0.082 A 
ATOM     15  C   UNL     1       0.145  -0.559  -4.653  1.00  0.00     0.022 A 
ATOM     16  C   UNL     1      -0.878   1.321  -3.543  1.00  0.00     0.022 A 
ATOM     17  C   UNL     1       0.257   0.203  -5.819  1.00  0.00     0.012 A 
ATOM     18  C   UNL     1      -0.829   2.053  -4.722  1.00  0.00     0.012 A 
ATOM     19  C   UNL     1       0.001   1.588  -5.760  1.00  0.00     0.000 A 
BRANCH  19  20
ATOM     20  C   UNL     1       1.136   2.517  -6.099  1.00  0.00     0.072 A 
ATOM     21  C   UNL     1       0.908   3.877  -6.267  1.00  0.00     0.038 A 
ATOM     22  N   UNL     1       2.237   2.087  -5.428  1.00  0.00    -0.248 NA
ATOM     23  C   UNL     1       1.547   4.760  -5.383  1.00  0.00    -0.007 A 
ATOM     24  C   UNL     1       2.689   2.851  -4.439  1.00  0.00     0.072 A 
ATOM     25  C   UNL     1       2.298   4.191  -4.311  1.00  0.00     0.015 A 
ATOM     26  C   UNL     1       3.474   2.261  -3.453  1.00  0.00     0.036 A 
ATOM     27  C   UNL     1       2.613   4.870  -3.105  1.00  0.00     0.096 A 
ATOM     28  C   UNL     1       3.810   2.939  -2.279  1.00  0.00     0.088 A 
ATOM     29  C   UNL     1       3.347   4.240  -2.097  1.00  0.00     0.270 A 
BRANCH  23  30
ATOM     30  C   UNL     1       1.408   6.228  -5.499  1.00  0.00    -0.018 A 
ATOM     31  C   UNL     1       2.558   7.035  -5.362  1.00  0.00     0.009 A 
ATOM     32  C   UNL     1       0.179   6.873  -5.688  1.00  0.00     0.009 A 
ATOM     33  C   UNL     1       2.477   8.424  -5.310  1.00  0.00     0.001 A 
ATOM     34  C   UNL     1       0.100   8.271  -5.670  1.00  0.00     0.001 A 
ATOM     35  C   UNL     1       1.243   9.043  -5.457  1.00  0.00     0.000 A 
ENDBRANCH  23  30
BRANCH  29  36
ATOM     36  N   UNL     1       3.568   4.928  -0.820  1.00  0.00     0.062 N 
ATOM     37  O   UNL     1       2.938   5.974  -0.612  1.00  0.00    -0.258 OA
ATOM     38  O   UNL     1       4.345   4.400  -0.013  1.00  0.00    -0.258 OA
ENDBRANCH  29  36
ENDBRANCH  19  20
ENDBRANCH  11  14
ENDBRANCH   9  11
ENDBRANCH   7   9
ENDBRANCH   5   7
ENDBRANCH   4   5
ENDBRANCH   3   4
ENDBRANCH   2   3
ENDBRANCH   1   2
BRANCH   1  39
ATOM     39  C   UNL     1      -2.985   0.261   2.234  1.00  0.00     0.188 C 
BRANCH  39  40
ATOM     40  C   UNL     1      -2.444  -0.866   1.357  1.00  0.00     0.188 C 
BRANCH  40  41
ATOM     41  O   UNL     1      -3.483  -1.657   0.796  1.00  0.00    -0.376 OA
BRANCH  41  42
ATOM     42  C   UNL     1      -3.149  -3.038   0.672  1.00  0.00     0.202 C 
BRANCH  42  43
ATOM     43  C   UNL     1      -3.742  -3.768   1.880  1.00  0.00     0.261 C 
BRANCH  43  44
ATOM     44  O   UNL     1      -3.229  -3.255   3.127  1.00  0.00    -0.460 OA
BRANCH  44  45
ATOM     45  C   UNL     1      -1.923  -3.515   3.362  1.00  0.00     0.338 C 
ATOM     46  O   UNL     1      -1.196  -4.247   2.713  1.00  0.00    -0.246 OA
BRANCH  45  47
ATOM     47  C   UNL     1      -1.433  -2.610   4.428  1.00  0.00     0.060 A 
ATOM     48  C   UNL     1      -0.141  -2.076   4.302  1.00  0.00     0.016 A 
ATOM     49  C   UNL     1      -2.213  -2.306   5.546  1.00  0.00     0.016 A 
ATOM     50  C   UNL     1       0.403  -1.308   5.332  1.00  0.00     0.010 A 
ATOM     51  C   UNL     1      -1.664  -1.547   6.582  1.00  0.00     0.010 A 
ATOM     52  C   UNL     1      -0.336  -1.093   6.502  1.00  0.00    -0.014 A 
BRANCH  52  53
ATOM     53  C   UNL     1       0.349  -0.635   7.734  1.00  0.00     0.031 A 
ATOM     54  C   UNL     1       0.858  -1.685   8.685  1.00  0.00     0.074 A 
ATOM     55  C   UNL     1       0.516   0.668   8.017  1.00  0.00     0.049 A 
ATOM     56  N   UNL     1       1.432  -1.547   9.853  1.00  0.00    -0.248 NA
ATOM     57  C   UNL     1       0.687  -3.085   8.260  1.00  0.00     0.031 C 
ATOM     58  C   UNL     1       0.103   1.781   7.168  1.00  0.00     0.029 A 
ATOM     59  N   UNL     1       1.075   1.268   9.118  1.00  0.00    -0.354 N 
ATOM     60  C   UNL     1       1.684  -2.837  10.301  1.00  0.00     0.074 A 
ATOM     61  C   UNL     1       1.177  -3.746   9.297  1.00  0.00     0.031 C 
ATOM     62  C   UNL     1       0.413   2.935   7.786  1.00  0.00     0.029 A 
ATOM     63  C   UNL     1       1.020   2.638   9.084  1.00  0.00     0.049 A 
ATOM     64  H   UNL     1       1.477   0.763   9.861  1.00  0.00     0.167 HD
ATOM     65  C   UNL     1       2.291  -3.233  11.444  1.00  0.00     0.037 A 
ATOM     66  C   UNL     1       1.401   3.543  10.007  1.00  0.00     0.037 A 
ATOM     67  C   UNL     1       2.794  -2.338  12.449  1.00  0.00     0.049 A 
ATOM     68  C   UNL     1       2.008   3.075  11.306  1.00  0.00     0.074 A 
ATOM     69  C   UNL     1       3.441  -2.644  13.633  1.00  0.00     0.029 A 
ATOM     70  N   UNL     1       2.696  -0.956  12.390  1.00  0.00    -0.354 N 
ATOM     71  N   UNL     1       2.273   1.856  11.709  1.00  0.00    -0.248 NA
ATOM     72  C   UNL     1       2.368   4.117  12.281  1.00  0.00     0.031 C 
ATOM     73  C   UNL     1       3.697  -1.447  14.312  1.00  0.00     0.029 A 
ATOM     74  C   UNL     1       3.250  -0.395  13.528  1.00  0.00     0.049 A 
ATOM     75  H   UNL     1       2.292  -0.449  11.649  1.00  0.00     0.167 HD
ATOM     76  C   UNL     1       2.861   1.986  12.962  1.00  0.00     0.074 A 
ATOM     77  C   UNL     1       2.918   3.402  13.253  1.00  0.00     0.031 C 
ATOM     78  C   UNL     1       3.315   1.018  13.796  1.00  0.00     0.037 A 
BRANCH  65  79
ATOM     79  C   UNL     1       2.419  -4.709  11.674  1.00  0.00     0.064 A 
ATOM     80  C   UNL     1       3.326  -5.490  10.942  1.00  0.00     0.173 A 
ATOM     81  C   UNL     1       1.631  -5.347  12.642  1.00  0.00     0.173 A 
ATOM     82  F   UNL     1       4.087  -4.928   9.991  1.00  0.00    -0.203 F 
ATOM     83  C   UNL     1       3.421  -6.862  11.155  1.00  0.00     0.198 A 
ATOM     84  C   UNL     1       1.747  -6.715  12.870  1.00  0.00     0.198 A 
ATOM     85  F   UNL     1       0.747  -4.643  13.366  1.00  0.00    -0.203 F 
ATOM     86  F   UNL     1       4.259  -7.598  10.412  1.00  0.00    -0.200 F 
ATOM     87  C   UNL     1       2.636  -7.472  12.122  1.00  0.00     0.200 A 
ATOM     88  F   UNL     1       0.993  -7.302  13.810  1.00  0.00    -0.200 F 
ATOM     89  F   UNL     1       2.729  -8.793  12.326  1.00  0.00    -0.200 F 
ENDBRANCH  65  79
BRANCH  66  90
ATOM     90  C   UNL     1       1.223   4.995   9.746  1.00  0.00     0.064 A 
ATOM     91  C   UNL     1       2.330   5.829   9.539  1.00  0.00     0.173 A 
ATOM     92  C   UNL     1      -0.050   5.583   9.739  1.00  0.00     0.173 A 
ATOM     93  F   UNL     1       3.569   5.315   9.570  1.00  0.00    -0.203 F 
ATOM     94  C   UNL     1       2.173   7.200   9.354  1.00  0.00     0.198 A 
ATOM     95  C   UNL     1      -0.207   6.951   9.530  1.00  0.00     0.198 A 
ATOM     96  F   UNL     1      -1.140   4.829   9.943  1.00  0.00    -0.203 F 
ATOM     97  F   UNL     1       3.251   7.983   9.210  1.00  0.00    -0.200 F 
ATOM     98  C   UNL     1       0.904   7.760   9.345  1.00  0.00     0.200 A 
ATOM     99  F   UNL     1      -1.435   7.489   9.520  1.00  0.00    -0.200 F 
ATOM    100  F   UNL     1       0.754   9.081   9.174  1.00  0.00    -0.200 F 
ENDBRANCH  66  90
BRANCH  78 101
ATOM    101  C   UNL     1       3.959   1.454  15.080  1.00  0.00     0.064 A 
ATOM    102  C   UNL     1       3.205   1.962  16.148  1.00  0.00     0.173 A 
ATOM    103  C   UNL     1       5.344   1.319  15.259  1.00  0.00     0.173 A 
ATOM    104  F   UNL     1       1.879   2.123  16.021  1.00  0.00    -0.203 F 
ATOM    105  C   UNL     1       3.818   2.340  17.340  1.00  0.00     0.198 A 
ATOM    106  C   UNL     1       5.950   1.672  16.461  1.00  0.00     0.198 A 
ATOM    107  F   UNL     1       6.109   0.830  14.271  1.00  0.00    -0.203 F 
ATOM    108  F   UNL     1       3.085   2.863  18.332  1.00  0.00    -0.200 F 
ATOM    109  C   UNL     1       5.188   2.189  17.498  1.00  0.00     0.200 A 
ATOM    110  F   UNL     1       7.272   1.512  16.617  1.00  0.00    -0.200 F 
ATOM    111  F   UNL     1       5.775   2.547  18.648  1.00  0.00    -0.200 F 
ENDBRANCH  78 101
ENDBRANCH  52  53
ENDBRANCH  45  47
ENDBRANCH  44  45
ENDBRANCH  43  44
ENDBRANCH  42  43
ENDBRANCH  41  42
ENDBRANCH  40  41
ENDBRANCH  39  40
ENDBRANCH   1  39
TORSDOF 23
