REMARK SMILES [N-]=[N+]=NC[C@H](NC=O)C(=O)OCCOCCOCCOC(=O)c1ccc(-c2c3nc(c(-c4c(F)c(F)c(F)c(F)c4F)c4ccc([nH]4)c(-c4c(F)c(F)c(F)c(F)c4F)c4nc(c(-c5c(F)c(F)c(F)c(F)c5F)c5ccc2[nH]5)C=C4)C=C3)cc1
REMARK SMILES IDX 15 1 14 2 13 3 12 4 11 5 9 6 10 7 5 8 4 9 3 10 1 11 2 12
REMARK SMILES IDX 6 13 7 14 8 16 16 17 17 18 18 19 19 20 20 21 21 22 22 23
REMARK SMILES IDX 23 24 24 25 85 26 25 27 84 28 26 29 27 30 28 31 78 32 29 33
REMARK SMILES IDX 83 34 77 35 79 36 30 37 82 38 76 39 75 40 31 42 63 43 43 44
REMARK SMILES IDX 62 45 44 46 47 47 61 48 80 49 45 50 46 51 60 53 81 54 48 55
REMARK SMILES IDX 32 56 33 57 41 58 34 59 35 60 39 61 42 62 36 63 37 64 40 65
REMARK SMILES IDX 38 66 64 67 65 68 73 69 66 70 67 71 71 72 74 73 68 74 69 75
REMARK SMILES IDX 72 76 70 77 49 78 50 79 58 80 51 81 52 82 56 83 59 84 53 85
REMARK SMILES IDX 54 86 57 87 55 88
REMARK H PARENT 6 15 79 41 47 52
REMARK Flexibility Score: inf
ROOT
ATOM      1  C   UNL     1       6.889   2.924  -2.424  1.00  0.00     0.188 C 
ENDROOT
BRANCH   1   2
ATOM      2  O   UNL     1       7.134   4.262  -2.828  1.00  0.00    -0.376 OA
BRANCH   2   3
ATOM      3  C   UNL     1       6.307   5.303  -2.319  1.00  0.00     0.202 C 
BRANCH   3   4
ATOM      4  C   UNL     1       4.775   5.142  -2.350  1.00  0.00     0.261 C 
BRANCH   4   5
ATOM      5  O   UNL     1       4.262   3.944  -1.726  1.00  0.00    -0.462 OA
BRANCH   5   6
ATOM      6  C   UNL     1       3.515   3.121  -2.511  1.00  0.00     0.328 C 
ATOM      7  O   UNL     1       3.227   3.349  -3.681  1.00  0.00    -0.250 OA
BRANCH   6   8
ATOM      8  C   UNL     1       3.033   1.846  -1.787  1.00  0.00     0.197 C 
BRANCH   8   9
ATOM      9  C   UNL     1       1.501   1.879  -1.702  1.00  0.00     0.127 C 
BRANCH   9  10
ATOM     10  N   UNL     1       0.962   3.078  -1.023  1.00  0.00    -0.091 NA
ATOM     11  N   UNL     1       1.907   3.702   1.075  1.00  0.00    -0.003 NA
ATOM     12  N   UNL     1       1.437   3.394   0.079  1.00  0.00     0.001 N 
ENDBRANCH   9  10
ENDBRANCH   8   9
BRANCH   8  13
ATOM     13  N   UNL     1       3.597   1.502  -0.480  1.00  0.00    -0.345 N 
ATOM     14  C   UNL     1       3.924   0.226  -0.114  1.00  0.00     0.337 C 
ATOM     15  H   UNL     1       3.749   2.228   0.169  1.00  0.00     0.164 HD
ATOM     16  O   UNL     1       4.497  -0.049   0.929  1.00  0.00    -0.279 OA
ENDBRANCH   8  13
ENDBRANCH   6   8
ENDBRANCH   5   6
ENDBRANCH   4   5
ENDBRANCH   3   4
ENDBRANCH   2   3
ENDBRANCH   1   2
BRANCH   1  17
ATOM     17  C   UNL     1       6.660   2.616  -0.936  1.00  0.00     0.188 C 
BRANCH  17  18
ATOM     18  O   UNL     1       6.582   3.737  -0.095  1.00  0.00    -0.376 OA
BRANCH  18  19
ATOM     19  C   UNL     1       7.691   4.024   0.740  1.00  0.00     0.202 C 
BRANCH  19  20
ATOM     20  C   UNL     1       9.153   3.724   0.332  1.00  0.00     0.261 C 
BRANCH  20  21
ATOM     21  O   UNL     1       9.390   2.701  -0.651  1.00  0.00    -0.460 OA
BRANCH  21  22
ATOM     22  C   UNL     1       9.559   1.429  -0.211  1.00  0.00     0.338 C 
ATOM     23  O   UNL     1       9.547   1.039   0.941  1.00  0.00    -0.246 OA
BRANCH  22  24
ATOM     24  C   UNL     1       9.553   0.542  -1.400  1.00  0.00     0.060 A 
ATOM     25  C   UNL     1       8.451  -0.294  -1.644  1.00  0.00     0.016 A 
ATOM     26  C   UNL     1      10.624   0.566  -2.292  1.00  0.00     0.016 A 
ATOM     27  C   UNL     1       8.407  -1.088  -2.795  1.00  0.00     0.010 A 
ATOM     28  C   UNL     1      10.595  -0.256  -3.423  1.00  0.00     0.010 A 
ATOM     29  C   UNL     1       9.492  -1.091  -3.680  1.00  0.00    -0.014 A 
BRANCH  29  30
ATOM     30  C   UNL     1       9.566  -2.059  -4.803  1.00  0.00     0.031 A 
ATOM     31  C   UNL     1      10.380  -3.308  -4.624  1.00  0.00     0.074 A 
ATOM     32  C   UNL     1       8.966  -1.815  -5.982  1.00  0.00     0.049 A 
ATOM     33  N   UNL     1      10.729  -4.213  -5.503  1.00  0.00    -0.248 NA
ATOM     34  C   UNL     1      10.874  -3.563  -3.263  1.00  0.00     0.031 C 
ATOM     35  C   UNL     1       8.101  -0.676  -6.270  1.00  0.00     0.029 A 
ATOM     36  N   UNL     1       9.021  -2.508  -7.168  1.00  0.00    -0.354 N 
ATOM     37  C   UNL     1      11.495  -5.137  -4.805  1.00  0.00     0.074 A 
ATOM     38  C   UNL     1      11.584  -4.667  -3.439  1.00  0.00     0.031 C 
ATOM     39  C   UNL     1       7.719  -0.735  -7.558  1.00  0.00     0.029 A 
ATOM     40  C   UNL     1       8.355  -1.887  -8.196  1.00  0.00     0.049 A 
ATOM     41  H   UNL     1       9.493  -3.366  -7.270  1.00  0.00     0.167 HD
ATOM     42  C   UNL     1      12.070  -6.276  -5.263  1.00  0.00     0.037 A 
ATOM     43  C   UNL     1       8.300  -2.195  -9.508  1.00  0.00     0.037 A 
ATOM     44  C   UNL     1      11.997  -6.727  -6.628  1.00  0.00     0.049 A 
ATOM     45  C   UNL     1       9.059  -3.393 -10.024  1.00  0.00     0.074 A 
ATOM     46  C   UNL     1      12.535  -7.871  -7.190  1.00  0.00     0.029 A 
ATOM     47  N   UNL     1      11.360  -6.041  -7.653  1.00  0.00    -0.354 N 
ATOM     48  N   UNL     1       9.764  -4.278  -9.361  1.00  0.00    -0.248 NA
ATOM     49  C   UNL     1       9.024  -3.626 -11.476  1.00  0.00     0.031 C 
ATOM     50  C   UNL     1      12.284  -7.843  -8.566  1.00  0.00     0.029 A 
ATOM     51  C   UNL     1      11.531  -6.715  -8.852  1.00  0.00     0.049 A 
ATOM     52  H   UNL     1      10.861  -5.200  -7.545  1.00  0.00     0.167 HD
ATOM     53  C   UNL     1      10.232  -5.184 -10.306  1.00  0.00     0.074 A 
ATOM     54  C   UNL     1       9.719  -4.750 -11.589  1.00  0.00     0.031 C 
ATOM     55  C   UNL     1      11.016  -6.276 -10.126  1.00  0.00     0.037 A 
BRANCH  42  56
ATOM     56  C   UNL     1      12.869  -7.083  -4.279  1.00  0.00     0.064 A 
ATOM     57  C   UNL     1      12.264  -7.745  -3.199  1.00  0.00     0.173 A 
ATOM     58  C   UNL     1      14.262  -7.192  -4.414  1.00  0.00     0.173 A 
ATOM     59  F   UNL     1      10.937  -7.666  -3.016  1.00  0.00    -0.203 F 
ATOM     60  C   UNL     1      13.028  -8.441  -2.265  1.00  0.00     0.198 A 
ATOM     61  C   UNL     1      15.018  -7.922  -3.501  1.00  0.00     0.198 A 
ATOM     62  F   UNL     1      14.893  -6.589  -5.433  1.00  0.00    -0.203 F 
ATOM     63  F   UNL     1      12.435  -9.002  -1.202  1.00  0.00    -0.200 F 
ATOM     64  C   UNL     1      14.403  -8.533  -2.419  1.00  0.00     0.200 A 
ATOM     65  F   UNL     1      16.345  -8.024  -3.662  1.00  0.00    -0.200 F 
ATOM     66  F   UNL     1      15.136  -9.201  -1.518  1.00  0.00    -0.200 F 
ENDBRANCH  42  56
BRANCH  43  67
ATOM     67  C   UNL     1       7.508  -1.346 -10.438  1.00  0.00     0.064 A 
ATOM     68  C   UNL     1       6.355  -1.849 -11.058  1.00  0.00     0.173 A 
ATOM     69  C   UNL     1       7.884  -0.028 -10.735  1.00  0.00     0.173 A 
ATOM     70  F   UNL     1       5.972  -3.114 -10.832  1.00  0.00    -0.203 F 
ATOM     71  C   UNL     1       5.615  -1.069 -11.945  1.00  0.00     0.198 A 
ATOM     72  C   UNL     1       7.126   0.761 -11.598  1.00  0.00     0.198 A 
ATOM     73  F   UNL     1       8.984   0.499 -10.178  1.00  0.00    -0.203 F 
ATOM     74  F   UNL     1       4.542  -1.589 -12.555  1.00  0.00    -0.200 F 
ATOM     75  C   UNL     1       5.995   0.238 -12.207  1.00  0.00     0.200 A 
ATOM     76  F   UNL     1       7.492   2.027 -11.842  1.00  0.00    -0.200 F 
ATOM     77  F   UNL     1       5.278   0.990 -13.053  1.00  0.00    -0.200 F 
ENDBRANCH  43  67
BRANCH  55  78
ATOM     78  C   UNL     1      11.357  -7.101 -11.337  1.00  0.00     0.064 A 
ATOM     79  C   UNL     1      12.245  -6.637 -12.318  1.00  0.00     0.173 A 
ATOM     80  C   UNL     1      10.843  -8.400 -11.481  1.00  0.00     0.173 A 
ATOM     81  F   UNL     1      12.752  -5.398 -12.238  1.00  0.00    -0.203 F 
ATOM     82  C   UNL     1      12.594  -7.436 -13.405  1.00  0.00     0.198 A 
ATOM     83  C   UNL     1      11.221  -9.208 -12.550  1.00  0.00     0.198 A 
ATOM     84  F   UNL     1       9.994  -8.897 -10.569  1.00  0.00    -0.203 F 
ATOM     85  F   UNL     1      13.414  -6.957 -14.351  1.00  0.00    -0.200 F 
ATOM     86  C   UNL     1      12.092  -8.724 -13.514  1.00  0.00     0.200 A 
ATOM     87  F   UNL     1      10.747 -10.459 -12.643  1.00  0.00    -0.200 F 
ATOM     88  F   UNL     1      12.444  -9.498 -14.550  1.00  0.00    -0.200 F 
ENDBRANCH  55  78
ENDBRANCH  29  30
ENDBRANCH  22  24
ENDBRANCH  21  22
ENDBRANCH  20  21
ENDBRANCH  19  20
ENDBRANCH  18  19
ENDBRANCH  17  18
ENDBRANCH   1  17
TORSDOF 20
