REMARK SMILES Cc1ccc(S(=O)(=O)Nc2ccc(C(=O)CCC(=O)OCCOCCOCCOC(=O)c3ccc(-c4c5nc(c(-c6c(F)c(F)c(F)c(F)c6F)c6ccc([nH]6)c(-c6c(F)c(F)c(F)c(F)c6F)c6nc(c(-c7c(F)c(F)c(F)c(F)c7F)c7ccc4[nH]7)C=C6)C=C5)cc3)cc2)c(C)c1
REMARK SMILES IDX 22 1 21 2 20 3 18 4 19 5 17 6 16 7 14 8 15 9 13 10 10 11
REMARK SMILES IDX 11 12 96 13 12 14 95 15 9 16 6 18 7 19 8 20 5 21 1 22 2 23
REMARK SMILES IDX 3 24 99 25 4 26 97 27 98 28 23 29 24 30 25 31 26 32 27 33
REMARK SMILES IDX 28 34 29 35 30 36 31 37 32 38 33 39 94 40 34 41 93 42 35 43
REMARK SMILES IDX 36 44 37 45 87 46 38 47 92 48 86 49 88 50 39 51 91 52 85 53
REMARK SMILES IDX 84 54 40 56 72 57 52 58 71 59 53 60 56 61 70 62 89 63 54 64
REMARK SMILES IDX 55 65 69 67 90 68 57 69 41 70 42 71 50 72 43 73 44 74 48 75
REMARK SMILES IDX 51 76 45 77 46 78 49 79 47 80 73 81 74 82 82 83 75 84 76 85
REMARK SMILES IDX 80 86 83 87 77 88 78 89 81 90 79 91 58 92 59 93 67 94 60 95
REMARK SMILES IDX 61 96 65 97 68 98 62 99 63 100 66 101 64 102
REMARK H PARENT 9 17 88 55 56 66
REMARK Flexibility Score: inf
ROOT
ATOM      1  C   UNL     1       1.074  -1.621   1.638  1.00  0.00     0.202 C 
ENDROOT
BRANCH   1   2
ATOM      2  C   UNL     1       1.861  -1.821   0.347  1.00  0.00     0.261 C 
BRANCH   2   3
ATOM      3  O   UNL     1       2.607  -3.041   0.326  1.00  0.00    -0.463 OA
BRANCH   3   4
ATOM      4  C   UNL     1       3.877  -2.998  -0.131  1.00  0.00     0.306 C 
ATOM      5  O   UNL     1       4.476  -1.981  -0.454  1.00  0.00    -0.252 OA
BRANCH   4   6
ATOM      6  C   UNL     1       4.490  -4.378  -0.186  1.00  0.00     0.131 C 
BRANCH   6   7
ATOM      7  C   UNL     1       3.598  -5.533   0.284  1.00  0.00     0.093 C 
BRANCH   7   8
ATOM      8  C   UNL     1       2.654  -6.043  -0.809  1.00  0.00     0.163 C 
ATOM      9  O   UNL     1       3.090  -6.753  -1.716  1.00  0.00    -0.294 OA
BRANCH   8  10
ATOM     10  C   UNL     1       1.216  -5.611  -0.865  1.00  0.00     0.018 A 
ATOM     11  C   UNL     1      -1.253  -4.261  -1.187  1.00  0.00     0.049 A 
ATOM     12  C   UNL     1      -0.747  -5.085  -2.199  1.00  0.00     0.027 A 
ATOM     13  C   UNL     1      -0.632  -4.306   0.047  1.00  0.00     0.027 A 
ATOM     14  C   UNL     1       0.485  -5.748  -2.046  1.00  0.00     0.014 A 
ATOM     15  C   UNL     1       0.586  -4.987   0.201  1.00  0.00     0.014 A 
BRANCH  11  16
ATOM     16  N   UNL     1      -2.384  -3.449  -1.486  1.00  0.00    -0.280 N 
ATOM     17  H   UNL     1      -2.954  -3.752  -2.230  1.00  0.00     0.180 HD
BRANCH  16  18
ATOM     18  S   UNL     1      -2.860  -2.031  -0.713  1.00  0.00     0.262 S 
ATOM     19  O   UNL     1      -2.830  -2.267   0.717  1.00  0.00    -0.201 OA
ATOM     20  O   UNL     1      -4.088  -1.644  -1.375  1.00  0.00    -0.201 OA
BRANCH  18  21
ATOM     21  C   UNL     1      -1.682  -0.716  -1.046  1.00  0.00     0.090 A 
ATOM     22  C   UNL     1       1.800   1.791  -0.687  1.00  0.00     0.044 C 
ATOM     23  C   UNL     1       0.534   1.021  -0.948  1.00  0.00    -0.051 A 
ATOM     24  C   UNL     1       0.492  -0.025  -1.877  1.00  0.00     0.005 A 
ATOM     25  C   UNL     1      -0.624   1.316  -0.229  1.00  0.00     0.008 A 
ATOM     26  C   UNL     1      -0.601  -0.912  -1.909  1.00  0.00     0.023 A 
ATOM     27  C   UNL     1      -1.752   0.475  -0.287  1.00  0.00    -0.030 A 
ATOM     28  C   UNL     1      -3.007   0.973   0.379  1.00  0.00     0.046 C 
ENDBRANCH  18  21
ENDBRANCH  16  18
ENDBRANCH  11  16
ENDBRANCH   8  10
ENDBRANCH   7   8
ENDBRANCH   6   7
ENDBRANCH   4   6
ENDBRANCH   3   4
ENDBRANCH   2   3
ENDBRANCH   1   2
BRANCH   1  29
ATOM     29  O   UNL     1       1.920  -1.356   2.749  1.00  0.00    -0.376 OA
BRANCH  29  30
ATOM     30  C   UNL     1       2.607  -2.501   3.229  1.00  0.00     0.188 C 
BRANCH  30  31
ATOM     31  C   UNL     1       1.706  -3.483   3.964  1.00  0.00     0.188 C 
BRANCH  31  32
ATOM     32  O   UNL     1       0.849  -4.328   3.212  1.00  0.00    -0.376 OA
BRANCH  32  33
ATOM     33  C   UNL     1      -0.446  -4.550   3.789  1.00  0.00     0.202 C 
BRANCH  33  34
ATOM     34  C   UNL     1      -0.535  -5.258   5.157  1.00  0.00     0.261 C 
BRANCH  34  35
ATOM     35  O   UNL     1       0.344  -4.691   6.139  1.00  0.00    -0.460 OA
BRANCH  35  36
ATOM     36  C   UNL     1       1.512  -5.366   6.332  1.00  0.00     0.338 C 
ATOM     37  O   UNL     1       1.780  -6.484   5.954  1.00  0.00    -0.246 OA
BRANCH  36  38
ATOM     38  C   UNL     1       2.537  -4.387   6.798  1.00  0.00     0.060 A 
ATOM     39  C   UNL     1       3.839  -4.522   6.279  1.00  0.00     0.016 A 
ATOM     40  C   UNL     1       2.200  -3.269   7.567  1.00  0.00     0.016 A 
ATOM     41  C   UNL     1       4.810  -3.564   6.552  1.00  0.00     0.010 A 
ATOM     42  C   UNL     1       3.184  -2.332   7.883  1.00  0.00     0.010 A 
ATOM     43  C   UNL     1       4.500  -2.513   7.421  1.00  0.00    -0.014 A 
BRANCH  43  44
ATOM     44  C   UNL     1       5.611  -1.888   8.167  1.00  0.00     0.031 A 
ATOM     45  C   UNL     1       6.003  -2.567   9.451  1.00  0.00     0.074 A 
ATOM     46  C   UNL     1       6.261  -0.801   7.727  1.00  0.00     0.049 A 
ATOM     47  N   UNL     1       6.899  -2.232  10.339  1.00  0.00    -0.248 NA
ATOM     48  C   UNL     1       5.265  -3.801   9.780  1.00  0.00     0.031 C 
ATOM     49  C   UNL     1       5.992  -0.095   6.478  1.00  0.00     0.029 A 
ATOM     50  N   UNL     1       7.285  -0.096   8.306  1.00  0.00    -0.354 N 
ATOM     51  C   UNL     1       6.827  -3.210  11.323  1.00  0.00     0.074 A 
ATOM     52  C   UNL     1       5.772  -4.122  10.955  1.00  0.00     0.031 C 
ATOM     53  C   UNL     1       6.816   0.965   6.396  1.00  0.00     0.029 A 
ATOM     54  C   UNL     1       7.646   1.022   7.599  1.00  0.00     0.049 A 
ATOM     55  H   UNL     1       7.719  -0.367   9.147  1.00  0.00     0.167 HD
ATOM     56  C   UNL     1       7.585  -3.346  12.434  1.00  0.00     0.037 A 
ATOM     57  C   UNL     1       8.529   1.990   7.917  1.00  0.00     0.037 A 
ATOM     58  C   UNL     1       8.610  -2.413  12.805  1.00  0.00     0.049 A 
ATOM     59  C   UNL     1       9.312   1.869   9.201  1.00  0.00     0.074 A 
ATOM     60  C   UNL     1       9.435  -2.430  13.913  1.00  0.00     0.029 A 
ATOM     61  N   UNL     1       8.937  -1.278  12.074  1.00  0.00    -0.354 N 
ATOM     62  N   UNL     1       9.257   0.937  10.123  1.00  0.00    -0.248 NA
ATOM     63  C   UNL     1      10.289   2.930   9.483  1.00  0.00     0.031 C 
ATOM     64  C   UNL     1      10.220  -1.273  13.883  1.00  0.00     0.029 A 
ATOM     65  C   UNL     1       9.936  -0.573  12.719  1.00  0.00     0.049 A 
ATOM     66  H   UNL     1       8.518  -1.015  11.222  1.00  0.00     0.167 HD
ATOM     67  C   UNL     1      10.207   1.280  11.078  1.00  0.00     0.074 A 
ATOM     68  C   UNL     1      10.832   2.502  10.614  1.00  0.00     0.031 C 
ATOM     69  C   UNL     1      10.539   0.643  12.230  1.00  0.00     0.037 A 
BRANCH  56  70
ATOM     70  C   UNL     1       7.279  -4.513  13.327  1.00  0.00     0.064 A 
ATOM     71  C   UNL     1       7.499  -5.839  12.916  1.00  0.00     0.173 A 
ATOM     72  C   UNL     1       6.710  -4.307  14.592  1.00  0.00     0.173 A 
ATOM     73  F   UNL     1       8.011  -6.095  11.703  1.00  0.00    -0.203 F 
ATOM     74  C   UNL     1       7.119  -6.912  13.720  1.00  0.00     0.198 A 
ATOM     75  C   UNL     1       6.368  -5.382  15.409  1.00  0.00     0.198 A 
ATOM     76  F   UNL     1       6.468  -3.063  15.031  1.00  0.00    -0.203 F 
ATOM     77  F   UNL     1       7.263  -8.166  13.271  1.00  0.00    -0.200 F 
ATOM     78  C   UNL     1       6.559  -6.682  14.967  1.00  0.00     0.200 A 
ATOM     79  F   UNL     1       5.834  -5.158  16.617  1.00  0.00    -0.200 F 
ATOM     80  F   UNL     1       6.188  -7.714  15.736  1.00  0.00    -0.200 F 
ENDBRANCH  56  70
BRANCH  57  81
ATOM     81  C   UNL     1       8.701   3.155   7.010  1.00  0.00     0.064 A 
ATOM     82  C   UNL     1       9.886   3.349   6.286  1.00  0.00     0.173 A 
ATOM     83  C   UNL     1       7.673   4.095   6.838  1.00  0.00     0.173 A 
ATOM     84  F   UNL     1      10.908   2.494   6.434  1.00  0.00    -0.203 F 
ATOM     85  C   UNL     1      10.039   4.441   5.433  1.00  0.00     0.198 A 
ATOM     86  C   UNL     1       7.816   5.171   5.964  1.00  0.00     0.198 A 
ATOM     87  F   UNL     1       6.521   3.959   7.511  1.00  0.00    -0.203 F 
ATOM     88  F   UNL     1      11.196   4.624   4.782  1.00  0.00    -0.200 F 
ATOM     89  C   UNL     1       9.001   5.346   5.266  1.00  0.00     0.200 A 
ATOM     90  F   UNL     1       6.806   6.035   5.797  1.00  0.00    -0.200 F 
ATOM     91  F   UNL     1       9.144   6.389   4.436  1.00  0.00    -0.200 F 
ENDBRANCH  57  81
BRANCH  69  92
ATOM     92  C   UNL     1      11.654   1.232  13.047  1.00  0.00     0.064 A 
ATOM     93  C   UNL     1      11.506   2.439  13.745  1.00  0.00     0.173 A 
ATOM     94  C   UNL     1      12.873   0.547  13.172  1.00  0.00     0.173 A 
ATOM     95  F   UNL     1      10.363   3.137  13.654  1.00  0.00    -0.203 F 
ATOM     96  C   UNL     1      12.549   2.956  14.508  1.00  0.00     0.198 A 
ATOM     97  C   UNL     1      13.900   1.047  13.966  1.00  0.00     0.198 A 
ATOM     98  F   UNL     1      13.062  -0.620  12.537  1.00  0.00    -0.203 F 
ATOM     99  F   UNL     1      12.405   4.139  15.121  1.00  0.00    -0.200 F 
ATOM    100  C   UNL     1      13.741   2.256  14.625  1.00  0.00     0.200 A 
ATOM    101  F   UNL     1      15.042   0.359  14.094  1.00  0.00    -0.200 F 
ATOM    102  F   UNL     1      14.741   2.752  15.367  1.00  0.00    -0.200 F 
ENDBRANCH  69  92
ENDBRANCH  43  44
ENDBRANCH  36  38
ENDBRANCH  35  36
ENDBRANCH  34  35
ENDBRANCH  33  34
ENDBRANCH  32  33
ENDBRANCH  31  32
ENDBRANCH  30  31
ENDBRANCH  29  30
ENDBRANCH   1  29
TORSDOF 23
