REMARK SMILES CCCOc1cncc(N[C@@](C)(C(=O)OCCOCCOCCOC(=O)c2ccc(-c3c4nc(c(-c5c(F)c(F)c(F)c(F)c5F)c5ccc([nH]5)c(-c5c(F)c(F)c(F)c(F)c5F)c5nc(c(-c6c(F)c(F)c(F)c(F)c6F)c6ccc3[nH]6)C=C5)C=C4)cc2)C(F)(F)F)n1
REMARK SMILES IDX 18 1 17 2 16 3 15 4 13 5 14 6 11 7 12 8 10 9 9 11 5 12 6 13
REMARK SMILES IDX 94 14 7 15 8 16 4 17 3 18 2 19 1 20 90 21 91 22 92 23 93 24
REMARK SMILES IDX 19 25 20 26 21 27 22 28 23 29 24 30 25 31 26 32 27 33 28 34
REMARK SMILES IDX 89 35 29 36 88 37 30 38 31 39 32 40 82 41 33 42 87 43 81 44
REMARK SMILES IDX 83 45 34 46 86 47 80 48 79 49 35 51 67 52 47 53 66 54 48 55
REMARK SMILES IDX 51 56 65 57 84 58 49 59 50 60 64 62 85 63 52 64 36 65 37 66
REMARK SMILES IDX 45 67 38 68 39 69 43 70 46 71 40 72 41 73 44 74 42 75 68 76
REMARK SMILES IDX 69 77 77 78 70 79 71 80 75 81 78 82 72 83 73 84 76 85 74 86
REMARK SMILES IDX 53 87 54 88 62 89 55 90 56 91 60 92 63 93 57 94 58 95 61 96
REMARK SMILES IDX 59 97
REMARK H PARENT 10 10 83 50 51 61
REMARK Flexibility Score: inf
ROOT
ATOM      1  O   UNL     1       7.054  -5.356  -1.726  1.00  0.00    -0.376 OA
ENDROOT
BRANCH   1   2
ATOM      2  C   UNL     1       7.109  -6.098  -2.936  1.00  0.00     0.202 C 
BRANCH   2   3
ATOM      3  C   UNL     1       5.907  -6.985  -3.308  1.00  0.00     0.261 C 
BRANCH   3   4
ATOM      4  O   UNL     1       4.600  -6.426  -3.020  1.00  0.00    -0.461 OA
BRANCH   4   5
ATOM      5  C   UNL     1       3.799  -7.168  -2.212  1.00  0.00     0.341 C 
ATOM      6  O   UNL     1       4.106  -8.309  -1.876  1.00  0.00    -0.249 OA
BRANCH   5   7
ATOM      7  C   UNL     1       2.443  -6.522  -1.820  1.00  0.00     0.230 C 
ATOM      8  C   UNL     1       1.394  -7.395  -2.522  1.00  0.00     0.058 C 
BRANCH   7   9
ATOM      9  N   UNL     1       2.240  -5.095  -2.304  1.00  0.00    -0.346 N 
ATOM     10  H   UNL     1       2.741  -4.885  -3.125  1.00  0.00     0.163 HD
BRANCH   9  11
ATOM     11  C   UNL     1       1.497  -4.031  -1.829  1.00  0.00     0.149 A 
ATOM     12  C   UNL     1       0.664  -1.882  -2.199  1.00  0.00     0.234 A 
ATOM     13  C   UNL     1      -0.122  -1.961  -1.067  1.00  0.00     0.179 A 
ATOM     14  N   UNL     1       1.450  -2.922  -2.620  1.00  0.00    -0.193 NA
ATOM     15  N   UNL     1      -0.018  -2.983  -0.210  1.00  0.00    -0.255 NA
ATOM     16  C   UNL     1       0.814  -3.979  -0.611  1.00  0.00     0.158 A 
BRANCH  12  17
ATOM     17  O   UNL     1       0.563  -0.760  -2.991  1.00  0.00    -0.477 OA
BRANCH  17  18
ATOM     18  C   UNL     1       1.330   0.362  -2.506  1.00  0.00     0.231 C 
BRANCH  18  19
ATOM     19  C   UNL     1       0.757   1.089  -1.273  1.00  0.00     0.038 C 
ATOM     20  C   UNL     1       1.490   0.742   0.020  1.00  0.00     0.007 C 
ENDBRANCH  18  19
ENDBRANCH  17  18
ENDBRANCH  12  17
ENDBRANCH   9  11
ENDBRANCH   7   9
BRANCH   7  21
ATOM     21  C   UNL     1       2.401  -6.734  -0.290  1.00  0.00     0.422 C 
ATOM     22  F   UNL     1       3.085  -5.755   0.357  1.00  0.00    -0.168 F 
ATOM     23  F   UNL     1       1.121  -6.696   0.163  1.00  0.00    -0.168 F 
ATOM     24  F   UNL     1       2.882  -7.909   0.158  1.00  0.00    -0.168 F 
ENDBRANCH   7  21
ENDBRANCH   5   7
ENDBRANCH   4   5
ENDBRANCH   3   4
ENDBRANCH   2   3
ENDBRANCH   1   2
BRANCH   1  25
ATOM     25  C   UNL     1       5.939  -4.502  -1.482  1.00  0.00     0.188 C 
BRANCH  25  26
ATOM     26  C   UNL     1       5.265  -3.765  -2.656  1.00  0.00     0.188 C 
BRANCH  26  27
ATOM     27  O   UNL     1       5.940  -3.897  -3.885  1.00  0.00    -0.376 OA
BRANCH  27  28
ATOM     28  C   UNL     1       6.459  -2.721  -4.467  1.00  0.00     0.202 C 
BRANCH  28  29
ATOM     29  C   UNL     1       7.401  -1.842  -3.625  1.00  0.00     0.261 C 
BRANCH  29  30
ATOM     30  O   UNL     1       7.081  -1.684  -2.229  1.00  0.00    -0.460 OA
BRANCH  30  31
ATOM     31  C   UNL     1       6.141  -0.772  -1.899  1.00  0.00     0.338 C 
ATOM     32  O   UNL     1       5.527  -0.036  -2.663  1.00  0.00    -0.246 OA
BRANCH  31  33
ATOM     33  C   UNL     1       5.808  -0.935  -0.465  1.00  0.00     0.060 A 
ATOM     34  C   UNL     1       4.519  -1.355  -0.103  1.00  0.00     0.016 A 
ATOM     35  C   UNL     1       6.754  -0.657   0.523  1.00  0.00     0.016 A 
ATOM     36  C   UNL     1       4.160  -1.452   1.245  1.00  0.00     0.010 A 
ATOM     37  C   UNL     1       6.385  -0.731   1.873  1.00  0.00     0.010 A 
ATOM     38  C   UNL     1       5.075  -1.089   2.241  1.00  0.00    -0.014 A 
BRANCH  38  39
ATOM     39  C   UNL     1       4.611  -0.895   3.641  1.00  0.00     0.031 A 
ATOM     40  C   UNL     1       4.335   0.506   4.121  1.00  0.00     0.074 A 
ATOM     41  C   UNL     1       4.413  -1.933   4.473  1.00  0.00     0.049 A 
ATOM     42  N   UNL     1       3.982   0.930   5.308  1.00  0.00    -0.248 NA
ATOM     43  C   UNL     1       4.483   1.575   3.121  1.00  0.00     0.031 C 
ATOM     44  C   UNL     1       4.594  -3.340   4.128  1.00  0.00     0.029 A 
ATOM     45  N   UNL     1       4.023  -1.956   5.791  1.00  0.00    -0.354 N 
ATOM     46  C   UNL     1       3.872   2.311   5.199  1.00  0.00     0.074 A 
ATOM     47  C   UNL     1       4.233   2.658   3.842  1.00  0.00     0.031 C 
ATOM     48  C   UNL     1       4.332  -4.091   5.212  1.00  0.00     0.029 A 
ATOM     49  C   UNL     1       3.997  -3.217   6.336  1.00  0.00     0.049 A 
ATOM     50  H   UNL     1       3.785  -1.146   6.297  1.00  0.00     0.167 HD
ATOM     51  C   UNL     1       3.494   3.210   6.141  1.00  0.00     0.037 A 
ATOM     52  C   UNL     1       3.755  -3.615   7.601  1.00  0.00     0.037 A 
ATOM     53  C   UNL     1       3.141   2.869   7.495  1.00  0.00     0.049 A 
ATOM     54  C   UNL     1       3.415  -2.587   8.654  1.00  0.00     0.074 A 
ATOM     55  C   UNL     1       2.739   3.709   8.520  1.00  0.00     0.029 A 
ATOM     56  N   UNL     1       3.155   1.584   8.016  1.00  0.00    -0.354 N 
ATOM     57  N   UNL     1       3.295  -1.286   8.540  1.00  0.00    -0.248 NA
ATOM     58  C   UNL     1       3.168  -3.090  10.014  1.00  0.00     0.031 C 
ATOM     59  C   UNL     1       2.569   2.940   9.676  1.00  0.00     0.029 A 
ATOM     60  C   UNL     1       2.795   1.612   9.355  1.00  0.00     0.049 A 
ATOM     61  H   UNL     1       3.387   0.772   7.511  1.00  0.00     0.167 HD
ATOM     62  C   UNL     1       2.926  -0.822   9.797  1.00  0.00     0.074 A 
ATOM     63  C   UNL     1       2.826  -1.982  10.656  1.00  0.00     0.031 C 
ATOM     64  C   UNL     1       2.690   0.451  10.203  1.00  0.00     0.037 A 
BRANCH  51  65
ATOM     65  C   UNL     1       3.472   4.659   5.744  1.00  0.00     0.064 A 
ATOM     66  C   UNL     1       2.525   5.164   4.840  1.00  0.00     0.173 A 
ATOM     67  C   UNL     1       4.392   5.561   6.299  1.00  0.00     0.173 A 
ATOM     68  F   UNL     1       1.632   4.342   4.268  1.00  0.00    -0.203 F 
ATOM     69  C   UNL     1       2.521   6.510   4.483  1.00  0.00     0.198 A 
ATOM     70  C   UNL     1       4.363   6.913   5.967  1.00  0.00     0.198 A 
ATOM     71  F   UNL     1       5.317   5.134   7.173  1.00  0.00    -0.203 F 
ATOM     72  F   UNL     1       1.643   6.957   3.574  1.00  0.00    -0.200 F 
ATOM     73  C   UNL     1       3.434   7.385   5.052  1.00  0.00     0.200 A 
ATOM     74  F   UNL     1       5.237   7.759   6.529  1.00  0.00    -0.200 F 
ATOM     75  F   UNL     1       3.424   8.681   4.713  1.00  0.00    -0.200 F 
ENDBRANCH  51  65
BRANCH  52  76
ATOM     76  C   UNL     1       3.840  -5.057   7.958  1.00  0.00     0.064 A 
ATOM     77  C   UNL     1       2.704  -5.776   8.356  1.00  0.00     0.173 A 
ATOM     78  C   UNL     1       5.068  -5.736   7.948  1.00  0.00     0.173 A 
ATOM     79  F   UNL     1       1.511  -5.164   8.416  1.00  0.00    -0.203 F 
ATOM     80  C   UNL     1       2.795  -7.109   8.753  1.00  0.00     0.198 A 
ATOM     81  C   UNL     1       5.153  -7.079   8.312  1.00  0.00     0.198 A 
ATOM     82  F   UNL     1       6.188  -5.095   7.584  1.00  0.00    -0.203 F 
ATOM     83  F   UNL     1       1.704  -7.753   9.187  1.00  0.00    -0.200 F 
ATOM     84  C   UNL     1       4.019  -7.761   8.724  1.00  0.00     0.200 A 
ATOM     85  F   UNL     1       6.336  -7.707   8.274  1.00  0.00    -0.200 F 
ATOM     86  F   UNL     1       4.107  -9.042   9.106  1.00  0.00    -0.200 F 
ENDBRANCH  52  76
BRANCH  64  87
ATOM     87  C   UNL     1       2.250   0.656  11.628  1.00  0.00     0.064 A 
ATOM     88  C   UNL     1       3.115   0.440  12.712  1.00  0.00     0.173 A 
ATOM     89  C   UNL     1       0.949   1.102  11.910  1.00  0.00     0.173 A 
ATOM     90  F   UNL     1       4.366   0.003  12.502  1.00  0.00    -0.203 F 
ATOM     91  C   UNL     1       2.681   0.624  14.023  1.00  0.00     0.198 A 
ATOM     92  C   UNL     1       0.531   1.321  13.220  1.00  0.00     0.198 A 
ATOM     93  F   UNL     1       0.083   1.337  10.913  1.00  0.00    -0.203 F 
ATOM     94  F   UNL     1       3.506   0.350  15.044  1.00  0.00    -0.200 F 
ATOM     95  C   UNL     1       1.393   1.070  14.276  1.00  0.00     0.200 A 
ATOM     96  F   UNL     1      -0.708   1.771  13.461  1.00  0.00    -0.200 F 
ATOM     97  F   UNL     1       0.980   1.251  15.538  1.00  0.00    -0.200 F 
ENDBRANCH  64  87
ENDBRANCH  38  39
ENDBRANCH  31  33
ENDBRANCH  30  31
ENDBRANCH  29  30
ENDBRANCH  28  29
ENDBRANCH  27  28
ENDBRANCH  26  27
ENDBRANCH  25  26
ENDBRANCH   1  25
TORSDOF 23
