REMARK SMILES C[C@H]([NH3+])C(=O)N1CCC[C@H]1C(=O)OCCOCCOCCOC(=O)c1ccc(-c2c3nc(c(-c4c(F)c(F)c(F)c(F)c4F)c4ccc([nH]4)c(-c4c(F)c(F)c(F)c(F)c4F)c4nc(c(-c5c(F)c(F)c(F)c(F)c5F)c5ccc2[nH]5)C=C4)C=C3)cc1
REMARK SMILES IDX 17 1 16 2 15 3 14 4 13 5 11 6 12 7 10 8 6 9 7 10 8 11 9 12
REMARK SMILES IDX 4 13 5 14 2 15 1 16 3 17 18 21 19 22 20 23 21 24 22 25 23 26
REMARK SMILES IDX 24 27 25 28 26 29 87 30 27 31 86 32 28 33 29 34 30 35 80 36
REMARK SMILES IDX 31 37 85 38 79 39 81 40 32 41 84 42 78 43 77 44 33 46 65 47
REMARK SMILES IDX 45 48 64 49 46 50 49 51 63 52 82 53 47 54 48 55 62 57 83 58
REMARK SMILES IDX 50 59 34 60 35 61 43 62 36 63 37 64 41 65 44 66 38 67 39 68
REMARK SMILES IDX 42 69 40 70 66 71 67 72 75 73 68 74 69 75 73 76 76 77 70 78
REMARK SMILES IDX 71 79 74 80 72 81 51 82 52 83 60 84 53 85 54 86 58 87 61 88
REMARK SMILES IDX 55 89 56 90 59 91 57 92
REMARK H PARENT 3 18 3 19 3 20 81 45 49 56
REMARK Flexibility Score: inf
ROOT
ATOM      1  C   UNL     1      -5.972  -1.586  -0.418  1.00  0.00     0.188 C 
ENDROOT
BRANCH   1   2
ATOM      2  O   UNL     1      -6.688  -0.423  -0.020  1.00  0.00    -0.376 OA
BRANCH   2   3
ATOM      3  C   UNL     1      -7.000   0.572  -0.978  1.00  0.00     0.202 C 
BRANCH   3   4
ATOM      4  C   UNL     1      -5.849   1.337  -1.641  1.00  0.00     0.261 C 
BRANCH   4   5
ATOM      5  O   UNL     1      -4.741   0.551  -2.110  1.00  0.00    -0.462 OA
BRANCH   5   6
ATOM      6  C   UNL     1      -3.669   0.473  -1.261  1.00  0.00     0.328 C 
ATOM      7  O   UNL     1      -3.663   0.898  -0.113  1.00  0.00    -0.250 OA
BRANCH   6   8
ATOM      8  C   UNL     1      -2.511  -0.294  -1.930  1.00  0.00     0.195 C 
ATOM      9  N   UNL     1      -1.266  -0.153  -1.174  1.00  0.00    -0.324 N 
ATOM     10  C   UNL     1      -0.944  -1.392  -0.495  1.00  0.00     0.121 C 
ATOM     11  C   UNL     1      -1.401  -2.427  -1.498  1.00  0.00     0.024 C 
ATOM     12  C   UNL     1      -2.703  -1.819  -2.013  1.00  0.00     0.039 C 
BRANCH   9  13
ATOM     13  C   UNL     1      -0.538   1.005  -1.310  1.00  0.00     0.281 C 
ATOM     14  O   UNL     1      -1.073   2.021  -1.772  1.00  0.00    -0.268 OA
BRANCH  13  15
ATOM     15  C   UNL     1       0.992   0.965  -1.168  1.00  0.00     0.268 C 
ATOM     16  C   UNL     1       1.554   0.169  -2.346  1.00  0.00     0.086 C 
BRANCH  15  17
ATOM     17  N   UNL     1       1.476   0.467   0.131  1.00  0.00    -0.348 N 
ATOM     18  H   UNL     1       1.181  -0.502   0.255  1.00  0.00     0.345 HD
ATOM     19  H   UNL     1       1.088   1.039   0.881  1.00  0.00     0.345 HD
ATOM     20  H   UNL     1       2.495   0.518   0.157  1.00  0.00     0.345 HD
ENDBRANCH  15  17
ENDBRANCH  13  15
ENDBRANCH   9  13
ENDBRANCH   6   8
ENDBRANCH   5   6
ENDBRANCH   4   5
ENDBRANCH   3   4
ENDBRANCH   2   3
ENDBRANCH   1   2
BRANCH   1  21
ATOM     21  C   UNL     1      -6.117  -2.128  -1.858  1.00  0.00     0.188 C 
BRANCH  21  22
ATOM     22  O   UNL     1      -7.375  -1.814  -2.404  1.00  0.00    -0.376 OA
BRANCH  22  23
ATOM     23  C   UNL     1      -8.331  -2.828  -2.587  1.00  0.00     0.202 C 
BRANCH  23  24
ATOM     24  C   UNL     1      -8.678  -3.822  -1.466  1.00  0.00     0.261 C 
BRANCH  24  25
ATOM     25  O   UNL     1      -7.727  -4.025  -0.410  1.00  0.00    -0.460 OA
BRANCH  25  26
ATOM     26  C   UNL     1      -6.861  -5.050  -0.537  1.00  0.00     0.338 C 
ATOM     27  O   UNL     1      -6.732  -5.785  -1.514  1.00  0.00    -0.246 OA
BRANCH  26  28
ATOM     28  C   UNL     1      -5.957  -5.092   0.633  1.00  0.00     0.060 A 
ATOM     29  C   UNL     1      -4.579  -4.926   0.436  1.00  0.00     0.016 A 
ATOM     30  C   UNL     1      -6.452  -5.351   1.914  1.00  0.00     0.016 A 
ATOM     31  C   UNL     1      -3.692  -5.058   1.511  1.00  0.00     0.010 A 
ATOM     32  C   UNL     1      -5.561  -5.496   2.987  1.00  0.00     0.010 A 
ATOM     33  C   UNL     1      -4.172  -5.382   2.789  1.00  0.00    -0.014 A 
BRANCH  33  34
ATOM     34  C   UNL     1      -3.228  -5.748   3.883  1.00  0.00     0.031 A 
ATOM     35  C   UNL     1      -3.016  -7.204   4.210  1.00  0.00     0.074 A 
ATOM     36  C   UNL     1      -2.557  -4.812   4.580  1.00  0.00     0.049 A 
ATOM     37  N   UNL     1      -2.306  -7.753   5.165  1.00  0.00    -0.248 NA
ATOM     38  C   UNL     1      -3.701  -8.172   3.340  1.00  0.00     0.031 C 
ATOM     39  C   UNL     1      -2.627  -3.373   4.347  1.00  0.00     0.029 A 
ATOM     40  N   UNL     1      -1.691  -4.941   5.641  1.00  0.00    -0.354 N 
ATOM     41  C   UNL     1      -2.466  -9.125   5.017  1.00  0.00     0.074 A 
ATOM     42  C   UNL     1      -3.362  -9.325   3.897  1.00  0.00     0.031 C 
ATOM     43  C   UNL     1      -1.848  -2.748   5.248  1.00  0.00     0.029 A 
ATOM     44  C   UNL     1      -1.256  -3.739   6.146  1.00  0.00     0.049 A 
ATOM     45  H   UNL     1      -1.409  -5.811   6.004  1.00  0.00     0.167 HD
ATOM     46  C   UNL     1      -1.914 -10.129   5.741  1.00  0.00     0.037 A 
ATOM     47  C   UNL     1      -0.494  -3.468   7.226  1.00  0.00     0.037 A 
ATOM     48  C   UNL     1      -1.027  -9.938   6.860  1.00  0.00     0.049 A 
ATOM     49  C   UNL     1       0.038  -4.601   8.071  1.00  0.00     0.074 A 
ATOM     50  C   UNL     1      -0.408 -10.897   7.644  1.00  0.00     0.029 A 
ATOM     51  N   UNL     1      -0.640  -8.705   7.362  1.00  0.00    -0.354 N 
ATOM     52  N   UNL     1      -0.100  -5.895   7.910  1.00  0.00    -0.248 NA
ATOM     53  C   UNL     1       0.836  -4.230   9.250  1.00  0.00     0.031 C 
ATOM     54  C   UNL     1       0.304 -10.245   8.657  1.00  0.00     0.029 A 
ATOM     55  C   UNL     1       0.185  -8.879   8.463  1.00  0.00     0.049 A 
ATOM     56  H   UNL     1      -0.911  -7.834   6.991  1.00  0.00     0.167 HD
ATOM     57  C   UNL     1       0.616  -6.489   8.944  1.00  0.00     0.074 A 
ATOM     58  C   UNL     1       1.202  -5.415   9.717  1.00  0.00     0.031 C 
ATOM     59  C   UNL     1       0.773  -7.807   9.226  1.00  0.00     0.037 A 
BRANCH  46  60
ATOM     60  C   UNL     1      -2.281 -11.537   5.365  1.00  0.00     0.064 A 
ATOM     61  C   UNL     1      -1.827 -12.127   4.176  1.00  0.00     0.173 A 
ATOM     62  C   UNL     1      -3.069 -12.319   6.224  1.00  0.00     0.173 A 
ATOM     63  F   UNL     1      -1.080 -11.421   3.313  1.00  0.00    -0.203 F 
ATOM     64  C   UNL     1      -2.175 -13.436   3.847  1.00  0.00     0.198 A 
ATOM     65  C   UNL     1      -3.387 -13.637   5.908  1.00  0.00     0.198 A 
ATOM     66  F   UNL     1      -3.523 -11.807   7.378  1.00  0.00    -0.203 F 
ATOM     67  F   UNL     1      -1.772 -13.961   2.681  1.00  0.00    -0.200 F 
ATOM     68  C   UNL     1      -2.947 -14.191   4.716  1.00  0.00     0.200 A 
ATOM     69  F   UNL     1      -4.120 -14.370   6.757  1.00  0.00    -0.200 F 
ATOM     70  F   UNL     1      -3.274 -15.452   4.401  1.00  0.00    -0.200 F 
ENDBRANCH  46  60
BRANCH  47  71
ATOM     71  C   UNL     1      -0.197  -2.057   7.595  1.00  0.00     0.064 A 
ATOM     72  C   UNL     1       1.109  -1.550   7.528  1.00  0.00     0.173 A 
ATOM     73  C   UNL     1      -1.203  -1.199   8.062  1.00  0.00     0.173 A 
ATOM     74  F   UNL     1       2.114  -2.341   7.123  1.00  0.00    -0.203 F 
ATOM     75  C   UNL     1       1.400  -0.249   7.935  1.00  0.00     0.198 A 
ATOM     76  C   UNL     1      -0.918   0.112   8.438  1.00  0.00     0.198 A 
ATOM     77  F   UNL     1      -2.467  -1.637   8.158  1.00  0.00    -0.203 F 
ATOM     78  F   UNL     1       2.667   0.188   7.920  1.00  0.00    -0.200 F 
ATOM     79  C   UNL     1       0.385   0.583   8.383  1.00  0.00     0.200 A 
ATOM     80  F   UNL     1      -1.902   0.914   8.866  1.00  0.00    -0.200 F 
ATOM     81  F   UNL     1       0.666   1.832   8.778  1.00  0.00    -0.200 F 
ENDBRANCH  47  71
BRANCH  59  82
ATOM     82  C   UNL     1       1.650  -8.170  10.394  1.00  0.00     0.064 A 
ATOM     83  C   UNL     1       1.265  -7.917  11.719  1.00  0.00     0.173 A 
ATOM     84  C   UNL     1       2.881  -8.813  10.184  1.00  0.00     0.173 A 
ATOM     85  F   UNL     1       0.105  -7.295  11.978  1.00  0.00    -0.203 F 
ATOM     86  C   UNL     1       2.092  -8.262  12.786  1.00  0.00     0.198 A 
ATOM     87  C   UNL     1       3.689  -9.188  11.254  1.00  0.00     0.198 A 
ATOM     88  F   UNL     1       3.296  -9.089   8.938  1.00  0.00    -0.203 F 
ATOM     89  F   UNL     1       1.728  -7.959  14.040  1.00  0.00    -0.200 F 
ATOM     90  C   UNL     1       3.300  -8.903  12.553  1.00  0.00     0.200 A 
ATOM     91  F   UNL     1       4.847  -9.823  11.027  1.00  0.00    -0.200 F 
ATOM     92  F   UNL     1       4.091  -9.240  13.581  1.00  0.00    -0.200 F 
ENDBRANCH  59  82
ENDBRANCH  33  34
ENDBRANCH  26  28
ENDBRANCH  25  26
ENDBRANCH  24  25
ENDBRANCH  23  24
ENDBRANCH  22  23
ENDBRANCH  21  22
ENDBRANCH   1  21
TORSDOF 20
