REMARK SMILES C[C@@H](c1ccccc1)[C@@H]1[NH2+][C@@H](C(=O)OCCOCCOCCOC(=O)c2ccc(-c3c4nc(c(-c5c(F)c(F)c(F)c(F)c5F)c5ccc([nH]5)c(-c5c(F)c(F)c(F)c(F)c5F)c5nc(c(-c6c(F)c(F)c(F)c(F)c6F)c6ccc3[nH]6)C=C5)C=C4)cc2)CS1
REMARK SMILES IDX 18 1 17 2 16 3 15 4 14 5 12 6 13 7 11 8 9 9 10 10 90 11
REMARK SMILES IDX 89 14 2 15 1 16 3 17 4 18 8 19 5 20 7 21 6 22 19 23 20 24
REMARK SMILES IDX 21 25 22 26 23 27 24 28 25 29 26 30 27 31 88 32 28 33 87 34
REMARK SMILES IDX 29 35 30 36 31 37 81 38 32 39 86 40 80 41 82 42 33 43 85 44
REMARK SMILES IDX 79 45 78 46 34 48 66 49 46 50 65 51 47 52 50 53 64 54 83 55
REMARK SMILES IDX 48 56 49 57 63 59 84 60 51 61 35 62 36 63 44 64 37 65 38 66
REMARK SMILES IDX 42 67 45 68 39 69 40 70 43 71 41 72 67 73 68 74 76 75 69 76
REMARK SMILES IDX 70 77 74 78 77 79 71 80 72 81 75 82 73 83 52 84 53 85 61 86
REMARK SMILES IDX 54 87 55 88 59 89 62 90 56 91 57 92 60 93 58 94
REMARK H PARENT 10 12 10 13 82 47 50 58
REMARK Flexibility Score: inf
ROOT
ATOM      1  C   UNL     1      -4.517  -3.055  -1.709  1.00  0.00     0.188 C 
ENDROOT
BRANCH   1   2
ATOM      2  O   UNL     1      -5.308  -3.920  -2.515  1.00  0.00    -0.376 OA
BRANCH   2   3
ATOM      3  C   UNL     1      -4.985  -5.307  -2.497  1.00  0.00     0.202 C 
BRANCH   3   4
ATOM      4  C   UNL     1      -3.529  -5.724  -2.784  1.00  0.00     0.261 C 
BRANCH   4   5
ATOM      5  O   UNL     1      -2.516  -4.944  -2.109  1.00  0.00    -0.459 OA
BRANCH   5   6
ATOM      6  C   UNL     1      -1.618  -4.298  -2.907  1.00  0.00     0.365 C 
ATOM      7  O   UNL     1      -1.521  -4.481  -4.118  1.00  0.00    -0.245 OA
BRANCH   6   8
ATOM      8  C   UNL     1      -0.737  -3.258  -2.181  1.00  0.00     0.304 C 
ATOM      9  C   UNL     1      -0.680  -1.720  -0.304  1.00  0.00     0.249 C 
ATOM     10  N   UNL     1      -1.067  -3.061  -0.753  1.00  0.00    -0.322 N 
ATOM     11  S   UNL     1      -1.255  -0.666  -1.675  1.00  0.00    -0.092 SA
ATOM     12  H   UNL     1      -2.072  -3.179  -0.624  1.00  0.00     0.348 HD
ATOM     13  H   UNL     1      -0.553  -3.749  -0.202  1.00  0.00     0.348 HD
ATOM     14  C   UNL     1      -0.881  -1.921  -2.924  1.00  0.00     0.153 C 
BRANCH   9  15
ATOM     15  C   UNL     1       0.833  -1.538   0.087  1.00  0.00     0.085 C 
ATOM     16  C   UNL     1       1.326  -0.082  -0.068  1.00  0.00     0.020 C 
BRANCH  15  17
ATOM     17  C   UNL     1       1.109  -2.079   1.499  1.00  0.00    -0.038 A 
ATOM     18  C   UNL     1       1.172  -3.466   1.715  1.00  0.00     0.004 A 
ATOM     19  C   UNL     1       1.311  -1.239   2.610  1.00  0.00     0.004 A 
ATOM     20  C   UNL     1       1.385  -3.992   2.993  1.00  0.00     0.000 A 
ATOM     21  C   UNL     1       1.558  -1.765   3.882  1.00  0.00     0.000 A 
ATOM     22  C   UNL     1       1.581  -3.141   4.076  1.00  0.00     0.000 A 
ENDBRANCH  15  17
ENDBRANCH   9  15
ENDBRANCH   6   8
ENDBRANCH   5   6
ENDBRANCH   4   5
ENDBRANCH   3   4
ENDBRANCH   2   3
ENDBRANCH   1   2
BRANCH   1  23
ATOM     23  C   UNL     1      -4.281  -3.433  -0.240  1.00  0.00     0.188 C 
BRANCH  23  24
ATOM     24  O   UNL     1      -4.653  -4.750   0.112  1.00  0.00    -0.376 OA
BRANCH  24  25
ATOM     25  C   UNL     1      -5.147  -4.944   1.429  1.00  0.00     0.202 C 
BRANCH  25  26
ATOM     26  C   UNL     1      -6.537  -4.336   1.726  1.00  0.00     0.261 C 
BRANCH  26  27
ATOM     27  O   UNL     1      -6.730  -2.940   1.410  1.00  0.00    -0.460 OA
BRANCH  27  28
ATOM     28  C   UNL     1      -6.027  -2.030   2.129  1.00  0.00     0.338 C 
ATOM     29  O   UNL     1      -5.329  -2.262   3.104  1.00  0.00    -0.246 OA
BRANCH  28  30
ATOM     30  C   UNL     1      -6.002  -0.747   1.369  1.00  0.00     0.060 A 
ATOM     31  C   UNL     1      -4.758  -0.180   1.043  1.00  0.00     0.016 A 
ATOM     32  C   UNL     1      -7.176  -0.131   0.932  1.00  0.00     0.016 A 
ATOM     33  C   UNL     1      -4.684   1.015   0.318  1.00  0.00     0.010 A 
ATOM     34  C   UNL     1      -7.103   1.082   0.232  1.00  0.00     0.010 A 
ATOM     35  C   UNL     1      -5.859   1.682  -0.051  1.00  0.00    -0.014 A 
BRANCH  35  36
ATOM     36  C   UNL     1      -5.807   3.093  -0.525  1.00  0.00     0.031 A 
ATOM     37  C   UNL     1      -6.080   4.185   0.475  1.00  0.00     0.074 A 
ATOM     38  C   UNL     1      -5.525   3.421  -1.798  1.00  0.00     0.049 A 
ATOM     39  N   UNL     1      -6.200   5.477   0.298  1.00  0.00    -0.248 NA
ATOM     40  C   UNL     1      -6.244   3.753   1.872  1.00  0.00     0.031 C 
ATOM     41  C   UNL     1      -5.178   2.482  -2.859  1.00  0.00     0.029 A 
ATOM     42  N   UNL     1      -5.505   4.652  -2.416  1.00  0.00    -0.354 N 
ATOM     43  C   UNL     1      -6.470   6.006   1.553  1.00  0.00     0.074 A 
ATOM     44  C   UNL     1      -6.524   4.895   2.478  1.00  0.00     0.031 C 
ATOM     45  C   UNL     1      -5.000   3.166  -4.004  1.00  0.00     0.029 A 
ATOM     46  C   UNL     1      -5.260   4.587  -3.765  1.00  0.00     0.049 A 
ATOM     47  H   UNL     1      -5.652   5.498  -1.935  1.00  0.00     0.167 HD
ATOM     48  C   UNL     1      -6.652   7.301   1.908  1.00  0.00     0.037 A 
ATOM     49  C   UNL     1      -5.275   5.556  -4.704  1.00  0.00     0.037 A 
ATOM     50  C   UNL     1      -6.603   8.410   0.991  1.00  0.00     0.049 A 
ATOM     51  C   UNL     1      -5.573   6.983  -4.305  1.00  0.00     0.074 A 
ATOM     52  C   UNL     1      -6.762   9.758   1.260  1.00  0.00     0.029 A 
ATOM     53  N   UNL     1      -6.389   8.297  -0.375  1.00  0.00    -0.354 N 
ATOM     54  N   UNL     1      -5.818   7.480  -3.117  1.00  0.00    -0.248 NA
ATOM     55  C   UNL     1      -5.595   7.984  -5.383  1.00  0.00     0.031 C 
ATOM     56  C   UNL     1      -6.713  10.455   0.048  1.00  0.00     0.029 A 
ATOM     57  C   UNL     1      -6.447   9.550  -0.967  1.00  0.00     0.049 A 
ATOM     58  H   UNL     1      -6.222   7.453  -0.853  1.00  0.00     0.167 HD
ATOM     59  C   UNL     1      -5.988   8.848  -3.298  1.00  0.00     0.074 A 
ATOM     60  C   UNL     1      -5.810   9.107  -4.711  1.00  0.00     0.031 C 
ATOM     61  C   UNL     1      -6.261   9.803  -2.374  1.00  0.00     0.037 A 
BRANCH  48  62
ATOM     62  C   UNL     1      -6.972   7.581   3.350  1.00  0.00     0.064 A 
ATOM     63  C   UNL     1      -6.027   7.393   4.371  1.00  0.00     0.173 A 
ATOM     64  C   UNL     1      -8.244   8.050   3.713  1.00  0.00     0.173 A 
ATOM     65  F   UNL     1      -4.801   6.933   4.081  1.00  0.00    -0.203 F 
ATOM     66  C   UNL     1      -6.358   7.625   5.704  1.00  0.00     0.198 A 
ATOM     67  C   UNL     1      -8.558   8.317   5.042  1.00  0.00     0.198 A 
ATOM     68  F   UNL     1      -9.183   8.253   2.777  1.00  0.00    -0.203 F 
ATOM     69  F   UNL     1      -5.460   7.375   6.668  1.00  0.00    -0.200 F 
ATOM     70  C   UNL     1      -7.620   8.092   6.038  1.00  0.00     0.200 A 
ATOM     71  F   UNL     1      -9.773   8.784   5.361  1.00  0.00    -0.200 F 
ATOM     72  F   UNL     1      -7.936   8.317   7.321  1.00  0.00    -0.200 F 
ENDBRANCH  48  62
BRANCH  49  73
ATOM     73  C   UNL     1      -5.021   5.212  -6.130  1.00  0.00     0.064 A 
ATOM     74  C   UNL     1      -3.870   5.661  -6.792  1.00  0.00     0.173 A 
ATOM     75  C   UNL     1      -5.937   4.445  -6.866  1.00  0.00     0.173 A 
ATOM     76  F   UNL     1      -2.982   6.429  -6.144  1.00  0.00    -0.203 F 
ATOM     77  C   UNL     1      -3.650   5.366  -8.137  1.00  0.00     0.198 A 
ATOM     78  C   UNL     1      -5.701   4.124  -8.202  1.00  0.00     0.198 A 
ATOM     79  F   UNL     1      -7.062   4.002  -6.286  1.00  0.00    -0.203 F 
ATOM     80  F   UNL     1      -2.566   5.850  -8.758  1.00  0.00    -0.200 F 
ATOM     81  C   UNL     1      -4.561   4.591  -8.838  1.00  0.00     0.200 A 
ATOM     82  F   UNL     1      -6.581   3.369  -8.873  1.00  0.00    -0.200 F 
ATOM     83  F   UNL     1      -4.346   4.303 -10.129  1.00  0.00    -0.200 F 
ENDBRANCH  49  73
BRANCH  61  84
ATOM     84  C   UNL     1      -6.338  11.232  -2.842  1.00  0.00     0.064 A 
ATOM     85  C   UNL     1      -7.395  11.698  -3.638  1.00  0.00     0.173 A 
ATOM     86  C   UNL     1      -5.365  12.161  -2.440  1.00  0.00     0.173 A 
ATOM     87  F   UNL     1      -8.347  10.853  -4.061  1.00  0.00    -0.203 F 
ATOM     88  C   UNL     1      -7.460  13.033  -4.034  1.00  0.00     0.198 A 
ATOM     89  C   UNL     1      -5.451  13.501  -2.808  1.00  0.00     0.198 A 
ATOM     90  F   UNL     1      -4.337  11.773  -1.670  1.00  0.00    -0.203 F 
ATOM     91  F   UNL     1      -8.453  13.445  -4.834  1.00  0.00    -0.200 F 
ATOM     92  C   UNL     1      -6.494  13.934  -3.612  1.00  0.00     0.200 A 
ATOM     93  F   UNL     1      -4.527  14.373  -2.382  1.00  0.00    -0.200 F 
ATOM     94  F   UNL     1      -6.565  15.220  -3.984  1.00  0.00    -0.200 F 
ENDBRANCH  61  84
ENDBRANCH  35  36
ENDBRANCH  28  30
ENDBRANCH  27  28
ENDBRANCH  26  27
ENDBRANCH  25  26
ENDBRANCH  24  25
ENDBRANCH  23  24
ENDBRANCH   1  23
TORSDOF 19
