REMARK SMILES CC(C)CCOc1ccc(C(=O)N2CCC[C@H](C(=O)OCCOCCOCCOC(=O)c3ccc(-c4c5nc(c(-c6c(F)c(F)c(F)c(F)c6F)c6ccc([nH]6)c(-c6c(F)c(F)c(F)c(F)c6F)c6nc(c(-c7c(F)c(F)c(F)c(F)c7F)c7ccc4[nH]7)C=C6)C=C5)cc3)C2)cc1
REMARK SMILES IDX 22 1 21 2 20 3 18 4 19 5 17 6 13 7 14 8 95 9 15 10 16 11
REMARK SMILES IDX 11 12 12 13 10 14 7 15 8 16 97 17 9 18 96 19 6 20 5 21 4 22
REMARK SMILES IDX 2 23 1 24 3 25 23 26 24 27 25 28 26 29 27 30 28 31 29 32
REMARK SMILES IDX 30 33 31 34 32 35 33 36 94 37 34 38 93 39 35 40 36 41 37 42
REMARK SMILES IDX 87 43 38 44 92 45 86 46 88 47 39 48 91 49 85 50 84 51 40 53
REMARK SMILES IDX 72 54 52 55 71 56 53 57 56 58 70 59 89 60 54 61 55 62 69 64
REMARK SMILES IDX 90 65 57 66 41 67 42 68 50 69 43 70 44 71 48 72 51 73 45 74
REMARK SMILES IDX 46 75 49 76 47 77 73 78 74 79 82 80 75 81 76 82 80 83 83 84
REMARK SMILES IDX 77 85 78 86 81 87 79 88 58 89 59 90 67 91 60 92 61 93 65 94
REMARK SMILES IDX 68 95 62 96 63 97 66 98 64 99
REMARK H PARENT 88 52 56 63
REMARK Flexibility Score: inf
ROOT
ATOM      1  C   UNL     1       7.384  -8.142  -0.779  1.00  0.00     0.202 C 
ENDROOT
BRANCH   1   2
ATOM      2  C   UNL     1       6.317  -7.032  -0.820  1.00  0.00     0.261 C 
BRANCH   2   3
ATOM      3  O   UNL     1       6.675  -5.802  -0.146  1.00  0.00    -0.463 OA
BRANCH   3   4
ATOM      4  C   UNL     1       5.956  -5.482   0.952  1.00  0.00     0.310 C 
ATOM      5  O   UNL     1       5.066  -6.189   1.423  1.00  0.00    -0.252 OA
BRANCH   4   6
ATOM      6  C   UNL     1       6.289  -4.134   1.590  1.00  0.00     0.119 C 
ATOM      7  N   UNL     1       5.041  -2.844  -0.072  1.00  0.00    -0.338 N 
ATOM      8  C   UNL     1       6.204  -2.045  -0.469  1.00  0.00     0.120 C 
ATOM      9  C   UNL     1       5.064  -3.270   1.326  1.00  0.00     0.135 C 
ATOM     10  C   UNL     1       7.516  -2.769  -0.183  1.00  0.00     0.022 C 
ATOM     11  C   UNL     1       7.538  -3.324   1.235  1.00  0.00     0.019 C 
BRANCH   7  12
ATOM     12  C   UNL     1       4.273  -3.421  -1.090  1.00  0.00     0.253 C 
ATOM     13  O   UNL     1       4.754  -3.588  -2.214  1.00  0.00    -0.269 OA
BRANCH  12  14
ATOM     14  C   UNL     1       2.800  -3.675  -0.922  1.00  0.00     0.040 A 
ATOM     15  C   UNL     1       0.016  -3.457  -0.841  1.00  0.00     0.119 A 
ATOM     16  C   UNL     1       0.647  -3.583  -2.071  1.00  0.00     0.047 A 
ATOM     17  C   UNL     1       0.714  -3.678   0.329  1.00  0.00     0.047 A 
ATOM     18  C   UNL     1       2.039  -3.721  -2.107  1.00  0.00     0.017 A 
ATOM     19  C   UNL     1       2.103  -3.699   0.288  1.00  0.00     0.017 A 
BRANCH  15  20
ATOM     20  O   UNL     1      -1.266  -3.001  -0.733  1.00  0.00    -0.494 OA
BRANCH  20  21
ATOM     21  C   UNL     1      -1.284  -1.553  -0.653  1.00  0.00     0.230 C 
BRANCH  21  22
ATOM     22  C   UNL     1      -0.916  -0.974   0.736  1.00  0.00     0.044 C 
BRANCH  22  23
ATOM     23  C   UNL     1       0.550  -0.497   0.904  1.00  0.00    -0.014 C 
ATOM     24  C   UNL     1       0.872   0.762   0.103  1.00  0.00     0.007 C 
ATOM     25  C   UNL     1       0.884  -0.278   2.384  1.00  0.00     0.007 C 
ENDBRANCH  22  23
ENDBRANCH  21  22
ENDBRANCH  20  21
ENDBRANCH  15  20
ENDBRANCH  12  14
ENDBRANCH   7  12
ENDBRANCH   4   6
ENDBRANCH   3   4
ENDBRANCH   2   3
ENDBRANCH   1   2
BRANCH   1  26
ATOM     26  O   UNL     1       7.775  -8.691   0.480  1.00  0.00    -0.376 OA
BRANCH  26  27
ATOM     27  C   UNL     1       8.082  -7.801   1.538  1.00  0.00     0.188 C 
BRANCH  27  28
ATOM     28  C   UNL     1       9.033  -6.636   1.261  1.00  0.00     0.188 C 
BRANCH  28  29
ATOM     29  O   UNL     1       9.326  -6.408  -0.094  1.00  0.00    -0.376 OA
BRANCH  29  30
ATOM     30  C   UNL     1      10.667  -6.363  -0.555  1.00  0.00     0.202 C 
BRANCH  30  31
ATOM     31  C   UNL     1      11.688  -7.430  -0.107  1.00  0.00     0.261 C 
BRANCH  31  32
ATOM     32  O   UNL     1      11.761  -7.729   1.298  1.00  0.00    -0.460 OA
BRANCH  32  33
ATOM     33  C   UNL     1      12.177  -6.733   2.127  1.00  0.00     0.338 C 
ATOM     34  O   UNL     1      12.620  -5.656   1.803  1.00  0.00    -0.246 OA
BRANCH  33  35
ATOM     35  C   UNL     1      11.695  -7.075   3.500  1.00  0.00     0.060 A 
ATOM     36  C   UNL     1      10.942  -6.114   4.195  1.00  0.00     0.016 A 
ATOM     37  C   UNL     1      11.887  -8.342   4.055  1.00  0.00     0.016 A 
ATOM     38  C   UNL     1      10.424  -6.401   5.462  1.00  0.00     0.010 A 
ATOM     39  C   UNL     1      11.389  -8.620   5.335  1.00  0.00     0.010 A 
ATOM     40  C   UNL     1      10.689  -7.638   6.062  1.00  0.00    -0.014 A 
BRANCH  40  41
ATOM     41  C   UNL     1      10.454  -7.818   7.519  1.00  0.00     0.031 A 
ATOM     42  C   UNL     1      11.626  -7.630   8.447  1.00  0.00     0.074 A 
ATOM     43  C   UNL     1       9.243  -8.110   8.028  1.00  0.00     0.049 A 
ATOM     44  N   UNL     1      11.699  -7.777   9.746  1.00  0.00    -0.248 NA
ATOM     45  C   UNL     1      12.891  -7.222   7.817  1.00  0.00     0.031 C 
ATOM     46  C   UNL     1       8.014  -8.273   7.256  1.00  0.00     0.029 A 
ATOM     47  N   UNL     1       8.856  -8.331   9.329  1.00  0.00    -0.354 N 
ATOM     48  C   UNL     1      13.015  -7.490  10.083  1.00  0.00     0.074 A 
ATOM     49  C   UNL     1      13.715  -7.194   8.852  1.00  0.00     0.031 C 
ATOM     50  C   UNL     1       7.010  -8.581   8.098  1.00  0.00     0.029 A 
ATOM     51  C   UNL     1       7.531  -8.671   9.462  1.00  0.00     0.049 A 
ATOM     52  H   UNL     1       9.470  -8.253  10.094  1.00  0.00     0.167 HD
ATOM     53  C   UNL     1      13.592  -7.465  11.308  1.00  0.00     0.037 A 
ATOM     54  C   UNL     1       6.830  -9.037  10.555  1.00  0.00     0.037 A 
ATOM     55  C   UNL     1      12.903  -7.761  12.536  1.00  0.00     0.049 A 
ATOM     56  C   UNL     1       7.516  -9.083  11.901  1.00  0.00     0.074 A 
ATOM     57  C   UNL     1      13.399  -7.747  13.827  1.00  0.00     0.029 A 
ATOM     58  N   UNL     1      11.571  -8.137  12.623  1.00  0.00    -0.354 N 
ATOM     59  N   UNL     1       8.753  -8.785  12.216  1.00  0.00    -0.248 NA
ATOM     60  C   UNL     1       6.699  -9.514  13.047  1.00  0.00     0.031 C 
ATOM     61  C   UNL     1      12.385  -8.175  14.690  1.00  0.00     0.029 A 
ATOM     62  C   UNL     1      11.237  -8.387  13.945  1.00  0.00     0.049 A 
ATOM     63  H   UNL     1      10.954  -8.215  11.860  1.00  0.00     0.167 HD
ATOM     64  C   UNL     1       8.853  -8.959  13.593  1.00  0.00     0.074 A 
ATOM     65  C   UNL     1       7.546  -9.372  14.056  1.00  0.00     0.031 C 
ATOM     66  C   UNL     1       9.930  -8.789  14.400  1.00  0.00     0.037 A 
BRANCH  53  67
ATOM     67  C   UNL     1      15.055  -7.135  11.376  1.00  0.00     0.064 A 
ATOM     68  C   UNL     1      15.539  -5.848  11.095  1.00  0.00     0.173 A 
ATOM     69  C   UNL     1      15.985  -8.116  11.753  1.00  0.00     0.173 A 
ATOM     70  F   UNL     1      14.695  -4.878  10.712  1.00  0.00    -0.203 F 
ATOM     71  C   UNL     1      16.901  -5.564  11.160  1.00  0.00     0.198 A 
ATOM     72  C   UNL     1      17.341  -7.820  11.852  1.00  0.00     0.198 A 
ATOM     73  F   UNL     1      15.576  -9.363  12.035  1.00  0.00    -0.203 F 
ATOM     74  F   UNL     1      17.345  -4.343  10.834  1.00  0.00    -0.200 F 
ATOM     75  C   UNL     1      17.799  -6.548  11.547  1.00  0.00     0.200 A 
ATOM     76  F   UNL     1      18.205  -8.768  12.240  1.00  0.00    -0.200 F 
ATOM     77  F   UNL     1      19.108  -6.271  11.618  1.00  0.00    -0.200 F 
ENDBRANCH  53  67
BRANCH  54  78
ATOM     78  C   UNL     1       5.394  -9.409  10.434  1.00  0.00     0.064 A 
ATOM     79  C   UNL     1       4.389  -8.632  11.030  1.00  0.00     0.173 A 
ATOM     80  C   UNL     1       4.998 -10.574   9.760  1.00  0.00     0.173 A 
ATOM     81  F   UNL     1       4.717  -7.526  11.716  1.00  0.00    -0.203 F 
ATOM     82  C   UNL     1       3.051  -9.016  10.975  1.00  0.00     0.198 A 
ATOM     83  C   UNL     1       3.656 -10.940   9.677  1.00  0.00     0.198 A 
ATOM     84  F   UNL     1       5.918 -11.360   9.181  1.00  0.00    -0.203 F 
ATOM     85  F   UNL     1       2.120  -8.286  11.604  1.00  0.00    -0.200 F 
ATOM     86  C   UNL     1       2.684 -10.166  10.293  1.00  0.00     0.200 A 
ATOM     87  F   UNL     1       3.306 -12.048   9.009  1.00  0.00    -0.200 F 
ATOM     88  F   UNL     1       1.397 -10.536  10.240  1.00  0.00    -0.200 F 
ENDBRANCH  54  78
BRANCH  66  89
ATOM     89  C   UNL     1       9.735  -8.999  15.877  1.00  0.00     0.064 A 
ATOM     90  C   UNL     1       9.501 -10.271  16.423  1.00  0.00     0.173 A 
ATOM     91  C   UNL     1       9.821  -7.914  16.765  1.00  0.00     0.173 A 
ATOM     92  F   UNL     1       9.399 -11.341  15.621  1.00  0.00    -0.203 F 
ATOM     93  C   UNL     1       9.325 -10.442  17.794  1.00  0.00     0.198 A 
ATOM     94  C   UNL     1       9.682  -8.095  18.139  1.00  0.00     0.198 A 
ATOM     95  F   UNL     1      10.055  -6.677  16.301  1.00  0.00    -0.203 F 
ATOM     96  F   UNL     1       9.044 -11.657  18.285  1.00  0.00    -0.200 F 
ATOM     97  C   UNL     1       9.423  -9.356  18.651  1.00  0.00     0.200 A 
ATOM     98  F   UNL     1       9.796  -7.046  18.965  1.00  0.00    -0.200 F 
ATOM     99  F   UNL     1       9.259  -9.524  19.971  1.00  0.00    -0.200 F 
ENDBRANCH  66  89
ENDBRANCH  40  41
ENDBRANCH  33  35
ENDBRANCH  32  33
ENDBRANCH  31  32
ENDBRANCH  30  31
ENDBRANCH  29  30
ENDBRANCH  28  29
ENDBRANCH  27  28
ENDBRANCH  26  27
ENDBRANCH   1  26
TORSDOF 23
