REMARK SMILES O=C(COc1ccccc1C[NH+]1CCC2(CC[NH2+]CC2)CC1)OCCOCCOCCOC(=O)c1ccc(-c2c3nc(c(-c4c(F)c(F)c(F)c(F)c4F)c4ccc([nH]4)c(-c4c(F)c(F)c(F)c(F)c4F)c4nc(c(-c5c(F)c(F)c(F)c(F)c5F)c5ccc2[nH]5)C=C4)C=C3)cc1
REMARK SMILES IDX 27 1 26 2 25 3 24 4 23 5 2 6 1 7 3 8 4 9 5 10 6 11 10 12
REMARK SMILES IDX 7 13 9 14 8 15 11 16 12 17 13 18 22 19 14 21 21 22 15 23
REMARK SMILES IDX 16 24 20 25 17 26 19 27 18 28 28 31 29 32 30 33 31 34 32 35
REMARK SMILES IDX 33 36 34 37 35 38 36 39 97 40 37 41 96 42 38 43 39 44 40 45
REMARK SMILES IDX 90 46 41 47 95 48 89 49 91 50 42 51 94 52 88 53 87 54 43 56
REMARK SMILES IDX 75 57 55 58 74 59 56 60 59 61 73 62 92 63 57 64 58 65 72 67
REMARK SMILES IDX 93 68 60 69 44 70 45 71 53 72 46 73 47 74 51 75 54 76 48 77
REMARK SMILES IDX 49 78 52 79 50 80 76 81 77 82 85 83 78 84 79 85 83 86 86 87
REMARK SMILES IDX 80 88 81 89 84 90 82 91 61 92 62 93 70 94 63 95 64 96 68 97
REMARK SMILES IDX 71 98 65 99 66 100 69 101 67 102
REMARK H PARENT 12 20 18 29 18 30 91 55 59 66
REMARK Flexibility Score: inf
ROOT
ATOM      1  C   UNL     1       3.890   1.326   2.500  1.00  0.00     0.188 C 
ENDROOT
BRANCH   1   2
ATOM      2  O   UNL     1       5.145   1.341   1.836  1.00  0.00    -0.376 OA
BRANCH   2   3
ATOM      3  C   UNL     1       5.367   0.320   0.886  1.00  0.00     0.202 C 
BRANCH   3   4
ATOM      4  C   UNL     1       4.401   0.352  -0.285  1.00  0.00     0.261 C 
BRANCH   4   5
ATOM      5  O   UNL     1       2.998   0.294   0.076  1.00  0.00    -0.461 OA
BRANCH   5   6
ATOM      6  C   UNL     1       2.338  -0.673   0.760  1.00  0.00     0.344 C 
ATOM      7  O   UNL     1       1.243  -0.440   1.271  1.00  0.00    -0.248 OA
BRANCH   6   8
ATOM      8  C   UNL     1       2.982  -2.022   0.871  1.00  0.00     0.351 C 
BRANCH   8   9
ATOM      9  O   UNL     1       3.595  -2.367  -0.365  1.00  0.00    -0.481 OA
BRANCH   9  10
ATOM     10  C   UNL     1       2.807  -3.253  -1.044  1.00  0.00     0.129 A 
ATOM     11  C   UNL     1       3.180  -4.594  -0.881  1.00  0.00     0.047 A 
ATOM     12  C   UNL     1       1.717  -2.868  -1.850  1.00  0.00     0.048 A 
ATOM     13  C   UNL     1       2.421  -5.598  -1.460  1.00  0.00     0.004 A 
ATOM     14  C   UNL     1       0.929  -3.913  -2.357  1.00  0.00     0.013 A 
ATOM     15  C   UNL     1       1.281  -5.257  -2.179  1.00  0.00     0.001 A 
BRANCH  12  16
ATOM     16  C   UNL     1       1.293  -1.438  -2.160  1.00  0.00     0.302 C 
BRANCH  16  17
ATOM     17  N   UNL     1       1.674  -0.763  -3.405  1.00  0.00    -0.331 N 
ATOM     18  C   UNL     1       3.049  -0.317  -3.533  1.00  0.00     0.263 C 
ATOM     19  C   UNL     1       1.180  -1.308  -4.650  1.00  0.00     0.263 C 
ATOM     20  H   UNL     1       1.123   0.081  -3.246  1.00  0.00     0.348 HD
ATOM     21  C   UNL     1       4.001  -1.457  -3.851  1.00  0.00     0.069 C 
ATOM     22  C   UNL     1       2.023  -2.462  -5.180  1.00  0.00     0.069 C 
ATOM     23  C   UNL     1       3.566  -2.282  -5.092  1.00  0.00    -0.008 C 
ATOM     24  C   UNL     1       4.083  -1.597  -6.381  1.00  0.00     0.069 C 
ATOM     25  C   UNL     1       4.186  -3.700  -5.005  1.00  0.00     0.069 C 
ATOM     26  C   UNL     1       5.603  -1.707  -6.547  1.00  0.00     0.261 C 
ATOM     27  C   UNL     1       5.697  -3.701  -5.189  1.00  0.00     0.261 C 
ATOM     28  N   UNL     1       6.069  -3.093  -6.466  1.00  0.00    -0.346 N 
ATOM     29  H   UNL     1       7.085  -3.108  -6.560  1.00  0.00     0.346 HD
ATOM     30  H   UNL     1       5.631  -3.626  -7.218  1.00  0.00     0.346 HD
ENDBRANCH  16  17
ENDBRANCH  12  16
ENDBRANCH   9  10
ENDBRANCH   8   9
ENDBRANCH   6   8
ENDBRANCH   5   6
ENDBRANCH   4   5
ENDBRANCH   3   4
ENDBRANCH   2   3
ENDBRANCH   1   2
BRANCH   1  31
ATOM     31  C   UNL     1       2.881   2.396   2.003  1.00  0.00     0.188 C 
BRANCH  31  32
ATOM     32  O   UNL     1       3.373   3.592   1.413  1.00  0.00    -0.376 OA
BRANCH  32  33
ATOM     33  C   UNL     1       4.564   4.158   1.930  1.00  0.00     0.202 C 
BRANCH  33  34
ATOM     34  C   UNL     1       4.585   4.553   3.418  1.00  0.00     0.261 C 
BRANCH  34  35
ATOM     35  O   UNL     1       4.261   3.493   4.347  1.00  0.00    -0.460 OA
BRANCH  35  36
ATOM     36  C   UNL     1       3.038   3.562   4.948  1.00  0.00     0.338 C 
ATOM     37  O   UNL     1       2.266   4.491   4.903  1.00  0.00    -0.246 OA
BRANCH  36  38
ATOM     38  C   UNL     1       2.647   2.233   5.519  1.00  0.00     0.060 A 
ATOM     39  C   UNL     1       1.379   1.724   5.186  1.00  0.00     0.016 A 
ATOM     40  C   UNL     1       3.465   1.511   6.391  1.00  0.00     0.016 A 
ATOM     41  C   UNL     1       0.889   0.561   5.790  1.00  0.00     0.010 A 
ATOM     42  C   UNL     1       2.962   0.356   7.020  1.00  0.00     0.010 A 
ATOM     43  C   UNL     1       1.643  -0.082   6.777  1.00  0.00    -0.014 A 
BRANCH  43  44
ATOM     44  C   UNL     1       0.928  -0.930   7.778  1.00  0.00     0.031 A 
ATOM     45  C   UNL     1       0.470  -0.254   9.051  1.00  0.00     0.074 A 
ATOM     46  C   UNL     1       0.615  -2.224   7.575  1.00  0.00     0.049 A 
ATOM     47  N   UNL     1      -0.169  -0.745  10.084  1.00  0.00    -0.248 NA
ATOM     48  C   UNL     1       0.783   1.180   9.171  1.00  0.00     0.031 C 
ATOM     49  C   UNL     1       0.928  -2.999   6.379  1.00  0.00     0.029 A 
ATOM     50  N   UNL     1      -0.049  -3.115   8.389  1.00  0.00    -0.354 N 
ATOM     51  C   UNL     1      -0.319   0.314  10.973  1.00  0.00     0.074 A 
ATOM     52  C   UNL     1       0.329   1.462  10.380  1.00  0.00     0.031 C 
ATOM     53  C   UNL     1       0.463  -4.253   6.539  1.00  0.00     0.029 A 
ATOM     54  C   UNL     1      -0.163  -4.377   7.857  1.00  0.00     0.049 A 
ATOM     55  H   UNL     1      -0.409  -2.870   9.272  1.00  0.00     0.167 HD
ATOM     56  C   UNL     1      -0.950   0.343  12.171  1.00  0.00     0.037 A 
ATOM     57  C   UNL     1      -0.702  -5.500   8.378  1.00  0.00     0.037 A 
ATOM     58  C   UNL     1      -1.609  -0.785  12.769  1.00  0.00     0.049 A 
ATOM     59  C   UNL     1      -1.338  -5.463   9.750  1.00  0.00     0.074 A 
ATOM     60  C   UNL     1      -2.290  -0.847  13.972  1.00  0.00     0.029 A 
ATOM     61  N   UNL     1      -1.665  -2.052  12.211  1.00  0.00    -0.354 N 
ATOM     62  N   UNL     1      -1.496  -4.453  10.569  1.00  0.00    -0.248 NA
ATOM     63  C   UNL     1      -1.884  -6.731  10.262  1.00  0.00     0.031 C 
ATOM     64  C   UNL     1      -2.707  -2.167  14.171  1.00  0.00     0.029 A 
ATOM     65  C   UNL     1      -2.347  -2.910  13.059  1.00  0.00     0.049 A 
ATOM     66  H   UNL     1      -1.278  -2.305  11.342  1.00  0.00     0.167 HD
ATOM     67  C   UNL     1      -2.196  -4.949  11.665  1.00  0.00     0.074 A 
ATOM     68  C   UNL     1      -2.439  -6.351  11.403  1.00  0.00     0.031 C 
ATOM     69  C   UNL     1      -2.606  -4.300  12.783  1.00  0.00     0.037 A 
BRANCH  56  70
ATOM     70  C   UNL     1      -0.923   1.637  12.932  1.00  0.00     0.064 A 
ATOM     71  C   UNL     1      -1.638   2.767  12.505  1.00  0.00     0.173 A 
ATOM     72  C   UNL     1      -0.178   1.743  14.116  1.00  0.00     0.173 A 
ATOM     73  F   UNL     1      -2.351   2.724  11.369  1.00  0.00    -0.203 F 
ATOM     74  C   UNL     1      -1.581   3.962  13.217  1.00  0.00     0.198 A 
ATOM     75  C   UNL     1      -0.152   2.929  14.845  1.00  0.00     0.198 A 
ATOM     76  F   UNL     1       0.523   0.693  14.570  1.00  0.00    -0.203 F 
ATOM     77  F   UNL     1      -2.224   5.045  12.758  1.00  0.00    -0.200 F 
ATOM     78  C   UNL     1      -0.845   4.040  14.389  1.00  0.00     0.200 A 
ATOM     79  F   UNL     1       0.549   2.997  15.985  1.00  0.00    -0.200 F 
ATOM     80  F   UNL     1      -0.797   5.189  15.077  1.00  0.00    -0.200 F 
ENDBRANCH  56  70
BRANCH  57  81
ATOM     81  C   UNL     1      -0.675  -6.776   7.608  1.00  0.00     0.064 A 
ATOM     82  C   UNL     1      -1.860  -7.371   7.147  1.00  0.00     0.173 A 
ATOM     83  C   UNL     1       0.528  -7.456   7.367  1.00  0.00     0.173 A 
ATOM     84  F   UNL     1      -3.041  -6.781   7.383  1.00  0.00    -0.203 F 
ATOM     85  C   UNL     1      -1.844  -8.605   6.499  1.00  0.00     0.198 A 
ATOM     86  C   UNL     1       0.545  -8.675   6.691  1.00  0.00     0.198 A 
ATOM     87  F   UNL     1       1.689  -6.939   7.795  1.00  0.00    -0.203 F 
ATOM     88  F   UNL     1      -2.996  -9.178   6.125  1.00  0.00    -0.200 F 
ATOM     89  C   UNL     1      -0.641  -9.253   6.266  1.00  0.00     0.200 A 
ATOM     90  F   UNL     1       1.711  -9.294   6.462  1.00  0.00    -0.200 F 
ATOM     91  F   UNL     1      -0.625 -10.440   5.644  1.00  0.00    -0.200 F 
ENDBRANCH  57  81
BRANCH  69  92
ATOM     92  C   UNL     1      -3.421  -5.073  13.784  1.00  0.00     0.064 A 
ATOM     93  C   UNL     1      -2.870  -6.101  14.564  1.00  0.00     0.173 A 
ATOM     94  C   UNL     1      -4.774  -4.753  13.989  1.00  0.00     0.173 A 
ATOM     95  F   UNL     1      -1.585  -6.454  14.405  1.00  0.00    -0.203 F 
ATOM     96  C   UNL     1      -3.650  -6.803  15.480  1.00  0.00     0.198 A 
ATOM     97  C   UNL     1      -5.540  -5.433  14.932  1.00  0.00     0.198 A 
ATOM     98  F   UNL     1      -5.351  -3.770  13.282  1.00  0.00    -0.203 F 
ATOM     99  F   UNL     1      -3.115  -7.821  16.170  1.00  0.00    -0.200 F 
ATOM    100  C   UNL     1      -4.981  -6.465  15.668  1.00  0.00     0.200 A 
ATOM    101  F   UNL     1      -6.822  -5.090  15.125  1.00  0.00    -0.200 F 
ATOM    102  F   UNL     1      -5.728  -7.139  16.554  1.00  0.00    -0.200 F 
ENDBRANCH  69  92
ENDBRANCH  43  44
ENDBRANCH  36  38
ENDBRANCH  35  36
ENDBRANCH  34  35
ENDBRANCH  33  34
ENDBRANCH  32  33
ENDBRANCH  31  32
ENDBRANCH   1  31
TORSDOF 21
