REMARK SMILES CCC[C@@H](CNC(=O)NCc1c(C)nn(C)c1C)C(=O)OCCOCCOCCOC(=O)c1ccc(-c2c3nc(c(-c4c(F)c(F)c(F)c(F)c4F)c4ccc([nH]4)c(-c4c(F)c(F)c(F)c(F)c4F)c4nc(c(-c5c(F)c(F)c(F)c(F)c5F)c5ccc2[nH]5)C=C4)C=C3)cc1
REMARK SMILES IDX 25 1 24 2 23 3 22 4 21 5 19 6 20 7 4 8 3 9 2 10 1 11 5 12
REMARK SMILES IDX 6 13 7 14 8 16 9 17 10 19 11 20 12 21 17 22 13 23 14 24
REMARK SMILES IDX 15 25 18 26 16 27 26 28 27 29 28 30 29 31 30 32 31 33 32 34
REMARK SMILES IDX 33 35 34 36 95 37 35 38 94 39 36 40 37 41 38 42 88 43 39 44
REMARK SMILES IDX 93 45 87 46 89 47 40 48 92 49 86 50 85 51 41 53 73 54 53 55
REMARK SMILES IDX 72 56 54 57 57 58 71 59 90 60 55 61 56 62 70 64 91 65 58 66
REMARK SMILES IDX 42 67 43 68 51 69 44 70 45 71 49 72 52 73 46 74 47 75 50 76
REMARK SMILES IDX 48 77 74 78 75 79 83 80 76 81 77 82 81 83 84 84 78 85 79 86
REMARK SMILES IDX 82 87 80 88 59 89 60 90 68 91 61 92 62 93 66 94 69 95 63 96
REMARK SMILES IDX 64 97 67 98 65 99
REMARK H PARENT 6 15 9 18 89 52 57 63
REMARK Flexibility Score: inf
ROOT
ATOM      1  C   UNL     1       3.345  -3.264   4.207  1.00  0.00     0.188 C 
ENDROOT
BRANCH   1   2
ATOM      2  O   UNL     1       3.034  -4.323   5.092  1.00  0.00    -0.376 OA
BRANCH   2   3
ATOM      3  C   UNL     1       2.094  -5.316   4.699  1.00  0.00     0.202 C 
BRANCH   3   4
ATOM      4  C   UNL     1       0.685  -4.896   4.239  1.00  0.00     0.261 C 
BRANCH   4   5
ATOM      5  O   UNL     1       0.573  -4.162   2.994  1.00  0.00    -0.463 OA
BRANCH   5   6
ATOM      6  C   UNL     1       0.362  -2.830   3.114  1.00  0.00     0.310 C 
ATOM      7  O   UNL     1       0.447  -2.220   4.178  1.00  0.00    -0.252 OA
BRANCH   6   8
ATOM      8  C   UNL     1      -0.039  -2.098   1.841  1.00  0.00     0.118 C 
BRANCH   8   9
ATOM      9  C   UNL     1       0.572  -2.572   0.510  1.00  0.00     0.017 C 
BRANCH   9  10
ATOM     10  C   UNL     1       0.462  -1.542  -0.635  1.00  0.00    -0.002 C 
ATOM     11  C   UNL     1       1.013  -0.156  -0.308  1.00  0.00     0.004 C 
ENDBRANCH   9  10
ENDBRANCH   8   9
BRANCH   8  12
ATOM     12  C   UNL     1      -1.562  -1.942   1.760  1.00  0.00     0.133 C 
BRANCH  12  13
ATOM     13  N   UNL     1      -2.272  -3.198   1.817  1.00  0.00    -0.337 N 
ATOM     14  C   UNL     1      -2.739  -3.930   2.835  1.00  0.00     0.315 C 
ATOM     15  H   UNL     1      -2.447  -3.594   0.933  1.00  0.00     0.165 HD
ATOM     16  O   UNL     1      -3.145  -5.068   2.588  1.00  0.00    -0.249 OA
ATOM     17  N   UNL     1      -2.771  -3.519   4.104  1.00  0.00    -0.334 N 
ATOM     18  H   UNL     1      -3.023  -4.246   4.718  1.00  0.00     0.165 HD
BRANCH  17  19
ATOM     19  C   UNL     1      -2.529  -2.277   4.807  1.00  0.00     0.157 C 
BRANCH  19  20
ATOM     20  C   UNL     1      -3.691  -1.350   4.760  1.00  0.00     0.015 A 
ATOM     21  C   UNL     1      -3.634   0.067   4.580  1.00  0.00     0.065 A 
ATOM     22  C   UNL     1      -5.040  -1.622   4.938  1.00  0.00     0.040 A 
ATOM     23  C   UNL     1      -2.465   0.953   4.328  1.00  0.00     0.069 C 
ATOM     24  N   UNL     1      -4.843   0.626   4.681  1.00  0.00    -0.178 NA
ATOM     25  N   UNL     1      -5.666  -0.403   4.933  1.00  0.00    -0.272 N 
ATOM     26  C   UNL     1      -5.774  -2.899   5.136  1.00  0.00     0.067 C 
ATOM     27  C   UNL     1      -7.048  -0.108   5.226  1.00  0.00     0.174 C 
ENDBRANCH  19  20
ENDBRANCH  17  19
ENDBRANCH  12  13
ENDBRANCH   8  12
ENDBRANCH   6   8
ENDBRANCH   5   6
ENDBRANCH   4   5
ENDBRANCH   3   4
ENDBRANCH   2   3
ENDBRANCH   1   2
BRANCH   1  28
ATOM     28  C   UNL     1       3.485  -3.538   2.711  1.00  0.00     0.188 C 
BRANCH  28  29
ATOM     29  O   UNL     1       3.183  -4.847   2.306  1.00  0.00    -0.376 OA
BRANCH  29  30
ATOM     30  C   UNL     1       4.108  -5.639   1.581  1.00  0.00     0.202 C 
BRANCH  30  31
ATOM     31  C   UNL     1       5.617  -5.649   1.909  1.00  0.00     0.261 C 
BRANCH  31  32
ATOM     32  O   UNL     1       6.264  -4.388   2.151  1.00  0.00    -0.460 OA
BRANCH  32  33
ATOM     33  C   UNL     1       6.304  -3.497   1.124  1.00  0.00     0.338 C 
ATOM     34  O   UNL     1       5.984  -3.701  -0.024  1.00  0.00    -0.246 OA
BRANCH  33  35
ATOM     35  C   UNL     1       6.498  -2.140   1.726  1.00  0.00     0.060 A 
ATOM     36  C   UNL     1       5.615  -1.116   1.343  1.00  0.00     0.016 A 
ATOM     37  C   UNL     1       7.444  -1.901   2.725  1.00  0.00     0.016 A 
ATOM     38  C   UNL     1       5.720   0.160   1.906  1.00  0.00     0.010 A 
ATOM     39  C   UNL     1       7.564  -0.617   3.272  1.00  0.00     0.010 A 
ATOM     40  C   UNL     1       6.736   0.433   2.831  1.00  0.00    -0.014 A 
BRANCH  40  41
ATOM     41  C   UNL     1       7.117   1.844   3.115  1.00  0.00     0.031 A 
ATOM     42  C   UNL     1       8.269   2.420   2.331  1.00  0.00     0.074 A 
ATOM     43  C   UNL     1       6.470   2.615   4.008  1.00  0.00     0.049 A 
ATOM     44  N   UNL     1       8.852   3.588   2.431  1.00  0.00    -0.248 NA
ATOM     45  C   UNL     1       8.845   1.549   1.293  1.00  0.00     0.031 C 
ATOM     46  C   UNL     1       5.309   2.214   4.795  1.00  0.00     0.029 A 
ATOM     47  N   UNL     1       6.719   3.908   4.407  1.00  0.00    -0.354 N 
ATOM     48  C   UNL     1       9.867   3.582   1.482  1.00  0.00     0.074 A 
ATOM     49  C   UNL     1       9.845   2.287   0.840  1.00  0.00     0.031 C 
ATOM     50  C   UNL     1       4.953   3.236   5.596  1.00  0.00     0.029 A 
ATOM     51  C   UNL     1       5.883   4.350   5.405  1.00  0.00     0.049 A 
ATOM     52  H   UNL     1       7.429   4.465   4.014  1.00  0.00     0.167 HD
ATOM     53  C   UNL     1      10.736   4.570   1.162  1.00  0.00     0.037 A 
ATOM     54  C   UNL     1       5.889   5.507   6.098  1.00  0.00     0.037 A 
ATOM     55  C   UNL     1      10.764   5.861   1.794  1.00  0.00     0.049 A 
ATOM     56  C   UNL     1       6.925   6.563   5.785  1.00  0.00     0.074 A 
ATOM     57  C   UNL     1      11.601   6.931   1.530  1.00  0.00     0.029 A 
ATOM     58  N   UNL     1       9.923   6.255   2.823  1.00  0.00    -0.354 N 
ATOM     59  N   UNL     1       7.869   6.559   4.875  1.00  0.00    -0.248 NA
ATOM     60  C   UNL     1       6.892   7.789   6.599  1.00  0.00     0.031 C 
ATOM     61  C   UNL     1      11.308   7.950   2.441  1.00  0.00     0.029 A 
ATOM     62  C   UNL     1      10.240   7.543   3.224  1.00  0.00     0.049 A 
ATOM     63  H   UNL     1       9.207   5.702   3.211  1.00  0.00     0.167 HD
ATOM     64  C   UNL     1       8.512   7.789   4.980  1.00  0.00     0.074 A 
ATOM     65  C   UNL     1       7.844   8.519   6.036  1.00  0.00     0.031 C 
ATOM     66  C   UNL     1       9.558   8.270   4.264  1.00  0.00     0.037 A 
BRANCH  53  67
ATOM     67  C   UNL     1      11.755   4.277   0.099  1.00  0.00     0.064 A 
ATOM     68  C   UNL     1      11.396   4.124  -1.249  1.00  0.00     0.173 A 
ATOM     69  C   UNL     1      13.114   4.173   0.432  1.00  0.00     0.173 A 
ATOM     70  F   UNL     1      10.108   4.195  -1.619  1.00  0.00    -0.203 F 
ATOM     71  C   UNL     1      12.358   3.849  -2.219  1.00  0.00     0.198 A 
ATOM     72  C   UNL     1      14.076   3.934  -0.545  1.00  0.00     0.198 A 
ATOM     73  F   UNL     1      13.511   4.312   1.706  1.00  0.00    -0.203 F 
ATOM     74  F   UNL     1      11.986   3.652  -3.491  1.00  0.00    -0.200 F 
ATOM     75  C   UNL     1      13.696   3.764  -1.868  1.00  0.00     0.200 A 
ATOM     76  F   UNL     1      15.370   3.867  -0.206  1.00  0.00    -0.200 F 
ATOM     77  F   UNL     1      14.621   3.509  -2.804  1.00  0.00    -0.200 F 
ENDBRANCH  53  67
BRANCH  54  78
ATOM     78  C   UNL     1       4.893   5.739   7.182  1.00  0.00     0.064 A 
ATOM     79  C   UNL     1       3.922   6.745   7.074  1.00  0.00     0.173 A 
ATOM     80  C   UNL     1       4.926   4.995   8.371  1.00  0.00     0.173 A 
ATOM     81  F   UNL     1       3.870   7.509   5.972  1.00  0.00    -0.203 F 
ATOM     82  C   UNL     1       3.039   7.013   8.119  1.00  0.00     0.198 A 
ATOM     83  C   UNL     1       4.021   5.241   9.402  1.00  0.00     0.198 A 
ATOM     84  F   UNL     1       5.841   4.028   8.534  1.00  0.00    -0.203 F 
ATOM     85  F   UNL     1       2.163   8.021   8.012  1.00  0.00    -0.200 F 
ATOM     86  C   UNL     1       3.085   6.256   9.280  1.00  0.00     0.200 A 
ATOM     87  F   UNL     1       4.065   4.502  10.519  1.00  0.00    -0.200 F 
ATOM     88  F   UNL     1       2.239   6.515  10.286  1.00  0.00    -0.200 F 
ENDBRANCH  54  78
BRANCH  66  89
ATOM     89  C   UNL     1      10.018   9.675   4.548  1.00  0.00     0.064 A 
ATOM     90  C   UNL     1      10.669  10.018   5.742  1.00  0.00     0.173 A 
ATOM     91  C   UNL     1       9.847  10.682   3.585  1.00  0.00     0.173 A 
ATOM     92  F   UNL     1      10.851   9.098   6.701  1.00  0.00    -0.203 F 
ATOM     93  C   UNL     1      11.105  11.322   5.972  1.00  0.00     0.198 A 
ATOM     94  C   UNL     1      10.315  11.975   3.803  1.00  0.00     0.198 A 
ATOM     95  F   UNL     1       9.241  10.408   2.420  1.00  0.00    -0.203 F 
ATOM     96  F   UNL     1      11.678  11.638   7.142  1.00  0.00    -0.200 F 
ATOM     97  C   UNL     1      10.935  12.296   5.000  1.00  0.00     0.200 A 
ATOM     98  F   UNL     1      10.168  12.909   2.853  1.00  0.00    -0.200 F 
ATOM     99  F   UNL     1      11.364  13.547   5.220  1.00  0.00    -0.200 F 
ENDBRANCH  66  89
ENDBRANCH  40  41
ENDBRANCH  33  35
ENDBRANCH  32  33
ENDBRANCH  31  32
ENDBRANCH  30  31
ENDBRANCH  29  30
ENDBRANCH  28  29
ENDBRANCH   1  28
TORSDOF 23
