REMARK SMILES COc1ccc(-c2cnc(N)c(C(=O)OCCOCCOCCOC(=O)c3ccc(-c4c5nc(c(-c6c(F)c(F)c(F)c(F)c6F)c6ccc([nH]6)c(-c6c(F)c(F)c(F)c(F)c6F)c6nc(c(-c7c(F)c(F)c(F)c(F)c7F)c7ccc4[nH]7)C=C6)C=C5)cc3)c2)c(C)c1
REMARK SMILES IDX 19 1 18 2 17 3 16 4 15 5 13 6 14 7 12 8 7 9 8 10 90 11 9 12
REMARK SMILES IDX 10 13 6 14 3 15 4 16 93 17 5 18 91 19 92 20 2 21 1 22 11 23
REMARK SMILES IDX 20 26 21 27 22 28 23 29 24 30 25 31 26 32 27 33 28 34 89 35
REMARK SMILES IDX 29 36 88 37 30 38 31 39 32 40 82 41 33 42 87 43 81 44 83 45
REMARK SMILES IDX 34 46 86 47 80 48 79 49 35 51 67 52 47 53 66 54 48 55 51 56
REMARK SMILES IDX 65 57 84 58 49 59 50 60 64 62 85 63 52 64 36 65 37 66 45 67
REMARK SMILES IDX 38 68 39 69 43 70 46 71 40 72 41 73 44 74 42 75 68 76 69 77
REMARK SMILES IDX 77 78 70 79 71 80 75 81 78 82 72 83 73 84 76 85 74 86 53 87
REMARK SMILES IDX 54 88 62 89 55 90 56 91 60 92 63 93 57 94 58 95 61 96 59 97
REMARK H PARENT 11 24 11 25 83 50 51 61
REMARK Flexibility Score: inf
ROOT
ATOM      1  C   UNL     1      -1.640  12.643  -0.528  1.00  0.00     0.188 C 
ENDROOT
BRANCH   1   2
ATOM      2  O   UNL     1      -0.254  13.069  -0.553  1.00  0.00    -0.376 OA
BRANCH   2   3
ATOM      3  C   UNL     1       0.498  13.429  -1.729  1.00  0.00     0.202 C 
BRANCH   3   4
ATOM      4  C   UNL     1       1.970  12.696  -2.164  1.00  0.00     0.261 C 
BRANCH   4   5
ATOM      5  O   UNL     1       2.253  11.160  -2.828  1.00  0.00    -0.460 OA
BRANCH   5   6
ATOM      6  C   UNL     1       2.587   9.856  -2.339  1.00  0.00     0.342 C 
ATOM      7  O   UNL     1       2.907   9.519  -1.199  1.00  0.00    -0.246 OA
BRANCH   6   8
ATOM      8  C   UNL     1       2.551   8.601  -3.090  1.00  0.00     0.102 A 
ATOM      9  C   UNL     1       2.355   6.136  -2.845  1.00  0.00     0.001 A 
ATOM     10  C   UNL     1       3.140   6.107  -3.992  1.00  0.00     0.122 A 
ATOM     11  C   UNL     1       2.080   7.428  -2.400  1.00  0.00     0.030 A 
ATOM     12  N   UNL     1       3.650   7.201  -4.650  1.00  0.00    -0.238 NA
ATOM     13  C   UNL     1       3.376   8.435  -4.175  1.00  0.00     0.138 A 
BRANCH   9  14
ATOM     14  C   UNL     1       1.866   4.894  -2.179  1.00  0.00    -0.014 A 
ATOM     15  C   UNL     1       1.031   2.316  -1.237  1.00  0.00     0.119 A 
ATOM     16  C   UNL     1       2.366   2.688  -1.157  1.00  0.00     0.047 A 
ATOM     17  C   UNL     1       0.113   3.247  -1.714  1.00  0.00     0.050 A 
ATOM     18  C   UNL     1       2.775   3.958  -1.627  1.00  0.00     0.013 A 
ATOM     19  C   UNL     1       0.499   4.537  -2.146  1.00  0.00    -0.040 A 
ATOM     20  C   UNL     1      -0.608   5.424  -2.638  1.00  0.00     0.045 C 
BRANCH  15  21
ATOM     21  O   UNL     1       0.501   1.087  -0.967  1.00  0.00    -0.497 OA
ATOM     22  C   UNL     1       1.159   0.282   0.000  1.00  0.00     0.278 C 
ENDBRANCH  15  21
ENDBRANCH   9  14
BRANCH  13  23
ATOM     23  N   UNL     1       4.113   9.479  -4.699  1.00  0.00    -0.383 N 
ATOM     24  H   UNL     1       4.695   9.327  -5.478  1.00  0.00     0.158 HD
ATOM     25  H   UNL     1       4.055  10.374  -4.294  1.00  0.00     0.158 HD
ENDBRANCH  13  23
ENDBRANCH   6   8
ENDBRANCH   5   6
ENDBRANCH   4   5
ENDBRANCH   3   4
ENDBRANCH   2   3
ENDBRANCH   1   2
BRANCH   1  26
ATOM     26  C   UNL     1      -2.660  12.927  -1.634  1.00  0.00     0.188 C 
BRANCH  26  27
ATOM     27  O   UNL     1      -2.086  12.663  -2.898  1.00  0.00    -0.376 OA
BRANCH  27  28
ATOM     28  C   UNL     1      -2.947  12.836  -4.013  1.00  0.00     0.202 C 
BRANCH  28  29
ATOM     29  C   UNL     1      -3.773  11.572  -4.325  1.00  0.00     0.261 C 
BRANCH  29  30
ATOM     30  O   UNL     1      -2.926  10.397  -4.328  1.00  0.00    -0.460 OA
BRANCH  30  31
ATOM     31  C   UNL     1      -3.109   9.476  -3.326  1.00  0.00     0.338 C 
ATOM     32  O   UNL     1      -4.194   9.049  -2.960  1.00  0.00    -0.246 OA
BRANCH  31  33
ATOM     33  C   UNL     1      -1.822   9.268  -2.573  1.00  0.00     0.060 A 
ATOM     34  C   UNL     1      -1.675   8.694  -1.298  1.00  0.00     0.016 A 
ATOM     35  C   UNL     1      -0.777  10.016  -2.990  1.00  0.00     0.016 A 
ATOM     36  C   UNL     1      -0.557   9.037  -0.413  1.00  0.00     0.010 A 
ATOM     37  C   UNL     1       0.049  10.512  -1.983  1.00  0.00     0.010 A 
ATOM     38  C   UNL     1       0.345  10.072  -0.683  1.00  0.00    -0.014 A 
BRANCH  38  39
ATOM     39  C   UNL     1       1.331  10.850   0.380  1.00  0.00     0.031 A 
ATOM     40  C   UNL     1       2.979  11.285   0.447  1.00  0.00     0.074 A 
ATOM     41  C   UNL     1       0.686  11.251   1.504  1.00  0.00     0.049 A 
ATOM     42  N   UNL     1       3.620  11.515   1.586  1.00  0.00    -0.248 NA
ATOM     43  C   UNL     1       4.044  11.443  -0.624  1.00  0.00     0.031 C 
ATOM     44  C   UNL     1       1.132  12.219   2.503  1.00  0.00     0.029 A 
ATOM     45  N   UNL     1      -0.515  10.753   2.039  1.00  0.00    -0.354 N 
ATOM     46  C   UNL     1       4.895  12.015   1.298  1.00  0.00     0.074 A 
ATOM     47  C   UNL     1       5.197  11.657  -0.021  1.00  0.00     0.031 C 
ATOM     48  C   UNL     1       0.440  12.022   3.633  1.00  0.00     0.029 A 
ATOM     49  C   UNL     1      -0.382  10.847   3.435  1.00  0.00     0.049 A 
ATOM     50  H   UNL     1      -1.290  10.409   1.539  1.00  0.00     0.167 HD
ATOM     51  C   UNL     1       5.587  12.882   2.080  1.00  0.00     0.037 A 
ATOM     52  C   UNL     1      -0.443   9.746   4.233  1.00  0.00     0.037 A 
ATOM     53  C   UNL     1       5.101  12.819   3.427  1.00  0.00     0.049 A 
ATOM     54  C   UNL     1       0.764   9.579   5.124  1.00  0.00     0.074 A 
ATOM     55  C   UNL     1       4.364  13.658   4.230  1.00  0.00     0.029 A 
ATOM     56  N   UNL     1       5.125  11.576   4.040  1.00  0.00    -0.354 N 
ATOM     57  N   UNL     1       1.820  10.341   5.068  1.00  0.00    -0.248 NA
ATOM     58  C   UNL     1       0.906   8.514   6.114  1.00  0.00     0.031 C 
ATOM     59  C   UNL     1       3.807  12.852   5.264  1.00  0.00     0.029 A 
ATOM     60  C   UNL     1       4.277  11.556   5.122  1.00  0.00     0.049 A 
ATOM     61  H   UNL     1       5.673  10.814   3.743  1.00  0.00     0.167 HD
ATOM     62  C   UNL     1       2.803   9.822   5.863  1.00  0.00     0.074 A 
ATOM     63  C   UNL     1       2.163   8.718   6.548  1.00  0.00     0.031 C 
ATOM     64  C   UNL     1       4.080  10.301   5.833  1.00  0.00     0.037 A 
BRANCH  51  65
ATOM     65  C   UNL     1       6.646  13.848   1.548  1.00  0.00     0.064 A 
ATOM     66  C   UNL     1       7.546  14.483   2.423  1.00  0.00     0.173 A 
ATOM     67  C   UNL     1       6.750  14.280   0.196  1.00  0.00     0.173 A 
ATOM     68  F   UNL     1       7.526  14.211   3.736  1.00  0.00    -0.203 F 
ATOM     69  C   UNL     1       8.482  15.435   1.982  1.00  0.00     0.198 A 
ATOM     70  C   UNL     1       7.735  15.166  -0.255  1.00  0.00     0.198 A 
ATOM     71  F   UNL     1       5.861  13.921  -0.740  1.00  0.00    -0.203 F 
ATOM     72  F   UNL     1       9.272  16.055   2.870  1.00  0.00    -0.200 F 
ATOM     73  C   UNL     1       8.594  15.756   0.641  1.00  0.00     0.200 A 
ATOM     74  F   UNL     1       7.815  15.466  -1.561  1.00  0.00    -0.200 F 
ATOM     75  F   UNL     1       9.497  16.653   0.221  1.00  0.00    -0.200 F 
ENDBRANCH  51  65
BRANCH  52  76
ATOM     76  C   UNL     1      -1.316   8.671   3.679  1.00  0.00     0.064 A 
ATOM     77  C   UNL     1      -2.676   8.988   3.464  1.00  0.00     0.173 A 
ATOM     78  C   UNL     1      -0.812   7.543   3.020  1.00  0.00     0.173 A 
ATOM     79  F   UNL     1      -3.212  10.068   4.055  1.00  0.00    -0.203 F 
ATOM     80  C   UNL     1      -3.456   8.288   2.546  1.00  0.00     0.198 A 
ATOM     81  C   UNL     1      -1.610   6.823   2.118  1.00  0.00     0.198 A 
ATOM     82  F   UNL     1       0.482   7.214   3.132  1.00  0.00    -0.203 F 
ATOM     83  F   UNL     1      -4.697   8.711   2.264  1.00  0.00    -0.200 F 
ATOM     84  C   UNL     1      -2.916   7.218   1.858  1.00  0.00     0.200 A 
ATOM     85  F   UNL     1      -1.070   5.834   1.390  1.00  0.00    -0.200 F 
ATOM     86  F   UNL     1      -3.622   6.619   0.887  1.00  0.00    -0.200 F 
ENDBRANCH  52  76
BRANCH  64  87
ATOM     87  C   UNL     1       5.280   9.610   6.431  1.00  0.00     0.064 A 
ATOM     88  C   UNL     1       5.418   8.215   6.513  1.00  0.00     0.173 A 
ATOM     89  C   UNL     1       6.428  10.363   6.774  1.00  0.00     0.173 A 
ATOM     90  F   UNL     1       4.441   7.392   6.107  1.00  0.00    -0.203 F 
ATOM     91  C   UNL     1       6.598   7.617   6.962  1.00  0.00     0.198 A 
ATOM     92  C   UNL     1       7.623   9.761   7.161  1.00  0.00     0.198 A 
ATOM     93  F   UNL     1       6.425  11.703   6.706  1.00  0.00    -0.203 F 
ATOM     94  F   UNL     1       6.669   6.282   7.062  1.00  0.00    -0.200 F 
ATOM     95  C   UNL     1       7.703   8.388   7.271  1.00  0.00     0.200 A 
ATOM     96  F   UNL     1       8.704  10.517   7.403  1.00  0.00    -0.200 F 
ATOM     97  F   UNL     1       8.848   7.807   7.654  1.00  0.00    -0.200 F 
ENDBRANCH  64  87
ENDBRANCH  38  39
ENDBRANCH  31  33
ENDBRANCH  30  31
ENDBRANCH  29  30
ENDBRANCH  28  29
ENDBRANCH  27  28
ENDBRANCH  26  27
ENDBRANCH   1  26
TORSDOF 20
