REMARK SMILES Cc1ccccc1C(=O)Nc1cc(C(=O)OCCOCCOCCOC(=O)c2ccc(-c3c4nc(c(-c5c(F)c(F)c(F)c(F)c5F)c5ccc([nH]5)c(-c5c(F)c(F)c(F)c(F)c5F)c5nc(c(-c6c(F)c(F)c(F)c(F)c6F)c6ccc3[nH]6)C=C5)C=C4)cc2)ccc1N1CC[NH+](CC(=O)Nc2ccc(F)cc2)CC1
REMARK SMILES IDX 20 1 19 2 18 3 17 4 16 5 14 6 15 7 13 8 11 9 12 10 93 11
REMARK SMILES IDX 92 12 91 13 10 14 8 15 9 16 7 18 1 19 2 20 3 21 4 22 6 23
REMARK SMILES IDX 5 24 94 25 95 26 110 27 96 28 109 29 97 30 98 32 99 33
REMARK SMILES IDX 100 34 101 35 102 37 103 38 108 39 104 40 107 41 105 42
REMARK SMILES IDX 106 43 21 44 22 45 23 46 24 47 25 48 26 49 27 50 28 51 29 52
REMARK SMILES IDX 90 53 30 54 89 55 31 56 32 57 33 58 83 59 34 60 88 61 82 62
REMARK SMILES IDX 84 63 35 64 87 65 81 66 80 67 36 69 68 70 48 71 67 72 49 73
REMARK SMILES IDX 52 74 66 75 85 76 50 77 51 78 65 80 86 81 53 82 37 83 38 84
REMARK SMILES IDX 46 85 39 86 40 87 44 88 47 89 41 90 42 91 45 92 43 93 69 94
REMARK SMILES IDX 70 95 78 96 71 97 72 98 76 99 79 100 73 101 74 102 77 103
REMARK SMILES IDX 75 104 54 105 55 106 63 107 56 108 57 109 61 110 64 111
REMARK SMILES IDX 58 112 59 113 62 114 60 115
REMARK H PARENT 10 17 97 31 101 36 84 68 52 79
REMARK Flexibility Score: inf
ROOT
ATOM      1  C   UNL     1       6.057  -4.663  -5.627  1.00  0.00     0.188 C 
ENDROOT
BRANCH   1   2
ATOM      2  O   UNL     1       4.803  -5.129  -6.088  1.00  0.00    -0.376 OA
BRANCH   2   3
ATOM      3  C   UNL     1       3.781  -4.930  -5.133  1.00  0.00     0.202 C 
BRANCH   3   4
ATOM      4  C   UNL     1       3.712  -3.609  -4.332  1.00  0.00     0.261 C 
BRANCH   4   5
ATOM      5  O   UNL     1       4.870  -3.147  -3.327  1.00  0.00    -0.460 OA
BRANCH   5   6
ATOM      6  C   UNL     1       5.441  -2.420  -2.254  1.00  0.00     0.338 C 
ATOM      7  O   UNL     1       6.676  -2.556  -2.272  1.00  0.00    -0.246 OA
BRANCH   6   8
ATOM      8  C   UNL     1       4.965  -1.508  -0.910  1.00  0.00     0.062 A 
ATOM      9  C   UNL     1       3.683   0.353   0.348  1.00  0.00     0.065 A 
ATOM     10  C   UNL     1       3.751  -0.862  -0.432  1.00  0.00     0.044 A 
ATOM     11  C   UNL     1       4.922   0.897   0.809  1.00  0.00     0.061 A 
ATOM     12  C   UNL     1       6.044   0.048   0.649  1.00  0.00     0.029 A 
ATOM     13  C   UNL     1       6.073  -1.087  -0.180  1.00  0.00     0.018 A 
BRANCH   9  14
ATOM     14  N   UNL     1       2.500   1.184   0.464  1.00  0.00    -0.320 N 
ATOM     15  C   UNL     1       1.126   1.309   0.748  1.00  0.00     0.255 C 
ATOM     16  O   UNL     1       0.733   2.491   0.758  1.00  0.00    -0.269 OA
ATOM     17  H   UNL     1       2.800   2.093   0.234  1.00  0.00     0.170 HD
BRANCH  15  18
ATOM     18  C   UNL     1      -0.014   0.320   0.998  1.00  0.00     0.043 A 
ATOM     19  C   UNL     1       1.663  -1.849   1.664  1.00  0.00     0.045 C 
ATOM     20  C   UNL     1       0.410  -1.452   0.935  1.00  0.00    -0.038 A 
ATOM     21  C   UNL     1      -0.675  -2.656  -0.020  1.00  0.00     0.004 A 
ATOM     22  C   UNL     1      -2.216  -2.059  -0.892  1.00  0.00     0.000 A 
ATOM     23  C   UNL     1      -1.610   0.910   0.232  1.00  0.00     0.014 A 
ATOM     24  C   UNL     1      -2.691  -0.265  -0.785  1.00  0.00     0.001 A 
ENDBRANCH  15  18
ENDBRANCH   9  14
BRANCH  11  25
ATOM     25  N   UNL     1       5.134   2.184   1.346  1.00  0.00    -0.359 N 
ATOM     26  C   UNL     1       6.530   2.591   1.743  1.00  0.00     0.178 C 
ATOM     27  C   UNL     1       4.127   2.943   2.087  1.00  0.00     0.178 C 
ATOM     28  C   UNL     1       6.735   4.097   2.122  1.00  0.00     0.284 C 
ATOM     29  C   UNL     1       4.398   4.446   1.914  1.00  0.00     0.284 C 
ATOM     30  N   UNL     1       5.593   4.874   2.627  1.00  0.00    -0.324 N 
ATOM     31  H   UNL     1       5.785   5.853   2.415  1.00  0.00     0.348 HD
BRANCH  30  32
ATOM     32  C   UNL     1       5.448   5.012   4.092  1.00  0.00     0.364 C 
BRANCH  32  33
ATOM     33  C   UNL     1       5.305   3.743   4.927  1.00  0.00     0.279 C 
ATOM     34  O   UNL     1       6.319   3.079   5.193  1.00  0.00    -0.268 OA
ATOM     35  N   UNL     1       4.132   3.256   5.439  1.00  0.00    -0.321 N 
ATOM     36  H   UNL     1       4.298   2.593   6.147  1.00  0.00     0.170 HD
BRANCH  35  37
ATOM     37  C   UNL     1       2.748   3.448   5.227  1.00  0.00     0.041 A 
ATOM     38  C   UNL     1       1.901   2.491   5.819  1.00  0.00     0.029 A 
ATOM     39  C   UNL     1       2.161   4.408   4.406  1.00  0.00     0.029 A 
ATOM     40  C   UNL     1       0.533   2.443   5.526  1.00  0.00     0.041 A 
ATOM     41  C   UNL     1       0.800   4.331   4.066  1.00  0.00     0.041 A 
ATOM     42  C   UNL     1      -0.000   3.346   4.622  1.00  0.00     0.123 A 
ATOM     43  F   UNL     1      -1.297   3.272   4.297  1.00  0.00    -0.207 F 
ENDBRANCH  35  37
ENDBRANCH  32  33
ENDBRANCH  30  32
ENDBRANCH  11  25
ENDBRANCH   6   8
ENDBRANCH   5   6
ENDBRANCH   4   5
ENDBRANCH   3   4
ENDBRANCH   2   3
ENDBRANCH   1   2
BRANCH   1  44
ATOM     44  C   UNL     1       6.324  -3.246  -6.140  1.00  0.00     0.188 C 
BRANCH  44  45
ATOM     45  O   UNL     1       5.143  -2.458  -6.269  1.00  0.00    -0.376 OA
BRANCH  45  46
ATOM     46  C   UNL     1       4.550  -2.422  -7.567  1.00  0.00     0.202 C 
BRANCH  46  47
ATOM     47  C   UNL     1       5.249  -1.361  -8.423  1.00  0.00     0.261 C 
BRANCH  47  48
ATOM     48  O   UNL     1       4.984  -0.032  -7.922  1.00  0.00    -0.460 OA
BRANCH  48  49
ATOM     49  C   UNL     1       5.628   0.280  -6.765  1.00  0.00     0.338 C 
ATOM     50  O   UNL     1       6.836   0.256  -6.598  1.00  0.00    -0.246 OA
BRANCH  49  51
ATOM     51  C   UNL     1       4.613   0.395  -5.678  1.00  0.00     0.060 A 
ATOM     52  C   UNL     1       5.032   0.410  -4.361  1.00  0.00     0.016 A 
ATOM     53  C   UNL     1       3.262   0.166  -5.939  1.00  0.00     0.016 A 
ATOM     54  C   UNL     1       4.142  -0.025  -3.371  1.00  0.00     0.010 A 
ATOM     55  C   UNL     1       2.467  -0.439  -4.965  1.00  0.00     0.010 A 
ATOM     56  C   UNL     1       2.954  -0.702  -3.678  1.00  0.00    -0.014 A 
BRANCH  56  57
ATOM     57  C   UNL     1       2.055  -1.619  -2.855  1.00  0.00     0.031 A 
ATOM     58  C   UNL     1       0.881  -0.882  -2.322  1.00  0.00     0.074 A 
ATOM     59  C   UNL     1       2.161  -2.846  -2.162  1.00  0.00     0.049 A 
ATOM     60  N   UNL     1       0.279  -1.405  -1.336  1.00  0.00    -0.248 NA
ATOM     61  C   UNL     1       0.468   0.446  -2.642  1.00  0.00     0.031 C 
ATOM     62  C   UNL     1       1.056  -3.815  -1.939  1.00  0.00     0.029 A 
ATOM     63  N   UNL     1       3.200  -3.636  -1.645  1.00  0.00    -0.354 N 
ATOM     64  C   UNL     1      -0.736  -0.686  -0.636  1.00  0.00     0.074 A 
ATOM     65  C   UNL     1      -0.569   0.562  -1.808  1.00  0.00     0.031 C 
ATOM     66  C   UNL     1       1.437  -4.821  -1.120  1.00  0.00     0.029 A 
ATOM     67  C   UNL     1       2.840  -4.688  -0.840  1.00  0.00     0.049 A 
ATOM     68  H   UNL     1       4.143  -3.445  -1.850  1.00  0.00     0.167 HD
ATOM     69  C   UNL     1      -1.731  -1.071   0.905  1.00  0.00     0.037 A 
ATOM     70  C   UNL     1       3.631  -5.394   0.004  1.00  0.00     0.037 A 
ATOM     71  C   UNL     1      -1.719  -2.492   1.912  1.00  0.00     0.049 A 
ATOM     72  C   UNL     1       2.968  -5.598   1.347  1.00  0.00     0.074 A 
ATOM     73  C   UNL     1      -2.269  -3.779   1.661  1.00  0.00     0.029 A 
ATOM     74  N   UNL     1      -0.852  -2.728   2.985  1.00  0.00    -0.354 N 
ATOM     75  N   UNL     1       1.814  -5.079   1.684  1.00  0.00    -0.248 NA
ATOM     76  C   UNL     1       3.612  -6.308   2.452  1.00  0.00     0.031 C 
ATOM     77  C   UNL     1      -1.433  -4.754   2.238  1.00  0.00     0.029 A 
ATOM     78  C   UNL     1      -0.479  -4.087   2.976  1.00  0.00     0.049 A 
ATOM     79  H   UNL     1      -0.552  -2.056   3.639  1.00  0.00     0.167 HD
ATOM     80  C   UNL     1       1.637  -5.239   3.041  1.00  0.00     0.074 A 
ATOM     81  C   UNL     1       2.756  -6.067   3.458  1.00  0.00     0.031 C 
ATOM     82  C   UNL     1       0.622  -4.645   3.744  1.00  0.00     0.037 A 
BRANCH  69  83
ATOM     83  C   UNL     1      -3.358  -0.518   1.540  1.00  0.00     0.064 A 
ATOM     84  C   UNL     1      -4.409  -1.489   1.550  1.00  0.00     0.173 A 
ATOM     85  C   UNL     1      -3.887   0.797   1.548  1.00  0.00     0.173 A 
ATOM     86  F   UNL     1      -4.276  -2.688   2.120  1.00  0.00    -0.203 F 
ATOM     87  C   UNL     1      -5.721  -1.230   1.157  1.00  0.00     0.198 A 
ATOM     88  C   UNL     1      -5.215   1.071   1.149  1.00  0.00     0.198 A 
ATOM     89  F   UNL     1      -3.138   1.855   1.892  1.00  0.00    -0.203 F 
ATOM     90  F   UNL     1      -6.600  -2.240   1.075  1.00  0.00    -0.200 F 
ATOM     91  C   UNL     1      -6.105   0.051   0.874  1.00  0.00     0.200 A 
ATOM     92  F   UNL     1      -5.610   2.340   0.973  1.00  0.00    -0.200 F 
ATOM     93  F   UNL     1      -7.341   0.302   0.421  1.00  0.00    -0.200 F 
ENDBRANCH  69  83
BRANCH  70  94
ATOM     94  C   UNL     1       5.105  -5.422  -0.279  1.00  0.00     0.064 A 
ATOM     95  C   UNL     1       5.553  -6.066  -1.456  1.00  0.00     0.173 A 
ATOM     96  C   UNL     1       6.075  -4.706   0.434  1.00  0.00     0.173 A 
ATOM     97  F   UNL     1       4.689  -6.791  -2.185  1.00  0.00    -0.203 F 
ATOM     98  C   UNL     1       6.862  -5.935  -1.935  1.00  0.00     0.198 A 
ATOM     99  C   UNL     1       7.392  -4.575  -0.046  1.00  0.00     0.198 A 
ATOM    100  F   UNL     1       5.742  -4.072   1.566  1.00  0.00    -0.203 F 
ATOM    101  F   UNL     1       7.214  -6.514  -3.093  1.00  0.00    -0.200 F 
ATOM    102  C   UNL     1       7.778  -5.168  -1.241  1.00  0.00     0.200 A 
ATOM    103  F   UNL     1       8.272  -3.814   0.623  1.00  0.00    -0.200 F 
ATOM    104  F   UNL     1       9.010  -4.973  -1.736  1.00  0.00    -0.200 F 
ENDBRANCH  70  94
BRANCH  82 105
ATOM    105  C   UNL     1       0.484  -4.678   5.233  1.00  0.00     0.064 A 
ATOM    106  C   UNL     1       1.561  -4.564   6.121  1.00  0.00     0.173 A 
ATOM    107  C   UNL     1      -0.807  -4.686   5.808  1.00  0.00     0.173 A 
ATOM    108  F   UNL     1       2.821  -4.461   5.674  1.00  0.00    -0.203 F 
ATOM    109  C   UNL     1       1.359  -4.505   7.500  1.00  0.00     0.198 A 
ATOM    110  C   UNL     1      -1.007  -4.563   7.176  1.00  0.00     0.198 A 
ATOM    111  F   UNL     1      -1.911  -4.792   5.054  1.00  0.00    -0.203 F 
ATOM    112  F   UNL     1       2.415  -4.437   8.322  1.00  0.00    -0.200 F 
ATOM    113  C   UNL     1       0.077  -4.487   8.024  1.00  0.00     0.200 A 
ATOM    114  F   UNL     1      -2.254  -4.500   7.660  1.00  0.00    -0.200 F 
ATOM    115  F   UNL     1      -0.113  -4.375   9.345  1.00  0.00    -0.200 F 
ENDBRANCH  82 105
ENDBRANCH  56  57
ENDBRANCH  49  51
ENDBRANCH  48  49
ENDBRANCH  47  48
ENDBRANCH  46  47
ENDBRANCH  45  46
ENDBRANCH  44  45
ENDBRANCH   1  44
TORSDOF 23
