REMARK SMILES CS(=O)(=O)N1CCC[C@@H]1C(=O)N1CCC[C@@H]1C(=O)OCCOCCOCCOC(=O)c1ccc(-c2c3nc(c(-c4c(F)c(F)c(F)c(F)c4F)c4ccc([nH]4)c(-c4c(F)c(F)c(F)c(F)c4F)c4nc(c(-c5c(F)c(F)c(F)c(F)c5F)c5ccc2[nH]5)C=C4)C=C3)cc1
REMARK SMILES IDX 23 1 22 2 21 3 20 4 19 5 17 6 18 7 16 8 12 9 13 10 14 11
REMARK SMILES IDX 15 12 10 13 11 14 9 15 5 16 6 17 7 18 8 19 2 20 1 21 3 22
REMARK SMILES IDX 4 23 24 24 25 25 26 26 27 27 28 28 29 29 30 30 31 31 32 32
REMARK SMILES IDX 93 33 33 34 92 35 34 36 35 37 36 38 86 39 37 40 91 41 85 42
REMARK SMILES IDX 87 43 38 44 90 45 84 46 83 47 39 49 71 50 51 51 70 52 52 53
REMARK SMILES IDX 55 54 69 55 88 56 53 57 54 58 68 60 89 61 56 62 40 63 41 64
REMARK SMILES IDX 49 65 42 66 43 67 47 68 50 69 44 70 45 71 48 72 46 73 72 74
REMARK SMILES IDX 73 75 81 76 74 77 75 78 79 79 82 80 76 81 77 82 80 83 78 84
REMARK SMILES IDX 57 85 58 86 66 87 59 88 60 89 64 90 67 91 61 92 62 93 65 94
REMARK SMILES IDX 63 95
REMARK H PARENT 87 48 55 59
REMARK Flexibility Score: inf
ROOT
ATOM      1  C   UNL     1      -3.651   0.033  -2.429  1.00  0.00     0.188 C 
ENDROOT
BRANCH   1   2
ATOM      2  O   UNL     1      -3.699   0.019  -3.844  1.00  0.00    -0.376 OA
BRANCH   2   3
ATOM      3  C   UNL     1      -2.469   0.442  -4.458  1.00  0.00     0.202 C 
BRANCH   3   4
ATOM      4  C   UNL     1      -1.760   1.782  -4.077  1.00  0.00     0.261 C 
BRANCH   4   5
ATOM      5  O   UNL     1      -1.599   2.152  -2.689  1.00  0.00    -0.462 OA
BRANCH   5   6
ATOM      6  C   UNL     1      -2.607   2.746  -1.987  1.00  0.00     0.328 C 
ATOM      7  O   UNL     1      -3.686   3.063  -2.479  1.00  0.00    -0.250 OA
BRANCH   6   8
ATOM      8  C   UNL     1      -2.305   2.835  -0.448  1.00  0.00     0.195 C 
ATOM      9  N   UNL     1      -0.900   2.753  -0.084  1.00  0.00    -0.327 N 
ATOM     10  C   UNL     1      -0.767   2.400   1.309  1.00  0.00     0.120 C 
ATOM     11  C   UNL     1      -1.880   1.402   1.533  1.00  0.00     0.024 C 
ATOM     12  C   UNL     1      -2.860   1.664   0.380  1.00  0.00     0.039 C 
BRANCH   9  13
ATOM     13  C   UNL     1      -0.014   3.526  -0.763  1.00  0.00     0.241 C 
ATOM     14  O   UNL     1      -0.338   4.649  -1.160  1.00  0.00    -0.273 OA
BRANCH  13  15
ATOM     15  C   UNL     1       1.342   2.955  -1.056  1.00  0.00     0.162 C 
ATOM     16  N   UNL     1       1.776   1.579  -1.401  1.00  0.00    -0.190 NA
ATOM     17  C   UNL     1       3.236   1.565  -1.230  1.00  0.00     0.103 C 
ATOM     18  C   UNL     1       3.385   2.305   0.087  1.00  0.00     0.019 C 
ATOM     19  C   UNL     1       2.367   3.434  -0.016  1.00  0.00     0.032 C 
BRANCH  16  20
ATOM     20  S   UNL     1       0.960   0.129  -1.385  1.00  0.00     0.211 S 
ATOM     21  C   UNL     1       1.437  -0.629   0.151  1.00  0.00     0.176 C 
ATOM     22  O   UNL     1       1.546  -0.684  -2.440  1.00  0.00    -0.212 OA
ATOM     23  O   UNL     1      -0.458   0.309  -1.314  1.00  0.00    -0.212 OA
ENDBRANCH  16  20
ENDBRANCH  13  15
ENDBRANCH   9  13
ENDBRANCH   6   8
ENDBRANCH   5   6
ENDBRANCH   4   5
ENDBRANCH   3   4
ENDBRANCH   2   3
ENDBRANCH   1   2
BRANCH   1  24
ATOM     24  C   UNL     1      -3.811  -1.227  -1.589  1.00  0.00     0.188 C 
BRANCH  24  25
ATOM     25  O   UNL     1      -2.941  -2.305  -1.846  1.00  0.00    -0.376 OA
BRANCH  25  26
ATOM     26  C   UNL     1      -3.154  -2.944  -3.098  1.00  0.00     0.202 C 
BRANCH  26  27
ATOM     27  C   UNL     1      -4.548  -3.567  -3.327  1.00  0.00     0.261 C 
BRANCH  27  28
ATOM     28  O   UNL     1      -5.647  -2.617  -3.346  1.00  0.00    -0.460 OA
BRANCH  28  29
ATOM     29  C   UNL     1      -6.548  -2.711  -2.326  1.00  0.00     0.338 C 
ATOM     30  O   UNL     1      -6.588  -3.568  -1.458  1.00  0.00    -0.246 OA
BRANCH  29  31
ATOM     31  C   UNL     1      -7.366  -1.474  -2.239  1.00  0.00     0.060 A 
ATOM     32  C   UNL     1      -7.181  -0.582  -1.165  1.00  0.00     0.016 A 
ATOM     33  C   UNL     1      -8.393  -1.254  -3.151  1.00  0.00     0.016 A 
ATOM     34  C   UNL     1      -8.011   0.531  -1.005  1.00  0.00     0.010 A 
ATOM     35  C   UNL     1      -9.252  -0.163  -2.966  1.00  0.00     0.010 A 
ATOM     36  C   UNL     1      -9.082   0.720  -1.881  1.00  0.00    -0.014 A 
BRANCH  36  37
ATOM     37  C   UNL     1     -10.153   1.697  -1.556  1.00  0.00     0.031 A 
ATOM     38  C   UNL     1     -11.409   1.185  -0.908  1.00  0.00     0.074 A 
ATOM     39  C   UNL     1     -10.036   3.003  -1.849  1.00  0.00     0.049 A 
ATOM     40  N   UNL     1     -12.540   1.799  -0.670  1.00  0.00    -0.248 NA
ATOM     41  C   UNL     1     -11.386  -0.222  -0.479  1.00  0.00     0.031 C 
ATOM     42  C   UNL     1      -8.853   3.639  -2.422  1.00  0.00     0.029 A 
ATOM     43  N   UNL     1     -10.948   4.025  -1.730  1.00  0.00    -0.354 N 
ATOM     44  C   UNL     1     -13.372   0.846  -0.097  1.00  0.00     0.074 A 
ATOM     45  C   UNL     1     -12.621  -0.389  -0.035  1.00  0.00     0.031 C 
ATOM     46  C   UNL     1      -9.125   4.937  -2.643  1.00  0.00     0.029 A 
ATOM     47  C   UNL     1     -10.512   5.211  -2.268  1.00  0.00     0.049 A 
ATOM     48  H   UNL     1     -11.828   3.917  -1.302  1.00  0.00     0.167 HD
ATOM     49  C   UNL     1     -14.648   0.989   0.333  1.00  0.00     0.037 A 
ATOM     50  C   UNL     1     -11.173   6.368  -2.474  1.00  0.00     0.037 A 
ATOM     51  C   UNL     1     -15.390   2.221   0.270  1.00  0.00     0.049 A 
ATOM     52  C   UNL     1     -12.616   6.489  -2.050  1.00  0.00     0.074 A 
ATOM     53  C   UNL     1     -16.674   2.479   0.715  1.00  0.00     0.029 A 
ATOM     54  N   UNL     1     -14.918   3.400  -0.291  1.00  0.00    -0.354 N 
ATOM     55  N   UNL     1     -13.393   5.596  -1.486  1.00  0.00    -0.248 NA
ATOM     56  C   UNL     1     -13.273   7.782  -2.290  1.00  0.00     0.031 C 
ATOM     57  C   UNL     1     -17.006   3.789   0.356  1.00  0.00     0.029 A 
ATOM     58  C   UNL     1     -15.901   4.375  -0.240  1.00  0.00     0.049 A 
ATOM     59  H   UNL     1     -14.017   3.524  -0.670  1.00  0.00     0.167 HD
ATOM     60  C   UNL     1     -14.616   6.225  -1.278  1.00  0.00     0.074 A 
ATOM     61  C   UNL     1     -14.474   7.580  -1.765  1.00  0.00     0.031 C 
ATOM     62  C   UNL     1     -15.751   5.724  -0.728  1.00  0.00     0.037 A 
BRANCH  49  63
ATOM     63  C   UNL     1     -15.343  -0.237   0.857  1.00  0.00     0.064 A 
ATOM     64  C   UNL     1     -14.965  -0.856   2.058  1.00  0.00     0.173 A 
ATOM     65  C   UNL     1     -16.417  -0.794   0.145  1.00  0.00     0.173 A 
ATOM     66  F   UNL     1     -13.937  -0.373   2.774  1.00  0.00    -0.203 F 
ATOM     67  C   UNL     1     -15.608  -2.008   2.505  1.00  0.00     0.198 A 
ATOM     68  C   UNL     1     -17.082  -1.923   0.614  1.00  0.00     0.198 A 
ATOM     69  F   UNL     1     -16.826  -0.240  -1.006  1.00  0.00    -0.203 F 
ATOM     70  F   UNL     1     -15.187  -2.618   3.622  1.00  0.00    -0.200 F 
ATOM     71  C   UNL     1     -16.670  -2.536   1.787  1.00  0.00     0.200 A 
ATOM     72  F   UNL     1     -18.120  -2.421  -0.073  1.00  0.00    -0.200 F 
ATOM     73  F   UNL     1     -17.291  -3.642   2.220  1.00  0.00    -0.200 F 
ENDBRANCH  49  63
BRANCH  50  74
ATOM     74  C   UNL     1     -10.481   7.500  -3.148  1.00  0.00     0.064 A 
ATOM     75  C   UNL     1     -10.179   8.682  -2.458  1.00  0.00     0.173 A 
ATOM     76  C   UNL     1     -10.113   7.424  -4.500  1.00  0.00     0.173 A 
ATOM     77  F   UNL     1     -10.540   8.819  -1.173  1.00  0.00    -0.203 F 
ATOM     78  C   UNL     1      -9.546   9.748  -3.096  1.00  0.00     0.198 A 
ATOM     79  C   UNL     1      -9.452   8.477  -5.129  1.00  0.00     0.198 A 
ATOM     80  F   UNL     1     -10.389   6.321  -5.211  1.00  0.00    -0.203 F 
ATOM     81  F   UNL     1      -9.313  10.884  -2.426  1.00  0.00    -0.200 F 
ATOM     82  C   UNL     1      -9.174   9.641  -4.428  1.00  0.00     0.200 A 
ATOM     83  F   UNL     1      -9.088   8.366  -6.414  1.00  0.00    -0.200 F 
ATOM     84  F   UNL     1      -8.559  10.663  -5.039  1.00  0.00    -0.200 F 
ENDBRANCH  50  74
BRANCH  62  85
ATOM     85  C   UNL     1     -16.925   6.655  -0.581  1.00  0.00     0.064 A 
ATOM     86  C   UNL     1     -17.650   7.119  -1.688  1.00  0.00     0.173 A 
ATOM     87  C   UNL     1     -17.360   7.048   0.695  1.00  0.00     0.173 A 
ATOM     88  F   UNL     1     -17.273   6.784  -2.932  1.00  0.00    -0.203 F 
ATOM     89  C   UNL     1     -18.746   7.964  -1.526  1.00  0.00     0.198 A 
ATOM     90  C   UNL     1     -18.477   7.863   0.856  1.00  0.00     0.198 A 
ATOM     91  F   UNL     1     -16.711   6.627   1.792  1.00  0.00    -0.203 F 
ATOM     92  F   UNL     1     -19.391   8.437  -2.601  1.00  0.00    -0.200 F 
ATOM     93  C   UNL     1     -19.164   8.328  -0.254  1.00  0.00     0.200 A 
ATOM     94  F   UNL     1     -18.891   8.196   2.087  1.00  0.00    -0.200 F 
ATOM     95  F   UNL     1     -20.225   9.132  -0.100  1.00  0.00    -0.200 F 
ENDBRANCH  62  85
ENDBRANCH  36  37
ENDBRANCH  29  31
ENDBRANCH  28  29
ENDBRANCH  27  28
ENDBRANCH  26  27
ENDBRANCH  25  26
ENDBRANCH  24  25
ENDBRANCH   1  24
TORSDOF 20
