REMARK SMILES CCCCCCCCNC(=O)Oc1cccc(-c2ccc([C@@H](C)C(=O)OCCOCCOCCOC(=O)c3ccc(-c4c5nc(c(-c6c(F)c(F)c(F)c(F)c6F)c6ccc([nH]6)c(-c6c(F)c(F)c(F)c(F)c6F)c6nc(c(-c7c(F)c(F)c(F)c(F)c7F)c7ccc4[nH]7)C=C6)C=C5)cc3)cc2F)c1
REMARK SMILES IDX 26 1 24 2 25 3 22 4 23 5 21 6 18 7 19 8 102 9 20 10 101 11
REMARK SMILES IDX 103 12 17 13 13 14 14 15 104 16 15 17 16 18 12 19 10 20 9 21
REMARK SMILES IDX 11 23 8 24 7 25 6 26 5 27 4 28 3 29 2 30 1 31 27 32 28 33
REMARK SMILES IDX 29 34 30 35 31 36 32 37 33 38 34 39 35 40 36 41 37 42 38 43
REMARK SMILES IDX 39 44 100 45 40 46 99 47 41 48 42 49 43 50 93 51 44 52 98 53
REMARK SMILES IDX 92 54 94 55 45 56 97 57 91 58 90 59 46 61 78 62 58 63 77 64
REMARK SMILES IDX 59 65 62 66 76 67 95 68 60 69 61 70 75 72 96 73 63 74 47 75
REMARK SMILES IDX 48 76 56 77 49 78 50 79 54 80 57 81 51 82 52 83 55 84 53 85
REMARK SMILES IDX 79 86 80 87 88 88 81 89 82 90 86 91 89 92 83 93 84 94 87 95
REMARK SMILES IDX 85 96 64 97 65 98 73 99 66 100 67 101 71 102 74 103 68 104
REMARK SMILES IDX 69 105 72 106 70 107
REMARK H PARENT 9 22 94 60 62 71
REMARK Flexibility Score: inf
ROOT
ATOM      1  O   UNL     1     -11.689  -3.047 -10.602  1.00  0.00    -0.463 OA
ENDROOT
BRANCH   1   2
ATOM      2  C   UNL     1     -11.494  -2.615 -11.873  1.00  0.00     0.313 C 
ATOM      3  O   UNL     1     -12.321  -1.946 -12.491  1.00  0.00    -0.252 OA
BRANCH   2   4
ATOM      4  C   UNL     1     -10.153  -2.979 -12.520  1.00  0.00     0.126 C 
ATOM      5  C   UNL     1     -10.422  -3.774 -13.797  1.00  0.00     0.025 C 
BRANCH   4   6
ATOM      6  C   UNL     1      -9.032  -3.635 -11.717  1.00  0.00    -0.031 A 
ATOM      7  C   UNL     1      -6.850  -4.773 -10.244  1.00  0.00     0.018 A 
ATOM      8  C   UNL     1      -8.122  -5.373 -10.262  1.00  0.00     0.012 A 
ATOM      9  C   UNL     1      -6.695  -3.598 -10.985  1.00  0.00     0.131 A 
ATOM     10  C   UNL     1      -9.194  -4.822 -10.991  1.00  0.00     0.005 A 
ATOM     11  C   UNL     1      -7.753  -3.043 -11.716  1.00  0.00     0.044 A 
ATOM     12  F   UNL     1      -5.509  -2.970 -11.025  1.00  0.00    -0.206 F 
BRANCH   7  13
ATOM     13  C   UNL     1      -5.731  -5.382  -9.499  1.00  0.00    -0.012 A 
ATOM     14  C   UNL     1      -4.002  -5.305  -7.793  1.00  0.00     0.133 A 
ATOM     15  C   UNL     1      -3.588  -6.597  -8.106  1.00  0.00     0.047 A 
ATOM     16  C   UNL     1      -5.050  -4.687  -8.485  1.00  0.00     0.056 A 
ATOM     17  C   UNL     1      -4.249  -7.295  -9.111  1.00  0.00     0.004 A 
ATOM     18  C   UNL     1      -5.309  -6.693  -9.798  1.00  0.00     0.009 A 
BRANCH  14  19
ATOM     19  O   UNL     1      -3.248  -4.607  -6.838  1.00  0.00    -0.410 OA
BRANCH  19  20
ATOM     20  C   UNL     1      -3.909  -4.227  -5.681  1.00  0.00     0.412 C 
ATOM     21  N   UNL     1      -3.099  -3.586  -4.784  1.00  0.00    -0.321 N 
ATOM     22  H   UNL     1      -3.533  -3.233  -3.974  1.00  0.00     0.167 HD
ATOM     23  O   UNL     1      -5.090  -4.440  -5.417  1.00  0.00    -0.224 OA
BRANCH  21  24
ATOM     24  C   UNL     1      -1.669  -3.369  -4.898  1.00  0.00     0.119 C 
BRANCH  24  25
ATOM     25  C   UNL     1      -1.301  -1.885  -4.891  1.00  0.00     0.021 C 
BRANCH  25  26
ATOM     26  C   UNL     1      -1.690  -1.127  -3.615  1.00  0.00     0.002 C 
BRANCH  26  27
ATOM     27  C   UNL     1      -1.096  -1.681  -2.315  1.00  0.00     0.000 C 
BRANCH  27  28
ATOM     28  C   UNL     1       0.435  -1.660  -2.239  1.00  0.00    -0.000 C 
BRANCH  28  29
ATOM     29  C   UNL     1       1.068  -0.264  -2.271  1.00  0.00    -0.000 C 
BRANCH  29  30
ATOM     30  C   UNL     1       0.631   0.679  -1.146  1.00  0.00    -0.003 C 
ATOM     31  C   UNL     1       0.982   0.167   0.243  1.00  0.00     0.004 C 
ENDBRANCH  29  30
ENDBRANCH  28  29
ENDBRANCH  27  28
ENDBRANCH  26  27
ENDBRANCH  25  26
ENDBRANCH  24  25
ENDBRANCH  21  24
ENDBRANCH  19  20
ENDBRANCH  14  19
ENDBRANCH   7  13
ENDBRANCH   4   6
ENDBRANCH   2   4
ENDBRANCH   1   2
BRANCH   1  32
ATOM     32  C   UNL     1     -12.921  -2.640  -9.962  1.00  0.00     0.261 C 
BRANCH  32  33
ATOM     33  C   UNL     1     -12.762  -1.823  -8.670  1.00  0.00     0.202 C 
BRANCH  33  34
ATOM     34  O   UNL     1     -12.002  -0.621  -8.726  1.00  0.00    -0.376 OA
BRANCH  34  35
ATOM     35  C   UNL     1     -10.654  -0.670  -9.178  1.00  0.00     0.188 C 
BRANCH  35  36
ATOM     36  C   UNL     1      -9.780  -1.882  -8.826  1.00  0.00     0.188 C 
BRANCH  36  37
ATOM     37  O   UNL     1     -10.341  -2.739  -7.856  1.00  0.00    -0.376 OA
BRANCH  37  38
ATOM     38  C   UNL     1      -9.521  -3.080  -6.755  1.00  0.00     0.202 C 
BRANCH  38  39
ATOM     39  C   UNL     1      -9.278  -1.926  -5.774  1.00  0.00     0.261 C 
BRANCH  39  40
ATOM     40  O   UNL     1      -8.835  -0.690  -6.364  1.00  0.00    -0.460 OA
BRANCH  40  41
ATOM     41  C   UNL     1      -7.568  -0.641  -6.824  1.00  0.00     0.338 C 
ATOM     42  O   UNL     1      -6.727  -1.531  -6.788  1.00  0.00    -0.246 OA
BRANCH  41  43
ATOM     43  C   UNL     1      -7.412   0.616  -7.583  1.00  0.00     0.060 A 
ATOM     44  C   UNL     1      -7.031   0.567  -8.933  1.00  0.00     0.016 A 
ATOM     45  C   UNL     1      -7.644   1.842  -6.958  1.00  0.00     0.016 A 
ATOM     46  C   UNL     1      -6.851   1.751  -9.654  1.00  0.00     0.010 A 
ATOM     47  C   UNL     1      -7.440   3.023  -7.671  1.00  0.00     0.010 A 
ATOM     48  C   UNL     1      -7.010   2.985  -9.011  1.00  0.00    -0.014 A 
BRANCH  48  49
ATOM     49  C   UNL     1      -6.514   4.238  -9.631  1.00  0.00     0.031 A 
ATOM     50  C   UNL     1      -5.158   4.735  -9.212  1.00  0.00     0.074 A 
ATOM     51  C   UNL     1      -7.256   4.947 -10.498  1.00  0.00     0.049 A 
ATOM     52  N   UNL     1      -4.577   5.882  -9.451  1.00  0.00    -0.248 NA
ATOM     53  C   UNL     1      -4.356   3.810  -8.396  1.00  0.00     0.031 C 
ATOM     54  C   UNL     1      -8.559   4.549 -11.023  1.00  0.00     0.029 A 
ATOM     55  N   UNL     1      -7.022   6.176 -11.065  1.00  0.00    -0.354 N 
ATOM     56  C   UNL     1      -3.355   5.825  -8.794  1.00  0.00     0.074 A 
ATOM     57  C   UNL     1      -3.286   4.543  -8.130  1.00  0.00     0.031 C 
ATOM     58  C   UNL     1      -9.025   5.530 -11.816  1.00  0.00     0.029 A 
ATOM     59  C   UNL     1      -8.074   6.643 -11.815  1.00  0.00     0.049 A 
ATOM     60  H   UNL     1      -6.181   6.675 -10.946  1.00  0.00     0.167 HD
ATOM     61  C   UNL     1      -2.377   6.761  -8.750  1.00  0.00     0.037 A 
ATOM     62  C   UNL     1      -8.260   7.845 -12.395  1.00  0.00     0.037 A 
ATOM     63  C   UNL     1      -2.453   8.036  -9.411  1.00  0.00     0.049 A 
ATOM     64  C   UNL     1      -7.192   8.905 -12.265  1.00  0.00     0.074 A 
ATOM     65  C   UNL     1      -1.513   9.051  -9.438  1.00  0.00     0.029 A 
ATOM     66  N   UNL     1      -3.538   8.475 -10.155  1.00  0.00    -0.354 N 
ATOM     67  N   UNL     1      -6.034   8.848 -11.652  1.00  0.00    -0.248 NA
ATOM     68  C   UNL     1      -7.460  10.200 -12.909  1.00  0.00     0.031 C 
ATOM     69  C   UNL     1      -2.053  10.126 -10.150  1.00  0.00     0.029 A 
ATOM     70  C   UNL     1      -3.300   9.755 -10.627  1.00  0.00     0.049 A 
ATOM     71  H   UNL     1      -4.356   7.954 -10.323  1.00  0.00     0.167 HD
ATOM     72  C   UNL     1      -5.421  10.076 -11.872  1.00  0.00     0.074 A 
ATOM     73  C   UNL     1      -6.333  10.859 -12.677  1.00  0.00     0.031 C 
ATOM     74  C   UNL     1      -4.208  10.514 -11.450  1.00  0.00     0.037 A 
BRANCH  61  75
ATOM     75  C   UNL     1      -1.160   6.452  -7.928  1.00  0.00     0.064 A 
ATOM     76  C   UNL     1      -0.238   5.465  -8.311  1.00  0.00     0.173 A 
ATOM     77  C   UNL     1      -0.903   7.167  -6.749  1.00  0.00     0.173 A 
ATOM     78  F   UNL     1      -0.445   4.740  -9.420  1.00  0.00    -0.203 F 
ATOM     79  C   UNL     1       0.879   5.187  -7.527  1.00  0.00     0.198 A 
ATOM     80  C   UNL     1       0.233   6.910  -5.986  1.00  0.00     0.198 A 
ATOM     81  F   UNL     1      -1.751   8.122  -6.337  1.00  0.00    -0.203 F 
ATOM     82  F   UNL     1       1.715   4.201  -7.882  1.00  0.00    -0.200 F 
ATOM     83  C   UNL     1       1.118   5.914  -6.370  1.00  0.00     0.200 A 
ATOM     84  F   UNL     1       0.469   7.623  -4.876  1.00  0.00    -0.200 F 
ATOM     85  F   UNL     1       2.196   5.648  -5.621  1.00  0.00    -0.200 F 
ENDBRANCH  61  75
BRANCH  62  86
ATOM     86  C   UNL     1      -9.517   8.130 -13.139  1.00  0.00     0.064 A 
ATOM     87  C   UNL     1      -9.504   8.332 -14.527  1.00  0.00     0.173 A 
ATOM     88  C   UNL     1     -10.749   8.238 -12.478  1.00  0.00     0.173 A 
ATOM     89  F   UNL     1      -8.345   8.270 -15.200  1.00  0.00    -0.203 F 
ATOM     90  C   UNL     1     -10.669   8.651 -15.220  1.00  0.00     0.198 A 
ATOM     91  C   UNL     1     -11.920   8.526 -13.177  1.00  0.00     0.198 A 
ATOM     92  F   UNL     1     -10.818   8.062 -11.150  1.00  0.00    -0.203 F 
ATOM     93  F   UNL     1     -10.617   8.894 -16.537  1.00  0.00    -0.200 F 
ATOM     94  C   UNL     1     -11.878   8.742 -14.546  1.00  0.00     0.200 A 
ATOM     95  F   UNL     1     -13.087   8.604 -12.523  1.00  0.00    -0.200 F 
ATOM     96  F   UNL     1     -12.998   9.050 -15.214  1.00  0.00    -0.200 F 
ENDBRANCH  62  86
BRANCH  74  97
ATOM     97  C   UNL     1      -3.757  11.873 -11.904  1.00  0.00     0.064 A 
ATOM     98  C   UNL     1      -4.332  13.053 -11.412  1.00  0.00     0.173 A 
ATOM     99  C   UNL     1      -2.684  11.993 -12.803  1.00  0.00     0.173 A 
ATOM    100  F   UNL     1      -5.367  12.996 -10.561  1.00  0.00    -0.203 F 
ATOM    101  C   UNL     1      -3.866  14.301 -11.820  1.00  0.00     0.198 A 
ATOM    102  C   UNL     1      -2.199  13.241 -13.182  1.00  0.00     0.198 A 
ATOM    103  F   UNL     1      -2.090  10.896 -13.297  1.00  0.00    -0.203 F 
ATOM    104  F   UNL     1      -4.461  15.416 -11.372  1.00  0.00    -0.200 F 
ATOM    105  C   UNL     1      -2.795  14.394 -12.696  1.00  0.00     0.200 A 
ATOM    106  F   UNL     1      -1.151  13.327 -14.013  1.00  0.00    -0.200 F 
ATOM    107  F   UNL     1      -2.338  15.596 -13.075  1.00  0.00    -0.200 F 
ENDBRANCH  74  97
ENDBRANCH  48  49
ENDBRANCH  41  43
ENDBRANCH  40  41
ENDBRANCH  39  40
ENDBRANCH  38  39
ENDBRANCH  37  38
ENDBRANCH  36  37
ENDBRANCH  35  36
ENDBRANCH  34  35
ENDBRANCH  33  34
ENDBRANCH  32  33
ENDBRANCH   1  32
TORSDOF 28
