REMARK SMILES C[C@H](C(=O)OCCOCCOCCOC(=O)c1ccc(-c2c3nc(c(-c4c(F)c(F)c(F)c(F)c4F)c4ccc([nH]4)c(-c4c(F)c(F)c(F)c(F)c4F)c4nc(c(-c5c(F)c(F)c(F)c(F)c5F)c5ccc2[nH]5)C=C4)C=C3)cc1)c1ccc2c(c1)[nH]c1ccc(Cl)cc12
REMARK SMILES IDX 10 1 9 2 8 3 7 4 6 5 5 6 3 7 4 8 2 9 1 10 80 11 81 12 85 13
REMARK SMILES IDX 82 14 84 15 83 16 86 17 93 18 87 19 92 21 88 22 90 23 89 24
REMARK SMILES IDX 91 25 11 26 12 27 13 28 14 29 15 30 16 31 17 32 18 33 79 34
REMARK SMILES IDX 19 35 78 36 20 37 21 38 22 39 72 40 23 41 77 42 71 43 73 44
REMARK SMILES IDX 24 45 76 46 70 47 69 48 25 50 57 51 37 52 56 53 38 54 41 55
REMARK SMILES IDX 55 56 74 57 39 58 40 59 54 61 75 62 42 63 26 64 27 65 35 66
REMARK SMILES IDX 28 67 29 68 33 69 36 70 30 71 31 72 34 73 32 74 58 75 59 76
REMARK SMILES IDX 67 77 60 78 61 79 65 80 68 81 62 82 63 83 66 84 64 85 43 86
REMARK SMILES IDX 44 87 52 88 45 89 46 90 50 91 53 92 47 93 48 94 51 95 49 96
REMARK H PARENT 86 20 73 49 41 60
REMARK Flexibility Score: inf
ROOT
ATOM      1  C   UNL     1       0.292   0.329  -2.333  1.00  0.00     0.188 C 
ENDROOT
BRANCH   1   2
ATOM      2  C   UNL     1       1.813   0.141  -2.120  1.00  0.00     0.188 C 
BRANCH   2   3
ATOM      3  O   UNL     1       2.372  -1.165  -2.229  1.00  0.00    -0.376 OA
BRANCH   3   4
ATOM      4  C   UNL     1       1.763  -2.226  -1.500  1.00  0.00     0.202 C 
BRANCH   4   5
ATOM      5  C   UNL     1       1.532  -2.013  -0.001  1.00  0.00     0.261 C 
BRANCH   5   6
ATOM      6  O   UNL     1       0.721  -0.860   0.283  1.00  0.00    -0.463 OA
BRANCH   6   7
ATOM      7  C   UNL     1       1.169   0.038   1.204  1.00  0.00     0.313 C 
ATOM      8  O   UNL     1       2.247  -0.053   1.783  1.00  0.00    -0.252 OA
BRANCH   7   9
ATOM      9  C   UNL     1       0.212   1.227   1.416  1.00  0.00     0.126 C 
ATOM     10  C   UNL     1       0.822   2.465   0.747  1.00  0.00     0.025 C 
BRANCH   9  11
ATOM     11  C   UNL     1      -1.270   0.955   1.127  1.00  0.00    -0.032 A 
ATOM     12  C   UNL     1      -2.171   1.922   0.650  1.00  0.00     0.005 A 
ATOM     13  C   UNL     1      -1.780  -0.306   1.476  1.00  0.00     0.031 A 
ATOM     14  C   UNL     1      -3.554   1.653   0.522  1.00  0.00     0.011 A 
ATOM     15  C   UNL     1      -3.142  -0.558   1.336  1.00  0.00     0.047 A 
ATOM     16  C   UNL     1      -4.057   0.388   0.894  1.00  0.00     0.007 A 
ATOM     17  N   UNL     1      -3.828  -1.707   1.619  1.00  0.00    -0.355 N 
ATOM     18  C   UNL     1      -5.361  -0.209   1.023  1.00  0.00     0.009 A 
ATOM     19  C   UNL     1      -5.177  -1.483   1.567  1.00  0.00     0.047 A 
ATOM     20  H   UNL     1      -3.410  -2.573   1.830  1.00  0.00     0.167 HD
ATOM     21  C   UNL     1      -6.685   0.226   0.801  1.00  0.00     0.031 A 
ATOM     22  C   UNL     1      -6.222  -2.315   1.975  1.00  0.00     0.028 A 
ATOM     23  C   UNL     1      -7.745  -0.602   1.200  1.00  0.00     0.041 A 
ATOM     24  C   UNL     1      -7.519  -1.839   1.801  1.00  0.00     0.022 A 
ATOM     25  Cl  UNL     1      -9.369  -0.073   0.969  1.00  0.00    -0.084 Cl
ENDBRANCH   9  11
ENDBRANCH   7   9
ENDBRANCH   6   7
ENDBRANCH   5   6
ENDBRANCH   4   5
ENDBRANCH   3   4
ENDBRANCH   2   3
ENDBRANCH   1   2
BRANCH   1  26
ATOM     26  O   UNL     1      -0.381  -0.850  -2.691  1.00  0.00    -0.376 OA
BRANCH  26  27
ATOM     27  C   UNL     1      -0.699  -1.103  -4.042  1.00  0.00     0.202 C 
BRANCH  27  28
ATOM     28  C   UNL     1       0.124  -0.594  -5.243  1.00  0.00     0.261 C 
BRANCH  28  29
ATOM     29  O   UNL     1       1.150   0.377  -5.010  1.00  0.00    -0.460 OA
BRANCH  29  30
ATOM     30  C   UNL     1       0.825   1.674  -5.237  1.00  0.00     0.338 C 
ATOM     31  O   UNL     1      -0.258   2.117  -5.566  1.00  0.00    -0.246 OA
BRANCH  30  32
ATOM     32  C   UNL     1       1.975   2.521  -4.849  1.00  0.00     0.060 A 
ATOM     33  C   UNL     1       1.837   3.397  -3.764  1.00  0.00     0.016 A 
ATOM     34  C   UNL     1       3.174   2.461  -5.560  1.00  0.00     0.016 A 
ATOM     35  C   UNL     1       2.894   4.237  -3.402  1.00  0.00     0.010 A 
ATOM     36  C   UNL     1       4.223   3.318  -5.211  1.00  0.00     0.010 A 
ATOM     37  C   UNL     1       4.080   4.230  -4.149  1.00  0.00    -0.014 A 
BRANCH  37  38
ATOM     38  C   UNL     1       5.103   5.288  -3.942  1.00  0.00     0.031 A 
ATOM     39  C   UNL     1       5.113   6.469  -4.875  1.00  0.00     0.074 A 
ATOM     40  C   UNL     1       6.009   5.210  -2.951  1.00  0.00     0.049 A 
ATOM     41  N   UNL     1       5.954   7.469  -4.948  1.00  0.00    -0.248 NA
ATOM     42  C   UNL     1       4.024   6.525  -5.862  1.00  0.00     0.031 C 
ATOM     43  C   UNL     1       6.079   4.148  -1.951  1.00  0.00     0.029 A 
ATOM     44  N   UNL     1       7.056   6.042  -2.635  1.00  0.00    -0.354 N 
ATOM     45  C   UNL     1       5.505   8.263  -5.995  1.00  0.00     0.074 A 
ATOM     46  C   UNL     1       4.332   7.618  -6.544  1.00  0.00     0.031 C 
ATOM     47  C   UNL     1       7.125   4.385  -1.138  1.00  0.00     0.029 A 
ATOM     48  C   UNL     1       7.820   5.592  -1.586  1.00  0.00     0.049 A 
ATOM     49  H   UNL     1       7.241   6.881  -3.115  1.00  0.00     0.167 HD
ATOM     50  C   UNL     1       6.022   9.427  -6.456  1.00  0.00     0.037 A 
ATOM     51  C   UNL     1       8.964   6.083  -1.069  1.00  0.00     0.037 A 
ATOM     52  C   UNL     1       7.191  10.068  -5.912  1.00  0.00     0.049 A 
ATOM     53  C   UNL     1       9.569   7.335  -1.657  1.00  0.00     0.074 A 
ATOM     54  C   UNL     1       7.779  11.260  -6.298  1.00  0.00     0.029 A 
ATOM     55  N   UNL     1       7.957   9.563  -4.872  1.00  0.00    -0.354 N 
ATOM     56  N   UNL     1       9.126   8.096  -2.629  1.00  0.00    -0.248 NA
ATOM     57  C   UNL     1      10.838   7.797  -1.072  1.00  0.00     0.031 C 
ATOM     58  C   UNL     1       8.936  11.444  -5.535  1.00  0.00     0.029 A 
ATOM     59  C   UNL     1       9.032  10.403  -4.626  1.00  0.00     0.049 A 
ATOM     60  H   UNL     1       7.766   8.731  -4.382  1.00  0.00     0.167 HD
ATOM     61  C   UNL     1      10.037   9.140  -2.746  1.00  0.00     0.074 A 
ATOM     62  C   UNL     1      11.052   8.922  -1.739  1.00  0.00     0.031 C 
ATOM     63  C   UNL     1      10.030  10.186  -3.610  1.00  0.00     0.037 A 
BRANCH  50  64
ATOM     64  C   UNL     1       5.348  10.067  -7.635  1.00  0.00     0.064 A 
ATOM     65  C   UNL     1       4.080  10.660  -7.533  1.00  0.00     0.173 A 
ATOM     66  C   UNL     1       5.997  10.118  -8.879  1.00  0.00     0.173 A 
ATOM     67  F   UNL     1       3.410  10.626  -6.371  1.00  0.00    -0.203 F 
ATOM     68  C   UNL     1       3.477  11.254  -8.639  1.00  0.00     0.198 A 
ATOM     69  C   UNL     1       5.405  10.742  -9.973  1.00  0.00     0.198 A 
ATOM     70  F   UNL     1       7.213   9.571  -9.030  1.00  0.00    -0.203 F 
ATOM     71  F   UNL     1       2.244  11.770  -8.531  1.00  0.00    -0.200 F 
ATOM     72  C   UNL     1       4.143  11.302  -9.854  1.00  0.00     0.200 A 
ATOM     73  F   UNL     1       6.057  10.801 -11.142  1.00  0.00    -0.200 F 
ATOM     74  F   UNL     1       3.564  11.883 -10.915  1.00  0.00    -0.200 F 
ENDBRANCH  50  64
BRANCH  51  75
ATOM     75  C   UNL     1       9.636   5.386   0.062  1.00  0.00     0.064 A 
ATOM     76  C   UNL     1       9.740   5.990   1.324  1.00  0.00     0.173 A 
ATOM     77  C   UNL     1      10.224   4.124  -0.104  1.00  0.00     0.173 A 
ATOM     78  F   UNL     1       9.223   7.210   1.527  1.00  0.00    -0.203 F 
ATOM     79  C   UNL     1      10.427   5.369   2.366  1.00  0.00     0.198 A 
ATOM     80  C   UNL     1      10.882   3.489   0.948  1.00  0.00     0.198 A 
ATOM     81  F   UNL     1      10.163   3.505  -1.293  1.00  0.00    -0.203 F 
ATOM     82  F   UNL     1      10.562   5.996   3.543  1.00  0.00    -0.200 F 
ATOM     83  C   UNL     1      10.992   4.117   2.179  1.00  0.00     0.200 A 
ATOM     84  F   UNL     1      11.419   2.276   0.765  1.00  0.00    -0.200 F 
ATOM     85  F   UNL     1      11.653   3.521   3.181  1.00  0.00    -0.200 F 
ENDBRANCH  51  75
BRANCH  63  86
ATOM     86  C   UNL     1      11.124  11.209  -3.475  1.00  0.00     0.064 A 
ATOM     87  C   UNL     1      12.453  10.926  -3.822  1.00  0.00     0.173 A 
ATOM     88  C   UNL     1      10.825  12.509  -3.035  1.00  0.00     0.173 A 
ATOM     89  F   UNL     1      12.796   9.697  -4.237  1.00  0.00    -0.203 F 
ATOM     90  C   UNL     1      13.447  11.897  -3.706  1.00  0.00     0.198 A 
ATOM     91  C   UNL     1      11.814  13.486  -2.954  1.00  0.00     0.198 A 
ATOM     92  F   UNL     1       9.569  12.838  -2.699  1.00  0.00    -0.203 F 
ATOM     93  F   UNL     1      14.719  11.588  -3.994  1.00  0.00    -0.200 F 
ATOM     94  C   UNL     1      13.125  13.177  -3.281  1.00  0.00     0.200 A 
ATOM     95  F   UNL     1      11.497  14.727  -2.560  1.00  0.00    -0.200 F 
ATOM     96  F   UNL     1      14.080  14.112  -3.181  1.00  0.00    -0.200 F 
ENDBRANCH  63  86
ENDBRANCH  37  38
ENDBRANCH  30  32
ENDBRANCH  29  30
ENDBRANCH  28  29
ENDBRANCH  27  28
ENDBRANCH  26  27
ENDBRANCH   1  26
TORSDOF 18
