REMARK SMILES Cc1cccc2nc(C(=O)NCC(=O)OCCOCCOCCOC(=O)c3ccc(-c4c5nc(c(-c6c(F)c(F)c(F)c(F)c6F)c6ccc([nH]6)c(-c6c(F)c(F)c(F)c(F)c6F)c6nc(c(-c7c(F)c(F)c(F)c(F)c7F)c7ccc4[nH]7)C=C6)C=C5)cc3)cn12
REMARK SMILES IDX 19 1 18 2 17 3 16 4 15 5 13 6 14 7 12 8 11 9 9 10 10 11 8 13
REMARK SMILES IDX 1 14 2 15 3 16 91 17 4 18 6 19 90 20 5 21 7 22 20 23 21 24
REMARK SMILES IDX 22 25 23 26 24 27 25 28 26 29 27 30 28 31 89 32 29 33 88 34
REMARK SMILES IDX 30 35 31 36 32 37 82 38 33 39 87 40 81 41 83 42 34 43 86 44
REMARK SMILES IDX 80 45 79 46 35 48 67 49 47 50 66 51 48 52 51 53 65 54 84 55
REMARK SMILES IDX 49 56 50 57 64 59 85 60 52 61 36 62 37 63 45 64 38 65 39 66
REMARK SMILES IDX 43 67 46 68 40 69 41 70 44 71 42 72 68 73 69 74 77 75 70 76
REMARK SMILES IDX 71 77 75 78 78 79 72 80 73 81 76 82 74 83 53 84 54 85 62 86
REMARK SMILES IDX 55 87 56 88 60 89 63 90 57 91 58 92 61 93 59 94
REMARK H PARENT 11 12 83 47 51 58
REMARK Flexibility Score: inf
ROOT
ATOM      1  C   UNL     1      -1.698   8.429  -5.477  1.00  0.00     0.188 C 
ENDROOT
BRANCH   1   2
ATOM      2  O   UNL     1      -3.078   8.662  -5.604  1.00  0.00    -0.376 OA
BRANCH   2   3
ATOM      3  C   UNL     1      -3.981   7.744  -5.005  1.00  0.00     0.202 C 
BRANCH   3   4
ATOM      4  C   UNL     1      -3.645   6.245  -4.818  1.00  0.00     0.261 C 
BRANCH   4   5
ATOM      5  O   UNL     1      -2.349   5.957  -4.258  1.00  0.00    -0.462 OA
BRANCH   5   6
ATOM      6  C   UNL     1      -1.529   5.143  -4.989  1.00  0.00     0.325 C 
ATOM      7  O   UNL     1      -1.875   4.578  -6.024  1.00  0.00    -0.250 OA
BRANCH   6   8
ATOM      8  C   UNL     1      -0.051   5.255  -4.574  1.00  0.00     0.239 C 
BRANCH   8   9
ATOM      9  N   UNL     1       0.290   5.656  -3.213  1.00  0.00    -0.340 N 
ATOM     10  C   UNL     1       0.512   4.872  -2.116  1.00  0.00     0.272 C 
ATOM     11  O   UNL     1       0.916   5.397  -1.079  1.00  0.00    -0.267 OA
ATOM     12  H   UNL     1       0.371   6.626  -3.064  1.00  0.00     0.164 HD
BRANCH  10  13
ATOM     13  C   UNL     1       0.289   3.438  -2.228  1.00  0.00     0.147 A 
ATOM     14  C   UNL     1       0.924  -0.167   0.141  1.00  0.00     0.065 C 
ATOM     15  C   UNL     1       0.412  -0.007  -1.257  1.00  0.00     0.021 A 
ATOM     16  C   UNL     1       0.047  -1.053  -2.028  1.00  0.00     0.022 A 
ATOM     17  N   UNL     1       0.285   1.281  -1.799  1.00  0.00    -0.304 N 
ATOM     18  C   UNL     1      -0.442  -0.822  -3.380  1.00  0.00     0.006 A 
ATOM     19  C   UNL     1      -0.218   1.532  -3.071  1.00  0.00     0.137 A 
ATOM     20  C   UNL     1       0.609   2.502  -1.266  1.00  0.00     0.127 A 
ATOM     21  C   UNL     1      -0.575   0.421  -3.875  1.00  0.00     0.048 A 
ATOM     22  N   UNL     1      -0.267   2.816  -3.326  1.00  0.00    -0.223 NA
ENDBRANCH  10  13
ENDBRANCH   8   9
ENDBRANCH   6   8
ENDBRANCH   5   6
ENDBRANCH   4   5
ENDBRANCH   3   4
ENDBRANCH   2   3
ENDBRANCH   1   2
BRANCH   1  23
ATOM     23  C   UNL     1      -1.029   8.588  -4.110  1.00  0.00     0.188 C 
BRANCH  23  24
ATOM     24  O   UNL     1      -1.611   8.148  -2.902  1.00  0.00    -0.376 OA
BRANCH  24  25
ATOM     25  C   UNL     1      -2.624   8.824  -2.166  1.00  0.00     0.202 C 
BRANCH  25  26
ATOM     26  C   UNL     1      -2.928  10.322  -2.248  1.00  0.00     0.261 C 
BRANCH  26  27
ATOM     27  O   UNL     1      -2.178  11.029  -3.203  1.00  0.00    -0.460 OA
BRANCH  27  28
ATOM     28  C   UNL     1      -0.930  11.295  -2.782  1.00  0.00     0.338 C 
ATOM     29  O   UNL     1      -0.400  10.956  -1.727  1.00  0.00    -0.246 OA
BRANCH  28  30
ATOM     30  C   UNL     1      -0.258  12.056  -3.827  1.00  0.00     0.060 A 
ATOM     31  C   UNL     1       1.131  12.137  -3.735  1.00  0.00     0.016 A 
ATOM     32  C   UNL     1      -1.032  12.942  -4.585  1.00  0.00     0.016 A 
ATOM     33  C   UNL     1       1.704  13.324  -4.096  1.00  0.00     0.010 A 
ATOM     34  C   UNL     1      -0.465  14.138  -4.916  1.00  0.00     0.010 A 
ATOM     35  C   UNL     1       0.859  14.345  -4.544  1.00  0.00    -0.014 A 
BRANCH  35  36
ATOM     36  C   UNL     1       1.415  15.666  -4.655  1.00  0.00     0.031 A 
ATOM     37  C   UNL     1       2.226  15.807  -5.872  1.00  0.00     0.074 A 
ATOM     38  C   UNL     1       1.170  16.620  -3.739  1.00  0.00     0.049 A 
ATOM     39  N   UNL     1       3.511  15.861  -5.937  1.00  0.00    -0.248 NA
ATOM     40  C   UNL     1       1.555  15.633  -7.170  1.00  0.00     0.031 C 
ATOM     41  C   UNL     1       0.205  16.613  -2.636  1.00  0.00     0.029 A 
ATOM     42  N   UNL     1       1.716  17.861  -3.657  1.00  0.00    -0.354 N 
ATOM     43  C   UNL     1       3.803  15.951  -7.290  1.00  0.00     0.074 A 
ATOM     44  C   UNL     1       2.602  15.589  -7.993  1.00  0.00     0.031 C 
ATOM     45  C   UNL     1       0.079  17.869  -2.144  1.00  0.00     0.029 A 
ATOM     46  C   UNL     1       1.051  18.728  -2.798  1.00  0.00     0.049 A 
ATOM     47  H   UNL     1       2.517  18.125  -4.165  1.00  0.00     0.167 HD
ATOM     48  C   UNL     1       4.915  16.613  -7.698  1.00  0.00     0.037 A 
ATOM     49  C   UNL     1       1.265  20.066  -2.717  1.00  0.00     0.037 A 
ATOM     50  C   UNL     1       5.864  16.733  -6.617  1.00  0.00     0.049 A 
ATOM     51  C   UNL     1       2.622  20.317  -3.272  1.00  0.00     0.074 A 
ATOM     52  C   UNL     1       6.591  15.839  -5.856  1.00  0.00     0.029 A 
ATOM     53  N   UNL     1       5.879  17.919  -5.927  1.00  0.00    -0.354 N 
ATOM     54  N   UNL     1       3.722  19.911  -2.700  1.00  0.00    -0.248 NA
ATOM     55  C   UNL     1       2.726  20.605  -4.695  1.00  0.00     0.031 C 
ATOM     56  C   UNL     1       6.641  16.411  -4.550  1.00  0.00     0.029 A 
ATOM     57  C   UNL     1       5.996  17.648  -4.591  1.00  0.00     0.049 A 
ATOM     58  H   UNL     1       5.816  18.817  -6.328  1.00  0.00     0.167 HD
ATOM     59  C   UNL     1       4.524  19.479  -3.747  1.00  0.00     0.074 A 
ATOM     60  C   UNL     1       3.893  20.009  -4.954  1.00  0.00     0.031 C 
ATOM     61  C   UNL     1       5.448  18.493  -3.554  1.00  0.00     0.037 A 
BRANCH  48  62
ATOM     62  C   UNL     1       4.938  17.528  -8.898  1.00  0.00     0.064 A 
ATOM     63  C   UNL     1       6.160  18.130  -9.256  1.00  0.00     0.173 A 
ATOM     64  C   UNL     1       3.788  18.081  -9.507  1.00  0.00     0.173 A 
ATOM     65  F   UNL     1       7.315  17.698  -8.727  1.00  0.00    -0.203 F 
ATOM     66  C   UNL     1       6.213  19.254 -10.082  1.00  0.00     0.198 A 
ATOM     67  C   UNL     1       3.852  19.168 -10.374  1.00  0.00     0.198 A 
ATOM     68  F   UNL     1       2.548  17.680  -9.212  1.00  0.00    -0.203 F 
ATOM     69  F   UNL     1       7.383  19.875 -10.281  1.00  0.00    -0.200 F 
ATOM     70  C   UNL     1       5.059  19.777 -10.633  1.00  0.00     0.200 A 
ATOM     71  F   UNL     1       2.717  19.670 -10.881  1.00  0.00    -0.200 F 
ATOM     72  F   UNL     1       5.099  20.893 -11.371  1.00  0.00    -0.200 F 
ENDBRANCH  48  62
BRANCH  49  73
ATOM     73  C   UNL     1       0.254  21.148  -2.592  1.00  0.00     0.064 A 
ATOM     74  C   UNL     1       0.651  22.473  -2.338  1.00  0.00     0.173 A 
ATOM     75  C   UNL     1      -1.075  20.968  -3.020  1.00  0.00     0.173 A 
ATOM     76  F   UNL     1       1.913  22.740  -1.971  1.00  0.00    -0.203 F 
ATOM     77  C   UNL     1      -0.217  23.553  -2.537  1.00  0.00     0.198 A 
ATOM     78  C   UNL     1      -1.942  22.046  -3.213  1.00  0.00     0.198 A 
ATOM     79  F   UNL     1      -1.533  19.755  -3.358  1.00  0.00    -0.203 F 
ATOM     80  F   UNL     1       0.221  24.807  -2.353  1.00  0.00    -0.200 F 
ATOM     81  C   UNL     1      -1.509  23.339  -2.987  1.00  0.00     0.200 A 
ATOM     82  F   UNL     1      -3.178  21.828  -3.687  1.00  0.00    -0.200 F 
ATOM     83  F   UNL     1      -2.319  24.375  -3.245  1.00  0.00    -0.200 F 
ENDBRANCH  49  73
BRANCH  61  84
ATOM     84  C   UNL     1       5.769  18.103  -2.137  1.00  0.00     0.064 A 
ATOM     85  C   UNL     1       4.860  17.482  -1.262  1.00  0.00     0.173 A 
ATOM     86  C   UNL     1       7.100  18.212  -1.714  1.00  0.00     0.173 A 
ATOM     87  F   UNL     1       3.590  17.264  -1.628  1.00  0.00    -0.203 F 
ATOM     88  C   UNL     1       5.268  17.013  -0.013  1.00  0.00     0.198 A 
ATOM     89  C   UNL     1       7.511  17.711  -0.483  1.00  0.00     0.198 A 
ATOM     90  F   UNL     1       8.019  18.755  -2.528  1.00  0.00    -0.203 F 
ATOM     91  F   UNL     1       4.384  16.422   0.806  1.00  0.00    -0.200 F 
ATOM     92  C   UNL     1       6.595  17.116   0.369  1.00  0.00     0.200 A 
ATOM     93  F   UNL     1       8.806  17.771  -0.140  1.00  0.00    -0.200 F 
ATOM     94  F   UNL     1       6.999  16.618   1.546  1.00  0.00    -0.200 F 
ENDBRANCH  61  84
ENDBRANCH  35  36
ENDBRANCH  28  30
ENDBRANCH  27  28
ENDBRANCH  26  27
ENDBRANCH  25  26
ENDBRANCH  24  25
ENDBRANCH  23  24
ENDBRANCH   1  23
TORSDOF 19
