REMARK SMILES C[C@]1(C(=O)NCCn2cc(C(=O)OCCOCCOCCOC(=O)c3ccc(-c4c5nc(c(-c6c(F)c(F)c(F)c(F)c6F)c6ccc([nH]6)c(-c6c(F)c(F)c(F)c(F)c6F)c6nc(c(-c7c(F)c(F)c(F)c(F)c7F)c7ccc4[nH]7)C=C6)C=C5)cc3)nn2)CCCO1
REMARK SMILES IDX 17 1 16 2 15 3 14 4 13 5 11 6 12 7 10 8 8 9 9 10 89 11 88 12
REMARK SMILES IDX 7 13 6 14 5 15 3 16 4 17 2 19 1 20 90 21 93 22 91 23 92 24
REMARK SMILES IDX 18 25 19 26 20 27 21 28 22 29 23 30 24 31 25 32 26 33 87 34
REMARK SMILES IDX 27 35 86 36 28 37 29 38 30 39 80 40 31 41 85 42 79 43 81 44
REMARK SMILES IDX 32 45 84 46 78 47 77 48 33 50 65 51 45 52 64 53 46 54 49 55
REMARK SMILES IDX 63 56 82 57 47 58 48 59 62 61 83 62 50 63 34 64 35 65 43 66
REMARK SMILES IDX 36 67 37 68 41 69 44 70 38 71 39 72 42 73 40 74 66 75 67 76
REMARK SMILES IDX 75 77 68 78 69 79 73 80 76 81 70 82 71 83 74 84 72 85 51 86
REMARK SMILES IDX 52 87 60 88 53 89 54 90 58 91 61 92 55 93 56 94 59 95 57 96
REMARK H PARENT 5 18 81 49 49 60
REMARK Flexibility Score: inf
ROOT
ATOM      1  C   UNL     1       2.619  -7.003   1.829  1.00  0.00     0.188 C 
ENDROOT
BRANCH   1   2
ATOM      2  O   UNL     1       3.047  -8.008   0.922  1.00  0.00    -0.376 OA
BRANCH   2   3
ATOM      3  C   UNL     1       2.871  -7.843  -0.480  1.00  0.00     0.202 C 
BRANCH   3   4
ATOM      4  C   UNL     1       1.555  -7.323  -1.097  1.00  0.00     0.261 C 
BRANCH   4   5
ATOM      5  O   UNL     1       0.995  -6.150  -0.490  1.00  0.00    -0.458 OA
BRANCH   5   6
ATOM      6  C   UNL     1      -0.149  -6.340   0.242  1.00  0.00     0.360 C 
ATOM      7  O   UNL     1      -0.776  -7.375   0.280  1.00  0.00    -0.244 OA
BRANCH   6   8
ATOM      8  C   UNL     1      -0.429  -5.194   1.104  1.00  0.00     0.190 A 
ATOM      9  N   UNL     1      -0.572  -3.254   2.054  1.00  0.00    -0.250 N 
ATOM     10  C   UNL     1      -0.258  -3.845   0.866  1.00  0.00     0.147 A 
ATOM     11  N   UNL     1      -0.897  -4.168   2.983  1.00  0.00    -0.066 NA
ATOM     12  N   UNL     1      -0.838  -5.361   2.408  1.00  0.00    -0.123 NA
BRANCH   9  13
ATOM     13  C   UNL     1      -0.723  -1.848   2.359  1.00  0.00     0.167 C 
BRANCH  13  14
ATOM     14  C   UNL     1       0.578  -1.046   2.362  1.00  0.00     0.139 C 
BRANCH  14  15
ATOM     15  N   UNL     1       1.178  -0.875   1.048  1.00  0.00    -0.352 N 
ATOM     16  C   UNL     1       1.125   0.144   0.138  1.00  0.00     0.252 C 
ATOM     17  O   UNL     1       1.734  -0.050  -0.918  1.00  0.00    -0.272 OA
ATOM     18  H   UNL     1       1.728  -1.639   0.758  1.00  0.00     0.163 HD
BRANCH  16  19
ATOM     19  C   UNL     1       0.358   1.467   0.423  1.00  0.00     0.143 C 
ATOM     20  C   UNL     1      -1.138   1.224   0.644  1.00  0.00     0.053 C 
ATOM     21  C   UNL     1       1.021   2.268   1.544  1.00  0.00     0.048 C 
ATOM     22  O   UNL     1       0.433   2.338  -0.735  1.00  0.00    -0.365 OA
ATOM     23  C   UNL     1       0.698   3.696   1.184  1.00  0.00     0.032 C 
ATOM     24  C   UNL     1       0.780   3.665  -0.323  1.00  0.00     0.162 C 
ENDBRANCH  16  19
ENDBRANCH  14  15
ENDBRANCH  13  14
ENDBRANCH   9  13
ENDBRANCH   6   8
ENDBRANCH   5   6
ENDBRANCH   4   5
ENDBRANCH   3   4
ENDBRANCH   2   3
ENDBRANCH   1   2
BRANCH   1  25
ATOM     25  C   UNL     1       3.029  -5.529   1.620  1.00  0.00     0.188 C 
BRANCH  25  26
ATOM     26  O   UNL     1       3.396  -5.199   0.298  1.00  0.00    -0.376 OA
BRANCH  26  27
ATOM     27  C   UNL     1       4.755  -5.021  -0.072  1.00  0.00     0.202 C 
BRANCH  27  28
ATOM     28  C   UNL     1       5.917  -5.823   0.520  1.00  0.00     0.261 C 
BRANCH  28  29
ATOM     29  O   UNL     1       5.654  -6.531   1.713  1.00  0.00    -0.460 OA
BRANCH  29  30
ATOM     30  C   UNL     1       5.857  -5.820   2.839  1.00  0.00     0.338 C 
ATOM     31  O   UNL     1       5.983  -4.611   2.937  1.00  0.00    -0.246 OA
BRANCH  30  32
ATOM     32  C   UNL     1       6.000  -6.756   3.955  1.00  0.00     0.060 A 
ATOM     33  C   UNL     1       5.983  -6.212   5.241  1.00  0.00     0.016 A 
ATOM     34  C   UNL     1       6.462  -8.055   3.695  1.00  0.00     0.016 A 
ATOM     35  C   UNL     1       6.650  -6.886   6.237  1.00  0.00     0.010 A 
ATOM     36  C   UNL     1       7.148  -8.715   4.682  1.00  0.00     0.010 A 
ATOM     37  C   UNL     1       7.309  -8.074   5.909  1.00  0.00    -0.014 A 
BRANCH  37  38
ATOM     38  C   UNL     1       8.219  -8.626   6.886  1.00  0.00     0.031 A 
ATOM     39  C   UNL     1       7.569  -9.405   7.954  1.00  0.00     0.074 A 
ATOM     40  C   UNL     1       9.551  -8.501   6.741  1.00  0.00     0.049 A 
ATOM     41  N   UNL     1       7.595  -9.185   9.226  1.00  0.00    -0.248 NA
ATOM     42  C   UNL     1       6.688 -10.508   7.543  1.00  0.00     0.031 C 
ATOM     43  C   UNL     1      10.281  -8.007   5.568  1.00  0.00     0.029 A 
ATOM     44  N   UNL     1      10.543  -8.903   7.580  1.00  0.00    -0.354 N 
ATOM     45  C   UNL     1       6.875 -10.230   9.793  1.00  0.00     0.074 A 
ATOM     46  C   UNL     1       6.210 -10.915   8.717  1.00  0.00     0.031 C 
ATOM     47  C   UNL     1      11.585  -8.339   5.689  1.00  0.00     0.029 A 
ATOM     48  C   UNL     1      11.794  -8.959   6.987  1.00  0.00     0.049 A 
ATOM     49  H   UNL     1      10.386  -9.134   8.524  1.00  0.00     0.167 HD
ATOM     50  C   UNL     1       7.095 -10.612  11.078  1.00  0.00     0.037 A 
ATOM     51  C   UNL     1      12.897  -9.555   7.500  1.00  0.00     0.037 A 
ATOM     52  C   UNL     1       7.724  -9.568  11.842  1.00  0.00     0.049 A 
ATOM     53  C   UNL     1      12.678  -9.733   8.956  1.00  0.00     0.074 A 
ATOM     54  C   UNL     1       7.374  -8.284  12.211  1.00  0.00     0.029 A 
ATOM     55  N   UNL     1       9.070  -9.677  12.077  1.00  0.00    -0.354 N 
ATOM     56  N   UNL     1      12.653  -8.761   9.823  1.00  0.00    -0.248 NA
ATOM     57  C   UNL     1      12.110 -10.992   9.419  1.00  0.00     0.031 C 
ATOM     58  C   UNL     1       8.598  -7.556  12.261  1.00  0.00     0.029 A 
ATOM     59  C   UNL     1       9.632  -8.435  11.938  1.00  0.00     0.049 A 
ATOM     60  H   UNL     1       9.550 -10.505  12.306  1.00  0.00     0.167 HD
ATOM     61  C   UNL     1      11.706  -9.147  10.758  1.00  0.00     0.074 A 
ATOM     62  C   UNL     1      11.515 -10.575  10.539  1.00  0.00     0.031 C 
ATOM     63  C   UNL     1      10.961  -8.214  11.418  1.00  0.00     0.037 A 
BRANCH  50  64
ATOM     64  C   UNL     1       7.106 -12.056  11.515  1.00  0.00     0.064 A 
ATOM     65  C   UNL     1       7.196 -12.351  12.888  1.00  0.00     0.173 A 
ATOM     66  C   UNL     1       7.344 -13.140  10.640  1.00  0.00     0.173 A 
ATOM     67  F   UNL     1       7.016 -11.389  13.805  1.00  0.00    -0.203 F 
ATOM     68  C   UNL     1       7.574 -13.615  13.345  1.00  0.00     0.198 A 
ATOM     69  C   UNL     1       7.662 -14.415  11.102  1.00  0.00     0.198 A 
ATOM     70  F   UNL     1       7.398 -12.992   9.311  1.00  0.00    -0.203 F 
ATOM     71  F   UNL     1       7.780 -13.814  14.653  1.00  0.00    -0.200 F 
ATOM     72  C   UNL     1       7.811 -14.645  12.452  1.00  0.00     0.200 A 
ATOM     73  F   UNL     1       7.907 -15.393  10.218  1.00  0.00    -0.200 F 
ATOM     74  F   UNL     1       8.236 -15.838  12.884  1.00  0.00    -0.200 F 
ENDBRANCH  50  64
BRANCH  51  75
ATOM     75  C   UNL     1      14.008 -10.218   6.780  1.00  0.00     0.064 A 
ATOM     76  C   UNL     1      15.222 -10.494   7.428  1.00  0.00     0.173 A 
ATOM     77  C   UNL     1      13.813 -10.831   5.527  1.00  0.00     0.173 A 
ATOM     78  F   UNL     1      15.470  -9.986   8.644  1.00  0.00    -0.203 F 
ATOM     79  C   UNL     1      16.172 -11.354   6.868  1.00  0.00     0.198 A 
ATOM     80  C   UNL     1      14.768 -11.677   4.962  1.00  0.00     0.198 A 
ATOM     81  F   UNL     1      12.654 -10.699   4.866  1.00  0.00    -0.203 F 
ATOM     82  F   UNL     1      17.290 -11.647   7.547  1.00  0.00    -0.200 F 
ATOM     83  C   UNL     1      15.941 -11.951   5.640  1.00  0.00     0.200 A 
ATOM     84  F   UNL     1      14.515 -12.273   3.788  1.00  0.00    -0.200 F 
ATOM     85  F   UNL     1      16.824 -12.820   5.130  1.00  0.00    -0.200 F 
ENDBRANCH  51  75
BRANCH  63  86
ATOM     86  C   UNL     1      11.452  -6.796  11.379  1.00  0.00     0.064 A 
ATOM     87  C   UNL     1      11.535  -6.027  10.206  1.00  0.00     0.173 A 
ATOM     88  C   UNL     1      11.747  -6.161  12.593  1.00  0.00     0.173 A 
ATOM     89  F   UNL     1      11.170  -6.534   9.022  1.00  0.00    -0.203 F 
ATOM     90  C   UNL     1      11.952  -4.698  10.245  1.00  0.00     0.198 A 
ATOM     91  C   UNL     1      12.125  -4.822  12.633  1.00  0.00     0.198 A 
ATOM     92  F   UNL     1      11.628  -6.832  13.749  1.00  0.00    -0.203 F 
ATOM     93  F   UNL     1      12.047  -3.989   9.110  1.00  0.00    -0.200 F 
ATOM     94  C   UNL     1      12.241  -4.096  11.459  1.00  0.00     0.200 A 
ATOM     95  F   UNL     1      12.355  -4.230  13.813  1.00  0.00    -0.200 F 
ATOM     96  F   UNL     1      12.607  -2.807  11.501  1.00  0.00    -0.200 F 
ENDBRANCH  63  86
ENDBRANCH  37  38
ENDBRANCH  30  32
ENDBRANCH  29  30
ENDBRANCH  28  29
ENDBRANCH  27  28
ENDBRANCH  26  27
ENDBRANCH  25  26
ENDBRANCH   1  25
TORSDOF 21
