REMARK SMILES O=C(OCCOCCOCCOC(=O)c1cc(-c2ccccc2)nc(Nc2nc3ccccc3s2)n1)c1ccc(-c2c3nc(c(-c4c(F)c(F)c(F)c(F)c4F)c4ccc([nH]4)c(-c4c(F)c(F)c(F)c(F)c4F)c4nc(c(-c5c(F)c(F)c(F)c(F)c5F)c5ccc2[nH]5)C=C4)C=C3)cc1
REMARK SMILES IDX 7 1 6 2 5 3 4 4 3 5 2 6 1 7 37 8 38 9 99 10 39 11 98 12
REMARK SMILES IDX 40 13 41 14 42 15 92 16 43 17 97 18 91 19 93 20 44 21 96 22
REMARK SMILES IDX 90 23 89 24 45 26 77 27 57 28 76 29 58 30 61 31 75 32 94 33
REMARK SMILES IDX 59 34 60 35 74 37 95 38 62 39 46 40 47 41 55 42 48 43 49 44
REMARK SMILES IDX 53 45 56 46 50 47 51 48 54 49 52 50 78 51 79 52 87 53 80 54
REMARK SMILES IDX 81 55 85 56 88 57 82 58 83 59 86 60 84 61 63 62 64 63 72 64
REMARK SMILES IDX 65 65 66 66 70 67 73 68 67 69 68 70 71 71 69 72 8 73 9 74
REMARK SMILES IDX 10 75 11 76 12 77 13 78 14 79 15 80 16 81 36 82 17 83 25 84
REMARK SMILES IDX 24 85 18 86 19 87 23 88 20 89 22 90 21 91 26 92 27 94 28 95
REMARK SMILES IDX 35 96 29 97 34 98 30 99 33 100 31 101 32 102
REMARK H PARENT 93 25 61 36 26 93
REMARK Flexibility Score: inf
ROOT
ATOM      1  C   UNL     1       2.803   0.761  -1.800  1.00  0.00     0.188 C 
ENDROOT
BRANCH   1   2
ATOM      2  O   UNL     1       4.092   0.987  -1.223  1.00  0.00    -0.376 OA
BRANCH   2   3
ATOM      3  C   UNL     1       5.115   0.082  -1.656  1.00  0.00     0.202 C 
BRANCH   3   4
ATOM      4  C   UNL     1       4.893  -1.393  -1.294  1.00  0.00     0.261 C 
BRANCH   4   5
ATOM      5  O   UNL     1       4.770  -1.542   0.121  1.00  0.00    -0.460 OA
BRANCH   5   6
ATOM      6  C   UNL     1       3.532  -1.313   0.632  1.00  0.00     0.338 C 
ATOM      7  O   UNL     1       2.481  -1.748   0.200  1.00  0.00    -0.246 OA
BRANCH   6   8
ATOM      8  C   UNL     1       3.721  -0.442   1.815  1.00  0.00     0.060 A 
ATOM      9  C   UNL     1       4.842   0.396   1.831  1.00  0.00     0.016 A 
ATOM     10  C   UNL     1       2.866  -0.489   2.918  1.00  0.00     0.016 A 
ATOM     11  C   UNL     1       5.211   1.043   2.982  1.00  0.00     0.010 A 
ATOM     12  C   UNL     1       3.219   0.197   4.086  1.00  0.00     0.010 A 
ATOM     13  C   UNL     1       4.434   0.897   4.132  1.00  0.00    -0.014 A 
BRANCH  13  14
ATOM     14  C   UNL     1       5.111   1.298   5.378  1.00  0.00     0.031 A 
ATOM     15  C   UNL     1       5.794   0.225   6.179  1.00  0.00     0.074 A 
ATOM     16  C   UNL     1       5.377   2.602   5.570  1.00  0.00     0.049 A 
ATOM     17  N   UNL     1       6.621   0.338   7.185  1.00  0.00    -0.248 NA
ATOM     18  C   UNL     1       5.543  -1.168   5.768  1.00  0.00     0.031 C 
ATOM     19  C   UNL     1       4.886   3.698   4.728  1.00  0.00     0.029 A 
ATOM     20  N   UNL     1       6.202   3.214   6.470  1.00  0.00    -0.354 N 
ATOM     21  C   UNL     1       6.969  -0.961   7.535  1.00  0.00     0.074 A 
ATOM     22  C   UNL     1       6.266  -1.851   6.641  1.00  0.00     0.031 C 
ATOM     23  C   UNL     1       5.467   4.845   5.120  1.00  0.00     0.029 A 
ATOM     24  C   UNL     1       6.323   4.565   6.264  1.00  0.00     0.049 A 
ATOM     25  H   UNL     1       6.664   2.734   7.195  1.00  0.00     0.167 HD
ATOM     26  C   UNL     1       7.802  -1.368   8.520  1.00  0.00     0.037 A 
ATOM     27  C   UNL     1       7.044   5.467   6.947  1.00  0.00     0.037 A 
ATOM     28  C   UNL     1       8.495  -0.462   9.394  1.00  0.00     0.049 A 
ATOM     29  C   UNL     1       7.854   4.994   8.116  1.00  0.00     0.074 A 
ATOM     30  C   UNL     1       9.309  -0.745  10.474  1.00  0.00     0.029 A 
ATOM     31  N   UNL     1       8.448   0.921   9.275  1.00  0.00    -0.354 N 
ATOM     32  N   UNL     1       8.086   3.771   8.524  1.00  0.00    -0.248 NA
ATOM     33  C   UNL     1       8.480   6.039   8.934  1.00  0.00     0.031 C 
ATOM     34  C   UNL     1       9.713   0.470  11.042  1.00  0.00     0.029 A 
ATOM     35  C   UNL     1       9.197   1.508  10.280  1.00  0.00     0.049 A 
ATOM     36  H   UNL     1       7.954   1.412   8.580  1.00  0.00     0.167 HD
ATOM     37  C   UNL     1       8.882   3.894   9.650  1.00  0.00     0.074 A 
ATOM     38  C   UNL     1       9.110   5.313   9.846  1.00  0.00     0.031 C 
ATOM     39  C   UNL     1       9.380   2.925  10.455  1.00  0.00     0.037 A 
BRANCH  26  40
ATOM     40  C   UNL     1       7.924  -2.846   8.747  1.00  0.00     0.064 A 
ATOM     41  C   UNL     1       8.610  -3.688   7.859  1.00  0.00     0.173 A 
ATOM     42  C   UNL     1       7.309  -3.434   9.863  1.00  0.00     0.173 A 
ATOM     43  F   UNL     1       9.194  -3.182   6.762  1.00  0.00    -0.203 F 
ATOM     44  C   UNL     1       8.646  -5.067   8.062  1.00  0.00     0.198 A 
ATOM     45  C   UNL     1       7.370  -4.808  10.078  1.00  0.00     0.198 A 
ATOM     46  F   UNL     1       6.636  -2.675  10.741  1.00  0.00    -0.203 F 
ATOM     47  F   UNL     1       9.255  -5.860   7.169  1.00  0.00    -0.200 F 
ATOM     48  C   UNL     1       8.029  -5.625   9.172  1.00  0.00     0.200 A 
ATOM     49  F   UNL     1       6.777  -5.343  11.154  1.00  0.00    -0.200 F 
ATOM     50  F   UNL     1       8.056  -6.951   9.362  1.00  0.00    -0.200 F 
ENDBRANCH  26  40
BRANCH  27  51
ATOM     51  C   UNL     1       6.968   6.909   6.627  1.00  0.00     0.064 A 
ATOM     52  C   UNL     1       7.994   7.562   5.935  1.00  0.00     0.173 A 
ATOM     53  C   UNL     1       5.907   7.679   7.120  1.00  0.00     0.173 A 
ATOM     54  F   UNL     1       9.046   6.866   5.481  1.00  0.00    -0.203 F 
ATOM     55  C   UNL     1       7.968   8.945   5.761  1.00  0.00     0.198 A 
ATOM     56  C   UNL     1       5.889   9.060   6.955  1.00  0.00     0.198 A 
ATOM     57  F   UNL     1       4.912   7.091   7.801  1.00  0.00    -0.203 F 
ATOM     58  F   UNL     1       8.982   9.559   5.136  1.00  0.00    -0.200 F 
ATOM     59  C   UNL     1       6.918   9.692   6.274  1.00  0.00     0.200 A 
ATOM     60  F   UNL     1       4.893   9.783   7.484  1.00  0.00    -0.200 F 
ATOM     61  F   UNL     1       6.910  11.025   6.137  1.00  0.00    -0.200 F 
ENDBRANCH  27  51
BRANCH  39  62
ATOM     62  C   UNL     1      10.230   3.383  11.598  1.00  0.00     0.064 A 
ATOM     63  C   UNL     1       9.672   4.009  12.722  1.00  0.00     0.173 A 
ATOM     64  C   UNL     1      11.617   3.188  11.566  1.00  0.00     0.173 A 
ATOM     65  F   UNL     1       8.351   4.239  12.781  1.00  0.00    -0.203 F 
ATOM     66  C   UNL     1      10.481   4.451  13.763  1.00  0.00     0.198 A 
ATOM     67  C   UNL     1      12.419   3.604  12.623  1.00  0.00     0.198 A 
ATOM     68  F   UNL     1      12.193   2.596  10.509  1.00  0.00    -0.203 F 
ATOM     69  F   UNL     1       9.937   5.100  14.802  1.00  0.00    -0.200 F 
ATOM     70  C   UNL     1      11.851   4.243  13.715  1.00  0.00     0.200 A 
ATOM     71  F   UNL     1      13.742   3.396  12.579  1.00  0.00    -0.200 F 
ATOM     72  F   UNL     1      12.629   4.671  14.719  1.00  0.00    -0.200 F 
ENDBRANCH  39  62
ENDBRANCH  13  14
ENDBRANCH   6   8
ENDBRANCH   5   6
ENDBRANCH   4   5
ENDBRANCH   3   4
ENDBRANCH   2   3
ENDBRANCH   1   2
BRANCH   1  73
ATOM     73  C   UNL     1       2.127   2.052  -2.273  1.00  0.00     0.188 C 
BRANCH  73  74
ATOM     74  O   UNL     1       2.709   2.705  -3.402  1.00  0.00    -0.376 OA
BRANCH  74  75
ATOM     75  C   UNL     1       4.085   3.058  -3.332  1.00  0.00     0.202 C 
BRANCH  75  76
ATOM     76  C   UNL     1       4.490   4.185  -2.378  1.00  0.00     0.261 C 
BRANCH  76  77
ATOM     77  O   UNL     1       4.055   4.010  -1.022  1.00  0.00    -0.459 OA
BRANCH  77  78
ATOM     78  C   UNL     1       3.020   4.811  -0.672  1.00  0.00     0.357 C 
ATOM     79  O   UNL     1       2.460   5.644  -1.371  1.00  0.00    -0.244 OA
BRANCH  78  80
ATOM     80  C   UNL     1       2.724   4.701   0.769  1.00  0.00     0.154 A 
ATOM     81  C   UNL     1       3.227   5.732   1.517  1.00  0.00     0.065 A 
ATOM     82  N   UNL     1       1.714   3.891   1.149  1.00  0.00    -0.206 NA
ATOM     83  C   UNL     1       2.546   5.996   2.675  1.00  0.00     0.077 A 
ATOM     84  C   UNL     1       1.162   4.159   2.337  1.00  0.00     0.230 A 
ATOM     85  N   UNL     1       1.539   5.202   3.101  1.00  0.00    -0.213 NA
BRANCH  83  86
ATOM     86  C   UNL     1       2.766   7.243   3.429  1.00  0.00     0.000 A 
ATOM     87  C   UNL     1       2.593   7.301   4.820  1.00  0.00     0.010 A 
ATOM     88  C   UNL     1       3.109   8.439   2.763  1.00  0.00     0.010 A 
ATOM     89  C   UNL     1       2.757   8.503   5.513  1.00  0.00     0.001 A 
ATOM     90  C   UNL     1       3.287   9.636   3.455  1.00  0.00     0.001 A 
ATOM     91  C   UNL     1       3.108   9.667   4.832  1.00  0.00     0.000 A 
ENDBRANCH  83  86
BRANCH  84  92
ATOM     92  N   UNL     1       0.019   3.505   2.783  1.00  0.00    -0.300 N 
ATOM     93  H   UNL     1      -0.396   3.844   3.609  1.00  0.00     0.172 HD
BRANCH  92  94
ATOM     94  C   UNL     1      -0.573   2.454   2.190  1.00  0.00     0.190 A 
ATOM     95  N   UNL     1      -0.019   1.283   1.975  1.00  0.00    -0.220 NA
ATOM     96  S   UNL     1      -2.239   2.554   1.750  1.00  0.00    -0.097 S 
ATOM     97  C   UNL     1      -0.924   0.416   1.385  1.00  0.00     0.084 A 
ATOM     98  C   UNL     1      -2.181   0.957   1.118  1.00  0.00     0.056 A 
ATOM     99  C   UNL     1      -0.684  -0.927   1.034  1.00  0.00     0.030 A 
ATOM    100  C   UNL     1      -3.179   0.225   0.449  1.00  0.00     0.021 A 
ATOM    101  C   UNL     1      -1.669  -1.670   0.377  1.00  0.00     0.002 A 
ATOM    102  C   UNL     1      -2.895  -1.092   0.072  1.00  0.00     0.002 A 
ENDBRANCH  92  94
ENDBRANCH  84  92
ENDBRANCH  78  80
ENDBRANCH  77  78
ENDBRANCH  76  77
ENDBRANCH  75  76
ENDBRANCH  74  75
ENDBRANCH  73  74
ENDBRANCH   1  73
TORSDOF 20
