REMARK SMILES O=C(Cc1ccccc1)Nc1cccc(C(=O)Nc2ccccc2C(=O)OCCOCCOCCOC(=O)c2ccc(-c3c4nc(c(-c5c(F)c(F)c(F)c(F)c5F)c5ccc([nH]5)c(-c5c(F)c(F)c(F)c(F)c5F)c5nc(c(-c6c(F)c(F)c(F)c(F)c6F)c6ccc3[nH]6)C=C5)C=C4)cc2)c1
REMARK SMILES IDX 30 1 29 2 28 3 27 4 25 5 26 6 24 7 19 8 20 9 21 10 23 11
REMARK SMILES IDX 22 12 18 13 16 14 17 15 15 17 11 18 12 19 102 20 13 21 14 22
REMARK SMILES IDX 10 23 1 24 2 25 3 27 4 28 5 29 9 30 6 31 8 32 7 33 31 34
REMARK SMILES IDX 32 35 33 36 34 37 35 38 36 39 37 40 38 41 39 42 40 43 101 44
REMARK SMILES IDX 41 45 100 46 42 47 43 48 44 49 94 50 45 51 99 52 93 53 95 54
REMARK SMILES IDX 46 55 98 56 92 57 91 58 47 60 79 61 59 62 78 63 60 64 63 65
REMARK SMILES IDX 77 66 96 67 61 68 62 69 76 71 97 72 64 73 48 74 49 75 57 76
REMARK SMILES IDX 50 77 51 78 55 79 58 80 52 81 53 82 56 83 54 84 80 85 81 86
REMARK SMILES IDX 89 87 82 88 83 89 87 90 90 91 84 92 85 93 88 94 86 95 65 96
REMARK SMILES IDX 66 97 74 98 67 99 68 100 72 101 75 102 69 103 70 104 73 105
REMARK SMILES IDX 71 106
REMARK H PARENT 18 16 10 26 95 59 63 70
REMARK Flexibility Score: inf
ROOT
ATOM      1  O   UNL     1       3.987  -5.378   3.583  1.00  0.00    -0.376 OA
ENDROOT
BRANCH   1   2
ATOM      2  C   UNL     1       3.415  -4.589   4.609  1.00  0.00     0.202 C 
BRANCH   2   3
ATOM      3  C   UNL     1       2.498  -3.381   4.386  1.00  0.00     0.261 C 
BRANCH   3   4
ATOM      4  O   UNL     1       1.620  -3.390   3.257  1.00  0.00    -0.460 OA
BRANCH   4   5
ATOM      5  C   UNL     1       1.988  -2.570   2.240  1.00  0.00     0.340 C 
ATOM      6  O   UNL     1       3.062  -1.987   2.149  1.00  0.00    -0.246 OA
BRANCH   5   7
ATOM      7  C   UNL     1       1.021  -2.608   1.113  1.00  0.00     0.083 A 
ATOM      8  C   UNL     1      -0.382  -2.664   1.214  1.00  0.00     0.056 A 
ATOM      9  C   UNL     1      -1.120  -2.814   0.024  1.00  0.00     0.027 A 
ATOM     10  C   UNL     1      -0.500  -2.810  -1.231  1.00  0.00     0.002 A 
ATOM     11  C   UNL     1       1.636  -2.647  -0.160  1.00  0.00     0.018 A 
ATOM     12  C   UNL     1       0.881  -2.721  -1.325  1.00  0.00     0.001 A 
BRANCH   8  13
ATOM     13  N   UNL     1      -1.177  -2.543   2.380  1.00  0.00    -0.321 N 
ATOM     14  C   UNL     1      -1.028  -1.822   3.549  1.00  0.00     0.255 C 
ATOM     15  O   UNL     1      -1.775  -2.049   4.501  1.00  0.00    -0.269 OA
ATOM     16  H   UNL     1      -2.000  -3.081   2.352  1.00  0.00     0.170 HD
BRANCH  14  17
ATOM     17  C   UNL     1      -0.017  -0.743   3.675  1.00  0.00     0.042 A 
ATOM     18  C   UNL     1       1.617   0.622   2.560  1.00  0.00     0.041 A 
ATOM     19  C   UNL     1       2.339   0.710   3.759  1.00  0.00     0.026 A 
ATOM     20  C   UNL     1       0.367   0.012   2.563  1.00  0.00     0.040 A 
ATOM     21  C   UNL     1       1.843   0.133   4.932  1.00  0.00     0.003 A 
ATOM     22  C   UNL     1       0.672  -0.620   4.885  1.00  0.00     0.014 A 
BRANCH  18  23
ATOM     23  N   UNL     1       2.307   0.910   1.361  1.00  0.00    -0.326 N 
ATOM     24  O   UNL     1       0.666   0.648  -0.275  1.00  0.00    -0.274 OA
ATOM     25  C   UNL     1       1.843   0.736   0.065  1.00  0.00     0.228 C 
ATOM     26  H   UNL     1       3.217   1.275   1.456  1.00  0.00     0.169 HD
BRANCH  25  27
ATOM     27  C   UNL     1       2.959   0.554  -0.962  1.00  0.00     0.135 C 
BRANCH  27  28
ATOM     28  C   UNL     1       3.936   1.697  -0.955  1.00  0.00    -0.039 A 
ATOM     29  C   UNL     1       5.250   1.517  -0.503  1.00  0.00     0.004 A 
ATOM     30  C   UNL     1       3.495   2.975  -1.317  1.00  0.00     0.004 A 
ATOM     31  C   UNL     1       6.095   2.617  -0.367  1.00  0.00     0.000 A 
ATOM     32  C   UNL     1       4.341   4.070  -1.179  1.00  0.00     0.000 A 
ATOM     33  C   UNL     1       5.635   3.893  -0.693  1.00  0.00     0.000 A 
ENDBRANCH  27  28
ENDBRANCH  25  27
ENDBRANCH  18  23
ENDBRANCH  14  17
ENDBRANCH   8  13
ENDBRANCH   5   7
ENDBRANCH   4   5
ENDBRANCH   3   4
ENDBRANCH   2   3
ENDBRANCH   1   2
BRANCH   1  34
ATOM     34  C   UNL     1       3.584  -5.225   2.244  1.00  0.00     0.188 C 
BRANCH  34  35
ATOM     35  C   UNL     1       2.222  -5.814   1.812  1.00  0.00     0.188 C 
BRANCH  35  36
ATOM     36  O   UNL     1       1.406  -6.503   2.734  1.00  0.00    -0.376 OA
BRANCH  36  37
ATOM     37  C   UNL     1       1.982  -7.544   3.501  1.00  0.00     0.202 C 
BRANCH  37  38
ATOM     38  C   UNL     1       2.905  -8.595   2.854  1.00  0.00     0.261 C 
BRANCH  38  39
ATOM     39  O   UNL     1       3.904  -8.099   1.942  1.00  0.00    -0.460 OA
BRANCH  39  40
ATOM     40  C   UNL     1       3.700  -8.369   0.622  1.00  0.00     0.338 C 
ATOM     41  O   UNL     1       2.805  -9.028   0.138  1.00  0.00    -0.246 OA
BRANCH  40  42
ATOM     42  C   UNL     1       4.620  -7.539  -0.202  1.00  0.00     0.060 A 
ATOM     43  C   UNL     1       4.070  -6.606  -1.100  1.00  0.00     0.016 A 
ATOM     44  C   UNL     1       6.003  -7.677  -0.102  1.00  0.00     0.016 A 
ATOM     45  C   UNL     1       4.899  -5.828  -1.913  1.00  0.00     0.010 A 
ATOM     46  C   UNL     1       6.831  -6.925  -0.945  1.00  0.00     0.010 A 
ATOM     47  C   UNL     1       6.285  -6.021  -1.877  1.00  0.00    -0.014 A 
BRANCH  47  48
ATOM     48  C   UNL     1       7.144  -5.473  -2.960  1.00  0.00     0.031 A 
ATOM     49  C   UNL     1       7.489  -6.385  -4.110  1.00  0.00     0.074 A 
ATOM     50  C   UNL     1       7.622  -4.216  -2.938  1.00  0.00     0.049 A 
ATOM     51  N   UNL     1       8.314  -6.198  -5.108  1.00  0.00    -0.248 NA
ATOM     52  C   UNL     1       6.809  -7.691  -4.129  1.00  0.00     0.031 C 
ATOM     53  C   UNL     1       7.318  -3.208  -1.925  1.00  0.00     0.029 A 
ATOM     54  N   UNL     1       8.489  -3.580  -3.796  1.00  0.00    -0.354 N 
ATOM     55  C   UNL     1       8.275  -7.370  -5.853  1.00  0.00     0.074 A 
ATOM     56  C   UNL     1       7.354  -8.266  -5.190  1.00  0.00     0.031 C 
ATOM     57  C   UNL     1       8.005  -2.086  -2.208  1.00  0.00     0.029 A 
ATOM     58  C   UNL     1       8.832  -2.311  -3.395  1.00  0.00     0.049 A 
ATOM     59  H   UNL     1       8.831  -3.994  -4.621  1.00  0.00     0.167 HD
ATOM     60  C   UNL     1       8.949  -7.673  -6.987  1.00  0.00     0.037 A 
ATOM     61  C   UNL     1       9.736  -1.450  -3.908  1.00  0.00     0.037 A 
ATOM     62  C   UNL     1       9.854  -6.779  -7.656  1.00  0.00     0.049 A 
ATOM     63  C   UNL     1      10.540  -1.850  -5.125  1.00  0.00     0.074 A 
ATOM     64  C   UNL     1      10.552  -6.983  -8.833  1.00  0.00     0.029 A 
ATOM     65  N   UNL     1      10.198  -5.516  -7.200  1.00  0.00    -0.354 N 
ATOM     66  N   UNL     1      10.475  -2.945  -5.843  1.00  0.00    -0.248 NA
ATOM     67  C   UNL     1      11.550  -0.890  -5.600  1.00  0.00     0.031 C 
ATOM     68  C   UNL     1      11.372  -5.873  -9.053  1.00  0.00     0.029 A 
ATOM     69  C   UNL     1      11.128  -4.945  -8.053  1.00  0.00     0.049 A 
ATOM     70  H   UNL     1       9.835  -5.088  -6.391  1.00  0.00     0.167 HD
ATOM     71  C   UNL     1      11.395  -2.785  -6.874  1.00  0.00     0.074 A 
ATOM     72  C   UNL     1      12.002  -1.485  -6.694  1.00  0.00     0.031 C 
ATOM     73  C   UNL     1      11.707  -3.638  -7.881  1.00  0.00     0.037 A 
BRANCH  60  74
ATOM     74  C   UNL     1       8.770  -9.048  -7.562  1.00  0.00     0.064 A 
ATOM     75  C   UNL     1       7.577  -9.446  -8.183  1.00  0.00     0.173 A 
ATOM     76  C   UNL     1       9.836  -9.961  -7.541  1.00  0.00     0.173 A 
ATOM     77  F   UNL     1       6.524  -8.616  -8.217  1.00  0.00    -0.203 F 
ATOM     78  C   UNL     1       7.453 -10.713  -8.747  1.00  0.00     0.198 A 
ATOM     79  C   UNL     1       9.720 -11.214  -8.134  1.00  0.00     0.198 A 
ATOM     80  F   UNL     1      11.000  -9.629  -6.962  1.00  0.00    -0.203 F 
ATOM     81  F   UNL     1       6.292 -11.087  -9.301  1.00  0.00    -0.200 F 
ATOM     82  C   UNL     1       8.527 -11.591  -8.732  1.00  0.00     0.200 A 
ATOM     83  F   UNL     1      10.764 -12.054  -8.132  1.00  0.00    -0.200 F 
ATOM     84  F   UNL     1       8.412 -12.804  -9.291  1.00  0.00    -0.200 F 
ENDBRANCH  60  74
BRANCH  61  85
ATOM     85  C   UNL     1       9.969  -0.124  -3.268  1.00  0.00     0.064 A 
ATOM     86  C   UNL     1       9.685   1.068  -3.953  1.00  0.00     0.173 A 
ATOM     87  C   UNL     1      10.543  -0.017  -1.993  1.00  0.00     0.173 A 
ATOM     88  F   UNL     1       9.168   1.023  -5.189  1.00  0.00    -0.203 F 
ATOM     89  C   UNL     1       9.996   2.310  -3.401  1.00  0.00     0.198 A 
ATOM     90  C   UNL     1      10.820   1.226  -1.427  1.00  0.00     0.198 A 
ATOM     91  F   UNL     1      10.843  -1.122  -1.296  1.00  0.00    -0.203 F 
ATOM     92  F   UNL     1       9.782   3.428  -4.108  1.00  0.00    -0.200 F 
ATOM     93  C   UNL     1      10.559   2.388  -2.136  1.00  0.00     0.200 A 
ATOM     94  F   UNL     1      11.353   1.298  -0.200  1.00  0.00    -0.200 F 
ATOM     95  F   UNL     1      10.864   3.581  -1.607  1.00  0.00    -0.200 F 
ENDBRANCH  61  85
BRANCH  73  96
ATOM     96  C   UNL     1      12.699  -3.176  -8.913  1.00  0.00     0.064 A 
ATOM     97  C   UNL     1      14.063  -3.031  -8.622  1.00  0.00     0.173 A 
ATOM     98  C   UNL     1      12.282  -2.933 -10.232  1.00  0.00     0.173 A 
ATOM     99  F   UNL     1      14.514  -3.240  -7.376  1.00  0.00    -0.203 F 
ATOM    100  C   UNL     1      14.967  -2.636  -9.605  1.00  0.00     0.198 A 
ATOM    101  C   UNL     1      13.194  -2.573 -11.220  1.00  0.00     0.198 A 
ATOM    102  F   UNL     1      10.990  -3.067 -10.569  1.00  0.00    -0.203 F 
ATOM    103  F   UNL     1      16.258  -2.457  -9.292  1.00  0.00    -0.200 F 
ATOM    104  C   UNL     1      14.534  -2.417 -10.905  1.00  0.00     0.200 A 
ATOM    105  F   UNL     1      12.776  -2.382 -12.479  1.00  0.00    -0.200 F 
ATOM    106  F   UNL     1      15.409  -2.051 -11.852  1.00  0.00    -0.200 F 
ENDBRANCH  73  96
ENDBRANCH  47  48
ENDBRANCH  40  42
ENDBRANCH  39  40
ENDBRANCH  38  39
ENDBRANCH  37  38
ENDBRANCH  36  37
ENDBRANCH  35  36
ENDBRANCH  34  35
ENDBRANCH   1  34
TORSDOF 22
