REMARK SMILES CSCC[C@H](NC(=O)Nc1cccc(-c2nc3ccccc3o2)c1)C(=O)OCCOCCOCCOC(=O)c1ccc(-c2c3nc(c(-c4c(F)c(F)c(F)c(F)c4F)c4ccc([nH]4)c(-c4c(F)c(F)c(F)c(F)c4F)c4nc(c(-c5c(F)c(F)c(F)c(F)c5F)c5ccc2[nH]5)C=C4)C=C3)cc1
REMARK SMILES IDX 31 1 30 2 29 3 28 4 27 5 25 6 26 7 5 8 4 9 3 10 2 11 1 12
REMARK SMILES IDX 6 13 7 14 8 16 9 17 10 19 11 20 24 21 12 22 14 23 13 24
REMARK SMILES IDX 15 25 16 26 23 27 17 28 22 29 18 30 21 31 19 32 20 33 32 34
REMARK SMILES IDX 33 35 34 36 35 37 36 38 37 39 38 40 39 41 40 42 101 43 41 44
REMARK SMILES IDX 100 45 42 46 43 47 44 48 94 49 45 50 99 51 93 52 95 53 46 54
REMARK SMILES IDX 98 55 92 56 91 57 47 59 79 60 59 61 78 62 60 63 63 64 77 65
REMARK SMILES IDX 96 66 61 67 62 68 76 70 97 71 64 72 48 73 49 74 57 75 50 76
REMARK SMILES IDX 51 77 55 78 58 79 52 80 53 81 56 82 54 83 80 84 81 85 89 86
REMARK SMILES IDX 82 87 83 88 87 89 90 90 84 91 85 92 88 93 86 94 65 95 66 96
REMARK SMILES IDX 74 97 67 98 68 99 72 100 75 101 69 102 70 103 73 104 71 105
REMARK H PARENT 6 15 9 18 95 58 63 69
REMARK Flexibility Score: inf
ROOT
ATOM      1  C   UNL     1      -2.462   0.107   5.595  1.00  0.00     0.188 C 
ENDROOT
BRANCH   1   2
ATOM      2  O   UNL     1      -1.635   0.664   6.631  1.00  0.00    -0.376 OA
BRANCH   2   3
ATOM      3  C   UNL     1      -0.672  -0.184   7.285  1.00  0.00     0.202 C 
BRANCH   3   4
ATOM      4  C   UNL     1       0.832   0.360   7.223  1.00  0.00     0.261 C 
BRANCH   4   5
ATOM      5  O   UNL     1       1.849   0.037   5.843  1.00  0.00    -0.462 OA
BRANCH   5   6
ATOM      6  C   UNL     1       2.192   0.038   3.988  1.00  0.00     0.328 C 
ATOM      7  O   UNL     1       2.756  -0.919   3.377  1.00  0.00    -0.250 OA
BRANCH   6   8
ATOM      8  C   UNL     1       1.713   1.193   2.829  1.00  0.00     0.194 C 
BRANCH   8   9
ATOM      9  C   UNL     1       2.975   1.353   1.929  1.00  0.00     0.048 C 
BRANCH   9  10
ATOM     10  C   UNL     1       2.881   0.536   0.633  1.00  0.00     0.072 C 
BRANCH  10  11
ATOM     11  S   UNL     1       2.182   1.514  -0.741  1.00  0.00    -0.165 SA
ATOM     12  C   UNL     1       0.448   1.013  -0.660  1.00  0.00     0.085 C 
ENDBRANCH  10  11
ENDBRANCH   9  10
ENDBRANCH   8   9
BRANCH   8  13
ATOM     13  N   UNL     1       0.942   2.454   2.804  1.00  0.00    -0.324 N 
ATOM     14  C   UNL     1       1.028   3.479   3.694  1.00  0.00     0.319 C 
ATOM     15  H   UNL     1       0.299   2.563   2.066  1.00  0.00     0.166 HD
ATOM     16  O   UNL     1       0.646   4.607   3.410  1.00  0.00    -0.248 OA
ATOM     17  N   UNL     1       1.593   3.167   4.887  1.00  0.00    -0.308 N 
ATOM     18  H   UNL     1       1.872   3.879   5.507  1.00  0.00     0.171 HD
BRANCH  17  19
ATOM     19  C   UNL     1       1.772   1.837   5.223  1.00  0.00     0.043 A 
ATOM     20  C   UNL     1       0.400   0.694   4.868  1.00  0.00     0.026 A 
ATOM     21  C   UNL     1       3.382   1.193   5.558  1.00  0.00     0.040 A 
ATOM     22  C   UNL     1       0.639  -1.121   4.957  1.00  0.00     0.003 A 
ATOM     23  C   UNL     1       3.665  -0.590   5.618  1.00  0.00     0.039 A 
ATOM     24  C   UNL     1       2.284  -1.759   5.404  1.00  0.00     0.014 A 
BRANCH  23  25
ATOM     25  C   UNL     1       5.010  -0.895   5.067  1.00  0.00     0.227 A 
ATOM     26  N   UNL     1       5.915   0.039   4.799  1.00  0.00    -0.209 NA
ATOM     27  O   UNL     1       5.117  -2.020   4.280  1.00  0.00    -0.436 OA
ATOM     28  C   UNL     1       6.516  -0.403   3.652  1.00  0.00     0.110 A 
ATOM     29  C   UNL     1       6.058  -1.673   3.342  1.00  0.00     0.155 A 
ATOM     30  C   UNL     1       7.418   0.234   2.786  1.00  0.00     0.032 A 
ATOM     31  C   UNL     1       6.467  -2.395   2.224  1.00  0.00     0.049 A 
ATOM     32  C   UNL     1       7.845  -0.458   1.645  1.00  0.00     0.003 A 
ATOM     33  C   UNL     1       7.385  -1.753   1.377  1.00  0.00     0.004 A 
ENDBRANCH  23  25
ENDBRANCH  17  19
ENDBRANCH   8  13
ENDBRANCH   6   8
ENDBRANCH   5   6
ENDBRANCH   4   5
ENDBRANCH   3   4
ENDBRANCH   2   3
ENDBRANCH   1   2
BRANCH   1  34
ATOM     34  C   UNL     1      -2.570   1.034   4.357  1.00  0.00     0.188 C 
BRANCH  34  35
ATOM     35  O   UNL     1      -2.496   2.446   4.549  1.00  0.00    -0.376 OA
BRANCH  35  36
ATOM     36  C   UNL     1      -3.197   3.005   5.651  1.00  0.00     0.202 C 
BRANCH  36  37
ATOM     37  C   UNL     1      -4.727   2.949   5.572  1.00  0.00     0.261 C 
BRANCH  37  38
ATOM     38  O   UNL     1      -5.236   1.979   4.647  1.00  0.00    -0.460 OA
BRANCH  38  39
ATOM     39  C   UNL     1      -5.239   2.365   3.340  1.00  0.00     0.338 C 
ATOM     40  O   UNL     1      -5.026   3.478   2.895  1.00  0.00    -0.246 OA
BRANCH  39  41
ATOM     41  C   UNL     1      -5.334   1.137   2.507  1.00  0.00     0.060 A 
ATOM     42  C   UNL     1      -4.416   0.954   1.456  1.00  0.00     0.016 A 
ATOM     43  C   UNL     1      -6.219   0.113   2.854  1.00  0.00     0.016 A 
ATOM     44  C   UNL     1      -4.415  -0.235   0.720  1.00  0.00     0.010 A 
ATOM     45  C   UNL     1      -6.244  -1.056   2.097  1.00  0.00     0.010 A 
ATOM     46  C   UNL     1      -5.374  -1.216   1.002  1.00  0.00    -0.014 A 
BRANCH  46  47
ATOM     47  C   UNL     1      -5.743  -2.232  -0.011  1.00  0.00     0.031 A 
ATOM     48  C   UNL     1      -6.855  -1.854  -0.950  1.00  0.00     0.074 A 
ATOM     49  C   UNL     1      -5.198  -3.460  -0.049  1.00  0.00     0.049 A 
ATOM     50  N   UNL     1      -7.575  -2.604  -1.741  1.00  0.00    -0.248 NA
ATOM     51  C   UNL     1      -7.221  -0.427  -0.974  1.00  0.00     0.031 C 
ATOM     52  C   UNL     1      -4.071  -3.918   0.757  1.00  0.00     0.029 A 
ATOM     53  N   UNL     1      -5.559  -4.561  -0.786  1.00  0.00    -0.354 N 
ATOM     54  C   UNL     1      -8.491  -1.743  -2.332  1.00  0.00     0.074 A 
ATOM     55  C   UNL     1      -8.255  -0.423  -1.797  1.00  0.00     0.031 C 
ATOM     56  C   UNL     1      -3.851  -5.220   0.493  1.00  0.00     0.029 A 
ATOM     57  C   UNL     1      -4.859  -5.696  -0.455  1.00  0.00     0.049 A 
ATOM     58  H   UNL     1      -6.253  -4.540  -1.484  1.00  0.00     0.167 HD
ATOM     59  C   UNL     1      -9.449  -2.031  -3.240  1.00  0.00     0.037 A 
ATOM     60  C   UNL     1      -5.051  -6.973  -0.844  1.00  0.00     0.037 A 
ATOM     61  C   UNL     1      -9.686  -3.350  -3.753  1.00  0.00     0.049 A 
ATOM     62  C   UNL     1      -6.193  -7.292  -1.783  1.00  0.00     0.074 A 
ATOM     63  C   UNL     1     -10.640  -3.765  -4.662  1.00  0.00     0.029 A 
ATOM     64  N   UNL     1      -8.954  -4.472  -3.392  1.00  0.00    -0.354 N 
ATOM     65  N   UNL     1      -7.068  -6.483  -2.332  1.00  0.00    -0.248 NA
ATOM     66  C   UNL     1      -6.380  -8.704  -2.150  1.00  0.00     0.031 C 
ATOM     67  C   UNL     1     -10.519  -5.149  -4.814  1.00  0.00     0.029 A 
ATOM     68  C   UNL     1      -9.445  -5.584  -4.052  1.00  0.00     0.049 A 
ATOM     69  H   UNL     1      -8.199  -4.477  -2.760  1.00  0.00     0.167 HD
ATOM     70  C   UNL     1      -7.870  -7.276  -3.144  1.00  0.00     0.074 A 
ATOM     71  C   UNL     1      -7.385  -8.633  -3.012  1.00  0.00     0.031 C 
ATOM     72  C   UNL     1      -8.911  -6.916  -3.935  1.00  0.00     0.037 A 
BRANCH  59  73
ATOM     73  C   UNL     1     -10.327  -0.905  -3.699  1.00  0.00     0.064 A 
ATOM     74  C   UNL     1      -9.833   0.134  -4.502  1.00  0.00     0.173 A 
ATOM     75  C   UNL     1     -11.681  -0.869  -3.337  1.00  0.00     0.173 A 
ATOM     76  F   UNL     1      -8.539   0.160  -4.854  1.00  0.00    -0.203 F 
ATOM     77  C   UNL     1     -10.658   1.181  -4.905  1.00  0.00     0.198 A 
ATOM     78  C   UNL     1     -12.511   0.161  -3.770  1.00  0.00     0.198 A 
ATOM     79  F   UNL     1     -12.202  -1.835  -2.565  1.00  0.00    -0.203 F 
ATOM     80  F   UNL     1     -10.152   2.191  -5.625  1.00  0.00    -0.200 F 
ATOM     81  C   UNL     1     -11.998   1.188  -4.547  1.00  0.00     0.200 A 
ATOM     82  F   UNL     1     -13.808   0.161  -3.432  1.00  0.00    -0.200 F 
ATOM     83  F   UNL     1     -12.793   2.192  -4.942  1.00  0.00    -0.200 F 
ENDBRANCH  59  73
BRANCH  60  84
ATOM     84  C   UNL     1      -4.171  -8.061  -0.335  1.00  0.00     0.064 A 
ATOM     85  C   UNL     1      -3.328  -8.771  -1.204  1.00  0.00     0.173 A 
ATOM     86  C   UNL     1      -4.183  -8.448   1.014  1.00  0.00     0.173 A 
ATOM     87  F   UNL     1      -3.299  -8.460  -2.508  1.00  0.00    -0.203 F 
ATOM     88  C   UNL     1      -2.555  -9.838  -0.751  1.00  0.00     0.198 A 
ATOM     89  C   UNL     1      -3.385  -9.495   1.472  1.00  0.00     0.198 A 
ATOM     90  F   UNL     1      -4.973  -7.809   1.889  1.00  0.00    -0.203 F 
ATOM     91  F   UNL     1      -1.805 -10.535  -1.616  1.00  0.00    -0.200 F 
ATOM     92  C   UNL     1      -2.580 -10.197   0.588  1.00  0.00     0.200 A 
ATOM     93  F   UNL     1      -3.405  -9.831   2.770  1.00  0.00    -0.200 F 
ATOM     94  F   UNL     1      -1.839 -11.225   1.024  1.00  0.00    -0.200 F 
ENDBRANCH  60  84
BRANCH  72  95
ATOM     95  C   UNL     1      -9.543  -7.974  -4.793  1.00  0.00     0.064 A 
ATOM     96  C   UNL     1     -10.374  -8.968  -4.260  1.00  0.00     0.173 A 
ATOM     97  C   UNL     1      -9.387  -7.923  -6.188  1.00  0.00     0.173 A 
ATOM     98  F   UNL     1     -10.547  -9.063  -2.933  1.00  0.00    -0.203 F 
ATOM     99  C   UNL     1     -11.016  -9.882  -5.091  1.00  0.00     0.198 A 
ATOM    100  C   UNL     1     -10.056  -8.818  -7.017  1.00  0.00     0.198 A 
ATOM    101  F   UNL     1      -8.611  -6.983  -6.748  1.00  0.00    -0.203 F 
ATOM    102  F   UNL     1     -11.782 -10.845  -4.559  1.00  0.00    -0.200 F 
ATOM    103  C   UNL     1     -10.867  -9.798  -6.468  1.00  0.00     0.200 A 
ATOM    104  F   UNL     1      -9.925  -8.722  -8.348  1.00  0.00    -0.200 F 
ATOM    105  F   UNL     1     -11.505 -10.665  -7.267  1.00  0.00    -0.200 F 
ENDBRANCH  72  95
ENDBRANCH  46  47
ENDBRANCH  39  41
ENDBRANCH  38  39
ENDBRANCH  37  38
ENDBRANCH  36  37
ENDBRANCH  35  36
ENDBRANCH  34  35
ENDBRANCH   1  34
TORSDOF 23
