REMARK SMILES C[C@H](Oc1ccnc2c(F)cc(F)cc12)C(=O)OCCOCCOCCOC(=O)c1ccc(-c2c3nc(c(-c4c(F)c(F)c(F)c(F)c4F)c4ccc([nH]4)c(-c4c(F)c(F)c(F)c(F)c4F)c4nc(c(-c5c(F)c(F)c(F)c(F)c5F)c5ccc2[nH]5)C=C4)C=C3)cc1
REMARK SMILES IDX 22 1 21 2 20 3 19 4 18 5 16 6 17 7 2 8 1 9 3 10 4 11 5 12
REMARK SMILES IDX 15 13 6 14 8 15 14 16 7 17 9 18 12 19 10 20 11 21 13 22
REMARK SMILES IDX 23 23 24 24 25 25 26 26 27 27 28 28 29 29 30 30 31 31 92 32
REMARK SMILES IDX 32 33 91 34 33 35 34 36 35 37 85 38 36 39 90 40 84 41 86 42
REMARK SMILES IDX 37 43 89 44 83 45 82 46 38 48 70 49 50 50 69 51 51 52 54 53
REMARK SMILES IDX 68 54 87 55 52 56 53 57 67 59 88 60 55 61 39 62 40 63 48 64
REMARK SMILES IDX 41 65 42 66 46 67 49 68 43 69 44 70 47 71 45 72 71 73 72 74
REMARK SMILES IDX 80 75 73 76 74 77 78 78 81 79 75 80 76 81 79 82 77 83 56 84
REMARK SMILES IDX 57 85 65 86 58 87 59 88 63 89 66 90 60 91 61 92 64 93 62 94
REMARK H PARENT 86 47 54 58
REMARK Flexibility Score: inf
ROOT
ATOM      1  C   UNL     1      -2.479   1.761  -0.286  1.00  0.00     0.188 C 
ENDROOT
BRANCH   1   2
ATOM      2  O   UNL     1      -3.826   1.420  -0.569  1.00  0.00    -0.376 OA
BRANCH   2   3
ATOM      3  C   UNL     1      -4.109   0.107  -1.048  1.00  0.00     0.202 C 
BRANCH   3   4
ATOM      4  C   UNL     1      -3.199  -0.459  -2.135  1.00  0.00     0.261 C 
BRANCH   4   5
ATOM      5  O   UNL     1      -1.876  -0.691  -1.613  1.00  0.00    -0.461 OA
BRANCH   5   6
ATOM      6  C   UNL     1      -0.858  -0.541  -2.492  1.00  0.00     0.347 C 
ATOM      7  O   UNL     1      -1.020  -0.283  -3.681  1.00  0.00    -0.248 OA
BRANCH   6   8
ATOM      8  C   UNL     1       0.553  -0.651  -1.843  1.00  0.00     0.279 C 
ATOM      9  C   UNL     1       1.456  -1.411  -2.813  1.00  0.00     0.066 C 
BRANCH   8  10
ATOM     10  O   UNL     1       0.956  -0.971  -0.523  1.00  0.00    -0.478 OA
BRANCH  10  11
ATOM     11  C   UNL     1       0.367  -1.888   0.296  1.00  0.00     0.131 A 
ATOM     12  C   UNL     1      -0.587  -2.806  -0.104  1.00  0.00     0.067 A 
ATOM     13  C   UNL     1       0.772  -1.847   1.658  1.00  0.00     0.048 A 
ATOM     14  C   UNL     1      -1.192  -3.573   0.873  1.00  0.00     0.115 A 
ATOM     15  C   UNL     1       0.101  -2.686   2.576  1.00  0.00     0.110 A 
ATOM     16  C   UNL     1       1.813  -1.011   2.131  1.00  0.00     0.053 A 
ATOM     17  N   UNL     1      -0.876  -3.525   2.182  1.00  0.00    -0.253 NA
ATOM     18  C   UNL     1       0.489  -2.632   3.921  1.00  0.00     0.152 A 
ATOM     19  C   UNL     1       2.180  -1.015   3.472  1.00  0.00     0.127 A 
ATOM     20  F   UNL     1      -0.138  -3.403   4.826  1.00  0.00    -0.204 F 
ATOM     21  C   UNL     1       1.520  -1.817   4.379  1.00  0.00     0.080 A 
ATOM     22  F   UNL     1       3.192  -0.240   3.884  1.00  0.00    -0.207 F 
ENDBRANCH  10  11
ENDBRANCH   8  10
ENDBRANCH   6   8
ENDBRANCH   5   6
ENDBRANCH   4   5
ENDBRANCH   3   4
ENDBRANCH   2   3
ENDBRANCH   1   2
BRANCH   1  23
ATOM     23  C   UNL     1      -1.705   0.971   0.785  1.00  0.00     0.188 C 
BRANCH  23  24
ATOM     24  O   UNL     1      -2.307  -0.103   1.476  1.00  0.00    -0.376 OA
BRANCH  24  25
ATOM     25  C   UNL     1      -3.444   0.156   2.292  1.00  0.00     0.202 C 
BRANCH  25  26
ATOM     26  C   UNL     1      -3.367   1.244   3.367  1.00  0.00     0.261 C 
BRANCH  26  27
ATOM     27  O   UNL     1      -3.050   2.538   2.830  1.00  0.00    -0.460 OA
BRANCH  27  28
ATOM     28  C   UNL     1      -1.918   3.101   3.322  1.00  0.00     0.338 C 
ATOM     29  O   UNL     1      -1.192   2.682   4.203  1.00  0.00    -0.246 OA
BRANCH  28  30
ATOM     30  C   UNL     1      -1.553   4.237   2.461  1.00  0.00     0.060 A 
ATOM     31  C   UNL     1      -0.380   4.145   1.697  1.00  0.00     0.016 A 
ATOM     32  C   UNL     1      -2.329   5.395   2.450  1.00  0.00     0.016 A 
ATOM     33  C   UNL     1       0.028   5.221   0.916  1.00  0.00     0.010 A 
ATOM     34  C   UNL     1      -1.890   6.494   1.712  1.00  0.00     0.010 A 
ATOM     35  C   UNL     1      -0.696   6.417   0.971  1.00  0.00    -0.014 A 
BRANCH  35  36
ATOM     36  C   UNL     1      -0.066   7.660   0.484  1.00  0.00     0.031 A 
ATOM     37  C   UNL     1       0.833   8.400   1.433  1.00  0.00     0.074 A 
ATOM     38  C   UNL     1      -0.282   8.117  -0.759  1.00  0.00     0.049 A 
ATOM     39  N   UNL     1       1.430   9.553   1.284  1.00  0.00    -0.248 NA
ATOM     40  C   UNL     1       1.098   7.746   2.727  1.00  0.00     0.031 C 
ATOM     41  C   UNL     1      -1.076   7.442  -1.783  1.00  0.00     0.029 A 
ATOM     42  N   UNL     1       0.144   9.271  -1.364  1.00  0.00    -0.354 N 
ATOM     43  C   UNL     1       2.143   9.756   2.457  1.00  0.00     0.074 A 
ATOM     44  C   UNL     1       1.891   8.624   3.319  1.00  0.00     0.031 C 
ATOM     45  C   UNL     1      -1.096   8.207  -2.889  1.00  0.00     0.029 A 
ATOM     46  C   UNL     1      -0.350   9.439  -2.633  1.00  0.00     0.049 A 
ATOM     47  H   UNL     1       0.748   9.916  -0.930  1.00  0.00     0.167 HD
ATOM     48  C   UNL     1       2.941  10.798   2.784  1.00  0.00     0.037 A 
ATOM     49  C   UNL     1      -0.232  10.487  -3.472  1.00  0.00     0.037 A 
ATOM     50  C   UNL     1       3.159  11.937   1.938  1.00  0.00     0.049 A 
ATOM     51  C   UNL     1       0.558  11.694  -3.032  1.00  0.00     0.074 A 
ATOM     52  C   UNL     1       3.930  13.058   2.182  1.00  0.00     0.029 A 
ATOM     53  N   UNL     1       2.589  12.103   0.684  1.00  0.00    -0.354 N 
ATOM     54  N   UNL     1       1.231  11.886  -1.923  1.00  0.00    -0.248 NA
ATOM     55  C   UNL     1       0.595  12.835  -3.958  1.00  0.00     0.031 C 
ATOM     56  C   UNL     1       3.786  13.926   1.096  1.00  0.00     0.029 A 
ATOM     57  C   UNL     1       2.970  13.323   0.152  1.00  0.00     0.049 A 
ATOM     58  H   UNL     1       2.001  11.450   0.238  1.00  0.00     0.167 HD
ATOM     59  C   UNL     1       1.788  13.155  -2.025  1.00  0.00     0.074 A 
ATOM     60  C   UNL     1       1.387  13.682  -3.313  1.00  0.00     0.031 C 
ATOM     61  C   UNL     1       2.559  13.826  -1.134  1.00  0.00     0.037 A 
BRANCH  48  62
ATOM     62  C   UNL     1       3.607  10.762   4.125  1.00  0.00     0.064 A 
ATOM     63  C   UNL     1       4.673   9.889   4.390  1.00  0.00     0.173 A 
ATOM     64  C   UNL     1       3.199  11.632   5.146  1.00  0.00     0.173 A 
ATOM     65  F   UNL     1       5.084   9.021   3.453  1.00  0.00    -0.203 F 
ATOM     66  C   UNL     1       5.299   9.881   5.633  1.00  0.00     0.198 A 
ATOM     67  C   UNL     1       3.844  11.640   6.380  1.00  0.00     0.198 A 
ATOM     68  F   UNL     1       2.180  12.481   4.945  1.00  0.00    -0.203 F 
ATOM     69  F   UNL     1       6.291   9.014   5.877  1.00  0.00    -0.200 F 
ATOM     70  C   UNL     1       4.890  10.763   6.623  1.00  0.00     0.200 A 
ATOM     71  F   UNL     1       3.453  12.497   7.333  1.00  0.00    -0.200 F 
ATOM     72  F   UNL     1       5.502  10.763   7.816  1.00  0.00    -0.200 F 
ENDBRANCH  48  62
BRANCH  49  73
ATOM     73  C   UNL     1      -0.890  10.451  -4.804  1.00  0.00     0.064 A 
ATOM     74  C   UNL     1      -0.130  10.395  -5.979  1.00  0.00     0.173 A 
ATOM     75  C   UNL     1      -2.287  10.482  -4.931  1.00  0.00     0.173 A 
ATOM     76  F   UNL     1       1.210  10.393  -5.910  1.00  0.00    -0.203 F 
ATOM     77  C   UNL     1      -0.740  10.380  -7.232  1.00  0.00     0.198 A 
ATOM     78  C   UNL     1      -2.897  10.440  -6.183  1.00  0.00     0.198 A 
ATOM     79  F   UNL     1      -3.061  10.544  -3.838  1.00  0.00    -0.203 F 
ATOM     80  F   UNL     1       0.012  10.366  -8.341  1.00  0.00    -0.200 F 
ATOM     81  C   UNL     1      -2.123  10.395  -7.333  1.00  0.00     0.200 A 
ATOM     82  F   UNL     1      -4.234  10.447  -6.276  1.00  0.00    -0.200 F 
ATOM     83  F   UNL     1      -2.710  10.375  -8.538  1.00  0.00    -0.200 F 
ENDBRANCH  49  73
BRANCH  61  84
ATOM     84  C   UNL     1       3.038  15.196  -1.518  1.00  0.00     0.064 A 
ATOM     85  C   UNL     1       2.167  16.294  -1.546  1.00  0.00     0.173 A 
ATOM     86  C   UNL     1       4.397  15.427  -1.778  1.00  0.00     0.173 A 
ATOM     87  F   UNL     1       0.856  16.123  -1.316  1.00  0.00    -0.203 F 
ATOM     88  C   UNL     1       2.637  17.572  -1.835  1.00  0.00     0.198 A 
ATOM     89  C   UNL     1       4.869  16.711  -2.035  1.00  0.00     0.198 A 
ATOM     90  F   UNL     1       5.274  14.412  -1.752  1.00  0.00    -0.203 F 
ATOM     91  F   UNL     1       1.782  18.602  -1.891  1.00  0.00    -0.200 F 
ATOM     92  C   UNL     1       3.989  17.781  -2.068  1.00  0.00     0.200 A 
ATOM     93  F   UNL     1       6.178  16.913  -2.240  1.00  0.00    -0.200 F 
ATOM     94  F   UNL     1       4.442  19.015  -2.326  1.00  0.00    -0.200 F 
ENDBRANCH  61  84
ENDBRANCH  35  36
ENDBRANCH  28  30
ENDBRANCH  27  28
ENDBRANCH  26  27
ENDBRANCH  25  26
ENDBRANCH  24  25
ENDBRANCH  23  24
ENDBRANCH   1  23
TORSDOF 19
