REMARK SMILES O=C(OCCOCCOCCOC(=O)C1CC[NH+]([C@@H]2CC(=O)N(c3ccc(Oc4ccccc4)cc3)C2=O)CC1)c1ccc(-c2c3nc(c(-c4c(F)c(F)c(F)c(F)c4F)c4ccc([nH]4)c(-c4c(F)c(F)c(F)c(F)c4F)c4nc(c(-c5c(F)c(F)c(F)c(F)c5F)c5ccc2[nH]5)C=C4)C=C3)cc1
REMARK SMILES IDX 8 1 7 2 6 3 5 4 4 5 3 6 2 7 1 8 41 9 42 10 103 11 43 12
REMARK SMILES IDX 102 13 44 14 45 15 46 16 96 17 47 18 101 19 95 20 97 21
REMARK SMILES IDX 48 22 100 23 94 24 93 25 49 27 81 28 61 29 80 30 62 31 65 32
REMARK SMILES IDX 79 33 98 34 63 35 64 36 78 38 99 39 66 40 50 41 51 42 59 43
REMARK SMILES IDX 52 44 53 45 57 46 60 47 54 48 55 49 58 50 56 51 82 52 83 53
REMARK SMILES IDX 91 54 84 55 85 56 89 57 92 58 86 59 87 60 90 61 88 62 67 63
REMARK SMILES IDX 68 64 76 65 69 66 70 67 74 68 77 69 71 70 72 71 75 72 73 73
REMARK SMILES IDX 9 74 10 75 11 76 12 77 13 78 14 79 15 80 16 81 40 82 17 83
REMARK SMILES IDX 39 84 18 85 19 87 20 88 37 89 21 90 23 91 38 92 22 93 24 94
REMARK SMILES IDX 25 95 36 96 26 97 35 98 27 99 28 100 29 101 30 102 34 103
REMARK SMILES IDX 31 104 33 105 32 106
REMARK H PARENT 97 26 65 37 18 86
REMARK Flexibility Score: inf
ROOT
ATOM      1  C   UNL     1       2.269   2.839  -1.653  1.00  0.00     0.188 C 
ENDROOT
BRANCH   1   2
ATOM      2  C   UNL     1       2.795   1.415  -1.488  1.00  0.00     0.188 C 
BRANCH   2   3
ATOM      3  O   UNL     1       4.091   1.368  -0.886  1.00  0.00    -0.376 OA
BRANCH   3   4
ATOM      4  C   UNL     1       4.950   0.353  -1.417  1.00  0.00     0.202 C 
BRANCH   4   5
ATOM      5  C   UNL     1       4.571  -1.097  -1.067  1.00  0.00     0.261 C 
BRANCH   5   6
ATOM      6  O   UNL     1       3.177  -1.285  -0.763  1.00  0.00    -0.460 OA
BRANCH   6   7
ATOM      7  C   UNL     1       2.555  -1.245   0.442  1.00  0.00     0.338 C 
ATOM      8  O   UNL     1       1.358  -1.522   0.499  1.00  0.00    -0.246 OA
BRANCH   7   9
ATOM      9  C   UNL     1       3.235  -0.863   1.714  1.00  0.00     0.060 A 
ATOM     10  C   UNL     1       4.359  -0.046   1.794  1.00  0.00     0.016 A 
ATOM     11  C   UNL     1       2.647  -1.287   2.918  1.00  0.00     0.016 A 
ATOM     12  C   UNL     1       4.951   0.269   3.004  1.00  0.00     0.010 A 
ATOM     13  C   UNL     1       3.207  -0.939   4.152  1.00  0.00     0.010 A 
ATOM     14  C   UNL     1       4.386  -0.187   4.188  1.00  0.00    -0.014 A 
BRANCH  14  15
ATOM     15  C   UNL     1       5.162   0.018   5.421  1.00  0.00     0.031 A 
ATOM     16  C   UNL     1       5.908  -1.153   5.979  1.00  0.00     0.074 A 
ATOM     17  C   UNL     1       5.324   1.262   5.905  1.00  0.00     0.049 A 
ATOM     18  N   UNL     1       6.657  -1.228   7.044  1.00  0.00    -0.248 NA
ATOM     19  C   UNL     1       5.811  -2.412   5.219  1.00  0.00     0.031 C 
ATOM     20  C   UNL     1       4.739   2.471   5.323  1.00  0.00     0.029 A 
ATOM     21  N   UNL     1       6.053   1.723   6.967  1.00  0.00    -0.354 N 
ATOM     22  C   UNL     1       7.090  -2.545   7.101  1.00  0.00     0.074 A 
ATOM     23  C   UNL     1       6.523  -3.238   5.968  1.00  0.00     0.031 C 
ATOM     24  C   UNL     1       5.145   3.540   6.026  1.00  0.00     0.029 A 
ATOM     25  C   UNL     1       5.955   3.081   7.148  1.00  0.00     0.049 A 
ATOM     26  H   UNL     1       6.594   1.139   7.546  1.00  0.00     0.167 HD
ATOM     27  C   UNL     1       7.888  -3.115   8.031  1.00  0.00     0.037 A 
ATOM     28  C   UNL     1       6.436   3.849   8.142  1.00  0.00     0.037 A 
ATOM     29  C   UNL     1       8.433  -2.387   9.144  1.00  0.00     0.049 A 
ATOM     30  C   UNL     1       7.235   3.169   9.222  1.00  0.00     0.074 A 
ATOM     31  C   UNL     1       9.209  -2.851  10.187  1.00  0.00     0.029 A 
ATOM     32  N   UNL     1       8.247  -1.024   9.352  1.00  0.00    -0.354 N 
ATOM     33  N   UNL     1       7.593   1.909   9.315  1.00  0.00    -0.248 NA
ATOM     34  C   UNL     1       7.685   4.006  10.339  1.00  0.00     0.031 C 
ATOM     35  C   UNL     1       9.440  -1.781  11.059  1.00  0.00     0.029 A 
ATOM     36  C   UNL     1       8.870  -0.635  10.523  1.00  0.00     0.049 A 
ATOM     37  H   UNL     1       7.745  -0.425   8.753  1.00  0.00     0.167 HD
ATOM     38  C   UNL     1       8.326   1.803  10.487  1.00  0.00     0.074 A 
ATOM     39  C   UNL     1       8.378   3.135  11.060  1.00  0.00     0.031 C 
ATOM     40  C   UNL     1       8.901   0.709  11.048  1.00  0.00     0.037 A 
BRANCH  27  41
ATOM     41  C   UNL     1       8.125  -4.592   7.920  1.00  0.00     0.064 A 
ATOM     42  C   UNL     1       8.902  -5.154   6.896  1.00  0.00     0.173 A 
ATOM     43  C   UNL     1       7.526  -5.466   8.840  1.00  0.00     0.173 A 
ATOM     44  F   UNL     1       9.470  -4.366   5.970  1.00  0.00    -0.203 F 
ATOM     45  C   UNL     1       9.043  -6.535   6.778  1.00  0.00     0.198 A 
ATOM     46  C   UNL     1       7.694  -6.845   8.738  1.00  0.00     0.198 A 
ATOM     47  F   UNL     1       6.762  -4.984   9.832  1.00  0.00    -0.203 F 
ATOM     48  F   UNL     1       9.734  -7.052   5.752  1.00  0.00    -0.200 F 
ATOM     49  C   UNL     1       8.444  -7.379   7.702  1.00  0.00     0.200 A 
ATOM     50  F   UNL     1       7.115  -7.656   9.633  1.00  0.00    -0.200 F 
ATOM     51  F   UNL     1       8.574  -8.707   7.583  1.00  0.00    -0.200 F 
ENDBRANCH  27  41
BRANCH  28  52
ATOM     52  C   UNL     1       6.126   5.304   8.190  1.00  0.00     0.064 A 
ATOM     53  C   UNL     1       7.135   6.273   8.100  1.00  0.00     0.173 A 
ATOM     54  C   UNL     1       4.805   5.759   8.338  1.00  0.00     0.173 A 
ATOM     55  F   UNL     1       8.416   5.897   7.975  1.00  0.00    -0.203 F 
ATOM     56  C   UNL     1       6.838   7.634   8.177  1.00  0.00     0.198 A 
ATOM     57  C   UNL     1       4.506   7.119   8.379  1.00  0.00     0.198 A 
ATOM     58  F   UNL     1       3.797   4.878   8.428  1.00  0.00    -0.203 F 
ATOM     59  F   UNL     1       7.828   8.536   8.137  1.00  0.00    -0.200 F 
ATOM     60  C   UNL     1       5.523   8.056   8.309  1.00  0.00     0.200 A 
ATOM     61  F   UNL     1       3.232   7.519   8.489  1.00  0.00    -0.200 F 
ATOM     62  F   UNL     1       5.239   9.364   8.378  1.00  0.00    -0.200 F 
ENDBRANCH  28  52
BRANCH  40  63
ATOM     63  C   UNL     1       9.666   0.924  12.319  1.00  0.00     0.064 A 
ATOM     64  C   UNL     1       9.019   1.204  13.531  1.00  0.00     0.173 A 
ATOM     65  C   UNL     1      11.062   0.790  12.330  1.00  0.00     0.173 A 
ATOM     66  F   UNL     1       7.686   1.355  13.567  1.00  0.00    -0.203 F 
ATOM     67  C   UNL     1       9.747   1.370  14.704  1.00  0.00     0.198 A 
ATOM     68  C   UNL     1      11.783   0.919  13.511  1.00  0.00     0.198 A 
ATOM     69  F   UNL     1      11.724   0.513  11.196  1.00  0.00    -0.203 F 
ATOM     70  F   UNL     1       9.116   1.689  15.842  1.00  0.00    -0.200 F 
ATOM     71  C   UNL     1      11.126   1.217  14.696  1.00  0.00     0.200 A 
ATOM     72  F   UNL     1      13.112   0.751  13.504  1.00  0.00    -0.200 F 
ATOM     73  F   UNL     1      11.824   1.363  15.830  1.00  0.00    -0.200 F 
ENDBRANCH  40  63
ENDBRANCH  14  15
ENDBRANCH   7   9
ENDBRANCH   6   7
ENDBRANCH   5   6
ENDBRANCH   4   5
ENDBRANCH   3   4
ENDBRANCH   2   3
ENDBRANCH   1   2
BRANCH   1  74
ATOM     74  O   UNL     1       3.001   3.710  -2.503  1.00  0.00    -0.376 OA
BRANCH  74  75
ATOM     75  C   UNL     1       4.391   3.848  -2.243  1.00  0.00     0.202 C 
BRANCH  75  76
ATOM     76  C   UNL     1       4.843   4.485  -0.916  1.00  0.00     0.261 C 
BRANCH  76  77
ATOM     77  O   UNL     1       4.189   4.035   0.289  1.00  0.00    -0.463 OA
BRANCH  77  78
ATOM     78  C   UNL     1       3.297   4.926   0.805  1.00  0.00     0.309 C 
ATOM     79  O   UNL     1       2.978   5.968   0.243  1.00  0.00    -0.252 OA
BRANCH  78  80
ATOM     80  C   UNL     1       2.819   4.541   2.206  1.00  0.00     0.110 C 
ATOM     81  C   UNL     1       1.994   3.259   2.329  1.00  0.00     0.077 C 
ATOM     82  C   UNL     1       1.992   5.686   2.788  1.00  0.00     0.077 C 
ATOM     83  C   UNL     1       0.565   3.366   1.784  1.00  0.00     0.263 C 
ATOM     84  C   UNL     1       0.659   5.824   2.057  1.00  0.00     0.263 C 
ATOM     85  N   UNL     1      -0.151   4.604   2.107  1.00  0.00    -0.324 N 
ATOM     86  H   UNL     1      -0.390   4.511   3.094  1.00  0.00     0.348 HD
BRANCH  85  87
ATOM     87  C   UNL     1      -1.431   4.729   1.345  1.00  0.00     0.284 C 
ATOM     88  C   UNL     1      -1.354   4.636  -0.179  1.00  0.00     0.176 C 
ATOM     89  C   UNL     1      -2.105   6.075   1.583  1.00  0.00     0.292 C 
ATOM     90  C   UNL     1      -1.863   5.949  -0.686  1.00  0.00     0.240 C 
ATOM     91  N   UNL     1      -2.183   6.747   0.383  1.00  0.00    -0.245 N 
ATOM     92  O   UNL     1      -2.505   6.457   2.678  1.00  0.00    -0.267 OA
ATOM     93  O   UNL     1      -1.916   6.205  -1.878  1.00  0.00    -0.274 OA
BRANCH  91  94
ATOM     94  C   UNL     1      -2.561   8.105   0.270  1.00  0.00     0.052 A 
ATOM     95  C   UNL     1      -2.148   9.034   1.237  1.00  0.00     0.031 A 
ATOM     96  C   UNL     1      -3.310   8.562  -0.819  1.00  0.00     0.031 A 
ATOM     97  C   UNL     1      -2.492  10.383   1.123  1.00  0.00     0.049 A 
ATOM     98  C   UNL     1      -3.679   9.906  -0.918  1.00  0.00     0.049 A 
ATOM     99  C   UNL     1      -3.286  10.819   0.063  1.00  0.00     0.127 A 
BRANCH  99 100
ATOM    100  O   UNL     1      -3.590  12.163   0.065  1.00  0.00    -0.457 OA
BRANCH 100 101
ATOM    101  C   UNL     1      -4.608  12.595  -0.748  1.00  0.00     0.127 A 
ATOM    102  C   UNL     1      -4.289  13.504  -1.755  1.00  0.00     0.047 A 
ATOM    103  C   UNL     1      -5.928  12.181  -0.554  1.00  0.00     0.047 A 
ATOM    104  C   UNL     1      -5.288  13.960  -2.613  1.00  0.00     0.004 A 
ATOM    105  C   UNL     1      -6.923  12.632  -1.420  1.00  0.00     0.004 A 
ATOM    106  C   UNL     1      -6.602  13.516  -2.452  1.00  0.00     0.000 A 
ENDBRANCH 100 101
ENDBRANCH  99 100
ENDBRANCH  91  94
ENDBRANCH  85  87
ENDBRANCH  78  80
ENDBRANCH  77  78
ENDBRANCH  76  77
ENDBRANCH  75  76
ENDBRANCH  74  75
ENDBRANCH   1  74
TORSDOF 21
