REMARK SMILES O=C(CCCc1nc(-c2cccc(Cl)c2)no1)OCCOCCOCCOC(=O)c1ccc(-c2c3nc(c(-c4c(F)c(F)c(F)c(F)c4F)c4ccc([nH]4)c(-c4c(F)c(F)c(F)c(F)c4F)c4nc(c(-c5c(F)c(F)c(F)c(F)c5F)c5ccc2[nH]5)C=C4)C=C3)cc1
REMARK SMILES IDX 22 1 21 2 20 3 19 4 18 5 2 6 1 7 3 8 4 9 5 10 6 11 7 12
REMARK SMILES IDX 17 13 8 14 16 15 9 16 10 17 15 18 11 19 13 20 12 21 14 22
REMARK SMILES IDX 23 23 24 24 25 25 26 26 27 27 28 28 29 29 30 30 31 31 92 32
REMARK SMILES IDX 32 33 91 34 33 35 34 36 35 37 85 38 36 39 90 40 84 41 86 42
REMARK SMILES IDX 37 43 89 44 83 45 82 46 38 48 70 49 50 50 69 51 51 52 54 53
REMARK SMILES IDX 68 54 87 55 52 56 53 57 67 59 88 60 55 61 39 62 40 63 48 64
REMARK SMILES IDX 41 65 42 66 46 67 49 68 43 69 44 70 47 71 45 72 71 73 72 74
REMARK SMILES IDX 80 75 73 76 74 77 78 78 81 79 75 80 76 81 79 82 77 83 56 84
REMARK SMILES IDX 57 85 65 86 58 87 59 88 63 89 66 90 60 91 61 92 64 93 62 94
REMARK H PARENT 86 47 54 58
REMARK Flexibility Score: inf
ROOT
ATOM      1  C   UNL     1       2.795   1.160  -1.692  1.00  0.00     0.188 C 
ENDROOT
BRANCH   1   2
ATOM      2  O   UNL     1       3.881   0.268  -1.468  1.00  0.00    -0.376 OA
BRANCH   2   3
ATOM      3  C   UNL     1       3.654  -1.081  -1.852  1.00  0.00     0.202 C 
BRANCH   3   4
ATOM      4  C   UNL     1       3.766  -1.963  -0.619  1.00  0.00     0.261 C 
BRANCH   4   5
ATOM      5  O   UNL     1       2.586  -1.862   0.206  1.00  0.00    -0.463 OA
BRANCH   5   6
ATOM      6  C   UNL     1       2.450  -1.109   1.316  1.00  0.00     0.305 C 
ATOM      7  O   UNL     1       1.470  -1.272   2.043  1.00  0.00    -0.252 OA
BRANCH   6   8
ATOM      8  C   UNL     1       3.463  -0.041   1.650  1.00  0.00     0.123 C 
BRANCH   8   9
ATOM      9  C   UNL     1       4.498  -0.434   2.701  1.00  0.00     0.022 C 
BRANCH   9  10
ATOM     10  C   UNL     1       5.857  -0.900   2.168  1.00  0.00     0.101 C 
BRANCH  10  11
ATOM     11  C   UNL     1       6.486   0.009   1.172  1.00  0.00     0.226 A 
ATOM     12  N   UNL     1       7.019  -0.277   0.005  1.00  0.00    -0.191 NA
ATOM     13  O   UNL     1       6.574   1.330   1.496  1.00  0.00    -0.339 OA
ATOM     14  C   UNL     1       7.511   0.945  -0.404  1.00  0.00     0.202 A 
ATOM     15  N   UNL     1       7.254   1.950   0.450  1.00  0.00    -0.057 NA
BRANCH  14  16
ATOM     16  C   UNL     1       8.318   1.099  -1.608  1.00  0.00     0.024 A 
ATOM     17  C   UNL     1       8.059   0.326  -2.750  1.00  0.00     0.012 A 
ATOM     18  C   UNL     1       9.395   1.996  -1.623  1.00  0.00     0.032 A 
ATOM     19  C   UNL     1       8.863   0.450  -3.888  1.00  0.00     0.002 A 
ATOM     20  C   UNL     1      10.204   2.102  -2.754  1.00  0.00     0.041 A 
ATOM     21  C   UNL     1       9.942   1.335  -3.887  1.00  0.00     0.020 A 
ATOM     22  Cl  UNL     1      11.549   3.176  -2.743  1.00  0.00    -0.084 Cl
ENDBRANCH  14  16
ENDBRANCH  10  11
ENDBRANCH   9  10
ENDBRANCH   8   9
ENDBRANCH   6   8
ENDBRANCH   5   6
ENDBRANCH   4   5
ENDBRANCH   3   4
ENDBRANCH   2   3
ENDBRANCH   1   2
BRANCH   1  23
ATOM     23  C   UNL     1       2.418   1.335  -3.166  1.00  0.00     0.188 C 
BRANCH  23  24
ATOM     24  O   UNL     1       3.475   1.237  -4.116  1.00  0.00    -0.376 OA
BRANCH  24  25
ATOM     25  C   UNL     1       4.699   1.920  -3.851  1.00  0.00     0.202 C 
BRANCH  25  26
ATOM     26  C   UNL     1       4.647   3.440  -3.975  1.00  0.00     0.261 C 
BRANCH  26  27
ATOM     27  O   UNL     1       4.118   4.046  -2.780  1.00  0.00    -0.460 OA
BRANCH  27  28
ATOM     28  C   UNL     1       2.932   4.671  -2.923  1.00  0.00     0.338 C 
ATOM     29  O   UNL     1       2.249   4.749  -3.934  1.00  0.00    -0.246 OA
BRANCH  28  30
ATOM     30  C   UNL     1       2.470   5.194  -1.627  1.00  0.00     0.060 A 
ATOM     31  C   UNL     1       1.159   4.900  -1.237  1.00  0.00     0.016 A 
ATOM     32  C   UNL     1       3.256   6.076  -0.879  1.00  0.00     0.016 A 
ATOM     33  C   UNL     1       0.603   5.547  -0.138  1.00  0.00     0.010 A 
ATOM     34  C   UNL     1       2.693   6.730   0.221  1.00  0.00     0.010 A 
ATOM     35  C   UNL     1       1.349   6.504   0.564  1.00  0.00    -0.014 A 
BRANCH  35  36
ATOM     36  C   UNL     1       0.655   7.377   1.541  1.00  0.00     0.031 A 
ATOM     37  C   UNL     1       0.165   8.727   1.094  1.00  0.00     0.074 A 
ATOM     38  C   UNL     1       0.408   6.944   2.789  1.00  0.00     0.049 A 
ATOM     39  N   UNL     1      -0.517   9.626   1.759  1.00  0.00    -0.248 NA
ATOM     40  C   UNL     1       0.481   9.116  -0.289  1.00  0.00     0.031 C 
ATOM     41  C   UNL     1       0.818   5.651   3.329  1.00  0.00     0.029 A 
ATOM     42  N   UNL     1      -0.254   7.551   3.825  1.00  0.00    -0.354 N 
ATOM     43  C   UNL     1      -0.723  10.675   0.873  1.00  0.00     0.074 A 
ATOM     44  C   UNL     1      -0.059  10.323  -0.364  1.00  0.00     0.031 C 
ATOM     45  C   UNL     1       0.404   5.562   4.605  1.00  0.00     0.029 A 
ATOM     46  C   UNL     1      -0.289   6.796   4.970  1.00  0.00     0.049 A 
ATOM     47  H   UNL     1      -0.665   8.443   3.754  1.00  0.00     0.167 HD
ATOM     48  C   UNL     1      -1.420  11.820   1.066  1.00  0.00     0.037 A 
ATOM     49  C   UNL     1      -0.818   7.076   6.176  1.00  0.00     0.037 A 
ATOM     50  C   UNL     1      -2.068  12.178   2.300  1.00  0.00     0.049 A 
ATOM     51  C   UNL     1      -1.551   8.376   6.379  1.00  0.00     0.074 A 
ATOM     52  C   UNL     1      -2.791  13.320   2.599  1.00  0.00     0.029 A 
ATOM     53  N   UNL     1      -2.067  11.395   3.444  1.00  0.00    -0.354 N 
ATOM     54  N   UNL     1      -1.765   9.349   5.526  1.00  0.00    -0.248 NA
ATOM     55  C   UNL     1      -2.130   8.608   7.710  1.00  0.00     0.031 C 
ATOM     56  C   UNL     1      -3.199  13.243   3.936  1.00  0.00     0.029 A 
ATOM     57  C   UNL     1      -2.765  12.035   4.456  1.00  0.00     0.049 A 
ATOM     58  H   UNL     1      -1.635  10.514   3.526  1.00  0.00     0.167 HD
ATOM     59  C   UNL     1      -2.514  10.298   6.209  1.00  0.00     0.074 A 
ATOM     60  C   UNL     1      -2.739   9.773   7.540  1.00  0.00     0.031 C 
ATOM     61  C   UNL     1      -2.973  11.498   5.776  1.00  0.00     0.037 A 
BRANCH  48  62
ATOM     62  C   UNL     1      -1.510  12.775  -0.087  1.00  0.00     0.064 A 
ATOM     63  C   UNL     1      -2.324  12.503  -1.197  1.00  0.00     0.173 A 
ATOM     64  C   UNL     1      -0.807  13.988  -0.068  1.00  0.00     0.173 A 
ATOM     65  F   UNL     1      -3.004  11.349  -1.268  1.00  0.00    -0.203 F 
ATOM     66  C   UNL     1      -2.415  13.403  -2.256  1.00  0.00     0.198 A 
ATOM     67  C   UNL     1      -0.919  14.897  -1.118  1.00  0.00     0.198 A 
ATOM     68  F   UNL     1      -0.017  14.296   0.971  1.00  0.00    -0.203 F 
ATOM     69  F   UNL     1      -3.170  13.107  -3.323  1.00  0.00    -0.200 F 
ATOM     70  C   UNL     1      -1.718  14.602  -2.212  1.00  0.00     0.200 A 
ATOM     71  F   UNL     1      -0.252  16.058  -1.071  1.00  0.00    -0.200 F 
ATOM     72  F   UNL     1      -1.813  15.470  -3.228  1.00  0.00    -0.200 F 
ENDBRANCH  48  62
BRANCH  49  73
ATOM     73  C   UNL     1      -0.673   6.104   7.289  1.00  0.00     0.064 A 
ATOM     74  C   UNL     1      -1.774   5.392   7.782  1.00  0.00     0.173 A 
ATOM     75  C   UNL     1       0.573   5.881   7.893  1.00  0.00     0.173 A 
ATOM     76  F   UNL     1      -2.991   5.591   7.253  1.00  0.00    -0.203 F 
ATOM     77  C   UNL     1      -1.639   4.508   8.850  1.00  0.00     0.198 A 
ATOM     78  C   UNL     1       0.712   4.978   8.944  1.00  0.00     0.198 A 
ATOM     79  F   UNL     1       1.657   6.540   7.458  1.00  0.00    -0.203 F 
ATOM     80  F   UNL     1      -2.716   3.875   9.333  1.00  0.00    -0.200 F 
ATOM     81  C   UNL     1      -0.395   4.298   9.427  1.00  0.00     0.200 A 
ATOM     82  F   UNL     1       1.917   4.772   9.492  1.00  0.00    -0.200 F 
ATOM     83  F   UNL     1      -0.266   3.448  10.455  1.00  0.00    -0.200 F 
ENDBRANCH  49  73
BRANCH  61  84
ATOM     84  C   UNL     1      -3.772  12.314   6.749  1.00  0.00     0.064 A 
ATOM     85  C   UNL     1      -3.165  12.955   7.840  1.00  0.00     0.173 A 
ATOM     86  C   UNL     1      -5.156  12.471   6.580  1.00  0.00     0.173 A 
ATOM     87  F   UNL     1      -1.847  12.822   8.051  1.00  0.00    -0.203 F 
ATOM     88  C   UNL     1      -3.920  13.696   8.744  1.00  0.00     0.198 A 
ATOM     89  C   UNL     1      -5.903  13.236   7.472  1.00  0.00     0.198 A 
ATOM     90  F   UNL     1      -5.782  11.885   5.549  1.00  0.00    -0.203 F 
ATOM     91  F   UNL     1      -3.327  14.256   9.807  1.00  0.00    -0.200 F 
ATOM     92  C   UNL     1      -5.287  13.840   8.557  1.00  0.00     0.200 A 
ATOM     93  F   UNL     1      -7.222  13.382   7.285  1.00  0.00    -0.200 F 
ATOM     94  F   UNL     1      -6.012  14.552   9.430  1.00  0.00    -0.200 F 
ENDBRANCH  61  84
ENDBRANCH  35  36
ENDBRANCH  28  30
ENDBRANCH  27  28
ENDBRANCH  26  27
ENDBRANCH  25  26
ENDBRANCH  24  25
ENDBRANCH  23  24
ENDBRANCH   1  23
TORSDOF 21
