REMARK SMILES O=C(OCCOCCOCCOC(=O)[C@@H]1CC[C@@H](CS(=O)(=O)c2cccc(F)c2)O1)c1ccc(-c2c3nc(c(-c4c(F)c(F)c(F)c(F)c4F)c4ccc([nH]4)c(-c4c(F)c(F)c(F)c(F)c4F)c4nc(c(-c5c(F)c(F)c(F)c(F)c5F)c5ccc2[nH]5)C=C4)C=C3)cc1
REMARK SMILES IDX 8 1 7 2 6 3 5 4 4 5 3 6 2 7 1 8 31 9 32 10 93 11 33 12 92 13
REMARK SMILES IDX 34 14 35 15 36 16 86 17 37 18 91 19 85 20 87 21 38 22 90 23
REMARK SMILES IDX 84 24 83 25 39 27 71 28 51 29 70 30 52 31 55 32 69 33 88 34
REMARK SMILES IDX 53 35 54 36 68 38 89 39 56 40 40 41 41 42 49 43 42 44 43 45
REMARK SMILES IDX 47 46 50 47 44 48 45 49 48 50 46 51 72 52 73 53 81 54 74 55
REMARK SMILES IDX 75 56 79 57 82 58 76 59 77 60 80 61 78 62 57 63 58 64 66 65
REMARK SMILES IDX 59 66 60 67 64 68 67 69 61 70 62 71 65 72 63 73 9 74 10 75
REMARK SMILES IDX 11 76 12 77 13 78 14 79 15 80 16 81 30 82 17 83 18 84 19 85
REMARK SMILES IDX 20 86 21 87 22 88 23 89 24 90 29 91 25 92 27 93 26 94 28 95
REMARK H PARENT 87 26 55 37
REMARK Flexibility Score: inf
ROOT
ATOM      1  C   UNL     1       1.892  -2.022   2.331  1.00  0.00     0.188 C 
ENDROOT
BRANCH   1   2
ATOM      2  C   UNL     1       2.682  -0.774   1.927  1.00  0.00     0.188 C 
BRANCH   2   3
ATOM      3  O   UNL     1       4.085  -1.033   1.770  1.00  0.00    -0.376 OA
BRANCH   3   4
ATOM      4  C   UNL     1       4.912   0.016   2.285  1.00  0.00     0.202 C 
BRANCH   4   5
ATOM      5  C   UNL     1       5.196   1.148   1.292  1.00  0.00     0.261 C 
BRANCH   5   6
ATOM      6  O   UNL     1       4.043   1.469   0.510  1.00  0.00    -0.460 OA
BRANCH   6   7
ATOM      7  C   UNL     1       3.706   0.978  -0.705  1.00  0.00     0.338 C 
ATOM      8  O   UNL     1       2.642   1.357  -1.196  1.00  0.00    -0.246 OA
BRANCH   7   9
ATOM      9  C   UNL     1       4.555   0.043  -1.518  1.00  0.00     0.060 A 
ATOM     10  C   UNL     1       5.537  -0.849  -1.064  1.00  0.00     0.016 A 
ATOM     11  C   UNL     1       4.259   0.021  -2.885  1.00  0.00     0.016 A 
ATOM     12  C   UNL     1       6.244  -1.691  -1.945  1.00  0.00     0.010 A 
ATOM     13  C   UNL     1       4.896  -0.873  -3.743  1.00  0.00     0.010 A 
ATOM     14  C   UNL     1       5.914  -1.737  -3.296  1.00  0.00    -0.014 A 
BRANCH  14  15
ATOM     15  C   UNL     1       6.537  -2.655  -4.304  1.00  0.00     0.031 A 
ATOM     16  C   UNL     1       6.978  -2.044  -5.608  1.00  0.00     0.074 A 
ATOM     17  C   UNL     1       6.507  -4.002  -4.181  1.00  0.00     0.049 A 
ATOM     18  N   UNL     1       7.128  -2.590  -6.785  1.00  0.00    -0.248 NA
ATOM     19  C   UNL     1       7.220  -0.589  -5.585  1.00  0.00     0.031 C 
ATOM     20  C   UNL     1       6.109  -4.759  -2.994  1.00  0.00     0.029 A 
ATOM     21  N   UNL     1       6.688  -4.981  -5.140  1.00  0.00    -0.354 N 
ATOM     22  C   UNL     1       7.461  -1.546  -7.635  1.00  0.00     0.074 A 
ATOM     23  C   UNL     1       7.359  -0.322  -6.873  1.00  0.00     0.031 C 
ATOM     24  C   UNL     1       5.913  -6.045  -3.329  1.00  0.00     0.029 A 
ATOM     25  C   UNL     1       6.180  -6.203  -4.751  1.00  0.00     0.049 A 
ATOM     26  H   UNL     1       7.130  -4.823  -6.005  1.00  0.00     0.167 HD
ATOM     27  C   UNL     1       7.909  -1.608  -8.910  1.00  0.00     0.037 A 
ATOM     28  C   UNL     1       5.893  -7.305  -5.472  1.00  0.00     0.037 A 
ATOM     29  C   UNL     1       8.121  -2.840  -9.614  1.00  0.00     0.049 A 
ATOM     30  C   UNL     1       6.303  -7.363  -6.913  1.00  0.00     0.074 A 
ATOM     31  C   UNL     1       8.798  -3.052 -10.799  1.00  0.00     0.029 A 
ATOM     32  N   UNL     1       7.666  -4.074  -9.177  1.00  0.00    -0.354 N 
ATOM     33  N   UNL     1       6.758  -6.404  -7.677  1.00  0.00    -0.248 NA
ATOM     34  C   UNL     1       6.232  -8.676  -7.572  1.00  0.00     0.031 C 
ATOM     35  C   UNL     1       8.749  -4.420 -11.086  1.00  0.00     0.029 A 
ATOM     36  C   UNL     1       8.052  -5.056 -10.071  1.00  0.00     0.049 A 
ATOM     37  H   UNL     1       7.147  -4.229  -8.355  1.00  0.00     0.167 HD
ATOM     38  C   UNL     1       7.118  -7.010  -8.870  1.00  0.00     0.074 A 
ATOM     39  C   UNL     1       6.767  -8.409  -8.757  1.00  0.00     0.031 C 
ATOM     40  C   UNL     1       7.739  -6.454  -9.935  1.00  0.00     0.037 A 
BRANCH  27  41
ATOM     41  C   UNL     1       8.326  -0.326  -9.564  1.00  0.00     0.064 A 
ATOM     42  C   UNL     1       7.645   0.179 -10.679  1.00  0.00     0.173 A 
ATOM     43  C   UNL     1       9.445   0.386  -9.098  1.00  0.00     0.173 A 
ATOM     44  F   UNL     1       6.579  -0.468 -11.174  1.00  0.00    -0.203 F 
ATOM     45  C   UNL     1       8.063   1.357 -11.296  1.00  0.00     0.198 A 
ATOM     46  C   UNL     1       9.838   1.578  -9.695  1.00  0.00     0.198 A 
ATOM     47  F   UNL     1      10.133  -0.057  -8.034  1.00  0.00    -0.203 F 
ATOM     48  F   UNL     1       7.410   1.816 -12.372  1.00  0.00    -0.200 F 
ATOM     49  C   UNL     1       9.151   2.059 -10.798  1.00  0.00     0.200 A 
ATOM     50  F   UNL     1      10.872   2.266  -9.193  1.00  0.00    -0.200 F 
ATOM     51  F   UNL     1       9.536   3.204 -11.378  1.00  0.00    -0.200 F 
ENDBRANCH  27  41
BRANCH  28  52
ATOM     52  C   UNL     1       5.190  -8.455  -4.850  1.00  0.00     0.064 A 
ATOM     53  C   UNL     1       3.790  -8.495  -4.796  1.00  0.00     0.173 A 
ATOM     54  C   UNL     1       5.896  -9.546  -4.330  1.00  0.00     0.173 A 
ATOM     55  F   UNL     1       3.066  -7.469  -5.264  1.00  0.00    -0.203 F 
ATOM     56  C   UNL     1       3.122  -9.594  -4.257  1.00  0.00     0.198 A 
ATOM     57  C   UNL     1       5.227 -10.646  -3.794  1.00  0.00     0.198 A 
ATOM     58  F   UNL     1       7.236  -9.558  -4.376  1.00  0.00    -0.203 F 
ATOM     59  F   UNL     1       1.782  -9.604  -4.210  1.00  0.00    -0.200 F 
ATOM     60  C   UNL     1       3.841 -10.670  -3.759  1.00  0.00     0.200 A 
ATOM     61  F   UNL     1       5.925 -11.688  -3.323  1.00  0.00    -0.200 F 
ATOM     62  F   UNL     1       3.198 -11.728  -3.246  1.00  0.00    -0.200 F 
ENDBRANCH  28  52
BRANCH  40  63
ATOM     63  C   UNL     1       8.205  -7.364 -11.025  1.00  0.00     0.064 A 
ATOM     64  C   UNL     1       9.573  -7.662 -11.136  1.00  0.00     0.173 A 
ATOM     65  C   UNL     1       7.337  -7.843 -12.011  1.00  0.00     0.173 A 
ATOM     66  F   UNL     1      10.438  -7.222 -10.210  1.00  0.00    -0.203 F 
ATOM     67  C   UNL     1      10.060  -8.379 -12.222  1.00  0.00     0.198 A 
ATOM     68  C   UNL     1       7.826  -8.579 -13.086  1.00  0.00     0.198 A 
ATOM     69  F   UNL     1       6.021  -7.599 -11.929  1.00  0.00    -0.203 F 
ATOM     70  F   UNL     1      11.375  -8.612 -12.334  1.00  0.00    -0.200 F 
ATOM     71  C   UNL     1       9.187  -8.834 -13.198  1.00  0.00     0.200 A 
ATOM     72  F   UNL     1       6.982  -9.038 -14.020  1.00  0.00    -0.200 F 
ATOM     73  F   UNL     1       9.658  -9.516 -14.251  1.00  0.00    -0.200 F 
ENDBRANCH  40  63
ENDBRANCH  14  15
ENDBRANCH   7   9
ENDBRANCH   6   7
ENDBRANCH   5   6
ENDBRANCH   4   5
ENDBRANCH   3   4
ENDBRANCH   2   3
ENDBRANCH   1   2
BRANCH   1  74
ATOM     74  O   UNL     1       2.240  -2.653   3.561  1.00  0.00    -0.376 OA
BRANCH  74  75
ATOM     75  C   UNL     1       3.599  -3.012   3.771  1.00  0.00     0.202 C 
BRANCH  75  76
ATOM     76  C   UNL     1       4.271  -4.011   2.808  1.00  0.00     0.261 C 
BRANCH  76  77
ATOM     77  O   UNL     1       3.549  -4.312   1.607  1.00  0.00    -0.461 OA
BRANCH  77  78
ATOM     78  C   UNL     1       2.659  -5.332   1.715  1.00  0.00     0.335 C 
ATOM     79  O   UNL     1       2.497  -6.013   2.724  1.00  0.00    -0.249 OA
BRANCH  78  80
ATOM     80  C   UNL     1       1.875  -5.588   0.412  1.00  0.00     0.228 C 
ATOM     81  C   UNL     1       2.146  -7.021  -0.023  1.00  0.00     0.047 C 
ATOM     82  O   UNL     1       2.063  -4.774  -0.755  1.00  0.00    -0.362 OA
ATOM     83  C   UNL     1       1.792  -6.999  -1.483  1.00  0.00     0.036 C 
ATOM     84  C   UNL     1       2.270  -5.623  -1.904  1.00  0.00     0.135 C 
BRANCH  84  85
ATOM     85  C   UNL     1       1.521  -5.127  -3.138  1.00  0.00     0.174 C 
BRANCH  85  86
ATOM     86  S   UNL     1       2.392  -3.832  -3.980  1.00  0.00     0.181 S 
ATOM     87  O   UNL     1       3.577  -3.517  -3.209  1.00  0.00    -0.224 OA
ATOM     88  O   UNL     1       2.482  -4.201  -5.375  1.00  0.00    -0.224 OA
BRANCH  86  89
ATOM     89  C   UNL     1       1.439  -2.344  -3.906  1.00  0.00     0.070 A 
ATOM     90  C   UNL     1       1.544  -1.432  -4.967  1.00  0.00     0.020 A 
ATOM     91  C   UNL     1       0.730  -2.021  -2.752  1.00  0.00     0.059 A 
ATOM     92  C   UNL     1       0.951  -0.174  -4.859  1.00  0.00     0.004 A 
ATOM     93  C   UNL     1       0.128  -0.773  -2.671  1.00  0.00     0.124 A 
ATOM     94  C   UNL     1       0.241   0.155  -3.704  1.00  0.00     0.039 A 
ATOM     95  F   UNL     1      -0.556  -0.452  -1.566  1.00  0.00    -0.207 F 
ENDBRANCH  86  89
ENDBRANCH  85  86
ENDBRANCH  84  85
ENDBRANCH  78  80
ENDBRANCH  77  78
ENDBRANCH  76  77
ENDBRANCH  75  76
ENDBRANCH  74  75
ENDBRANCH   1  74
TORSDOF 20
