REMARK SMILES Cn1c(SCC(=O)Nc2cccc(C(=O)OCCOCCOCCOC(=O)c3ccc(-c4c5nc(c(-c6c(F)c(F)c(F)c(F)c6F)c6ccc([nH]6)c(-c6c(F)c(F)c(F)c(F)c6F)c6nc(c(-c7c(F)c(F)c(F)c(F)c7F)c7ccc4[nH]7)C=C6)C=C5)cc3)c2)nnc1[C@@H]1CCCN1C(=O)c1ccccc1Cl
REMARK SMILES IDX 18 1 17 2 16 3 14 4 15 5 13 6 9 7 10 8 91 9 11 10 12 11 8 12
REMARK SMILES IDX 6 13 7 14 5 16 4 17 3 18 1 19 2 20 94 21 92 22 93 23 95 24
REMARK SMILES IDX 96 25 99 26 97 27 98 28 100 29 101 30 102 31 103 32 107 33
REMARK SMILES IDX 104 34 106 35 108 36 105 37 19 38 20 39 21 40 22 41 23 42
REMARK SMILES IDX 24 43 25 44 26 45 27 46 28 47 29 48 90 49 30 50 89 51 31 52
REMARK SMILES IDX 32 53 33 54 83 55 34 56 88 57 82 58 84 59 35 60 87 61 81 62
REMARK SMILES IDX 80 63 36 65 68 66 48 67 67 68 49 69 52 70 66 71 85 72 50 73
REMARK SMILES IDX 51 74 65 76 86 77 53 78 37 79 38 80 46 81 39 82 40 83 44 84
REMARK SMILES IDX 47 85 41 86 42 87 45 88 43 89 69 90 70 91 78 92 71 93 72 94
REMARK SMILES IDX 76 95 79 96 73 97 74 98 77 99 75 100 54 101 55 102 63 103
REMARK SMILES IDX 56 104 57 105 61 106 64 107 58 108 59 109 62 110 60 111
REMARK H PARENT 8 15 84 64 52 75
REMARK Flexibility Score: inf
ROOT
ATOM      1  C   UNL     1      -4.179   4.539   0.079  1.00  0.00     0.202 C 
ENDROOT
BRANCH   1   2
ATOM      2  C   UNL     1      -2.780   4.791  -0.507  1.00  0.00     0.261 C 
BRANCH   2   3
ATOM      3  O   UNL     1      -1.698   4.733   0.429  1.00  0.00    -0.460 OA
BRANCH   3   4
ATOM      4  C   UNL     1      -1.122   5.910   0.776  1.00  0.00     0.338 C 
ATOM      5  O   UNL     1      -1.404   7.016   0.349  1.00  0.00    -0.246 OA
BRANCH   4   6
ATOM      6  C   UNL     1      -0.131   5.697   1.866  1.00  0.00     0.062 A 
ATOM      7  C   UNL     1       1.596   4.340   2.885  1.00  0.00     0.042 A 
ATOM      8  C   UNL     1       1.831   5.338   3.827  1.00  0.00     0.026 A 
ATOM      9  C   UNL     1       0.534   4.483   2.005  1.00  0.00     0.041 A 
ATOM     10  C   UNL     1       1.103   6.529   3.769  1.00  0.00     0.003 A 
ATOM     11  C   UNL     1       0.156   6.728   2.760  1.00  0.00     0.016 A 
BRANCH   7  12
ATOM     12  N   UNL     1       2.459   3.243   2.841  1.00  0.00    -0.325 N 
ATOM     13  C   UNL     1       2.947   2.569   1.755  1.00  0.00     0.234 C 
ATOM     14  O   UNL     1       3.759   1.663   1.984  1.00  0.00    -0.274 OA
ATOM     15  H   UNL     1       2.760   2.906   3.716  1.00  0.00     0.169 HD
BRANCH  13  16
ATOM     16  C   UNL     1       2.711   3.025   0.330  1.00  0.00     0.178 C 
BRANCH  16  17
ATOM     17  S   UNL     1       1.229   2.533  -0.526  1.00  0.00    -0.076 SA
BRANCH  17  18
ATOM     18  C   UNL     1       0.565   1.078   0.118  1.00  0.00     0.191 A 
ATOM     19  C   UNL     1       2.577  -0.411   0.411  1.00  0.00     0.154 C 
ATOM     20  N   UNL     1       1.186  -0.138   0.188  1.00  0.00    -0.307 N 
ATOM     21  C   UNL     1       0.181  -1.070   0.048  1.00  0.00     0.156 A 
ATOM     22  N   UNL     1      -0.734   0.895   0.217  1.00  0.00    -0.123 NA
ATOM     23  N   UNL     1      -0.977  -0.453   0.189  1.00  0.00    -0.132 NA
BRANCH  21  24
ATOM     24  C   UNL     1       0.336  -2.513  -0.267  1.00  0.00     0.154 C 
ATOM     25  C   UNL     1       0.993  -3.308   0.868  1.00  0.00     0.035 C 
ATOM     26  N   UNL     1       1.149  -2.818  -1.454  1.00  0.00    -0.328 N 
ATOM     27  C   UNL     1       1.612  -4.507   0.165  1.00  0.00     0.024 C 
ATOM     28  C   UNL     1       1.959  -4.004  -1.227  1.00  0.00     0.120 C 
BRANCH  26  29
ATOM     29  C   UNL     1       1.028  -2.366  -2.764  1.00  0.00     0.255 C 
ATOM     30  O   UNL     1       1.451  -3.004  -3.728  1.00  0.00    -0.269 OA
BRANCH  29  31
ATOM     31  C   UNL     1       0.493  -1.028  -3.061  1.00  0.00     0.058 A 
ATOM     32  C   UNL     1      -0.865  -0.862  -3.349  1.00  0.00     0.015 A 
ATOM     33  C   UNL     1       1.376   0.050  -3.219  1.00  0.00     0.053 A 
ATOM     34  C   UNL     1      -1.349   0.402  -3.705  1.00  0.00     0.001 A 
ATOM     35  C   UNL     1       0.885   1.308  -3.580  1.00  0.00     0.021 A 
ATOM     36  Cl  UNL     1       3.082  -0.098  -2.970  1.00  0.00    -0.083 Cl
ATOM     37  C   UNL     1      -0.480   1.490  -3.797  1.00  0.00     0.002 A 
ENDBRANCH  29  31
ENDBRANCH  26  29
ENDBRANCH  21  24
ENDBRANCH  17  18
ENDBRANCH  16  17
ENDBRANCH  13  16
ENDBRANCH   7  12
ENDBRANCH   4   6
ENDBRANCH   3   4
ENDBRANCH   2   3
ENDBRANCH   1   2
BRANCH   1  38
ATOM     38  O   UNL     1      -4.562   5.095   1.329  1.00  0.00    -0.376 OA
BRANCH  38  39
ATOM     39  C   UNL     1      -3.703   4.987   2.453  1.00  0.00     0.188 C 
BRANCH  39  40
ATOM     40  C   UNL     1      -3.003   3.653   2.786  1.00  0.00     0.188 C 
BRANCH  40  41
ATOM     41  O   UNL     1      -3.299   2.583   1.933  1.00  0.00    -0.376 OA
BRANCH  41  42
ATOM     42  C   UNL     1      -4.392   1.728   2.202  1.00  0.00     0.202 C 
BRANCH  42  43
ATOM     43  C   UNL     1      -5.514   2.001   3.229  1.00  0.00     0.261 C 
BRANCH  43  44
ATOM     44  O   UNL     1      -5.452   3.191   4.022  1.00  0.00    -0.460 OA
BRANCH  44  45
ATOM     45  C   UNL     1      -4.963   3.057   5.282  1.00  0.00     0.338 C 
ATOM     46  O   UNL     1      -4.565   2.046   5.819  1.00  0.00    -0.246 OA
BRANCH  45  47
ATOM     47  C   UNL     1      -4.791   4.412   5.856  1.00  0.00     0.060 A 
ATOM     48  C   UNL     1      -3.492   4.883   6.099  1.00  0.00     0.016 A 
ATOM     49  C   UNL     1      -5.897   5.208   6.154  1.00  0.00     0.016 A 
ATOM     50  C   UNL     1      -3.296   6.146   6.657  1.00  0.00     0.010 A 
ATOM     51  C   UNL     1      -5.700   6.463   6.740  1.00  0.00     0.010 A 
ATOM     52  C   UNL     1      -4.401   6.925   7.021  1.00  0.00    -0.014 A 
BRANCH  52  53
ATOM     53  C   UNL     1      -4.207   8.133   7.862  1.00  0.00     0.031 A 
ATOM     54  C   UNL     1      -4.430   8.017   9.343  1.00  0.00     0.074 A 
ATOM     55  C   UNL     1      -3.834   9.309   7.330  1.00  0.00     0.049 A 
ATOM     56  N   UNL     1      -4.384   8.939  10.271  1.00  0.00    -0.248 NA
ATOM     57  C   UNL     1      -4.759   6.674   9.843  1.00  0.00     0.031 C 
ATOM     58  C   UNL     1      -3.556   9.546   5.917  1.00  0.00     0.029 A 
ATOM     59  N   UNL     1      -3.647  10.533   7.925  1.00  0.00    -0.354 N 
ATOM     60  C   UNL     1      -4.689   8.291  11.460  1.00  0.00     0.074 A 
ATOM     61  C   UNL     1      -4.955   6.907  11.131  1.00  0.00     0.031 C 
ATOM     62  C   UNL     1      -3.258  10.845   5.747  1.00  0.00     0.029 A 
ATOM     63  C   UNL     1      -3.358  11.535   7.033  1.00  0.00     0.049 A 
ATOM     64  H   UNL     1      -3.714  10.677   8.896  1.00  0.00     0.167 HD
ATOM     65  C   UNL     1      -4.737   8.800  12.715  1.00  0.00     0.037 A 
ATOM     66  C   UNL     1      -3.222  12.862   7.230  1.00  0.00     0.037 A 
ATOM     67  C   UNL     1      -4.491  10.182  13.037  1.00  0.00     0.049 A 
ATOM     68  C   UNL     1      -3.351  13.426   8.622  1.00  0.00     0.074 A 
ATOM     69  C   UNL     1      -4.489  10.793  14.278  1.00  0.00     0.029 A 
ATOM     70  N   UNL     1      -4.223  11.174  12.104  1.00  0.00    -0.354 N 
ATOM     71  N   UNL     1      -3.600  12.804   9.749  1.00  0.00    -0.248 NA
ATOM     72  C   UNL     1      -3.172  14.878   8.768  1.00  0.00     0.031 C 
ATOM     73  C   UNL     1      -4.289  12.165  14.090  1.00  0.00     0.029 A 
ATOM     74  C   UNL     1      -4.092  12.400  12.739  1.00  0.00     0.049 A 
ATOM     75  H   UNL     1      -4.138  11.029  11.134  1.00  0.00     0.167 HD
ATOM     76  C   UNL     1      -3.590  13.780  10.739  1.00  0.00     0.074 A 
ATOM     77  C   UNL     1      -3.289  15.035  10.079  1.00  0.00     0.031 C 
ATOM     78  C   UNL     1      -3.807  13.648  12.072  1.00  0.00     0.037 A 
BRANCH  65  79
ATOM     79  C   UNL     1      -5.119   7.856  13.821  1.00  0.00     0.064 A 
ATOM     80  C   UNL     1      -4.292   6.788  14.207  1.00  0.00     0.173 A 
ATOM     81  C   UNL     1      -6.341   8.009  14.494  1.00  0.00     0.173 A 
ATOM     82  F   UNL     1      -3.117   6.586  13.590  1.00  0.00    -0.203 F 
ATOM     83  C   UNL     1      -4.697   5.883  15.185  1.00  0.00     0.198 A 
ATOM     84  C   UNL     1      -6.725   7.125  15.498  1.00  0.00     0.198 A 
ATOM     85  F   UNL     1      -7.169   9.015  14.173  1.00  0.00    -0.203 F 
ATOM     86  F   UNL     1      -3.924   4.828  15.479  1.00  0.00    -0.200 F 
ATOM     87  C   UNL     1      -5.911   6.054  15.832  1.00  0.00     0.200 A 
ATOM     88  F   UNL     1      -7.892   7.301  16.134  1.00  0.00    -0.200 F 
ATOM     89  F   UNL     1      -6.302   5.179  16.768  1.00  0.00    -0.200 F 
ENDBRANCH  65  79
BRANCH  66  90
ATOM     90  C   UNL     1      -2.964  13.749   6.065  1.00  0.00     0.064 A 
ATOM     91  C   UNL     1      -1.727  14.383   5.893  1.00  0.00     0.173 A 
ATOM     92  C   UNL     1      -3.948  13.963   5.087  1.00  0.00     0.173 A 
ATOM     93  F   UNL     1      -0.764  14.232   6.815  1.00  0.00    -0.203 F 
ATOM     94  C   UNL     1      -1.484  15.200   4.790  1.00  0.00     0.198 A 
ATOM     95  C   UNL     1      -3.694  14.756   3.970  1.00  0.00     0.198 A 
ATOM     96  F   UNL     1      -5.151  13.383   5.208  1.00  0.00    -0.203 F 
ATOM     97  F   UNL     1      -0.303  15.821   4.668  1.00  0.00    -0.200 F 
ATOM     98  C   UNL     1      -2.463  15.377   3.825  1.00  0.00     0.200 A 
ATOM     99  F   UNL     1      -4.640  14.914   3.034  1.00  0.00    -0.200 F 
ATOM    100  F   UNL     1      -2.223  16.149   2.757  1.00  0.00    -0.200 F 
ENDBRANCH  66  90
BRANCH  78 101
ATOM    101  C   UNL     1      -3.706  14.890  12.917  1.00  0.00     0.064 A 
ATOM    102  C   UNL     1      -4.656  15.920  12.837  1.00  0.00     0.173 A 
ATOM    103  C   UNL     1      -2.664  15.035  13.847  1.00  0.00     0.173 A 
ATOM    104  F   UNL     1      -5.667  15.840  11.959  1.00  0.00    -0.203 F 
ATOM    105  C   UNL     1      -4.547  17.060  13.631  1.00  0.00     0.198 A 
ATOM    106  C   UNL     1      -2.579  16.159  14.664  1.00  0.00     0.198 A 
ATOM    107  F   UNL     1      -1.732  14.078  13.973  1.00  0.00    -0.203 F 
ATOM    108  F   UNL     1      -5.435  18.055  13.495  1.00  0.00    -0.200 F 
ATOM    109  C   UNL     1      -3.514  17.176  14.548  1.00  0.00     0.200 A 
ATOM    110  F   UNL     1      -1.589  16.260  15.562  1.00  0.00    -0.200 F 
ATOM    111  F   UNL     1      -3.415  18.270  15.315  1.00  0.00    -0.200 F 
ENDBRANCH  78 101
ENDBRANCH  52  53
ENDBRANCH  45  47
ENDBRANCH  44  45
ENDBRANCH  43  44
ENDBRANCH  42  43
ENDBRANCH  41  42
ENDBRANCH  40  41
ENDBRANCH  39  40
ENDBRANCH  38  39
ENDBRANCH   1  38
TORSDOF 24
