REMARK SMILES CCN(CCOC)C(=O)c1cccn1CC(=O)OCCOCCOCCOC(=O)c1ccc(-c2c3nc(c(-c4c(F)c(F)c(F)c(F)c4F)c4ccc([nH]4)c(-c4c(F)c(F)c(F)c(F)c4F)c4nc(c(-c5c(F)c(F)c(F)c(F)c5F)c5ccc2[nH]5)C=C4)C=C3)cc1
REMARK SMILES IDX 20 1 19 2 18 3 16 4 17 5 15 6 14 7 10 8 11 9 12 10 13 11
REMARK SMILES IDX 8 12 9 13 3 14 2 15 1 16 4 17 5 18 6 19 7 20 21 21 22 22
REMARK SMILES IDX 23 23 24 24 25 25 26 26 27 27 28 28 29 29 30 30 31 31 92 32
REMARK SMILES IDX 32 33 91 34 33 35 34 36 35 37 85 38 36 39 90 40 84 41 86 42
REMARK SMILES IDX 37 43 89 44 83 45 82 46 38 48 70 49 50 50 69 51 51 52 54 53
REMARK SMILES IDX 68 54 87 55 52 56 53 57 67 59 88 60 55 61 39 62 40 63 48 64
REMARK SMILES IDX 41 65 42 66 46 67 49 68 43 69 44 70 47 71 45 72 71 73 72 74
REMARK SMILES IDX 80 75 73 76 74 77 78 78 81 79 75 80 76 81 79 82 77 83 56 84
REMARK SMILES IDX 57 85 65 86 58 87 59 88 63 89 66 90 60 91 61 92 64 93 62 94
REMARK H PARENT 86 47 54 58
REMARK Flexibility Score: inf
ROOT
ATOM      1  C   UNL     1       4.110  -3.870   5.404  1.00  0.00     0.202 C 
ENDROOT
BRANCH   1   2
ATOM      2  C   UNL     1       3.570  -2.721   4.541  1.00  0.00     0.261 C 
BRANCH   2   3
ATOM      3  O   UNL     1       3.761  -2.930   3.125  1.00  0.00    -0.462 OA
BRANCH   3   4
ATOM      4  C   UNL     1       4.725  -2.199   2.510  1.00  0.00     0.326 C 
ATOM      5  O   UNL     1       5.333  -1.279   3.053  1.00  0.00    -0.250 OA
BRANCH   4   6
ATOM      6  C   UNL     1       5.089  -2.667   1.116  1.00  0.00     0.244 C 
BRANCH   6   7
ATOM      7  N   UNL     1       4.299  -3.751   0.517  1.00  0.00    -0.332 N 
ATOM      8  C   UNL     1       2.982  -3.696   0.041  1.00  0.00     0.107 A 
ATOM      9  C   UNL     1       2.679  -5.016  -0.279  1.00  0.00     0.033 A 
ATOM     10  C   UNL     1       3.859  -5.791  -0.252  1.00  0.00     0.020 A 
ATOM     11  C   UNL     1       4.859  -4.971   0.194  1.00  0.00     0.087 A 
BRANCH   8  12
ATOM     12  C   UNL     1       2.250  -2.433  -0.108  1.00  0.00     0.270 C 
ATOM     13  O   UNL     1       2.873  -1.378   0.040  1.00  0.00    -0.267 OA
BRANCH  12  14
ATOM     14  N   UNL     1       0.895  -2.348  -0.482  1.00  0.00    -0.335 N 
BRANCH  14  15
ATOM     15  C   UNL     1       0.389  -1.026  -0.884  1.00  0.00     0.116 C 
ATOM     16  C   UNL     1       0.406   0.037   0.207  1.00  0.00     0.027 C 
ENDBRANCH  14  15
BRANCH  14  17
ATOM     17  C   UNL     1      -0.055  -3.455  -0.642  1.00  0.00     0.148 C 
BRANCH  17  18
ATOM     18  C   UNL     1      -0.275  -3.896  -2.107  1.00  0.00     0.181 C 
BRANCH  18  19
ATOM     19  O   UNL     1       0.827  -4.621  -2.648  1.00  0.00    -0.383 OA
ATOM     20  C   UNL     1       1.732  -3.818  -3.395  1.00  0.00     0.194 C 
ENDBRANCH  18  19
ENDBRANCH  17  18
ENDBRANCH  14  17
ENDBRANCH  12  14
ENDBRANCH   8  12
ENDBRANCH   6   7
ENDBRANCH   4   6
ENDBRANCH   3   4
ENDBRANCH   2   3
ENDBRANCH   1   2
BRANCH   1  21
ATOM     21  O   UNL     1       5.284  -4.470   4.881  1.00  0.00    -0.376 OA
BRANCH  21  22
ATOM     22  C   UNL     1       5.142  -5.492   3.893  1.00  0.00     0.188 C 
BRANCH  22  23
ATOM     23  C   UNL     1       3.769  -5.842   3.296  1.00  0.00     0.188 C 
BRANCH  23  24
ATOM     24  O   UNL     1       2.819  -6.182   4.301  1.00  0.00    -0.376 OA
BRANCH  24  25
ATOM     25  C   UNL     1       1.931  -7.231   3.939  1.00  0.00     0.202 C 
BRANCH  25  26
ATOM     26  C   UNL     1       2.465  -8.521   4.554  1.00  0.00     0.261 C 
BRANCH  26  27
ATOM     27  O   UNL     1       3.802  -8.809   4.136  1.00  0.00    -0.460 OA
BRANCH  27  28
ATOM     28  C   UNL     1       3.911  -9.047   2.815  1.00  0.00     0.338 C 
ATOM     29  O   UNL     1       3.041  -8.989   1.964  1.00  0.00    -0.246 OA
BRANCH  28  30
ATOM     30  C   UNL     1       5.262  -9.490   2.505  1.00  0.00     0.060 A 
ATOM     31  C   UNL     1       5.726  -9.235   1.210  1.00  0.00     0.016 A 
ATOM     32  C   UNL     1       5.796 -10.483   3.326  1.00  0.00     0.016 A 
ATOM     33  C   UNL     1       6.597 -10.135   0.641  1.00  0.00     0.010 A 
ATOM     34  C   UNL     1       6.621 -11.411   2.742  1.00  0.00     0.010 A 
ATOM     35  C   UNL     1       6.958 -11.260   1.387  1.00  0.00    -0.014 A 
BRANCH  35  36
ATOM     36  C   UNL     1       7.760 -12.310   0.761  1.00  0.00     0.031 A 
ATOM     37  C   UNL     1       9.236 -12.156   1.102  1.00  0.00     0.074 A 
ATOM     38  C   UNL     1       7.044 -13.255   0.081  1.00  0.00     0.049 A 
ATOM     39  N   UNL     1      10.243 -12.875   0.728  1.00  0.00    -0.248 NA
ATOM     40  C   UNL     1       9.664 -11.057   2.016  1.00  0.00     0.031 C 
ATOM     41  C   UNL     1       5.576 -13.215  -0.122  1.00  0.00     0.029 A 
ATOM     42  N   UNL     1       7.376 -14.426  -0.566  1.00  0.00    -0.354 N 
ATOM     43  C   UNL     1      11.336 -12.492   1.526  1.00  0.00     0.074 A 
ATOM     44  C   UNL     1      10.951 -11.316   2.240  1.00  0.00     0.031 C 
ATOM     45  C   UNL     1       5.168 -14.242  -0.894  1.00  0.00     0.029 A 
ATOM     46  C   UNL     1       6.301 -15.080  -1.226  1.00  0.00     0.049 A 
ATOM     47  H   UNL     1       8.293 -14.784  -0.571  1.00  0.00     0.167 HD
ATOM     48  C   UNL     1      12.454 -13.257   1.649  1.00  0.00     0.037 A 
ATOM     49  C   UNL     1       6.326 -16.216  -1.988  1.00  0.00     0.037 A 
ATOM     50  C   UNL     1      12.402 -14.361   0.754  1.00  0.00     0.049 A 
ATOM     51  C   UNL     1       7.641 -16.816  -1.724  1.00  0.00     0.074 A 
ATOM     52  C   UNL     1      12.540 -14.422  -0.607  1.00  0.00     0.029 A 
ATOM     53  N   UNL     1      11.826 -15.524   1.202  1.00  0.00    -0.354 N 
ATOM     54  N   UNL     1       7.956 -17.396  -0.604  1.00  0.00    -0.248 NA
ATOM     55  C   UNL     1       8.701 -16.713  -2.729  1.00  0.00     0.031 C 
ATOM     56  C   UNL     1      11.672 -15.460  -0.993  1.00  0.00     0.029 A 
ATOM     57  C   UNL     1      11.155 -16.090   0.144  1.00  0.00     0.049 A 
ATOM     58  H   UNL     1      11.882 -15.886   2.116  1.00  0.00     0.167 HD
ATOM     59  C   UNL     1       9.329 -17.404  -0.654  1.00  0.00     0.074 A 
ATOM     60  C   UNL     1       9.688 -17.294  -2.050  1.00  0.00     0.031 C 
ATOM     61  C   UNL     1      10.031 -16.957   0.421  1.00  0.00     0.037 A 
BRANCH  48  62
ATOM     62  C   UNL     1      13.563 -13.210   2.645  1.00  0.00     0.064 A 
ATOM     63  C   UNL     1      14.810 -13.764   2.278  1.00  0.00     0.173 A 
ATOM     64  C   UNL     1      13.353 -12.978   4.011  1.00  0.00     0.173 A 
ATOM     65  F   UNL     1      15.110 -13.979   0.987  1.00  0.00    -0.203 F 
ATOM     66  C   UNL     1      15.734 -14.183   3.229  1.00  0.00     0.198 A 
ATOM     67  C   UNL     1      14.305 -13.359   4.960  1.00  0.00     0.198 A 
ATOM     68  F   UNL     1      12.193 -12.479   4.457  1.00  0.00    -0.203 F 
ATOM     69  F   UNL     1      16.844 -14.828   2.841  1.00  0.00    -0.200 F 
ATOM     70  C   UNL     1      15.472 -13.997   4.572  1.00  0.00     0.200 A 
ATOM     71  F   UNL     1      14.051 -13.174   6.263  1.00  0.00    -0.200 F 
ATOM     72  F   UNL     1      16.326 -14.462   5.494  1.00  0.00    -0.200 F 
ENDBRANCH  48  62
BRANCH  49  73
ATOM     73  C   UNL     1       5.424 -16.970  -2.941  1.00  0.00     0.064 A 
ATOM     74  C   UNL     1       4.115 -16.617  -3.296  1.00  0.00     0.173 A 
ATOM     75  C   UNL     1       5.939 -18.084  -3.669  1.00  0.00     0.173 A 
ATOM     76  F   UNL     1       3.455 -15.652  -2.651  1.00  0.00    -0.203 F 
ATOM     77  C   UNL     1       3.427 -17.252  -4.348  1.00  0.00     0.198 A 
ATOM     78  C   UNL     1       5.278 -18.679  -4.744  1.00  0.00     0.198 A 
ATOM     79  F   UNL     1       7.126 -18.631  -3.376  1.00  0.00    -0.203 F 
ATOM     80  F   UNL     1       2.180 -16.865  -4.652  1.00  0.00    -0.200 F 
ATOM     81  C   UNL     1       4.022 -18.252  -5.095  1.00  0.00     0.200 A 
ATOM     82  F   UNL     1       5.888 -19.646  -5.444  1.00  0.00    -0.200 F 
ATOM     83  F   UNL     1       3.391 -18.800  -6.142  1.00  0.00    -0.200 F 
ENDBRANCH  49  73
BRANCH  61  84
ATOM     84  C   UNL     1       9.259 -17.068   1.727  1.00  0.00     0.064 A 
ATOM     85  C   UNL     1       8.797 -18.324   2.162  1.00  0.00     0.173 A 
ATOM     86  C   UNL     1       8.826 -15.963   2.479  1.00  0.00     0.173 A 
ATOM     87  F   UNL     1       9.188 -19.438   1.524  1.00  0.00    -0.203 F 
ATOM     88  C   UNL     1       7.920 -18.453   3.243  1.00  0.00     0.198 A 
ATOM     89  C   UNL     1       7.954 -16.089   3.563  1.00  0.00     0.198 A 
ATOM     90  F   UNL     1       9.246 -14.733   2.189  1.00  0.00    -0.203 F 
ATOM     91  F   UNL     1       7.487 -19.667   3.610  1.00  0.00    -0.200 F 
ATOM     92  C   UNL     1       7.490 -17.335   3.937  1.00  0.00     0.200 A 
ATOM     93  F   UNL     1       7.568 -14.997   4.242  1.00  0.00    -0.200 F 
ATOM     94  F   UNL     1       6.649 -17.458   4.973  1.00  0.00    -0.200 F 
ENDBRANCH  61  84
ENDBRANCH  35  36
ENDBRANCH  28  30
ENDBRANCH  27  28
ENDBRANCH  26  27
ENDBRANCH  25  26
ENDBRANCH  24  25
ENDBRANCH  23  24
ENDBRANCH  22  23
ENDBRANCH  21  22
ENDBRANCH   1  21
TORSDOF 24
