REMARK SMILES COc1cc([C@H]2c3c(-c4ccccc4)n[nH]c3C(=O)N2c2ccc(C(=O)OCCOCCOCCOC(=O)c3ccc(-c4c5nc(c(-c6c(F)c(F)c(F)c(F)c6F)c6ccc([nH]6)c(-c6c(F)c(F)c(F)c(F)c6F)c6nc(c(-c7c(F)c(F)c(F)c(F)c7F)c7ccc4[nH]7)C=C6)C=C5)cc3)cc2)ccc1O
REMARK SMILES IDX 31 1 30 2 29 3 28 4 27 5 25 6 26 7 24 8 21 9 22 10 103 11
REMARK SMILES IDX 23 12 102 13 20 14 6 15 7 16 8 17 17 18 18 19 15 20 16 21
REMARK SMILES IDX 19 22 5 24 3 25 4 26 106 27 105 28 104 29 2 30 1 31 107 32
REMARK SMILES IDX 9 34 10 35 14 36 11 37 13 38 12 39 32 40 33 41 34 42 35 43
REMARK SMILES IDX 36 44 37 45 38 46 39 47 40 48 101 49 41 50 100 51 42 52
REMARK SMILES IDX 43 53 44 54 94 55 45 56 99 57 93 58 95 59 46 60 98 61 92 62
REMARK SMILES IDX 91 63 47 65 79 66 59 67 78 68 60 69 63 70 77 71 96 72 61 73
REMARK SMILES IDX 62 74 76 76 97 77 64 78 48 79 49 80 57 81 50 82 51 83 55 84
REMARK SMILES IDX 58 85 52 86 53 87 56 88 54 89 80 90 81 91 89 92 82 93 83 94
REMARK SMILES IDX 87 95 90 96 84 97 85 98 88 99 86 100 65 101 66 102 74 103
REMARK SMILES IDX 67 104 68 105 72 106 75 107 69 108 70 109 73 110 71 111
REMARK H PARENT 16 23 107 33 95 64 63 75
REMARK Flexibility Score: inf
ROOT
ATOM      1  C   UNL     1      -8.892   2.343  -4.136  1.00  0.00     0.188 C 
ENDROOT
BRANCH   1   2
ATOM      2  O   UNL     1      -9.892   2.850  -3.288  1.00  0.00    -0.376 OA
BRANCH   2   3
ATOM      3  C   UNL     1      -9.550   3.542  -2.099  1.00  0.00     0.202 C 
BRANCH   3   4
ATOM      4  C   UNL     1      -8.123   3.736  -1.534  1.00  0.00     0.261 C 
BRANCH   4   5
ATOM      5  O   UNL     1      -7.006   3.470  -2.388  1.00  0.00    -0.460 OA
BRANCH   5   6
ATOM      6  C   UNL     1      -6.359   2.299  -2.168  1.00  0.00     0.338 C 
ATOM      7  O   UNL     1      -6.625   1.471  -1.313  1.00  0.00    -0.246 OA
BRANCH   6   8
ATOM      8  C   UNL     1      -5.388   2.041  -3.258  1.00  0.00     0.060 A 
ATOM      9  C   UNL     1      -3.499   1.388  -5.218  1.00  0.00     0.045 A 
ATOM     10  C   UNL     1      -4.511   0.481  -4.903  1.00  0.00     0.027 A 
ATOM     11  C   UNL     1      -3.491   2.654  -4.614  1.00  0.00     0.027 A 
ATOM     12  C   UNL     1      -5.427   0.791  -3.894  1.00  0.00     0.018 A 
ATOM     13  C   UNL     1      -4.456   2.998  -3.660  1.00  0.00     0.018 A 
BRANCH   9  14
ATOM     14  N   UNL     1      -2.426   0.995  -6.041  1.00  0.00    -0.295 N 
ATOM     15  C   UNL     1      -1.019   1.102  -5.549  1.00  0.00     0.156 C 
ATOM     16  C   UNL     1      -0.298   0.541  -6.714  1.00  0.00     0.038 A 
ATOM     17  C   UNL     1       0.975   0.252  -7.228  1.00  0.00     0.099 A 
ATOM     18  C   UNL     1      -1.186   0.133  -7.665  1.00  0.00     0.129 A 
ATOM     19  C   UNL     1      -2.542   0.326  -7.279  1.00  0.00     0.277 C 
ATOM     20  N   UNL     1       0.856  -0.256  -8.477  1.00  0.00    -0.174 NA
ATOM     21  N   UNL     1      -0.480  -0.339  -8.705  1.00  0.00    -0.272 N 
ATOM     22  O   UNL     1      -3.533   0.004  -7.897  1.00  0.00    -0.267 OA
ATOM     23  H   UNL     1      -0.881  -0.700  -9.529  1.00  0.00     0.190 HD
BRANCH  15  24
ATOM     24  C   UNL     1      -0.741   0.194  -4.361  1.00  0.00    -0.016 A 
ATOM     25  C   UNL     1      -0.055  -0.030  -2.010  1.00  0.00     0.160 A 
ATOM     26  C   UNL     1      -0.319   0.760  -3.141  1.00  0.00     0.056 A 
ATOM     27  C   UNL     1      -0.207  -1.413  -2.111  1.00  0.00     0.157 A 
ATOM     28  C   UNL     1      -0.626  -1.998  -3.303  1.00  0.00     0.050 A 
ATOM     29  C   UNL     1      -0.922  -1.201  -4.408  1.00  0.00     0.010 A 
BRANCH  25  30
ATOM     30  O   UNL     1       0.219   0.685  -0.877  1.00  0.00    -0.493 OA
ATOM     31  C   UNL     1       1.181   0.162   0.030  1.00  0.00     0.278 C 
ENDBRANCH  25  30
BRANCH  27  32
ATOM     32  O   UNL     1      -0.054  -2.271  -1.062  1.00  0.00    -0.504 OA
ATOM     33  H   UNL     1       0.226  -1.947  -0.228  1.00  0.00     0.293 HD
ENDBRANCH  27  32
ENDBRANCH  15  24
BRANCH  17  34
ATOM     34  C   UNL     1       2.276   0.424  -6.596  1.00  0.00     0.002 A 
ATOM     35  C   UNL     1       3.262   1.210  -7.204  1.00  0.00     0.010 A 
ATOM     36  C   UNL     1       2.570  -0.214  -5.384  1.00  0.00     0.010 A 
ATOM     37  C   UNL     1       4.511   1.370  -6.597  1.00  0.00     0.001 A 
ATOM     38  C   UNL     1       3.816  -0.051  -4.776  1.00  0.00     0.001 A 
ATOM     39  C   UNL     1       4.785   0.743  -5.381  1.00  0.00     0.000 A 
ENDBRANCH  17  34
ENDBRANCH   9  14
ENDBRANCH   6   8
ENDBRANCH   5   6
ENDBRANCH   4   5
ENDBRANCH   3   4
ENDBRANCH   2   3
ENDBRANCH   1   2
BRANCH   1  40
ATOM     40  C   UNL     1      -8.124   3.327  -5.047  1.00  0.00     0.188 C 
BRANCH  40  41
ATOM     41  O   UNL     1      -8.004   4.705  -4.752  1.00  0.00    -0.376 OA
BRANCH  41  42
ATOM     42  C   UNL     1      -9.091   5.612  -4.654  1.00  0.00     0.202 C 
BRANCH  42  43
ATOM     43  C   UNL     1     -10.420   5.476  -5.391  1.00  0.00     0.261 C 
BRANCH  43  44
ATOM     44  O   UNL     1     -10.811   4.146  -5.632  1.00  0.00    -0.460 OA
BRANCH  44  45
ATOM     45  C   UNL     1     -10.452   3.697  -6.849  1.00  0.00     0.338 C 
ATOM     46  O   UNL     1      -9.816   4.290  -7.704  1.00  0.00    -0.246 OA
BRANCH  45  47
ATOM     47  C   UNL     1     -11.011   2.353  -7.028  1.00  0.00     0.060 A 
ATOM     48  C   UNL     1     -10.646   1.728  -8.220  1.00  0.00     0.016 A 
ATOM     49  C   UNL     1     -12.209   2.080  -6.361  1.00  0.00     0.016 A 
ATOM     50  C   UNL     1     -11.663   1.193  -8.967  1.00  0.00     0.010 A 
ATOM     51  C   UNL     1     -13.221   1.553  -7.107  1.00  0.00     0.010 A 
ATOM     52  C   UNL     1     -12.956   1.267  -8.444  1.00  0.00    -0.014 A 
BRANCH  52  53
ATOM     53  C   UNL     1     -14.070   1.003  -9.320  1.00  0.00     0.031 A 
ATOM     54  C   UNL     1     -14.304  -0.445  -9.452  1.00  0.00     0.074 A 
ATOM     55  C   UNL     1     -14.825   1.998  -9.825  1.00  0.00     0.049 A 
ATOM     56  N   UNL     1     -14.044  -1.192 -10.471  1.00  0.00    -0.248 NA
ATOM     57  C   UNL     1     -14.615  -1.189  -8.219  1.00  0.00     0.031 C 
ATOM     58  C   UNL     1     -14.793   3.433  -9.520  1.00  0.00     0.029 A 
ATOM     59  N   UNL     1     -15.874   1.896 -10.684  1.00  0.00    -0.354 N 
ATOM     60  C   UNL     1     -14.371  -2.477 -10.060  1.00  0.00     0.074 A 
ATOM     61  C   UNL     1     -14.438  -2.444  -8.627  1.00  0.00     0.031 C 
ATOM     62  C   UNL     1     -15.920   4.019  -9.995  1.00  0.00     0.029 A 
ATOM     63  C   UNL     1     -16.676   3.036 -10.748  1.00  0.00     0.049 A 
ATOM     64  H   UNL     1     -16.053   1.086 -11.215  1.00  0.00     0.167 HD
ATOM     65  C   UNL     1     -14.888  -3.376 -10.938  1.00  0.00     0.037 A 
ATOM     66  C   UNL     1     -17.916   3.068 -11.305  1.00  0.00     0.037 A 
ATOM     67  C   UNL     1     -14.622  -2.978 -12.297  1.00  0.00     0.049 A 
ATOM     68  C   UNL     1     -18.009   1.881 -12.204  1.00  0.00     0.074 A 
ATOM     69  C   UNL     1     -13.473  -2.796 -13.041  1.00  0.00     0.029 A 
ATOM     70  N   UNL     1     -15.615  -2.302 -12.963  1.00  0.00    -0.354 N 
ATOM     71  N   UNL     1     -17.282   1.737 -13.281  1.00  0.00    -0.248 NA
ATOM     72  C   UNL     1     -18.509   0.645 -11.615  1.00  0.00     0.031 C 
ATOM     73  C   UNL     1     -13.729  -1.647 -13.845  1.00  0.00     0.029 A 
ATOM     74  C   UNL     1     -15.043  -1.237 -13.611  1.00  0.00     0.049 A 
ATOM     75  H   UNL     1     -16.570  -2.540 -12.974  1.00  0.00     0.167 HD
ATOM     76  C   UNL     1     -16.888   0.405 -13.266  1.00  0.00     0.074 A 
ATOM     77  C   UNL     1     -17.704  -0.225 -12.230  1.00  0.00     0.031 C 
ATOM     78  C   UNL     1     -15.736   0.002 -13.878  1.00  0.00     0.037 A 
BRANCH  65  79
ATOM     79  C   UNL     1     -15.970  -4.361 -10.574  1.00  0.00     0.064 A 
ATOM     80  C   UNL     1     -16.338  -5.333 -11.521  1.00  0.00     0.173 A 
ATOM     81  C   UNL     1     -16.848  -4.222  -9.474  1.00  0.00     0.173 A 
ATOM     82  F   UNL     1     -15.588  -5.539 -12.614  1.00  0.00    -0.203 F 
ATOM     83  C   UNL     1     -17.531  -6.051 -11.413  1.00  0.00     0.198 A 
ATOM     84  C   UNL     1     -18.006  -4.981  -9.340  1.00  0.00     0.198 A 
ATOM     85  F   UNL     1     -16.699  -3.278  -8.539  1.00  0.00    -0.203 F 
ATOM     86  F   UNL     1     -17.902  -6.872 -12.404  1.00  0.00    -0.200 F 
ATOM     87  C   UNL     1     -18.367  -5.870 -10.326  1.00  0.00     0.200 A 
ATOM     88  F   UNL     1     -18.808  -4.775  -8.285  1.00  0.00    -0.200 F 
ATOM     89  F   UNL     1     -19.539  -6.512 -10.251  1.00  0.00    -0.200 F 
ENDBRANCH  65  79
BRANCH  66  90
ATOM     90  C   UNL     1     -19.125   3.762 -10.789  1.00  0.00     0.064 A 
ATOM     91  C   UNL     1     -20.259   3.956 -11.597  1.00  0.00     0.173 A 
ATOM     92  C   UNL     1     -19.299   3.987  -9.409  1.00  0.00     0.173 A 
ATOM     93  F   UNL     1     -20.198   3.708 -12.913  1.00  0.00    -0.203 F 
ATOM     94  C   UNL     1     -21.493   4.340 -11.054  1.00  0.00     0.198 A 
ATOM     95  C   UNL     1     -20.528   4.370  -8.869  1.00  0.00     0.198 A 
ATOM     96  F   UNL     1     -18.305   3.741  -8.544  1.00  0.00    -0.203 F 
ATOM     97  F   UNL     1     -22.566   4.464 -11.848  1.00  0.00    -0.200 F 
ATOM     98  C   UNL     1     -21.628   4.538  -9.689  1.00  0.00     0.200 A 
ATOM     99  F   UNL     1     -20.655   4.513  -7.542  1.00  0.00    -0.200 F 
ATOM    100  F   UNL     1     -22.820   4.846  -9.161  1.00  0.00    -0.200 F 
ENDBRANCH  66  90
BRANCH  78 101
ATOM    101  C   UNL     1     -15.014   0.996 -14.746  1.00  0.00     0.064 A 
ATOM    102  C   UNL     1     -14.382   2.154 -14.260  1.00  0.00     0.173 A 
ATOM    103  C   UNL     1     -14.796   0.657 -16.087  1.00  0.00     0.173 A 
ATOM    104  F   UNL     1     -14.472   2.495 -12.968  1.00  0.00    -0.203 F 
ATOM    105  C   UNL     1     -13.584   2.944 -15.089  1.00  0.00     0.198 A 
ATOM    106  C   UNL     1     -13.973   1.427 -16.902  1.00  0.00     0.198 A 
ATOM    107  F   UNL     1     -15.333  -0.466 -16.589  1.00  0.00    -0.203 F 
ATOM    108  F   UNL     1     -12.985   4.042 -14.602  1.00  0.00    -0.200 F 
ATOM    109  C   UNL     1     -13.372   2.572 -16.406  1.00  0.00     0.200 A 
ATOM    110  F   UNL     1     -13.731   1.035 -18.161  1.00  0.00    -0.200 F 
ATOM    111  F   UNL     1     -12.563   3.300 -17.191  1.00  0.00    -0.200 F 
ENDBRANCH  78 101
ENDBRANCH  52  53
ENDBRANCH  45  47
ENDBRANCH  44  45
ENDBRANCH  43  44
ENDBRANCH  42  43
ENDBRANCH  41  42
ENDBRANCH  40  41
ENDBRANCH   1  40
TORSDOF 22
