REMARK SMILES COc1ccc(CC(=O)Nc2ccc(N3CC[NH+](C)CC3)cc2C(=O)OCCOCCOCCOC(=O)c2ccc(-c3c4nc(c(-c5c(F)c(F)c(F)c(F)c5F)c5ccc([nH]5)c(-c5c(F)c(F)c(F)c(F)c5F)c5nc(c(-c6c(F)c(F)c(F)c(F)c6F)c6ccc3[nH]6)C=C5)C=C4)cc2)cc1
REMARK SMILES IDX 30 1 29 2 28 3 27 4 26 5 24 6 25 7 23 8 11 9 12 10 13 11
REMARK SMILES IDX 22 12 14 13 10 14 8 15 9 16 7 18 6 19 3 20 4 21 102 22 5 23
REMARK SMILES IDX 101 24 2 25 1 26 15 27 16 28 21 29 17 30 20 31 18 32 19 33
REMARK SMILES IDX 31 35 32 36 33 37 34 38 35 39 36 40 37 41 38 42 39 43 100 44
REMARK SMILES IDX 40 45 99 46 41 47 42 48 43 49 93 50 44 51 98 52 92 53 94 54
REMARK SMILES IDX 45 55 97 56 91 57 90 58 46 60 78 61 58 62 77 63 59 64 62 65
REMARK SMILES IDX 76 66 95 67 60 68 61 69 75 71 96 72 63 73 47 74 48 75 56 76
REMARK SMILES IDX 49 77 50 78 54 79 57 80 51 81 52 82 55 83 53 84 79 85 80 86
REMARK SMILES IDX 88 87 81 88 82 89 86 90 89 91 83 92 84 93 87 94 85 95 64 96
REMARK SMILES IDX 65 97 73 98 66 99 67 100 71 101 74 102 68 103 69 104 72 105
REMARK SMILES IDX 70 106
REMARK H PARENT 10 17 18 34 94 59 62 70
REMARK Flexibility Score: inf
ROOT
ATOM      1  C   UNL     1      -1.083   3.683  -1.918  1.00  0.00     0.188 C 
ENDROOT
BRANCH   1   2
ATOM      2  O   UNL     1      -1.880   4.580  -1.168  1.00  0.00    -0.376 OA
BRANCH   2   3
ATOM      3  C   UNL     1      -1.181   5.231  -0.125  1.00  0.00     0.202 C 
BRANCH   3   4
ATOM      4  C   UNL     1      -0.066   6.177  -0.555  1.00  0.00     0.261 C 
BRANCH   4   5
ATOM      5  O   UNL     1       1.321   5.763  -0.777  1.00  0.00    -0.460 OA
BRANCH   5   6
ATOM      6  C   UNL     1       1.980   4.605  -0.986  1.00  0.00     0.340 C 
ATOM      7  O   UNL     1       1.536   3.488  -1.076  1.00  0.00    -0.246 OA
BRANCH   6   8
ATOM      8  C   UNL     1       3.426   4.854  -1.260  1.00  0.00     0.085 A 
ATOM      9  C   UNL     1       4.041   6.102  -1.151  1.00  0.00     0.055 A 
ATOM     10  C   UNL     1       5.244   6.296  -1.827  1.00  0.00     0.029 A 
ATOM     11  C   UNL     1       5.957   5.194  -2.319  1.00  0.00     0.028 A 
ATOM     12  C   UNL     1       4.164   3.751  -1.747  1.00  0.00     0.043 A 
ATOM     13  C   UNL     1       5.480   3.884  -2.185  1.00  0.00     0.038 A 
BRANCH   9  14
ATOM     14  N   UNL     1       3.517   7.191  -0.434  1.00  0.00    -0.325 N 
ATOM     15  C   UNL     1       2.886   7.202   0.793  1.00  0.00     0.228 C 
ATOM     16  O   UNL     1       2.148   8.162   1.048  1.00  0.00    -0.274 OA
ATOM     17  H   UNL     1       3.612   8.070  -0.869  1.00  0.00     0.169 HD
BRANCH  15  18
ATOM     18  C   UNL     1       3.256   6.194   1.896  1.00  0.00     0.135 C 
BRANCH  18  19
ATOM     19  C   UNL     1       2.637   4.810   1.939  1.00  0.00    -0.038 A 
ATOM     20  C   UNL     1       1.438   2.250   1.662  1.00  0.00     0.118 A 
ATOM     21  C   UNL     1       0.707   3.344   2.122  1.00  0.00     0.047 A 
ATOM     22  C   UNL     1       2.808   2.401   1.479  1.00  0.00     0.047 A 
ATOM     23  C   UNL     1       1.289   4.615   2.253  1.00  0.00     0.008 A 
ATOM     24  C   UNL     1       3.405   3.667   1.648  1.00  0.00     0.008 A 
BRANCH  20  25
ATOM     25  O   UNL     1       0.663   1.185   1.306  1.00  0.00    -0.497 OA
ATOM     26  C   UNL     1       1.225  -0.110   1.222  1.00  0.00     0.278 C 
ENDBRANCH  20  25
ENDBRANCH  18  19
ENDBRANCH  15  18
ENDBRANCH   9  14
BRANCH  13  27
ATOM     27  N   UNL     1       6.288   2.794  -2.419  1.00  0.00    -0.360 N 
ATOM     28  C   UNL     1       5.839   1.529  -3.024  1.00  0.00     0.178 C 
ATOM     29  C   UNL     1       7.673   2.795  -1.915  1.00  0.00     0.178 C 
ATOM     30  C   UNL     1       6.201   0.307  -2.140  1.00  0.00     0.283 C 
ATOM     31  C   UNL     1       7.934   1.551  -1.031  1.00  0.00     0.283 C 
ATOM     32  N   UNL     1       7.626   0.293  -1.740  1.00  0.00    -0.334 N 
ATOM     33  C   UNL     1       7.938  -0.870  -0.915  1.00  0.00     0.332 C 
ATOM     34  H   UNL     1       8.208   0.223  -2.574  1.00  0.00     0.347 HD
ENDBRANCH  13  27
ENDBRANCH   6   8
ENDBRANCH   5   6
ENDBRANCH   4   5
ENDBRANCH   3   4
ENDBRANCH   2   3
ENDBRANCH   1   2
BRANCH   1  35
ATOM     35  C   UNL     1      -0.358   4.378  -3.095  1.00  0.00     0.188 C 
BRANCH  35  36
ATOM     36  O   UNL     1      -1.056   5.344  -3.874  1.00  0.00    -0.376 OA
BRANCH  36  37
ATOM     37  C   UNL     1      -2.462   5.234  -3.939  1.00  0.00     0.202 C 
BRANCH  37  38
ATOM     38  C   UNL     1      -3.026   3.985  -4.639  1.00  0.00     0.261 C 
BRANCH  38  39
ATOM     39  O   UNL     1      -2.408   2.717  -4.308  1.00  0.00    -0.460 OA
BRANCH  39  40
ATOM     40  C   UNL     1      -1.423   2.278  -5.131  1.00  0.00     0.338 C 
ATOM     41  O   UNL     1      -1.081   2.790  -6.185  1.00  0.00    -0.246 OA
BRANCH  40  42
ATOM     42  C   UNL     1      -0.659   1.146  -4.523  1.00  0.00     0.060 A 
ATOM     43  C   UNL     1       0.745   1.225  -4.477  1.00  0.00     0.016 A 
ATOM     44  C   UNL     1      -1.286  -0.032  -4.116  1.00  0.00     0.016 A 
ATOM     45  C   UNL     1       1.522   0.121  -4.105  1.00  0.00     0.010 A 
ATOM     46  C   UNL     1      -0.505  -1.151  -3.773  1.00  0.00     0.010 A 
ATOM     47  C   UNL     1       0.904  -1.099  -3.820  1.00  0.00    -0.014 A 
BRANCH  47  48
ATOM     48  C   UNL     1       1.697  -2.365  -3.830  1.00  0.00     0.031 A 
ATOM     49  C   UNL     1       1.657  -3.218  -5.075  1.00  0.00     0.074 A 
ATOM     50  C   UNL     1       2.455  -2.767  -2.793  1.00  0.00     0.049 A 
ATOM     51  N   UNL     1       2.146  -4.414  -5.288  1.00  0.00    -0.248 NA
ATOM     52  C   UNL     1       0.974  -2.631  -6.239  1.00  0.00     0.031 C 
ATOM     53  C   UNL     1       2.683  -2.010  -1.568  1.00  0.00     0.029 A 
ATOM     54  N   UNL     1       3.153  -3.938  -2.597  1.00  0.00    -0.354 N 
ATOM     55  C   UNL     1       1.821  -4.725  -6.604  1.00  0.00     0.074 A 
ATOM     56  C   UNL     1       1.066  -3.608  -7.128  1.00  0.00     0.031 C 
ATOM     57  C   UNL     1       3.411  -2.758  -0.719  1.00  0.00     0.029 A 
ATOM     58  C   UNL     1       3.682  -4.058  -1.334  1.00  0.00     0.049 A 
ATOM     59  H   UNL     1       3.262  -4.623  -3.296  1.00  0.00     0.167 HD
ATOM     60  C   UNL     1       2.132  -5.834  -7.317  1.00  0.00     0.037 A 
ATOM     61  C   UNL     1       4.280  -5.107  -0.732  1.00  0.00     0.037 A 
ATOM     62  C   UNL     1       2.885  -6.949  -6.805  1.00  0.00     0.049 A 
ATOM     63  C   UNL     1       4.507  -6.387  -1.503  1.00  0.00     0.074 A 
ATOM     64  C   UNL     1       3.261  -8.109  -7.460  1.00  0.00     0.029 A 
ATOM     65  N   UNL     1       3.367  -7.047  -5.509  1.00  0.00    -0.354 N 
ATOM     66  N   UNL     1       4.208  -6.670  -2.747  1.00  0.00    -0.248 NA
ATOM     67  C   UNL     1       5.169  -7.489  -0.786  1.00  0.00     0.031 C 
ATOM     68  C   UNL     1       3.916  -8.937  -6.543  1.00  0.00     0.029 A 
ATOM     69  C   UNL     1       4.011  -8.263  -5.336  1.00  0.00     0.049 A 
ATOM     70  H   UNL     1       3.268  -6.357  -4.815  1.00  0.00     0.167 HD
ATOM     71  C   UNL     1       4.688  -7.955  -2.976  1.00  0.00     0.074 A 
ATOM     72  C   UNL     1       5.298  -8.399  -1.742  1.00  0.00     0.031 C 
ATOM     73  C   UNL     1       4.635  -8.695  -4.111  1.00  0.00     0.037 A 
BRANCH  60  74
ATOM     74  C   UNL     1       1.629  -5.912  -8.730  1.00  0.00     0.064 A 
ATOM     75  C   UNL     1       2.152  -5.099  -9.748  1.00  0.00     0.173 A 
ATOM     76  C   UNL     1       0.636  -6.841  -9.078  1.00  0.00     0.173 A 
ATOM     77  F   UNL     1       3.094  -4.187  -9.467  1.00  0.00    -0.203 F 
ATOM     78  C   UNL     1       1.678  -5.194 -11.055  1.00  0.00     0.198 A 
ATOM     79  C   UNL     1       0.190  -6.956 -10.391  1.00  0.00     0.198 A 
ATOM     80  F   UNL     1       0.108  -7.647  -8.145  1.00  0.00    -0.203 F 
ATOM     81  F   UNL     1       2.157  -4.374 -12.000  1.00  0.00    -0.200 F 
ATOM     82  C   UNL     1       0.704  -6.128 -11.376  1.00  0.00     0.200 A 
ATOM     83  F   UNL     1      -0.740  -7.870 -10.703  1.00  0.00    -0.200 F 
ATOM     84  F   UNL     1       0.258  -6.225 -12.636  1.00  0.00    -0.200 F 
ENDBRANCH  60  74
BRANCH  61  85
ATOM     85  C   UNL     1       4.696  -5.014   0.695  1.00  0.00     0.064 A 
ATOM     86  C   UNL     1       6.049  -5.031   1.059  1.00  0.00     0.173 A 
ATOM     87  C   UNL     1       3.746  -4.953   1.726  1.00  0.00     0.173 A 
ATOM     88  F   UNL     1       6.996  -5.115   0.113  1.00  0.00    -0.203 F 
ATOM     89  C   UNL     1       6.436  -5.017   2.399  1.00  0.00     0.198 A 
ATOM     90  C   UNL     1       4.134  -4.909   3.063  1.00  0.00     0.198 A 
ATOM     91  F   UNL     1       2.437  -4.937   1.433  1.00  0.00    -0.203 F 
ATOM     92  F   UNL     1       7.735  -5.088   2.719  1.00  0.00    -0.200 F 
ATOM     93  C   UNL     1       5.479  -4.951   3.400  1.00  0.00     0.200 A 
ATOM     94  F   UNL     1       3.206  -4.832   4.027  1.00  0.00    -0.200 F 
ATOM     95  F   UNL     1       5.851  -4.935   4.686  1.00  0.00    -0.200 F 
ENDBRANCH  61  85
BRANCH  73  96
ATOM     96  C   UNL     1       5.308 -10.040  -4.105  1.00  0.00     0.064 A 
ATOM     97  C   UNL     1       4.798 -11.125  -3.377  1.00  0.00     0.173 A 
ATOM     98  C   UNL     1       6.459 -10.257  -4.881  1.00  0.00     0.173 A 
ATOM     99  F   UNL     1       3.709 -10.971  -2.608  1.00  0.00    -0.203 F 
ATOM    100  C   UNL     1       5.430 -12.367  -3.403  1.00  0.00     0.198 A 
ATOM    101  C   UNL     1       7.067 -11.508  -4.932  1.00  0.00     0.198 A 
ATOM    102  F   UNL     1       6.985  -9.258  -5.604  1.00  0.00    -0.203 F 
ATOM    103  F   UNL     1       4.954 -13.375  -2.659  1.00  0.00    -0.200 F 
ATOM    104  C   UNL     1       6.558 -12.560  -4.187  1.00  0.00     0.200 A 
ATOM    105  F   UNL     1       8.147 -11.696  -5.704  1.00  0.00    -0.200 F 
ATOM    106  F   UNL     1       7.158 -13.758  -4.218  1.00  0.00    -0.200 F 
ENDBRANCH  73  96
ENDBRANCH  47  48
ENDBRANCH  40  42
ENDBRANCH  39  40
ENDBRANCH  38  39
ENDBRANCH  37  38
ENDBRANCH  36  37
ENDBRANCH  35  36
ENDBRANCH   1  35
TORSDOF 22
