REMARK SMILES NS(=O)(=O)c1ccc(-n2ccnc2-c2ccc(O)c(C(=O)OCCOCCOCCOC(=O)c3ccc(-c4c5nc(c(-c6c(F)c(F)c(F)c(F)c6F)c6ccc([nH]6)c(-c6c(F)c(F)c(F)c(F)c6F)c6nc(c(-c7c(F)c(F)c(F)c(F)c7F)c7ccc4[nH]7)C=C6)C=C5)cc3)c2)cc1
REMARK SMILES IDX 26 1 25 2 24 3 23 4 22 5 20 6 21 7 19 8 14 9 15 10 97 11
REMARK SMILES IDX 16 12 17 13 13 14 9 15 10 16 11 17 12 18 8 19 5 20 6 21
REMARK SMILES IDX 99 22 7 23 98 24 2 25 3 26 4 27 1 28 18 31 27 33 28 34 29 35
REMARK SMILES IDX 30 36 31 37 32 38 33 39 34 40 35 41 96 42 36 43 95 44 37 45
REMARK SMILES IDX 38 46 39 47 89 48 40 49 94 50 88 51 90 52 41 53 93 54 87 55
REMARK SMILES IDX 86 56 42 58 74 59 54 60 73 61 55 62 58 63 72 64 91 65 56 66
REMARK SMILES IDX 57 67 71 69 92 70 59 71 43 72 44 73 52 74 45 75 46 76 50 77
REMARK SMILES IDX 53 78 47 79 48 80 51 81 49 82 75 83 76 84 84 85 77 86 78 87
REMARK SMILES IDX 82 88 85 89 79 90 80 91 83 92 81 93 60 94 61 95 69 96 62 97
REMARK SMILES IDX 63 98 67 99 70 100 64 101 65 102 68 103 66 104
REMARK H PARENT 1 29 1 30 18 32 90 57 58 68
REMARK Flexibility Score: inf
ROOT
ATOM      1  C   UNL     1       4.290   4.708  -8.271  1.00  0.00     0.188 C 
ENDROOT
BRANCH   1   2
ATOM      2  O   UNL     1       3.487   4.048  -9.220  1.00  0.00    -0.376 OA
BRANCH   2   3
ATOM      3  C   UNL     1       2.296   3.377  -8.846  1.00  0.00     0.202 C 
BRANCH   3   4
ATOM      4  C   UNL     1       1.848   3.026  -7.409  1.00  0.00     0.261 C 
BRANCH   4   5
ATOM      5  O   UNL     1       2.413   3.755  -6.316  1.00  0.00    -0.460 OA
BRANCH   5   6
ATOM      6  C   UNL     1       3.424   3.143  -5.657  1.00  0.00     0.342 C 
ATOM      7  O   UNL     1       3.892   2.040  -5.899  1.00  0.00    -0.246 OA
BRANCH   6   8
ATOM      8  C   UNL     1       4.119   4.101  -4.768  1.00  0.00     0.102 A 
ATOM      9  C   UNL     1       4.099   5.926  -3.155  1.00  0.00     0.019 A 
ATOM     10  C   UNL     1       5.499   5.940  -3.170  1.00  0.00     0.016 A 
ATOM     11  C   UNL     1       3.414   5.045  -4.015  1.00  0.00     0.031 A 
ATOM     12  C   UNL     1       6.207   5.038  -3.967  1.00  0.00     0.048 A 
ATOM     13  C   UNL     1       5.519   4.102  -4.735  1.00  0.00     0.130 A 
BRANCH   9  14
ATOM     14  C   UNL     1       3.373   6.768  -2.192  1.00  0.00     0.144 A 
ATOM     15  N   UNL     1       2.295   6.332  -1.421  1.00  0.00    -0.300 N 
ATOM     16  C   UNL     1       1.760   7.443  -0.816  1.00  0.00     0.113 A 
ATOM     17  C   UNL     1       2.631   8.466  -1.103  1.00  0.00     0.132 A 
ATOM     18  N   UNL     1       3.629   8.040  -1.939  1.00  0.00    -0.236 NA
BRANCH  15  19
ATOM     19  C   UNL     1       1.824   5.002  -1.293  1.00  0.00     0.047 A 
ATOM     20  C   UNL     1       0.979   2.366  -1.435  1.00  0.00     0.082 A 
ATOM     21  C   UNL     1       2.330   2.640  -1.209  1.00  0.00     0.024 A 
ATOM     22  C   UNL     1       0.041   3.399  -1.546  1.00  0.00     0.024 A 
ATOM     23  C   UNL     1       2.752   3.962  -1.132  1.00  0.00     0.028 A 
ATOM     24  C   UNL     1       0.462   4.729  -1.458  1.00  0.00     0.028 A 
BRANCH  20  25
ATOM     25  S   UNL     1       0.478   0.680  -1.612  1.00  0.00     0.238 S 
ATOM     26  O   UNL     1       1.220   0.103  -2.716  1.00  0.00    -0.207 OA
ATOM     27  O   UNL     1      -0.951   0.592  -1.500  1.00  0.00    -0.207 OA
BRANCH  25  28
ATOM     28  N   UNL     1       1.093  -0.023  -0.216  1.00  0.00    -0.225 NA
ATOM     29  H   UNL     1       0.862  -1.017  -0.206  1.00  0.00     0.137 HD
ATOM     30  H   UNL     1       0.684   0.429   0.602  1.00  0.00     0.137 HD
ENDBRANCH  25  28
ENDBRANCH  20  25
ENDBRANCH  15  19
ENDBRANCH   9  14
BRANCH  13  31
ATOM     31  O   UNL     1       6.284   3.240  -5.475  1.00  0.00    -0.507 OA
ATOM     32  H   UNL     1       7.219   3.278  -5.421  1.00  0.00     0.293 HD
ENDBRANCH  13  31
ENDBRANCH   6   8
ENDBRANCH   5   6
ENDBRANCH   4   5
ENDBRANCH   3   4
ENDBRANCH   2   3
ENDBRANCH   1   2
BRANCH   1  33
ATOM     33  C   UNL     1       3.770   5.998  -7.605  1.00  0.00     0.188 C 
BRANCH  33  34
ATOM     34  O   UNL     1       2.388   6.278  -7.563  1.00  0.00    -0.376 OA
BRANCH  34  35
ATOM     35  C   UNL     1       1.621   6.634  -8.701  1.00  0.00     0.202 C 
BRANCH  35  36
ATOM     36  C   UNL     1       2.176   7.079 -10.052  1.00  0.00     0.261 C 
BRANCH  36  37
ATOM     37  O   UNL     1       3.507   6.702 -10.314  1.00  0.00    -0.460 OA
BRANCH  37  38
ATOM     38  C   UNL     1       4.407   7.655 -10.007  1.00  0.00     0.338 C 
ATOM     39  O   UNL     1       4.209   8.707  -9.422  1.00  0.00    -0.246 OA
BRANCH  38  40
ATOM     40  C   UNL     1       5.697   7.271 -10.582  1.00  0.00     0.060 A 
ATOM     41  C   UNL     1       6.779   8.070 -10.213  1.00  0.00     0.016 A 
ATOM     42  C   UNL     1       5.657   6.546 -11.777  1.00  0.00     0.016 A 
ATOM     43  C   UNL     1       7.644   8.443 -11.209  1.00  0.00     0.010 A 
ATOM     44  C   UNL     1       6.503   6.937 -12.773  1.00  0.00     0.010 A 
ATOM     45  C   UNL     1       7.395   7.972 -12.502  1.00  0.00    -0.014 A 
BRANCH  45  46
ATOM     46  C   UNL     1       8.171   8.501 -13.595  1.00  0.00     0.031 A 
ATOM     47  C   UNL     1       9.513   7.892 -13.622  1.00  0.00     0.074 A 
ATOM     48  C   UNL     1       7.649   9.352 -14.498  1.00  0.00     0.049 A 
ATOM     49  N   UNL     1      10.626   8.468 -13.318  1.00  0.00    -0.248 NA
ATOM     50  C   UNL     1       9.607   6.426 -13.742  1.00  0.00     0.031 C 
ATOM     51  C   UNL     1       6.266   9.819 -14.629  1.00  0.00     0.029 A 
ATOM     52  N   UNL     1       8.260   9.912 -15.580  1.00  0.00    -0.354 N 
ATOM     53  C   UNL     1      11.589   7.478 -13.447  1.00  0.00     0.074 A 
ATOM     54  C   UNL     1      10.890   6.224 -13.445  1.00  0.00     0.031 C 
ATOM     55  C   UNL     1       6.096  10.385 -15.847  1.00  0.00     0.029 A 
ATOM     56  C   UNL     1       7.374  10.427 -16.530  1.00  0.00     0.049 A 
ATOM     57  H   UNL     1       9.239   9.950 -15.682  1.00  0.00     0.167 HD
ATOM     58  C   UNL     1      12.836   7.795 -13.884  1.00  0.00     0.037 A 
ATOM     59  C   UNL     1       7.714  10.741 -17.810  1.00  0.00     0.037 A 
ATOM     60  C   UNL     1      13.085   9.209 -13.741  1.00  0.00     0.049 A 
ATOM     61  C   UNL     1       9.194  10.934 -17.823  1.00  0.00     0.074 A 
ATOM     62  C   UNL     1      13.106  10.077 -12.666  1.00  0.00     0.029 A 
ATOM     63  N   UNL     1      12.939   9.993 -14.859  1.00  0.00    -0.354 N 
ATOM     64  N   UNL     1       9.790  11.918 -17.206  1.00  0.00    -0.248 NA
ATOM     65  C   UNL     1      10.015   9.752 -18.058  1.00  0.00     0.031 C 
ATOM     66  C   UNL     1      12.498  11.275 -13.145  1.00  0.00     0.029 A 
ATOM     67  C   UNL     1      12.228  11.111 -14.504  1.00  0.00     0.049 A 
ATOM     68  H   UNL     1      13.284   9.789 -15.758  1.00  0.00     0.167 HD
ATOM     69  C   UNL     1      10.880  11.327 -16.582  1.00  0.00     0.074 A 
ATOM     70  C   UNL     1      10.991   9.997 -17.179  1.00  0.00     0.031 C 
ATOM     71  C   UNL     1      11.392  11.841 -15.425  1.00  0.00     0.037 A 
BRANCH  58  72
ATOM     72  C   UNL     1      13.627   6.923 -14.824  1.00  0.00     0.064 A 
ATOM     73  C   UNL     1      14.957   7.282 -15.110  1.00  0.00     0.173 A 
ATOM     74  C   UNL     1      13.062   5.946 -15.676  1.00  0.00     0.173 A 
ATOM     75  F   UNL     1      15.583   8.216 -14.379  1.00  0.00    -0.203 F 
ATOM     76  C   UNL     1      15.637   6.761 -16.213  1.00  0.00     0.198 A 
ATOM     77  C   UNL     1      13.764   5.386 -16.739  1.00  0.00     0.198 A 
ATOM     78  F   UNL     1      11.781   5.572 -15.601  1.00  0.00    -0.203 F 
ATOM     79  F   UNL     1      16.852   7.230 -16.523  1.00  0.00    -0.200 F 
ATOM     80  C   UNL     1      15.039   5.818 -17.029  1.00  0.00     0.200 A 
ATOM     81  F   UNL     1      13.155   4.490 -17.528  1.00  0.00    -0.200 F 
ATOM     82  F   UNL     1      15.666   5.364 -18.121  1.00  0.00    -0.200 F 
ENDBRANCH  58  72
BRANCH  59  83
ATOM     83  C   UNL     1       6.945  10.476 -19.057  1.00  0.00     0.064 A 
ATOM     84  C   UNL     1       7.370  10.995 -20.294  1.00  0.00     0.173 A 
ATOM     85  C   UNL     1       5.956   9.474 -19.115  1.00  0.00     0.173 A 
ATOM     86  F   UNL     1       8.337  11.923 -20.341  1.00  0.00    -0.203 F 
ATOM     87  C   UNL     1       6.867  10.512 -21.510  1.00  0.00     0.198 A 
ATOM     88  C   UNL     1       5.453   8.997 -20.327  1.00  0.00     0.198 A 
ATOM     89  F   UNL     1       5.526   8.863 -18.003  1.00  0.00    -0.203 F 
ATOM     90  F   UNL     1       7.348  10.983 -22.669  1.00  0.00    -0.200 F 
ATOM     91  C   UNL     1       5.920   9.503 -21.525  1.00  0.00     0.200 A 
ATOM     92  F   UNL     1       4.562   7.995 -20.325  1.00  0.00    -0.200 F 
ATOM     93  F   UNL     1       5.489   8.990 -22.686  1.00  0.00    -0.200 F 
ENDBRANCH  59  83
BRANCH  71  94
ATOM     94  C   UNL     1      10.902  13.189 -14.974  1.00  0.00     0.064 A 
ATOM     95  C   UNL     1       9.572  13.473 -14.617  1.00  0.00     0.173 A 
ATOM     96  C   UNL     1      11.855  14.191 -14.752  1.00  0.00     0.173 A 
ATOM     97  F   UNL     1       8.620  12.535 -14.700  1.00  0.00    -0.203 F 
ATOM     98  C   UNL     1       9.211  14.721 -14.107  1.00  0.00     0.198 A 
ATOM     99  C   UNL     1      11.500  15.420 -14.207  1.00  0.00     0.198 A 
ATOM    100  F   UNL     1      13.149  13.956 -15.020  1.00  0.00    -0.203 F 
ATOM    101  F   UNL     1       7.933  14.973 -13.785  1.00  0.00    -0.200 F 
ATOM    102  C   UNL     1      10.178  15.690 -13.896  1.00  0.00     0.200 A 
ATOM    103  F   UNL     1      12.448  16.334 -13.956  1.00  0.00    -0.200 F 
ATOM    104  F   UNL     1       9.841  16.875 -13.368  1.00  0.00    -0.200 F 
ENDBRANCH  71  94
ENDBRANCH  45  46
ENDBRANCH  38  40
ENDBRANCH  37  38
ENDBRANCH  36  37
ENDBRANCH  35  36
ENDBRANCH  34  35
ENDBRANCH  33  34
ENDBRANCH   1  33
TORSDOF 22
