REMARK SMILES O=C(OCCOCCOCCOC(=O)[C@H](c1ccccc1)N1C(=O)/C(=C/c2ccc(-c3nc4ccccc4s3)o2)SC1=S)c1ccc(-c2c3nc(c(-c4c(F)c(F)c(F)c(F)c4F)c4ccc([nH]4)c(-c4c(F)c(F)c(F)c(F)c4F)c4nc(c(-c5c(F)c(F)c(F)c(F)c5F)c5ccc2[nH]5)C=C4)C=C3)cc1
REMARK SMILES IDX 8 1 7 2 6 3 5 4 4 5 3 6 2 7 1 8 44 9 45 10 106 11 46 12
REMARK SMILES IDX 105 13 47 14 48 15 49 16 99 17 50 18 104 19 98 20 100 21
REMARK SMILES IDX 51 22 103 23 97 24 96 25 52 27 84 28 64 29 83 30 65 31 68 32
REMARK SMILES IDX 82 33 101 34 66 35 67 36 81 38 102 39 69 40 53 41 54 42
REMARK SMILES IDX 62 43 55 44 56 45 60 46 63 47 57 48 58 49 61 50 59 51 85 52
REMARK SMILES IDX 86 53 94 54 87 55 88 56 92 57 95 58 89 59 90 60 93 61 91 62
REMARK SMILES IDX 70 63 71 64 79 65 72 66 73 67 77 68 80 69 74 70 75 71 78 72
REMARK SMILES IDX 76 73 9 74 10 75 11 76 12 77 13 78 14 79 15 80 22 81 23 82
REMARK SMILES IDX 42 83 24 84 25 85 41 86 43 87 26 88 27 89 28 90 40 91 29 92
REMARK SMILES IDX 30 93 31 94 32 95 39 96 33 97 38 98 34 99 37 100 35 101
REMARK SMILES IDX 36 102 16 103 17 104 21 105 18 106 20 107 19 108
REMARK H PARENT 100 26 68 37
REMARK Flexibility Score: inf
ROOT
ATOM      1  C   UNL     1       5.754   1.930   4.407  1.00  0.00     0.188 C 
ENDROOT
BRANCH   1   2
ATOM      2  C   UNL     1       6.150   1.479   3.005  1.00  0.00     0.188 C 
BRANCH   2   3
ATOM      3  O   UNL     1       6.820   0.220   2.992  1.00  0.00    -0.376 OA
BRANCH   3   4
ATOM      4  C   UNL     1       6.910  -0.410   1.715  1.00  0.00     0.202 C 
BRANCH   4   5
ATOM      5  C   UNL     1       7.873   0.250   0.709  1.00  0.00     0.261 C 
BRANCH   5   6
ATOM      6  O   UNL     1       8.008   1.683   0.833  1.00  0.00    -0.460 OA
BRANCH   6   7
ATOM      7  C   UNL     1       7.447   2.700   0.149  1.00  0.00     0.338 C 
ATOM      8  O   UNL     1       7.898   3.837   0.277  1.00  0.00    -0.246 OA
BRANCH   7   9
ATOM      9  C   UNL     1       6.246   2.526  -0.706  1.00  0.00     0.060 A 
ATOM     10  C   UNL     1       5.274   1.552  -0.501  1.00  0.00     0.016 A 
ATOM     11  C   UNL     1       5.998   3.501  -1.674  1.00  0.00     0.016 A 
ATOM     12  C   UNL     1       4.133   1.461  -1.291  1.00  0.00     0.010 A 
ATOM     13  C   UNL     1       4.801   3.486  -2.392  1.00  0.00     0.010 A 
ATOM     14  C   UNL     1       3.868   2.443  -2.233  1.00  0.00    -0.014 A 
BRANCH  14  15
ATOM     15  C   UNL     1       2.690   2.349  -3.134  1.00  0.00     0.031 A 
ATOM     16  C   UNL     1       2.952   2.386  -4.611  1.00  0.00     0.074 A 
ATOM     17  C   UNL     1       1.426   2.257  -2.672  1.00  0.00     0.049 A 
ATOM     18  N   UNL     1       2.122   2.557  -5.604  1.00  0.00    -0.248 NA
ATOM     19  C   UNL     1       4.360   2.236  -5.022  1.00  0.00     0.031 C 
ATOM     20  C   UNL     1       1.025   2.112  -1.273  1.00  0.00     0.029 A 
ATOM     21  N   UNL     1       0.227   2.324  -3.341  1.00  0.00    -0.354 N 
ATOM     22  C   UNL     1       2.913   2.542  -6.742  1.00  0.00     0.074 A 
ATOM     23  C   UNL     1       4.291   2.499  -6.314  1.00  0.00     0.031 C 
ATOM     24  C   UNL     1      -0.311   2.201  -1.174  1.00  0.00     0.029 A 
ATOM     25  C   UNL     1      -0.862   2.409  -2.504  1.00  0.00     0.049 A 
ATOM     26  H   UNL     1       0.155   2.312  -4.322  1.00  0.00     0.167 HD
ATOM     27  C   UNL     1       2.527   2.469  -8.036  1.00  0.00     0.037 A 
ATOM     28  C   UNL     1      -2.155   2.658  -2.781  1.00  0.00     0.037 A 
ATOM     29  C   UNL     1       1.155   2.442  -8.447  1.00  0.00     0.049 A 
ATOM     30  C   UNL     1      -2.567   2.740  -4.224  1.00  0.00     0.074 A 
ATOM     31  C   UNL     1       0.634   2.313  -9.719  1.00  0.00     0.029 A 
ATOM     32  N   UNL     1       0.080   2.536  -7.573  1.00  0.00    -0.354 N 
ATOM     33  N   UNL     1      -1.819   2.669  -5.298  1.00  0.00    -0.248 NA
ATOM     34  C   UNL     1      -4.002   2.879  -4.497  1.00  0.00     0.031 C 
ATOM     35  C   UNL     1      -0.761   2.365  -9.618  1.00  0.00     0.029 A 
ATOM     36  C   UNL     1      -1.107   2.483  -8.280  1.00  0.00     0.049 A 
ATOM     37  H   UNL     1       0.152   2.627  -6.596  1.00  0.00     0.167 HD
ATOM     38  C   UNL     1      -2.696   2.668  -6.372  1.00  0.00     0.074 A 
ATOM     39  C   UNL     1      -4.030   2.778  -5.818  1.00  0.00     0.031 C 
ATOM     40  C   UNL     1      -2.423   2.554  -7.695  1.00  0.00     0.037 A 
BRANCH  27  41
ATOM     41  C   UNL     1       3.623   2.367  -9.054  1.00  0.00     0.064 A 
ATOM     42  C   UNL     1       4.453   1.234  -9.120  1.00  0.00     0.173 A 
ATOM     43  C   UNL     1       3.906   3.438  -9.911  1.00  0.00     0.173 A 
ATOM     44  F   UNL     1       4.241   0.193  -8.300  1.00  0.00    -0.203 F 
ATOM     45  C   UNL     1       5.564   1.207  -9.957  1.00  0.00     0.198 A 
ATOM     46  C   UNL     1       4.997   3.391 -10.775  1.00  0.00     0.198 A 
ATOM     47  F   UNL     1       3.147   4.543  -9.886  1.00  0.00    -0.203 F 
ATOM     48  F   UNL     1       6.398   0.158  -9.925  1.00  0.00    -0.200 F 
ATOM     49  C   UNL     1       5.835   2.285 -10.784  1.00  0.00     0.200 A 
ATOM     50  F   UNL     1       5.258   4.431 -11.579  1.00  0.00    -0.200 F 
ATOM     51  F   UNL     1       6.918   2.268 -11.573  1.00  0.00    -0.200 F 
ENDBRANCH  27  41
BRANCH  28  52
ATOM     52  C   UNL     1      -3.152   2.820  -1.689  1.00  0.00     0.064 A 
ATOM     53  C   UNL     1      -4.119   1.837  -1.437  1.00  0.00     0.173 A 
ATOM     54  C   UNL     1      -3.189   3.984  -0.906  1.00  0.00     0.173 A 
ATOM     55  F   UNL     1      -4.132   0.712  -2.167  1.00  0.00    -0.203 F 
ATOM     56  C   UNL     1      -5.108   2.027  -0.473  1.00  0.00     0.198 A 
ATOM     57  C   UNL     1      -4.168   4.165   0.071  1.00  0.00     0.198 A 
ATOM     58  F   UNL     1      -2.280   4.950  -1.098  1.00  0.00    -0.203 F 
ATOM     59  F   UNL     1      -6.051   1.092  -0.293  1.00  0.00    -0.200 F 
ATOM     60  C   UNL     1      -5.134   3.192   0.278  1.00  0.00     0.200 A 
ATOM     61  F   UNL     1      -4.187   5.290   0.799  1.00  0.00    -0.200 F 
ATOM     62  F   UNL     1      -6.096   3.381   1.192  1.00  0.00    -0.200 F 
ENDBRANCH  28  52
BRANCH  40  63
ATOM     63  C   UNL     1      -3.589   2.445  -8.627  1.00  0.00     0.064 A 
ATOM     64  C   UNL     1      -4.402   3.545  -8.928  1.00  0.00     0.173 A 
ATOM     65  C   UNL     1      -3.852   1.229  -9.276  1.00  0.00     0.173 A 
ATOM     66  F   UNL     1      -4.202   4.721  -8.314  1.00  0.00    -0.203 F 
ATOM     67  C   UNL     1      -5.447   3.428  -9.839  1.00  0.00     0.198 A 
ATOM     68  C   UNL     1      -4.874   1.125 -10.211  1.00  0.00     0.198 A 
ATOM     69  F   UNL     1      -3.098   0.148  -9.020  1.00  0.00    -0.203 F 
ATOM     70  F   UNL     1      -6.239   4.480 -10.083  1.00  0.00    -0.200 F 
ATOM     71  C   UNL     1      -5.674   2.223 -10.489  1.00  0.00     0.200 A 
ATOM     72  F   UNL     1      -5.080  -0.035 -10.850  1.00  0.00    -0.200 F 
ATOM     73  F   UNL     1      -6.667   2.119 -11.381  1.00  0.00    -0.200 F 
ENDBRANCH  40  63
ENDBRANCH  14  15
ENDBRANCH   7   9
ENDBRANCH   6   7
ENDBRANCH   5   6
ENDBRANCH   4   5
ENDBRANCH   3   4
ENDBRANCH   2   3
ENDBRANCH   1   2
BRANCH   1  74
ATOM     74  O   UNL     1       5.132   0.997   5.280  1.00  0.00    -0.376 OA
BRANCH  74  75
ATOM     75  C   UNL     1       4.288   0.009   4.720  1.00  0.00     0.202 C 
BRANCH  75  76
ATOM     76  C   UNL     1       2.925   0.478   4.199  1.00  0.00     0.261 C 
BRANCH  76  77
ATOM     77  O   UNL     1       2.930   1.766   3.544  1.00  0.00    -0.461 OA
BRANCH  77  78
ATOM     78  C   UNL     1       1.875   2.562   3.889  1.00  0.00     0.334 C 
ATOM     79  O   UNL     1       0.964   2.207   4.636  1.00  0.00    -0.249 OA
BRANCH  78  80
ATOM     80  C   UNL     1       1.923   3.986   3.337  1.00  0.00     0.232 C 
BRANCH  80  81
ATOM     81  N   UNL     1       2.227   5.123   4.230  1.00  0.00    -0.274 N 
ATOM     82  C   UNL     1       1.761   6.361   3.811  1.00  0.00     0.267 C 
ATOM     83  C   UNL     1       3.084   5.154   5.302  1.00  0.00     0.149 C 
ATOM     84  O   UNL     1       0.835   6.566   3.035  1.00  0.00    -0.268 OA
ATOM     85  C   UNL     1       2.564   7.442   4.417  1.00  0.00     0.084 C 
ATOM     86  S   UNL     1       3.684   6.787   5.535  1.00  0.00    -0.054 SA
ATOM     87  S   UNL     1       3.478   3.951   6.376  1.00  0.00    -0.052 S 
ATOM     88  C   UNL     1       2.376   8.719   4.068  1.00  0.00     0.068 C 
BRANCH  88  89
ATOM     89  C   UNL     1       3.148   9.766   4.622  1.00  0.00     0.129 A 
ATOM     90  C   UNL     1       4.513   9.997   4.537  1.00  0.00     0.051 A 
ATOM     91  O   UNL     1       2.596  10.752   5.397  1.00  0.00    -0.454 OA
ATOM     92  C   UNL     1       4.793  11.142   5.306  1.00  0.00     0.054 A 
ATOM     93  C   UNL     1       3.593  11.579   5.834  1.00  0.00     0.163 A 
BRANCH  93  94
ATOM     94  C   UNL     1       3.397  12.695   6.706  1.00  0.00     0.160 A 
ATOM     95  N   UNL     1       4.266  13.680   6.746  1.00  0.00    -0.233 NA
ATOM     96  S   UNL     1       2.088  12.798   7.804  1.00  0.00    -0.111 S 
ATOM     97  C   UNL     1       3.914  14.569   7.738  1.00  0.00     0.082 A 
ATOM     98  C   UNL     1       2.764  14.242   8.460  1.00  0.00     0.055 A 
ATOM     99  C   UNL     1       4.629  15.733   8.075  1.00  0.00     0.030 A 
ATOM    100  C   UNL     1       2.320  15.031   9.533  1.00  0.00     0.021 A 
ATOM    101  C   UNL     1       4.197  16.524   9.140  1.00  0.00     0.002 A 
ATOM    102  C   UNL     1       3.061  16.171   9.864  1.00  0.00     0.002 A 
ENDBRANCH  93  94
ENDBRANCH  88  89
ENDBRANCH  80  81
BRANCH  80 103
ATOM    103  C   UNL     1       2.501   4.252   1.934  1.00  0.00    -0.014 A 
ATOM    104  C   UNL     1       3.833   4.636   1.724  1.00  0.00     0.006 A 
ATOM    105  C   UNL     1       1.578   4.463   0.886  1.00  0.00     0.006 A 
ATOM    106  C   UNL     1       4.193   5.304   0.545  1.00  0.00     0.000 A 
ATOM    107  C   UNL     1       1.945   5.113  -0.291  1.00  0.00     0.000 A 
ATOM    108  C   UNL     1       3.247   5.560  -0.449  1.00  0.00     0.000 A 
ENDBRANCH  80 103
ENDBRANCH  78  80
ENDBRANCH  77  78
ENDBRANCH  76  77
ENDBRANCH  75  76
ENDBRANCH  74  75
ENDBRANCH   1  74
TORSDOF 21
