REMARK SMILES C[C@]12C(=O)N(c3ccc(C(=O)OCCOCCOCCOC(=O)c4ccc(-c5c6nc(c(-c7c(F)c(F)c(F)c(F)c7F)c7ccc([nH]7)c(-c7c(F)c(F)c(F)c(F)c7F)c7nc(c(-c8c(F)c(F)c(F)c(F)c8F)c8ccc5[nH]8)C=C7)C=C6)cc4)cc3)C(=O)[C@H]1[C@H]1c3ccccc3[C@@H]2c2ccccc21
REMARK SMILES IDX 17 1 16 2 15 3 14 4 13 5 12 6 10 7 11 8 9 9 6 10 7 11 88 12
REMARK SMILES IDX 8 13 87 14 5 15 1 16 2 17 3 18 91 19 99 20 4 21 89 22 92 23
REMARK SMILES IDX 98 24 100 25 90 26 93 27 105 28 97 29 101 30 94 31 104 32
REMARK SMILES IDX 96 33 102 34 95 35 103 36 18 37 19 38 20 39 21 40 22 41
REMARK SMILES IDX 23 42 24 43 25 44 86 45 26 46 85 47 27 48 28 49 29 50 79 51
REMARK SMILES IDX 30 52 84 53 78 54 80 55 31 56 83 57 77 58 76 59 32 61 64 62
REMARK SMILES IDX 44 63 63 64 45 65 48 66 62 67 81 68 46 69 47 70 61 72 82 73
REMARK SMILES IDX 49 74 33 75 34 76 42 77 35 78 36 79 40 80 43 81 37 82 38 83
REMARK SMILES IDX 41 84 39 85 65 86 66 87 74 88 67 89 68 90 72 91 75 92 69 93
REMARK SMILES IDX 70 94 73 95 71 96 50 97 51 98 59 99 52 100 53 101 57 102
REMARK SMILES IDX 60 103 54 104 55 105 58 106 56 107
REMARK H PARENT 80 60 48 71
REMARK Flexibility Score: inf
ROOT
ATOM      1  C   UNL     1      -4.950  -5.557  -4.737  1.00  0.00     0.188 C 
ENDROOT
BRANCH   1   2
ATOM      2  C   UNL     1      -4.236  -6.843  -5.205  1.00  0.00     0.188 C 
BRANCH   2   3
ATOM      3  O   UNL     1      -5.008  -7.975  -5.585  1.00  0.00    -0.376 OA
BRANCH   3   4
ATOM      4  C   UNL     1      -6.025  -8.448  -4.705  1.00  0.00     0.202 C 
BRANCH   4   5
ATOM      5  C   UNL     1      -5.681  -8.698  -3.228  1.00  0.00     0.261 C 
BRANCH   5   6
ATOM      6  O   UNL     1      -5.214  -7.531  -2.523  1.00  0.00    -0.460 OA
BRANCH   6   7
ATOM      7  C   UNL     1      -3.985  -7.641  -1.961  1.00  0.00     0.338 C 
ATOM      8  O   UNL     1      -3.275  -8.633  -1.933  1.00  0.00    -0.246 OA
BRANCH   7   9
ATOM      9  C   UNL     1      -3.474  -6.308  -1.576  1.00  0.00     0.060 A 
ATOM     10  C   UNL     1      -2.267  -3.870  -0.800  1.00  0.00     0.052 A 
ATOM     11  C   UNL     1      -1.709  -4.677  -1.811  1.00  0.00     0.028 A 
ATOM     12  C   UNL     1      -3.497  -4.271  -0.258  1.00  0.00     0.028 A 
ATOM     13  C   UNL     1      -2.275  -5.902  -2.159  1.00  0.00     0.018 A 
ATOM     14  C   UNL     1      -4.118  -5.469  -0.666  1.00  0.00     0.018 A 
BRANCH  10  15
ATOM     15  N   UNL     1      -1.476  -2.813  -0.255  1.00  0.00    -0.250 N 
ATOM     16  C   UNL     1       0.958  -0.254  -0.314  1.00  0.00     0.024 C 
ATOM     17  C   UNL     1       0.573  -1.704   0.043  1.00  0.00     0.071 C 
ATOM     18  C   UNL     1      -0.437  -2.231  -0.942  1.00  0.00     0.241 C 
ATOM     19  C   UNL     1      -0.155  -1.785   1.419  1.00  0.00     0.107 C 
ATOM     20  C   UNL     1       1.775  -2.723   0.012  1.00  0.00     0.066 C 
ATOM     21  O   UNL     1      -0.279  -2.164  -2.156  1.00  0.00    -0.273 OA
ATOM     22  C   UNL     1      -1.506  -2.399   1.064  1.00  0.00     0.238 C 
ATOM     23  C   UNL     1       0.670  -2.680   2.407  1.00  0.00     0.063 C 
ATOM     24  C   UNL     1       1.266  -4.100   0.485  1.00  0.00    -0.036 A 
ATOM     25  C   UNL     1       2.728  -2.247   1.095  1.00  0.00    -0.036 A 
ATOM     26  O   UNL     1      -2.410  -2.514   1.881  1.00  0.00    -0.274 OA
ATOM     27  C   UNL     1       0.679  -4.073   1.779  1.00  0.00    -0.036 A 
ATOM     28  C   UNL     1       2.133  -2.196   2.384  1.00  0.00    -0.036 A 
ATOM     29  C   UNL     1       1.275  -5.276  -0.250  1.00  0.00     0.005 A 
ATOM     30  C   UNL     1       4.068  -1.943   0.891  1.00  0.00     0.005 A 
ATOM     31  C   UNL     1       0.088  -5.204   2.326  1.00  0.00     0.004 A 
ATOM     32  C   UNL     1       2.913  -1.851   3.478  1.00  0.00     0.004 A 
ATOM     33  C   UNL     1       0.665  -6.410   0.295  1.00  0.00     0.000 A 
ATOM     34  C   UNL     1       4.838  -1.587   1.993  1.00  0.00     0.000 A 
ATOM     35  C   UNL     1       0.075  -6.374   1.569  1.00  0.00     0.000 A 
ATOM     36  C   UNL     1       4.266  -1.545   3.274  1.00  0.00     0.000 A 
ENDBRANCH  10  15
ENDBRANCH   7   9
ENDBRANCH   6   7
ENDBRANCH   5   6
ENDBRANCH   4   5
ENDBRANCH   3   4
ENDBRANCH   2   3
ENDBRANCH   1   2
BRANCH   1  37
ATOM     37  O   UNL     1      -6.350  -5.660  -4.682  1.00  0.00    -0.376 OA
BRANCH  37  38
ATOM     38  C   UNL     1      -7.148  -5.159  -5.735  1.00  0.00     0.202 C 
BRANCH  38  39
ATOM     39  C   UNL     1      -6.692  -5.008  -7.200  1.00  0.00     0.261 C 
BRANCH  39  40
ATOM     40  O   UNL     1      -5.309  -5.182  -7.508  1.00  0.00    -0.460 OA
BRANCH  40  41
ATOM     41  C   UNL     1      -4.551  -4.061  -7.582  1.00  0.00     0.338 C 
ATOM     42  O   UNL     1      -4.891  -2.917  -7.336  1.00  0.00    -0.246 OA
BRANCH  41  43
ATOM     43  C   UNL     1      -3.165  -4.487  -7.856  1.00  0.00     0.060 A 
ATOM     44  C   UNL     1      -2.866  -5.151  -9.047  1.00  0.00     0.016 A 
ATOM     45  C   UNL     1      -2.167  -4.252  -6.901  1.00  0.00     0.016 A 
ATOM     46  C   UNL     1      -1.557  -5.571  -9.288  1.00  0.00     0.010 A 
ATOM     47  C   UNL     1      -0.859  -4.684  -7.140  1.00  0.00     0.010 A 
ATOM     48  C   UNL     1      -0.542  -5.332  -8.344  1.00  0.00    -0.014 A 
BRANCH  48  49
ATOM     49  C   UNL     1       0.868  -5.619  -8.703  1.00  0.00     0.031 A 
ATOM     50  C   UNL     1       1.584  -6.839  -8.210  1.00  0.00     0.074 A 
ATOM     51  C   UNL     1       1.496  -4.753  -9.520  1.00  0.00     0.049 A 
ATOM     52  N   UNL     1       2.778  -7.274  -8.530  1.00  0.00    -0.248 NA
ATOM     53  C   UNL     1       0.879  -7.677  -7.231  1.00  0.00     0.031 C 
ATOM     54  C   UNL     1       0.904  -3.520 -10.041  1.00  0.00     0.029 A 
ATOM     55  N   UNL     1       2.753  -4.780 -10.068  1.00  0.00    -0.354 N 
ATOM     56  C   UNL     1       2.958  -8.452  -7.819  1.00  0.00     0.074 A 
ATOM     57  C   UNL     1       1.772  -8.635  -7.006  1.00  0.00     0.031 C 
ATOM     58  C   UNL     1       1.783  -2.926 -10.861  1.00  0.00     0.029 A 
ATOM     59  C   UNL     1       3.007  -3.722 -10.904  1.00  0.00     0.049 A 
ATOM     60  H   UNL     1       3.409  -5.489  -9.879  1.00  0.00     0.167 HD
ATOM     61  C   UNL     1       4.009  -9.307  -7.863  1.00  0.00     0.037 A 
ATOM     62  C   UNL     1       4.100  -3.428 -11.634  1.00  0.00     0.037 A 
ATOM     63  C   UNL     1       5.194  -9.108  -8.661  1.00  0.00     0.049 A 
ATOM     64  C   UNL     1       5.273  -4.367 -11.616  1.00  0.00     0.074 A 
ATOM     65  C   UNL     1       6.296  -9.938  -8.789  1.00  0.00     0.029 A 
ATOM     66  N   UNL     1       5.441  -7.998  -9.457  1.00  0.00    -0.354 N 
ATOM     67  N   UNL     1       5.402  -5.516 -11.000  1.00  0.00    -0.248 NA
ATOM     68  C   UNL     1       6.450  -3.972 -12.403  1.00  0.00     0.031 C 
ATOM     69  C   UNL     1       7.230  -9.306  -9.616  1.00  0.00     0.029 A 
ATOM     70  C   UNL     1       6.689  -8.109 -10.053  1.00  0.00     0.049 A 
ATOM     71  H   UNL     1       4.821  -7.244  -9.581  1.00  0.00     0.167 HD
ATOM     72  C   UNL     1       6.661  -5.992 -11.340  1.00  0.00     0.074 A 
ATOM     73  C   UNL     1       7.249  -5.017 -12.234  1.00  0.00     0.031 C 
ATOM     74  C   UNL     1       7.271  -7.135 -10.943  1.00  0.00     0.037 A 
BRANCH  61  75
ATOM     75  C   UNL     1       3.932 -10.561  -7.039  1.00  0.00     0.064 A 
ATOM     76  C   UNL     1       3.074 -11.613  -7.395  1.00  0.00     0.173 A 
ATOM     77  C   UNL     1       4.798 -10.762  -5.952  1.00  0.00     0.173 A 
ATOM     78  F   UNL     1       2.228 -11.473  -8.427  1.00  0.00    -0.203 F 
ATOM     79  C   UNL     1       3.079 -12.813  -6.689  1.00  0.00     0.198 A 
ATOM     80  C   UNL     1       4.819 -11.973  -5.266  1.00  0.00     0.198 A 
ATOM     81  F   UNL     1       5.649  -9.795  -5.579  1.00  0.00    -0.203 F 
ATOM     82  F   UNL     1       2.236 -13.796  -7.036  1.00  0.00    -0.200 F 
ATOM     83  C   UNL     1       3.958 -12.996  -5.632  1.00  0.00     0.200 A 
ATOM     84  F   UNL     1       5.684 -12.156  -4.258  1.00  0.00    -0.200 F 
ATOM     85  F   UNL     1       3.978 -14.161  -4.970  1.00  0.00    -0.200 F 
ENDBRANCH  61  75
BRANCH  62  86
ATOM     86  C   UNL     1       4.109  -2.205 -12.477  1.00  0.00     0.064 A 
ATOM     87  C   UNL     1       4.085  -2.297 -13.875  1.00  0.00     0.173 A 
ATOM     88  C   UNL     1       4.117  -0.924 -11.906  1.00  0.00     0.173 A 
ATOM     89  F   UNL     1       4.096  -3.501 -14.467  1.00  0.00    -0.203 F 
ATOM     90  C   UNL     1       4.081  -1.154 -14.671  1.00  0.00     0.198 A 
ATOM     91  C   UNL     1       4.082   0.218 -12.701  1.00  0.00     0.198 A 
ATOM     92  F   UNL     1       4.134  -0.784 -10.572  1.00  0.00    -0.203 F 
ATOM     93  F   UNL     1       4.096  -1.270 -16.005  1.00  0.00    -0.200 F 
ATOM     94  C   UNL     1       4.071   0.102 -14.083  1.00  0.00     0.200 A 
ATOM     95  F   UNL     1       4.055   1.429 -12.130  1.00  0.00    -0.200 F 
ATOM     96  F   UNL     1       4.055   1.202 -14.849  1.00  0.00    -0.200 F 
ENDBRANCH  62  86
BRANCH  74  97
ATOM     97  C   UNL     1       8.648  -7.411 -11.478  1.00  0.00     0.064 A 
ATOM     98  C   UNL     1       9.762  -6.673 -11.052  1.00  0.00     0.173 A 
ATOM     99  C   UNL     1       8.866  -8.468 -12.376  1.00  0.00     0.173 A 
ATOM    100  F   UNL     1       9.606  -5.643 -10.206  1.00  0.00    -0.203 F 
ATOM    101  C   UNL     1      11.040  -6.972 -11.516  1.00  0.00     0.198 A 
ATOM    102  C   UNL     1      10.149  -8.784 -12.813  1.00  0.00     0.198 A 
ATOM    103  F   UNL     1       7.837  -9.209 -12.811  1.00  0.00    -0.203 F 
ATOM    104  F   UNL     1      12.084  -6.229 -11.124  1.00  0.00    -0.200 F 
ATOM    105  C   UNL     1      11.235  -8.034 -12.387  1.00  0.00     0.200 A 
ATOM    106  F   UNL     1      10.337  -9.820 -13.643  1.00  0.00    -0.200 F 
ATOM    107  F   UNL     1      12.468  -8.331 -12.819  1.00  0.00    -0.200 F 
ENDBRANCH  74  97
ENDBRANCH  48  49
ENDBRANCH  41  43
ENDBRANCH  40  41
ENDBRANCH  39  40
ENDBRANCH  38  39
ENDBRANCH  37  38
ENDBRANCH   1  37
TORSDOF 18
