REMARK SMILES O=C(OCCOCCOCCOC(=O)c1ccc(-c2ccc(F)c(C(F)(F)F)c2)cc1[N+](=O)[O-])c1ccc(-c2c3nc(c(-c4c(F)c(F)c(F)c(F)c4F)c4ccc([nH]4)c(-c4c(F)c(F)c(F)c(F)c4F)c4nc(c(-c5c(F)c(F)c(F)c(F)c5F)c5ccc2[nH]5)C=C4)C=C3)cc1
REMARK SMILES IDX 7 1 6 2 5 3 4 4 3 5 2 6 1 7 35 8 36 9 97 10 37 11 96 12
REMARK SMILES IDX 38 13 39 14 40 15 90 16 41 17 95 18 89 19 91 20 42 21 94 22
REMARK SMILES IDX 88 23 87 24 43 26 75 27 55 28 74 29 56 30 59 31 73 32 92 33
REMARK SMILES IDX 57 34 58 35 72 37 93 38 60 39 44 40 45 41 53 42 46 43 47 44
REMARK SMILES IDX 51 45 54 46 48 47 49 48 52 49 50 50 76 51 77 52 85 53 78 54
REMARK SMILES IDX 79 55 83 56 86 57 80 58 81 59 84 60 82 61 61 62 62 63 70 64
REMARK SMILES IDX 63 65 64 66 68 67 71 68 65 69 66 70 69 71 67 72 8 73 9 74
REMARK SMILES IDX 10 75 11 76 12 77 13 78 14 79 15 80 16 81 31 82 17 83 30 84
REMARK SMILES IDX 18 85 32 86 33 87 34 88 19 89 20 90 29 91 21 92 24 93 22 94
REMARK SMILES IDX 23 95 25 96 26 97 27 98 28 99
REMARK H PARENT 91 25 59 36
REMARK Flexibility Score: inf
ROOT
ATOM      1  C   UNL     1       2.561  -2.228  -0.420  1.00  0.00     0.188 C 
ENDROOT
BRANCH   1   2
ATOM      2  O   UNL     1       3.803  -1.556  -0.679  1.00  0.00    -0.376 OA
BRANCH   2   3
ATOM      3  C   UNL     1       4.714  -1.599   0.426  1.00  0.00     0.202 C 
BRANCH   3   4
ATOM      4  C   UNL     1       4.577  -0.412   1.385  1.00  0.00     0.261 C 
BRANCH   4   5
ATOM      5  O   UNL     1       3.207  -0.018   1.552  1.00  0.00    -0.460 OA
BRANCH   5   6
ATOM      6  C   UNL     1       2.508   0.898   0.837  1.00  0.00     0.338 C 
ATOM      7  O   UNL     1       1.312   1.046   1.085  1.00  0.00    -0.246 OA
BRANCH   6   8
ATOM      8  C   UNL     1       3.112   1.799  -0.197  1.00  0.00     0.060 A 
ATOM      9  C   UNL     1       4.237   1.520  -0.978  1.00  0.00     0.016 A 
ATOM     10  C   UNL     1       2.453   3.022  -0.414  1.00  0.00     0.016 A 
ATOM     11  C   UNL     1       4.777   2.475  -1.840  1.00  0.00     0.010 A 
ATOM     12  C   UNL     1       2.955   3.964  -1.317  1.00  0.00     0.010 A 
ATOM     13  C   UNL     1       4.155   3.712  -1.992  1.00  0.00    -0.014 A 
BRANCH  13  14
ATOM     14  C   UNL     1       4.839   4.800  -2.721  1.00  0.00     0.031 A 
ATOM     15  C   UNL     1       5.457   5.908  -1.925  1.00  0.00     0.074 A 
ATOM     16  C   UNL     1       4.965   4.770  -4.058  1.00  0.00     0.049 A 
ATOM     17  N   UNL     1       5.996   7.025  -2.334  1.00  0.00    -0.248 NA
ATOM     18  C   UNL     1       5.488   5.719  -0.465  1.00  0.00     0.031 C 
ATOM     19  C   UNL     1       4.540   3.669  -4.915  1.00  0.00     0.029 A 
ATOM     20  N   UNL     1       5.486   5.692  -4.927  1.00  0.00    -0.354 N 
ATOM     21  C   UNL     1       6.424   7.673  -1.185  1.00  0.00     0.074 A 
ATOM     22  C   UNL     1       6.059   6.842  -0.060  1.00  0.00     0.031 C 
ATOM     23  C   UNL     1       4.789   3.992  -6.195  1.00  0.00     0.029 A 
ATOM     24  C   UNL     1       5.335   5.342  -6.245  1.00  0.00     0.049 A 
ATOM     25  H   UNL     1       5.925   6.524  -4.635  1.00  0.00     0.167 HD
ATOM     26  C   UNL     1       7.073   8.856  -1.084  1.00  0.00     0.037 A 
ATOM     27  C   UNL     1       5.567   6.050  -7.367  1.00  0.00     0.037 A 
ATOM     28  C   UNL     1       7.420   9.672  -2.214  1.00  0.00     0.049 A 
ATOM     29  C   UNL     1       6.139   7.431  -7.233  1.00  0.00     0.074 A 
ATOM     30  C   UNL     1       8.032  10.911  -2.235  1.00  0.00     0.029 A 
ATOM     31  N   UNL     1       7.176   9.320  -3.535  1.00  0.00    -0.354 N 
ATOM     32  N   UNL     1       6.485   8.072  -6.142  1.00  0.00    -0.248 NA
ATOM     33  C   UNL     1       6.355   8.186  -8.472  1.00  0.00     0.031 C 
ATOM     34  C   UNL     1       8.125  11.325  -3.569  1.00  0.00     0.029 A 
ATOM     35  C   UNL     1       7.608  10.326  -4.381  1.00  0.00     0.049 A 
ATOM     36  H   UNL     1       6.758   8.478  -3.827  1.00  0.00     0.167 HD
ATOM     37  C   UNL     1       6.997   9.290  -6.562  1.00  0.00     0.074 A 
ATOM     38  C   UNL     1       6.901   9.304  -8.009  1.00  0.00     0.031 C 
ATOM     39  C   UNL     1       7.512  10.299  -5.819  1.00  0.00     0.037 A 
BRANCH  26  40
ATOM     40  C   UNL     1       7.384   9.336   0.301  1.00  0.00     0.064 A 
ATOM     41  C   UNL     1       8.380   8.733   1.084  1.00  0.00     0.173 A 
ATOM     42  C   UNL     1       6.633  10.372   0.874  1.00  0.00     0.173 A 
ATOM     43  F   UNL     1       9.103   7.716   0.592  1.00  0.00    -0.203 F 
ATOM     44  C   UNL     1       8.587   9.126   2.405  1.00  0.00     0.198 A 
ATOM     45  C   UNL     1       6.859  10.779   2.186  1.00  0.00     0.198 A 
ATOM     46  F   UNL     1       5.663  10.973   0.170  1.00  0.00    -0.203 F 
ATOM     47  F   UNL     1       9.496   8.490   3.157  1.00  0.00    -0.200 F 
ATOM     48  C   UNL     1       7.827  10.148   2.954  1.00  0.00     0.200 A 
ATOM     49  F   UNL     1       6.123  11.765   2.716  1.00  0.00    -0.200 F 
ATOM     50  F   UNL     1       8.013  10.511   4.230  1.00  0.00    -0.200 F 
ENDBRANCH  26  40
BRANCH  27  51
ATOM     51  C   UNL     1       5.206   5.474  -8.688  1.00  0.00     0.064 A 
ATOM     52  C   UNL     1       6.180   5.062  -9.603  1.00  0.00     0.173 A 
ATOM     53  C   UNL     1       3.861   5.287  -9.041  1.00  0.00     0.173 A 
ATOM     54  F   UNL     1       7.479   5.237  -9.321  1.00  0.00    -0.203 F 
ATOM     55  C   UNL     1       5.823   4.482 -10.821  1.00  0.00     0.198 A 
ATOM     56  C   UNL     1       3.504   4.680 -10.243  1.00  0.00     0.198 A 
ATOM     57  F   UNL     1       2.891   5.673  -8.201  1.00  0.00    -0.203 F 
ATOM     58  F   UNL     1       6.775   4.117 -11.691  1.00  0.00    -0.200 F 
ATOM     59  C   UNL     1       4.486   4.283 -11.136  1.00  0.00     0.200 A 
ATOM     60  F   UNL     1       2.212   4.466 -10.523  1.00  0.00    -0.200 F 
ATOM     61  F   UNL     1       4.144   3.710 -12.297  1.00  0.00    -0.200 F 
ENDBRANCH  27  51
BRANCH  39  62
ATOM     62  C   UNL     1       8.066  11.475  -6.560  1.00  0.00     0.064 A 
ATOM     63  C   UNL     1       7.231  12.459  -7.103  1.00  0.00     0.173 A 
ATOM     64  C   UNL     1       9.454  11.646  -6.668  1.00  0.00     0.173 A 
ATOM     65  F   UNL     1       5.897  12.326  -7.036  1.00  0.00    -0.203 F 
ATOM     66  C   UNL     1       7.768  13.575  -7.738  1.00  0.00     0.198 A 
ATOM     67  C   UNL     1       9.987  12.772  -7.284  1.00  0.00     0.198 A 
ATOM     68  F   UNL     1      10.289  10.728  -6.158  1.00  0.00    -0.203 F 
ATOM     69  F   UNL     1       6.955  14.495  -8.274  1.00  0.00    -0.200 F 
ATOM     70  C   UNL     1       9.145  13.735  -7.820  1.00  0.00     0.200 A 
ATOM     71  F   UNL     1      11.316  12.929  -7.354  1.00  0.00    -0.200 F 
ATOM     72  F   UNL     1       9.660  14.816  -8.420  1.00  0.00    -0.200 F 
ENDBRANCH  39  62
ENDBRANCH  13  14
ENDBRANCH   6   8
ENDBRANCH   5   6
ENDBRANCH   4   5
ENDBRANCH   3   4
ENDBRANCH   2   3
ENDBRANCH   1   2
BRANCH   1  73
ATOM     73  C   UNL     1       2.054  -2.948  -1.673  1.00  0.00     0.188 C 
BRANCH  73  74
ATOM     74  O   UNL     1       2.786  -4.122  -2.025  1.00  0.00    -0.376 OA
BRANCH  74  75
ATOM     75  C   UNL     1       4.148  -3.942  -2.410  1.00  0.00     0.202 C 
BRANCH  75  76
ATOM     76  C   UNL     1       4.370  -3.346  -3.803  1.00  0.00     0.261 C 
BRANCH  76  77
ATOM     77  O   UNL     1       3.833  -2.018  -3.957  1.00  0.00    -0.459 OA
BRANCH  77  78
ATOM     78  C   UNL     1       3.024  -1.864  -5.022  1.00  0.00     0.345 C 
ATOM     79  O   UNL     1       2.635  -2.725  -5.812  1.00  0.00    -0.246 OA
BRANCH  78  80
ATOM     80  C   UNL     1       2.661  -0.462  -5.239  1.00  0.00     0.137 A 
ATOM     81  C   UNL     1       1.729   0.161  -4.401  1.00  0.00     0.023 A 
ATOM     82  C   UNL     1       3.044   0.174  -6.420  1.00  0.00     0.284 A 
ATOM     83  C   UNL     1       1.174   1.399  -4.765  1.00  0.00     0.010 A 
ATOM     84  C   UNL     1       2.458   1.389  -6.804  1.00  0.00     0.095 A 
ATOM     85  C   UNL     1       1.509   2.019  -5.982  1.00  0.00    -0.011 A 
BRANCH  82  86
ATOM     86  N   UNL     1       4.123  -0.363  -7.243  1.00  0.00     0.063 N 
ATOM     87  O   UNL     1       4.082  -0.121  -8.458  1.00  0.00    -0.258 OA
ATOM     88  O   UNL     1       5.061  -0.926  -6.664  1.00  0.00    -0.258 OA
ENDBRANCH  82  86
BRANCH  85  89
ATOM     89  C   UNL     1       0.913   3.301  -6.394  1.00  0.00    -0.017 A 
ATOM     90  C   UNL     1       0.983   4.435  -5.569  1.00  0.00     0.012 A 
ATOM     91  C   UNL     1       0.301   3.437  -7.656  1.00  0.00     0.025 A 
ATOM     92  C   UNL     1       0.472   5.663  -5.995  1.00  0.00     0.040 A 
ATOM     93  C   UNL     1      -0.214   4.670  -8.094  1.00  0.00     0.092 A 
ATOM     94  C   UNL     1      -0.118   5.770  -7.250  1.00  0.00     0.135 A 
ATOM     95  F   UNL     1      -0.587   6.960  -7.645  1.00  0.00    -0.206 F 
BRANCH  93  96
ATOM     96  C   UNL     1      -0.847   4.835  -9.443  1.00  0.00     0.419 C 
ATOM     97  F   UNL     1      -2.153   5.212  -9.371  1.00  0.00    -0.166 F 
ATOM     98  F   UNL     1      -0.223   5.765 -10.217  1.00  0.00    -0.166 F 
ATOM     99  F   UNL     1      -0.842   3.684 -10.176  1.00  0.00    -0.166 F 
ENDBRANCH  93  96
ENDBRANCH  85  89
ENDBRANCH  78  80
ENDBRANCH  77  78
ENDBRANCH  76  77
ENDBRANCH  75  76
ENDBRANCH  74  75
ENDBRANCH  73  74
ENDBRANCH   1  73
TORSDOF 20
