REMARK SMILES O=C(OCCOCCOCCOC(=O)c1ccc(-c2c3nc(c(-c4c(F)c(F)c(F)c(F)c4F)c4ccc([nH]4)c(-c4c(F)c(F)c(F)c(F)c4F)c4nc(c(-c5c(F)c(F)c(F)c(F)c5F)c5ccc2[nH]5)C=C4)C=C3)cc1)c1ccc(-c2ccc(/C=C3/SC(=S)N(c4ccccc4)C3=O)o2)cc1
REMARK SMILES IDX 7 1 6 2 5 3 4 4 3 5 2 6 1 7 78 8 79 9 102 10 80 11 101 12
REMARK SMILES IDX 81 13 82 14 83 15 100 16 84 17 85 18 86 19 87 20 88 21 98 22
REMARK SMILES IDX 89 23 91 24 99 25 90 26 92 27 93 28 97 29 94 30 96 31 95 32
REMARK SMILES IDX 8 33 9 34 10 35 11 36 12 37 13 38 14 39 15 40 16 41 77 42
REMARK SMILES IDX 17 43 76 44 18 45 19 46 20 47 70 48 21 49 75 50 69 51 71 52
REMARK SMILES IDX 22 53 74 54 68 55 67 56 23 58 55 59 35 60 54 61 36 62 39 63
REMARK SMILES IDX 53 64 72 65 37 66 38 67 52 69 73 70 40 71 24 72 25 73 33 74
REMARK SMILES IDX 26 75 27 76 31 77 34 78 28 79 29 80 32 81 30 82 56 83 57 84
REMARK SMILES IDX 65 85 58 86 59 87 63 88 66 89 60 90 61 91 64 92 62 93 41 94
REMARK SMILES IDX 42 95 50 96 43 97 44 98 48 99 51 100 45 101 46 102 49 103
REMARK SMILES IDX 47 104
REMARK H PARENT 71 57 39 68
REMARK Flexibility Score: inf
ROOT
ATOM      1  C   UNL     1       2.551   1.625   1.295  1.00  0.00     0.188 C 
ENDROOT
BRANCH   1   2
ATOM      2  O   UNL     1       3.696   0.764   1.339  1.00  0.00    -0.376 OA
BRANCH   2   3
ATOM      3  C   UNL     1       4.659   1.020   0.318  1.00  0.00     0.202 C 
BRANCH   3   4
ATOM      4  C   UNL     1       4.317   0.439  -1.058  1.00  0.00     0.261 C 
BRANCH   4   5
ATOM      5  O   UNL     1       2.920   0.145  -1.210  1.00  0.00    -0.460 OA
BRANCH   5   6
ATOM      6  C   UNL     1       2.339  -1.065  -1.013  1.00  0.00     0.338 C 
ATOM      7  O   UNL     1       1.136  -1.215  -1.195  1.00  0.00    -0.246 OA
BRANCH   6   8
ATOM      8  C   UNL     1       3.154  -2.254  -0.666  1.00  0.00     0.060 A 
ATOM      9  C   UNL     1       3.928  -2.331   0.493  1.00  0.00     0.016 A 
ATOM     10  C   UNL     1       3.027  -3.387  -1.478  1.00  0.00     0.016 A 
ATOM     11  C   UNL     1       4.627  -3.503   0.799  1.00  0.00     0.013 A 
ATOM     12  C   UNL     1       3.720  -4.564  -1.164  1.00  0.00     0.013 A 
ATOM     13  C   UNL     1       4.543  -4.629  -0.030  1.00  0.00     0.017 A 
BRANCH  13  14
ATOM     14  C   UNL     1       5.317  -5.826   0.268  1.00  0.00     0.134 A 
ATOM     15  C   UNL     1       5.944  -6.776  -0.506  1.00  0.00     0.051 A 
ATOM     16  O   UNL     1       5.540  -6.096   1.586  1.00  0.00    -0.457 OA
ATOM     17  C   UNL     1       6.569  -7.674   0.390  1.00  0.00     0.051 A 
ATOM     18  C   UNL     1       6.301  -7.241   1.677  1.00  0.00     0.128 A 
BRANCH  18  19
ATOM     19  C   UNL     1       6.737  -7.803   2.902  1.00  0.00     0.068 C 
ATOM     20  C   UNL     1       5.901  -8.251   3.834  1.00  0.00     0.084 C 
ATOM     21  S   UNL     1       6.423  -8.867   5.356  1.00  0.00    -0.054 SA
ATOM     22  C   UNL     1       4.435  -8.308   3.705  1.00  0.00     0.270 C 
ATOM     23  C   UNL     1       4.792  -9.228   5.880  1.00  0.00     0.152 C 
ATOM     24  N   UNL     1       3.919  -8.838   4.875  1.00  0.00    -0.261 N 
ATOM     25  O   UNL     1       3.820  -7.916   2.732  1.00  0.00    -0.268 OA
ATOM     26  S   UNL     1       4.521 -10.008   7.345  1.00  0.00    -0.051 S 
BRANCH  24  27
ATOM     27  C   UNL     1       2.546  -8.875   4.990  1.00  0.00     0.051 A 
ATOM     28  C   UNL     1       1.719  -9.155   3.940  1.00  0.00     0.027 A 
ATOM     29  C   UNL     1       1.990  -8.544   6.169  1.00  0.00     0.027 A 
ATOM     30  C   UNL     1       0.355  -9.104   4.164  1.00  0.00     0.002 A 
ATOM     31  C   UNL     1       0.656  -8.659   6.262  1.00  0.00     0.002 A 
ATOM     32  C   UNL     1      -0.257  -8.947   5.316  1.00  0.00     0.000 A 
ENDBRANCH  24  27
ENDBRANCH  18  19
ENDBRANCH  13  14
ENDBRANCH   6   8
ENDBRANCH   5   6
ENDBRANCH   4   5
ENDBRANCH   3   4
ENDBRANCH   2   3
ENDBRANCH   1   2
BRANCH   1  33
ATOM     33  C   UNL     1       2.034   1.903   2.710  1.00  0.00     0.188 C 
BRANCH  33  34
ATOM     34  O   UNL     1       2.826   2.825   3.461  1.00  0.00    -0.376 OA
BRANCH  34  35
ATOM     35  C   UNL     1       4.176   2.439   3.721  1.00  0.00     0.202 C 
BRANCH  35  36
ATOM     36  C   UNL     1       4.348   1.270   4.701  1.00  0.00     0.261 C 
BRANCH  36  37
ATOM     37  O   UNL     1       3.845   0.010   4.192  1.00  0.00    -0.460 OA
BRANCH  37  38
ATOM     38  C   UNL     1       3.213  -0.764   5.113  1.00  0.00     0.338 C 
ATOM     39  O   UNL     1       3.078  -0.516   6.297  1.00  0.00    -0.246 OA
BRANCH  38  40
ATOM     40  C   UNL     1       2.676  -2.027   4.539  1.00  0.00     0.060 A 
ATOM     41  C   UNL     1       1.467  -2.029   3.839  1.00  0.00     0.016 A 
ATOM     42  C   UNL     1       3.220  -3.248   4.954  1.00  0.00     0.016 A 
ATOM     43  C   UNL     1       0.759  -3.234   3.647  1.00  0.00     0.010 A 
ATOM     44  C   UNL     1       2.521  -4.458   4.733  1.00  0.00     0.010 A 
ATOM     45  C   UNL     1       1.235  -4.459   4.151  1.00  0.00    -0.014 A 
BRANCH  45  46
ATOM     46  C   UNL     1       0.277  -5.663   4.201  1.00  0.00     0.031 A 
ATOM     47  C   UNL     1      -0.307  -5.931   5.782  1.00  0.00     0.074 A 
ATOM     48  C   UNL     1       0.123  -6.371   2.998  1.00  0.00     0.049 A 
ATOM     49  N   UNL     1      -1.178  -6.794   6.300  1.00  0.00    -0.248 NA
ATOM     50  C   UNL     1       0.322  -5.164   6.904  1.00  0.00     0.031 C 
ATOM     51  C   UNL     1       1.009  -6.247   1.803  1.00  0.00     0.029 A 
ATOM     52  N   UNL     1      -0.670  -7.462   2.557  1.00  0.00    -0.354 N 
ATOM     53  C   UNL     1      -0.958  -6.933   7.719  1.00  0.00     0.074 A 
ATOM     54  C   UNL     1      -0.104  -5.771   8.025  1.00  0.00     0.031 C 
ATOM     55  C   UNL     1       0.881  -7.325   0.973  1.00  0.00     0.029 A 
ATOM     56  C   UNL     1      -0.070  -8.315   1.547  1.00  0.00     0.049 A 
ATOM     57  H   UNL     1      -1.573  -7.629   2.914  1.00  0.00     0.167 HD
ATOM     58  C   UNL     1      -1.086  -8.060   8.590  1.00  0.00     0.037 A 
ATOM     59  C   UNL     1      -0.027  -9.727   1.302  1.00  0.00     0.037 A 
ATOM     60  C   UNL     1      -1.412  -9.543   8.170  1.00  0.00     0.049 A 
ATOM     61  C   UNL     1      -0.441 -11.077   2.329  1.00  0.00     0.074 A 
ATOM     62  C   UNL     1      -2.387 -10.405   8.634  1.00  0.00     0.029 A 
ATOM     63  N   UNL     1      -0.589 -10.562   7.451  1.00  0.00    -0.354 N 
ATOM     64  N   UNL     1      -0.119 -11.269   3.606  1.00  0.00    -0.248 NA
ATOM     65  C   UNL     1      -1.192 -12.255   1.887  1.00  0.00     0.031 C 
ATOM     66  C   UNL     1      -2.396 -11.572   7.796  1.00  0.00     0.029 A 
ATOM     67  C   UNL     1      -1.407 -11.517   6.793  1.00  0.00     0.049 A 
ATOM     68  H   UNL     1       0.395 -10.569   7.435  1.00  0.00     0.167 HD
ATOM     69  C   UNL     1      -0.838 -12.253   4.227  1.00  0.00     0.074 A 
ATOM     70  C   UNL     1      -1.344 -12.964   3.032  1.00  0.00     0.031 C 
ATOM     71  C   UNL     1      -1.203 -12.460   5.566  1.00  0.00     0.037 A 
BRANCH  58  72
ATOM     72  C   UNL     1      -0.992  -7.749  10.082  1.00  0.00     0.064 A 
ATOM     73  C   UNL     1      -1.886  -6.793  10.602  1.00  0.00     0.173 A 
ATOM     74  C   UNL     1      -0.184  -8.422  11.018  1.00  0.00     0.173 A 
ATOM     75  F   UNL     1      -2.682  -6.103   9.773  1.00  0.00    -0.203 F 
ATOM     76  C   UNL     1      -2.002  -6.544  11.967  1.00  0.00     0.198 A 
ATOM     77  C   UNL     1      -0.309  -8.177  12.398  1.00  0.00     0.198 A 
ATOM     78  F   UNL     1       0.731  -9.318  10.614  1.00  0.00    -0.203 F 
ATOM     79  F   UNL     1      -2.889  -5.639  12.402  1.00  0.00    -0.200 F 
ATOM     80  C   UNL     1      -1.228  -7.249  12.869  1.00  0.00     0.200 A 
ATOM     81  F   UNL     1       0.440  -8.858  13.280  1.00  0.00    -0.200 F 
ATOM     82  F   UNL     1      -1.379  -7.043  14.185  1.00  0.00    -0.200 F 
ENDBRANCH  58  72
BRANCH  59  83
ATOM     83  C   UNL     1       0.550 -10.188  -0.009  1.00  0.00     0.064 A 
ATOM     84  C   UNL     1      -0.352 -10.554  -1.017  1.00  0.00     0.173 A 
ATOM     85  C   UNL     1       1.919 -10.280  -0.313  1.00  0.00     0.173 A 
ATOM     86  F   UNL     1      -1.670 -10.505  -0.774  1.00  0.00    -0.203 F 
ATOM     87  C   UNL     1       0.081 -10.999  -2.266  1.00  0.00     0.198 A 
ATOM     88  C   UNL     1       2.354 -10.705  -1.576  1.00  0.00     0.198 A 
ATOM     89  F   UNL     1       2.844  -9.957   0.601  1.00  0.00    -0.203 F 
ATOM     90  F   UNL     1      -0.819 -11.371  -3.187  1.00  0.00    -0.200 F 
ATOM     91  C   UNL     1       1.434 -11.069  -2.549  1.00  0.00     0.200 A 
ATOM     92  F   UNL     1       3.666 -10.768  -1.854  1.00  0.00    -0.200 F 
ATOM     93  F   UNL     1       1.848 -11.494  -3.751  1.00  0.00    -0.200 F 
ENDBRANCH  59  83
BRANCH  71  94
ATOM     94  C   UNL     1      -1.830 -13.813   5.740  1.00  0.00     0.064 A 
ATOM     95  C   UNL     1      -1.060 -14.979   5.850  1.00  0.00     0.173 A 
ATOM     96  C   UNL     1      -3.223 -13.929   5.817  1.00  0.00     0.173 A 
ATOM     97  F   UNL     1       0.276 -14.929   5.730  1.00  0.00    -0.203 F 
ATOM     98  C   UNL     1      -1.671 -16.212   6.070  1.00  0.00     0.198 A 
ATOM     99  C   UNL     1      -3.825 -15.150   6.080  1.00  0.00     0.198 A 
ATOM    100  F   UNL     1      -3.998 -12.846   5.656  1.00  0.00    -0.203 F 
ATOM    101  F   UNL     1      -0.929 -17.326   6.150  1.00  0.00    -0.200 F 
ATOM    102  C   UNL     1      -3.051 -16.291   6.206  1.00  0.00     0.200 A 
ATOM    103  F   UNL     1      -5.156 -15.215   6.216  1.00  0.00    -0.200 F 
ATOM    104  F   UNL     1      -3.638 -17.471   6.447  1.00  0.00    -0.200 F 
ENDBRANCH  71  94
ENDBRANCH  45  46
ENDBRANCH  38  40
ENDBRANCH  37  38
ENDBRANCH  36  37
ENDBRANCH  35  36
ENDBRANCH  34  35
ENDBRANCH  33  34
ENDBRANCH   1  33
TORSDOF 20
