REMARK SMILES Cc1ccc(NC(=O)C[C@@H](C(=O)OCCOCCOCCOC(=O)c2ccc(-c3c4nc(c(-c5c(F)c(F)c(F)c(F)c5F)c5ccc([nH]5)c(-c5c(F)c(F)c(F)c(F)c5F)c5nc(c(-c6c(F)c(F)c(F)c(F)c6F)c6ccc3[nH]6)C=C5)C=C4)cc2)[NH+](C)C)cc1Cl
REMARK SMILES IDX 17 1 16 2 15 3 14 4 13 5 11 6 12 7 10 8 9 9 7 10 6 11 8 13
REMARK SMILES IDX 5 14 1 15 2 16 3 17 92 18 4 19 91 20 93 21 88 22 89 23 90 24
REMARK SMILES IDX 18 26 19 27 20 28 21 29 22 30 23 31 24 32 25 33 26 34 87 35
REMARK SMILES IDX 27 36 86 37 28 38 29 39 30 40 80 41 31 42 85 43 79 44 81 45
REMARK SMILES IDX 32 46 84 47 78 48 77 49 33 51 65 52 45 53 64 54 46 55 49 56
REMARK SMILES IDX 63 57 82 58 47 59 48 60 62 62 83 63 50 64 34 65 35 66 43 67
REMARK SMILES IDX 36 68 37 69 41 70 44 71 38 72 39 73 42 74 40 75 66 76 67 77
REMARK SMILES IDX 75 78 68 79 69 80 73 81 76 82 70 83 71 84 74 85 72 86 51 87
REMARK SMILES IDX 52 88 60 89 53 90 54 91 58 92 61 93 55 94 56 95 59 96 57 97
REMARK H PARENT 6 12 88 25 81 50 49 61
REMARK Flexibility Score: inf
ROOT
ATOM      1  C   UNL     1      -0.292  -0.488   1.350  1.00  0.00     0.188 C 
ENDROOT
BRANCH   1   2
ATOM      2  O   UNL     1      -1.113   0.153   0.220  1.00  0.00    -0.376 OA
BRANCH   2   3
ATOM      3  C   UNL     1      -1.475   0.372  -1.728  1.00  0.00     0.202 C 
BRANCH   3   4
ATOM      4  C   UNL     1      -2.003  -0.715  -2.937  1.00  0.00     0.261 C 
BRANCH   4   5
ATOM      5  O   UNL     1      -1.703  -2.131  -2.902  1.00  0.00    -0.459 OA
BRANCH   5   6
ATOM      6  C   UNL     1      -0.471  -2.576  -3.242  1.00  0.00     0.365 C 
ATOM      7  O   UNL     1       0.232  -1.967  -4.036  1.00  0.00    -0.245 OA
BRANCH   6   8
ATOM      8  C   UNL     1      -0.083  -3.891  -2.425  1.00  0.00     0.304 C 
BRANCH   8   9
ATOM      9  C   UNL     1      -0.857  -4.164  -1.099  1.00  0.00     0.177 C 
BRANCH   9  10
ATOM     10  C   UNL     1      -2.325  -3.824  -0.959  1.00  0.00     0.231 C 
ATOM     11  N   UNL     1      -2.724  -2.581  -0.549  1.00  0.00    -0.326 N 
ATOM     12  H   UNL     1      -3.656  -2.533  -0.236  1.00  0.00     0.169 HD
ATOM     13  O   UNL     1      -3.183  -4.693  -1.130  1.00  0.00    -0.274 OA
BRANCH  11  14
ATOM     14  C   UNL     1      -2.027  -1.356  -0.498  1.00  0.00     0.042 A 
ATOM     15  C   UNL     1       0.244   3.186  -0.019  1.00  0.00     0.046 C 
ATOM     16  C   UNL     1      -0.463   1.906  -0.333  1.00  0.00    -0.032 A 
ATOM     17  C   UNL     1      -2.211   1.720   0.045  1.00  0.00     0.007 A 
ATOM     18  C   UNL     1       0.522   0.484  -0.805  1.00  0.00     0.046 A 
ATOM     19  C   UNL     1      -3.003   0.099  -0.060  1.00  0.00     0.026 A 
ATOM     20  C   UNL     1      -0.255  -1.146  -0.911  1.00  0.00     0.047 A 
ATOM     21  Cl  UNL     1       2.215   0.617  -1.082  1.00  0.00    -0.084 Cl
ENDBRANCH  11  14
ENDBRANCH   9  10
ENDBRANCH   8   9
BRANCH   8  22
ATOM     22  N   UNL     1       1.419  -4.102  -2.214  1.00  0.00    -0.328 N 
ATOM     23  C   UNL     1       2.297  -3.469  -3.195  1.00  0.00     0.333 C 
ATOM     24  C   UNL     1       2.004  -3.947  -0.878  1.00  0.00     0.333 C 
ATOM     25  H   UNL     1       1.390  -5.110  -2.366  1.00  0.00     0.348 HD
ENDBRANCH   8  22
ENDBRANCH   6   8
ENDBRANCH   5   6
ENDBRANCH   4   5
ENDBRANCH   3   4
ENDBRANCH   2   3
ENDBRANCH   1   2
BRANCH   1  26
ATOM     26  C   UNL     1      -0.969  -1.606   2.186  1.00  0.00     0.188 C 
BRANCH  26  27
ATOM     27  O   UNL     1      -2.127  -1.290   2.944  1.00  0.00    -0.376 OA
BRANCH  27  28
ATOM     28  C   UNL     1      -2.238   0.031   3.452  1.00  0.00     0.202 C 
BRANCH  28  29
ATOM     29  C   UNL     1      -1.273   0.446   4.575  1.00  0.00     0.261 C 
BRANCH  29  30
ATOM     30  O   UNL     1       0.121   0.439   4.199  1.00  0.00    -0.460 OA
BRANCH  30  31
ATOM     31  C   UNL     1       0.848  -0.623   4.612  1.00  0.00     0.338 C 
ATOM     32  O   UNL     1       0.471  -1.540   5.332  1.00  0.00    -0.246 OA
BRANCH  31  33
ATOM     33  C   UNL     1       2.158  -0.648   3.923  1.00  0.00     0.060 A 
ATOM     34  C   UNL     1       2.554  -1.829   3.273  1.00  0.00     0.016 A 
ATOM     35  C   UNL     1       3.034   0.435   4.000  1.00  0.00     0.016 A 
ATOM     36  C   UNL     1       3.843  -1.954   2.753  1.00  0.00     0.010 A 
ATOM     37  C   UNL     1       4.338   0.298   3.508  1.00  0.00     0.010 A 
ATOM     38  C   UNL     1       4.762  -0.914   2.930  1.00  0.00    -0.014 A 
BRANCH  38  39
ATOM     39  C   UNL     1       6.214  -1.183   2.775  1.00  0.00     0.031 A 
ATOM     40  C   UNL     1       6.993  -1.563   4.007  1.00  0.00     0.074 A 
ATOM     41  C   UNL     1       6.831  -1.107   1.584  1.00  0.00     0.049 A 
ATOM     42  N   UNL     1       8.281  -1.732   4.165  1.00  0.00    -0.248 NA
ATOM     43  C   UNL     1       6.204  -1.778   5.232  1.00  0.00     0.031 C 
ATOM     44  C   UNL     1       6.179  -0.823   0.309  1.00  0.00     0.029 A 
ATOM     45  N   UNL     1       8.160  -1.247   1.263  1.00  0.00    -0.354 N 
ATOM     46  C   UNL     1       8.456  -2.056   5.505  1.00  0.00     0.074 A 
ATOM     47  C   UNL     1       7.148  -2.038   6.122  1.00  0.00     0.031 C 
ATOM     48  C   UNL     1       7.116  -0.781  -0.656  1.00  0.00     0.029 A 
ATOM     49  C   UNL     1       8.434  -0.993  -0.058  1.00  0.00     0.049 A 
ATOM     50  H   UNL     1       8.849  -1.504   1.918  1.00  0.00     0.167 HD
ATOM     51  C   UNL     1       9.604  -2.343   6.163  1.00  0.00     0.037 A 
ATOM     52  C   UNL     1       9.619  -0.904  -0.696  1.00  0.00     0.037 A 
ATOM     53  C   UNL     1      10.904  -2.349   5.548  1.00  0.00     0.049 A 
ATOM     54  C   UNL     1      10.896  -1.129   0.080  1.00  0.00     0.074 A 
ATOM     55  C   UNL     1      12.131  -2.625   6.123  1.00  0.00     0.029 A 
ATOM     56  N   UNL     1      11.145  -2.053   4.214  1.00  0.00    -0.354 N 
ATOM     57  N   UNL     1      11.058  -1.437   1.344  1.00  0.00    -0.248 NA
ATOM     58  C   UNL     1      12.157  -0.991  -0.665  1.00  0.00     0.031 C 
ATOM     59  C   UNL     1      13.121  -2.433   5.154  1.00  0.00     0.029 A 
ATOM     60  C   UNL     1      12.505  -2.110   3.956  1.00  0.00     0.049 A 
ATOM     61  H   UNL     1      10.452  -1.834   3.549  1.00  0.00     0.167 HD
ATOM     62  C   UNL     1      12.430  -1.566   1.537  1.00  0.00     0.074 A 
ATOM     63  C   UNL     1      13.054  -1.313   0.256  1.00  0.00     0.031 C 
ATOM     64  C   UNL     1      13.111  -1.868   2.670  1.00  0.00     0.037 A 
BRANCH  51  65
ATOM     65  C   UNL     1       9.508  -2.627   7.635  1.00  0.00     0.064 A 
ATOM     66  C   UNL     1       8.906  -3.794   8.129  1.00  0.00     0.173 A 
ATOM     67  C   UNL     1      10.045  -1.724   8.566  1.00  0.00     0.173 A 
ATOM     68  F   UNL     1       8.361  -4.683   7.284  1.00  0.00    -0.203 F 
ATOM     69  C   UNL     1       8.818  -4.031   9.499  1.00  0.00     0.198 A 
ATOM     70  C   UNL     1       9.987  -1.981   9.933  1.00  0.00     0.198 A 
ATOM     71  F   UNL     1      10.634  -0.593   8.150  1.00  0.00    -0.203 F 
ATOM     72  F   UNL     1       8.188  -5.125   9.949  1.00  0.00    -0.200 F 
ATOM     73  C   UNL     1       9.365  -3.129  10.399  1.00  0.00     0.200 A 
ATOM     74  F   UNL     1      10.528  -1.114  10.800  1.00  0.00    -0.200 F 
ATOM     75  F   UNL     1       9.285  -3.361  11.716  1.00  0.00    -0.200 F 
ENDBRANCH  51  65
BRANCH  52  76
ATOM     76  C   UNL     1       9.665  -0.558  -2.143  1.00  0.00     0.064 A 
ATOM     77  C   UNL     1      10.133  -1.476  -3.094  1.00  0.00     0.173 A 
ATOM     78  C   UNL     1       9.277   0.711  -2.601  1.00  0.00     0.173 A 
ATOM     79  F   UNL     1      10.546  -2.691  -2.704  1.00  0.00    -0.203 F 
ATOM     80  C   UNL     1      10.233  -1.131  -4.441  1.00  0.00     0.198 A 
ATOM     81  C   UNL     1       9.345   1.042  -3.953  1.00  0.00     0.198 A 
ATOM     82  F   UNL     1       8.830   1.631  -1.734  1.00  0.00    -0.203 F 
ATOM     83  F   UNL     1      10.739  -2.009  -5.319  1.00  0.00    -0.200 F 
ATOM     84  C   UNL     1       9.832   0.125  -4.871  1.00  0.00     0.200 A 
ATOM     85  F   UNL     1       8.948   2.254  -4.364  1.00  0.00    -0.200 F 
ATOM     86  F   UNL     1       9.928   0.455  -6.166  1.00  0.00    -0.200 F 
ENDBRANCH  52  76
BRANCH  64  87
ATOM     87  C   UNL     1      14.606  -1.998   2.572  1.00  0.00     0.064 A 
ATOM     88  C   UNL     1      15.437  -0.888   2.361  1.00  0.00     0.173 A 
ATOM     89  C   UNL     1      15.219  -3.251   2.742  1.00  0.00     0.173 A 
ATOM     90  F   UNL     1      14.904   0.330   2.182  1.00  0.00    -0.203 F 
ATOM     91  C   UNL     1      16.821  -1.031   2.295  1.00  0.00     0.198 A 
ATOM     92  C   UNL     1      16.604  -3.384   2.712  1.00  0.00     0.198 A 
ATOM     93  F   UNL     1      14.473  -4.345   2.957  1.00  0.00    -0.203 F 
ATOM     94  F   UNL     1      17.591   0.036   2.040  1.00  0.00    -0.200 F 
ATOM     95  C   UNL     1      17.403  -2.276   2.479  1.00  0.00     0.200 A 
ATOM     96  F   UNL     1      17.164  -4.585   2.910  1.00  0.00    -0.200 F 
ATOM     97  F   UNL     1      18.736  -2.409   2.426  1.00  0.00    -0.200 F 
ENDBRANCH  64  87
ENDBRANCH  38  39
ENDBRANCH  31  33
ENDBRANCH  30  31
ENDBRANCH  29  30
ENDBRANCH  28  29
ENDBRANCH  27  28
ENDBRANCH  26  27
ENDBRANCH   1  26
TORSDOF 21
