REMARK SMILES O=C(NC1(C(=O)OCCOCCOCCOC(=O)c2ccc(-c3c4nc(c(-c5c(F)c(F)c(F)c(F)c5F)c5ccc([nH]5)c(-c5c(F)c(F)c(F)c(F)c5F)c5nc(c(-c6c(F)c(F)c(F)c(F)c6F)c6ccc3[nH]6)C=C5)C=C4)cc2)Cc2ccccc2C1)OCC1c2ccccc2-c2ccccc21
REMARK SMILES IDX 11 1 10 2 9 3 8 4 7 5 5 6 6 7 4 8 82 9 89 10 83 11 88 12
REMARK SMILES IDX 84 13 87 14 85 15 86 16 3 17 1 18 2 19 90 21 91 22 92 23
REMARK SMILES IDX 93 24 104 25 94 26 98 27 99 28 103 29 95 30 97 31 100 32
REMARK SMILES IDX 102 33 96 34 101 35 12 36 13 37 14 38 15 39 16 40 17 41
REMARK SMILES IDX 18 42 19 43 20 44 81 45 21 46 80 47 22 48 23 49 24 50 74 51
REMARK SMILES IDX 25 52 79 53 73 54 75 55 26 56 78 57 72 58 71 59 27 61 59 62
REMARK SMILES IDX 39 63 58 64 40 65 43 66 57 67 76 68 41 69 42 70 56 72 77 73
REMARK SMILES IDX 44 74 28 75 29 76 37 77 30 78 31 79 35 80 38 81 32 82 33 83
REMARK SMILES IDX 36 84 34 85 60 86 61 87 69 88 62 89 63 90 67 91 70 92 64 93
REMARK SMILES IDX 65 94 68 95 66 96 45 97 46 98 54 99 47 100 48 101 52 102
REMARK SMILES IDX 55 103 49 104 50 105 53 106 51 107
REMARK H PARENT 3 20 75 60 43 71
REMARK Flexibility Score: inf
ROOT
ATOM      1  C   UNL     1       3.246  -1.081  -3.641  1.00  0.00     0.188 C 
ENDROOT
BRANCH   1   2
ATOM      2  O   UNL     1       3.862  -0.261  -4.619  1.00  0.00    -0.376 OA
BRANCH   2   3
ATOM      3  C   UNL     1       4.770   0.695  -4.065  1.00  0.00     0.202 C 
BRANCH   3   4
ATOM      4  C   UNL     1       4.089   1.742  -3.132  1.00  0.00     0.261 C 
BRANCH   4   5
ATOM      5  O   UNL     1       4.131   1.397  -1.701  1.00  0.00    -0.461 OA
BRANCH   5   6
ATOM      6  C   UNL     1       3.564   2.242  -0.781  1.00  0.00     0.332 C 
ATOM      7  O   UNL     1       2.805   3.144  -1.151  1.00  0.00    -0.249 OA
BRANCH   6   8
ATOM      8  C   UNL     1       3.858   2.001   0.846  1.00  0.00     0.149 C 
ATOM      9  C   UNL     1       4.252   3.432   1.397  1.00  0.00     0.076 C 
ATOM     10  C   UNL     1       4.535   1.211   2.016  1.00  0.00     0.076 C 
ATOM     11  C   UNL     1       5.710   3.173   1.831  1.00  0.00    -0.042 A 
ATOM     12  C   UNL     1       5.852   1.831   2.176  1.00  0.00    -0.042 A 
ATOM     13  C   UNL     1       6.842   3.966   1.848  1.00  0.00     0.004 A 
ATOM     14  C   UNL     1       7.040   1.237   2.569  1.00  0.00     0.004 A 
ATOM     15  C   UNL     1       8.081   3.377   2.188  1.00  0.00     0.000 A 
ATOM     16  C   UNL     1       8.179   2.024   2.552  1.00  0.00     0.000 A 
BRANCH   8  17
ATOM     17  N   UNL     1       2.614   1.312   0.926  1.00  0.00    -0.305 N 
ATOM     18  O   UNL     1       1.535  -0.574   0.391  1.00  0.00    -0.225 OA
ATOM     19  C   UNL     1       2.606   0.025   0.406  1.00  0.00     0.408 C 
ATOM     20  H   UNL     1       1.812   1.722   1.323  1.00  0.00     0.168 HD
BRANCH  19  21
ATOM     21  O   UNL     1       3.741  -0.493  -0.206  1.00  0.00    -0.449 OA
BRANCH  21  22
ATOM     22  C   UNL     1       5.266  -0.524  -0.062  1.00  0.00     0.248 C 
BRANCH  22  23
ATOM     23  C   UNL     1       6.395   0.313  -0.879  1.00  0.00     0.088 C 
ATOM     24  C   UNL     1       7.783  -0.364  -0.721  1.00  0.00    -0.029 A 
ATOM     25  C   UNL     1       6.883   1.804  -1.153  1.00  0.00    -0.029 A 
ATOM     26  C   UNL     1       8.113  -1.629  -0.258  1.00  0.00     0.005 A 
ATOM     27  C   UNL     1       8.793   0.493  -1.201  1.00  0.00    -0.014 A 
ATOM     28  C   UNL     1       8.232   1.768  -1.552  1.00  0.00    -0.014 A 
ATOM     29  C   UNL     1       6.302   3.065  -1.284  1.00  0.00     0.005 A 
ATOM     30  C   UNL     1       9.454  -2.019  -0.284  1.00  0.00     0.000 A 
ATOM     31  C   UNL     1      10.122   0.112  -1.224  1.00  0.00     0.009 A 
ATOM     32  C   UNL     1       8.877   2.842  -2.189  1.00  0.00     0.009 A 
ATOM     33  C   UNL     1       6.919   4.158  -1.914  1.00  0.00     0.000 A 
ATOM     34  C   UNL     1      10.450  -1.158  -0.766  1.00  0.00     0.001 A 
ATOM     35  C   UNL     1       8.198   4.033  -2.409  1.00  0.00     0.001 A 
ENDBRANCH  22  23
ENDBRANCH  21  22
ENDBRANCH  19  21
ENDBRANCH   8  17
ENDBRANCH   6   8
ENDBRANCH   5   6
ENDBRANCH   4   5
ENDBRANCH   3   4
ENDBRANCH   2   3
ENDBRANCH   1   2
BRANCH   1  36
ATOM     36  C   UNL     1       3.973  -2.387  -3.346  1.00  0.00     0.188 C 
BRANCH  36  37
ATOM     37  O   UNL     1       5.337  -2.316  -2.936  1.00  0.00    -0.376 OA
BRANCH  37  38
ATOM     38  C   UNL     1       6.080  -3.493  -3.294  1.00  0.00     0.202 C 
BRANCH  38  39
ATOM     39  C   UNL     1       5.713  -4.822  -2.591  1.00  0.00     0.261 C 
BRANCH  39  40
ATOM     40  O   UNL     1       4.295  -5.044  -2.498  1.00  0.00    -0.460 OA
BRANCH  40  41
ATOM     41  C   UNL     1       3.770  -4.904  -1.250  1.00  0.00     0.338 C 
ATOM     42  O   UNL     1       4.394  -4.847  -0.203  1.00  0.00    -0.246 OA
BRANCH  41  43
ATOM     43  C   UNL     1       2.322  -4.567  -1.352  1.00  0.00     0.060 A 
ATOM     44  C   UNL     1       1.832  -3.616  -0.449  1.00  0.00     0.016 A 
ATOM     45  C   UNL     1       1.489  -5.040  -2.372  1.00  0.00     0.016 A 
ATOM     46  C   UNL     1       0.516  -3.161  -0.543  1.00  0.00     0.010 A 
ATOM     47  C   UNL     1       0.164  -4.582  -2.463  1.00  0.00     0.010 A 
ATOM     48  C   UNL     1      -0.334  -3.649  -1.536  1.00  0.00    -0.014 A 
BRANCH  48  49
ATOM     49  C   UNL     1      -1.790  -3.388  -1.412  1.00  0.00     0.031 A 
ATOM     50  C   UNL     1      -2.609  -4.426  -0.698  1.00  0.00     0.074 A 
ATOM     51  C   UNL     1      -2.373  -2.247  -1.827  1.00  0.00     0.049 A 
ATOM     52  N   UNL     1      -3.903  -4.513  -0.539  1.00  0.00    -0.248 NA
ATOM     53  C   UNL     1      -1.848  -5.520  -0.070  1.00  0.00     0.031 C 
ATOM     54  C   UNL     1      -1.684  -1.099  -2.409  1.00  0.00     0.029 A 
ATOM     55  N   UNL     1      -3.697  -1.872  -1.814  1.00  0.00    -0.354 N 
ATOM     56  C   UNL     1      -4.110  -5.678   0.186  1.00  0.00     0.074 A 
ATOM     57  C   UNL     1      -2.815  -6.276   0.420  1.00  0.00     0.031 C 
ATOM     58  C   UNL     1      -2.594  -0.158  -2.723  1.00  0.00     0.029 A 
ATOM     59  C   UNL     1      -3.933  -0.652  -2.401  1.00  0.00     0.049 A 
ATOM     60  H   UNL     1      -4.410  -2.427  -1.421  1.00  0.00     0.167 HD
ATOM     61  C   UNL     1      -5.278  -6.206   0.618  1.00  0.00     0.037 A 
ATOM     62  C   UNL     1      -5.098  -0.030  -2.674  1.00  0.00     0.037 A 
ATOM     63  C   UNL     1      -6.564  -5.609   0.392  1.00  0.00     0.049 A 
ATOM     64  C   UNL     1      -6.401  -0.694  -2.286  1.00  0.00     0.074 A 
ATOM     65  C   UNL     1      -7.811  -6.080   0.761  1.00  0.00     0.029 A 
ATOM     66  N   UNL     1      -6.767  -4.405  -0.267  1.00  0.00    -0.354 N 
ATOM     67  N   UNL     1      -6.601  -1.821  -1.646  1.00  0.00    -0.248 NA
ATOM     68  C   UNL     1      -7.641  -0.001  -2.667  1.00  0.00     0.031 C 
ATOM     69  C   UNL     1      -8.773  -5.188   0.279  1.00  0.00     0.029 A 
ATOM     70  C   UNL     1      -8.123  -4.129  -0.335  1.00  0.00     0.049 A 
ATOM     71  H   UNL     1      -6.054  -3.833  -0.631  1.00  0.00     0.167 HD
ATOM     72  C   UNL     1      -7.979  -1.954  -1.519  1.00  0.00     0.074 A 
ATOM     73  C   UNL     1      -8.569  -0.787  -2.139  1.00  0.00     0.031 C 
ATOM     74  C   UNL     1      -8.693  -2.953  -0.942  1.00  0.00     0.037 A 
BRANCH  61  75
ATOM     75  C   UNL     1      -5.208  -7.526   1.325  1.00  0.00     0.064 A 
ATOM     76  C   UNL     1      -4.666  -7.654   2.613  1.00  0.00     0.173 A 
ATOM     77  C   UNL     1      -5.684  -8.686   0.694  1.00  0.00     0.173 A 
ATOM     78  F   UNL     1      -4.172  -6.580   3.248  1.00  0.00    -0.203 F 
ATOM     79  C   UNL     1      -4.573  -8.899   3.229  1.00  0.00     0.198 A 
ATOM     80  C   UNL     1      -5.622  -9.923   1.327  1.00  0.00     0.198 A 
ATOM     81  F   UNL     1      -6.207  -8.618  -0.539  1.00  0.00    -0.203 F 
ATOM     82  F   UNL     1      -3.994  -9.008   4.433  1.00  0.00    -0.200 F 
ATOM     83  C   UNL     1      -5.058 -10.030   2.589  1.00  0.00     0.200 A 
ATOM     84  F   UNL     1      -6.098 -11.013   0.711  1.00  0.00    -0.200 F 
ATOM     85  F   UNL     1      -4.970 -11.228   3.185  1.00  0.00    -0.200 F 
ENDBRANCH  61  75
BRANCH  62  86
ATOM     86  C   UNL     1      -5.108   1.272  -3.398  1.00  0.00     0.064 A 
ATOM     87  C   UNL     1      -5.583   2.444  -2.790  1.00  0.00     0.173 A 
ATOM     88  C   UNL     1      -4.695   1.360  -4.737  1.00  0.00     0.173 A 
ATOM     89  F   UNL     1      -6.029   2.409  -1.526  1.00  0.00    -0.203 F 
ATOM     90  C   UNL     1      -5.663   3.643  -3.497  1.00  0.00     0.198 A 
ATOM     91  C   UNL     1      -4.745   2.567  -5.433  1.00  0.00     0.198 A 
ATOM     92  F   UNL     1      -4.250   0.268  -5.376  1.00  0.00    -0.203 F 
ATOM     93  F   UNL     1      -6.180   4.732  -2.910  1.00  0.00    -0.200 F 
ATOM     94  C   UNL     1      -5.239   3.705  -4.816  1.00  0.00     0.200 A 
ATOM     95  F   UNL     1      -4.331   2.622  -6.706  1.00  0.00    -0.200 F 
ATOM     96  F   UNL     1      -5.321   4.857  -5.496  1.00  0.00    -0.200 F 
ENDBRANCH  62  86
BRANCH  74  97
ATOM     97  C   UNL     1     -10.189  -2.812  -0.904  1.00  0.00     0.064 A 
ATOM     98  C   UNL     1     -10.974  -2.937  -2.059  1.00  0.00     0.173 A 
ATOM     99  C   UNL     1     -10.849  -2.609   0.319  1.00  0.00     0.173 A 
ATOM    100  F   UNL     1     -10.393  -3.122  -3.254  1.00  0.00    -0.203 F 
ATOM    101  C   UNL     1     -12.362  -2.840  -1.995  1.00  0.00     0.198 A 
ATOM    102  C   UNL     1     -12.238  -2.546   0.384  1.00  0.00     0.198 A 
ATOM    103  F   UNL     1     -10.146  -2.494   1.456  1.00  0.00    -0.203 F 
ATOM    104  F   UNL     1     -13.090  -2.918  -3.118  1.00  0.00    -0.200 F 
ATOM    105  C   UNL     1     -12.993  -2.654  -0.773  1.00  0.00     0.200 A 
ATOM    106  F   UNL     1     -12.845  -2.385   1.567  1.00  0.00    -0.200 F 
ATOM    107  F   UNL     1     -14.329  -2.574  -0.713  1.00  0.00    -0.200 F 
ENDBRANCH  74  97
ENDBRANCH  48  49
ENDBRANCH  41  43
ENDBRANCH  40  41
ENDBRANCH  39  40
ENDBRANCH  38  39
ENDBRANCH  37  38
ENDBRANCH  36  37
ENDBRANCH   1  36
TORSDOF 21
