REMARK SMILES COc1ccc(-c2ccc(C(=O)NCc3ccc(C(=O)OCCOCCOCCOC(=O)c4ccc(-c5c6nc(c(-c7c(F)c(F)c(F)c(F)c7F)c7ccc([nH]7)c(-c7c(F)c(F)c(F)c(F)c7F)c7nc(c(-c8c(F)c(F)c(F)c(F)c8F)c8ccc5[nH]8)C=C7)C=C6)cc4)cc3)o2)c([N+](=O)[O-])c1
REMARK SMILES IDX 24 1 23 2 22 3 21 4 19 5 20 6 18 7 15 8 16 9 97 10 17 11
REMARK SMILES IDX 96 12 14 13 13 14 11 15 12 16 10 18 7 19 8 20 98 21 9 22
REMARK SMILES IDX 6 23 3 24 4 25 103 26 5 27 99 28 2 29 1 30 100 31 101 32
REMARK SMILES IDX 102 33 25 34 26 35 27 36 28 37 29 38 30 39 31 40 32 41 33 42
REMARK SMILES IDX 34 43 95 44 35 45 94 46 36 47 37 48 38 49 88 50 39 51 93 52
REMARK SMILES IDX 87 53 89 54 40 55 92 56 86 57 85 58 41 60 73 61 53 62 72 63
REMARK SMILES IDX 54 64 57 65 71 66 90 67 55 68 56 69 70 71 91 72 58 73 42 74
REMARK SMILES IDX 43 75 51 76 44 77 45 78 49 79 52 80 46 81 47 82 50 83 48 84
REMARK SMILES IDX 74 85 75 86 83 87 76 88 77 89 81 90 84 91 78 92 79 93 82 94
REMARK SMILES IDX 80 95 59 96 60 97 68 98 61 99 62 100 66 101 69 102 63 103
REMARK SMILES IDX 64 104 67 105 65 106
REMARK H PARENT 13 17 89 59 57 70
REMARK Flexibility Score: inf
ROOT
ATOM      1  O   UNL     1       2.698  -9.977  14.172  1.00  0.00    -0.376 OA
ENDROOT
BRANCH   1   2
ATOM      2  C   UNL     1       1.950 -11.180  14.280  1.00  0.00     0.202 C 
BRANCH   2   3
ATOM      3  C   UNL     1       0.867 -11.524  13.252  1.00  0.00     0.261 C 
BRANCH   3   4
ATOM      4  O   UNL     1       1.317 -11.490  11.889  1.00  0.00    -0.460 OA
BRANCH   4   5
ATOM      5  C   UNL     1       0.693 -10.573  11.106  1.00  0.00     0.338 C 
ATOM      6  O   UNL     1      -0.210  -9.828  11.431  1.00  0.00    -0.246 OA
BRANCH   5   7
ATOM      7  C   UNL     1       1.390 -10.452   9.805  1.00  0.00     0.060 A 
ATOM      8  C   UNL     1       2.604 -10.077   7.301  1.00  0.00    -0.029 A 
ATOM      9  C   UNL     1       2.146  -8.979   8.040  1.00  0.00     0.006 A 
ATOM     10  C   UNL     1       2.480 -11.365   7.852  1.00  0.00     0.006 A 
ATOM     11  C   UNL     1       1.538  -9.164   9.280  1.00  0.00     0.016 A 
ATOM     12  C   UNL     1       1.882 -11.555   9.104  1.00  0.00     0.016 A 
BRANCH   8  13
ATOM     13  C   UNL     1       3.125  -9.888   5.897  1.00  0.00     0.152 C 
BRANCH  13  14
ATOM     14  N   UNL     1       2.019  -9.723   4.982  1.00  0.00    -0.345 N 
ATOM     15  C   UNL     1       1.483  -8.648   4.319  1.00  0.00     0.287 C 
ATOM     16  O   UNL     1       0.498  -8.912   3.623  1.00  0.00    -0.266 OA
ATOM     17  H   UNL     1       1.546 -10.566   4.793  1.00  0.00     0.164 HD
BRANCH  15  18
ATOM     18  C   UNL     1       2.025  -7.302   4.417  1.00  0.00     0.192 A 
ATOM     19  C   UNL     1       2.096  -5.179   3.760  1.00  0.00     0.142 A 
ATOM     20  C   UNL     1       3.034  -5.303   4.756  1.00  0.00     0.052 A 
ATOM     21  O   UNL     1       1.466  -6.367   3.568  1.00  0.00    -0.451 OA
ATOM     22  C   UNL     1       2.986  -6.657   5.177  1.00  0.00     0.057 A 
BRANCH  19  23
ATOM     23  C   UNL     1       1.653  -4.075   2.924  1.00  0.00     0.095 A 
ATOM     24  C   UNL     1       0.728  -1.781   1.536  1.00  0.00     0.125 A 
ATOM     25  C   UNL     1      -0.137  -2.528   2.339  1.00  0.00     0.047 A 
ATOM     26  C   UNL     1       2.052  -2.187   1.401  1.00  0.00     0.132 A 
ATOM     27  C   UNL     1       0.314  -3.668   3.015  1.00  0.00     0.023 A 
ATOM     28  C   UNL     1       2.503  -3.329   2.092  1.00  0.00     0.284 A 
BRANCH  24  29
ATOM     29  O   UNL     1       0.168  -0.671   0.970  1.00  0.00    -0.497 OA
ATOM     30  C   UNL     1       0.873  -0.072  -0.111  1.00  0.00     0.278 C 
ENDBRANCH  24  29
BRANCH  28  31
ATOM     31  N   UNL     1       3.899  -3.710   1.902  1.00  0.00     0.063 N 
ATOM     32  O   UNL     1       4.161  -4.905   1.718  1.00  0.00    -0.258 OA
ATOM     33  O   UNL     1       4.734  -2.794   1.903  1.00  0.00    -0.258 OA
ENDBRANCH  28  31
ENDBRANCH  19  23
ENDBRANCH  15  18
ENDBRANCH  13  14
ENDBRANCH   8  13
ENDBRANCH   5   7
ENDBRANCH   4   5
ENDBRANCH   3   4
ENDBRANCH   2   3
ENDBRANCH   1   2
BRANCH   1  34
ATOM     34  C   UNL     1       3.310  -9.632  12.942  1.00  0.00     0.188 C 
BRANCH  34  35
ATOM     35  C   UNL     1       4.223 -10.632  12.203  1.00  0.00     0.188 C 
BRANCH  35  36
ATOM     36  O   UNL     1       4.377 -11.928  12.727  1.00  0.00    -0.376 OA
BRANCH  36  37
ATOM     37  C   UNL     1       5.225 -12.191  13.831  1.00  0.00     0.202 C 
BRANCH  37  38
ATOM     38  C   UNL     1       6.208 -11.205  14.485  1.00  0.00     0.261 C 
BRANCH  38  39
ATOM     39  O   UNL     1       6.050  -9.815  14.208  1.00  0.00    -0.460 OA
BRANCH  39  40
ATOM     40  C   UNL     1       6.987  -9.284  13.387  1.00  0.00     0.338 C 
ATOM     41  O   UNL     1       7.898  -9.861  12.820  1.00  0.00    -0.246 OA
BRANCH  40  42
ATOM     42  C   UNL     1       6.649  -7.874  13.139  1.00  0.00     0.060 A 
ATOM     43  C   UNL     1       6.308  -7.487  11.837  1.00  0.00     0.016 A 
ATOM     44  C   UNL     1       6.717  -6.937  14.171  1.00  0.00     0.016 A 
ATOM     45  C   UNL     1       6.056  -6.146  11.556  1.00  0.00     0.010 A 
ATOM     46  C   UNL     1       6.483  -5.591  13.884  1.00  0.00     0.010 A 
ATOM     47  C   UNL     1       6.180  -5.187  12.571  1.00  0.00    -0.014 A 
BRANCH  47  48
ATOM     48  C   UNL     1       6.169  -3.745  12.233  1.00  0.00     0.031 A 
ATOM     49  C   UNL     1       7.484  -3.044  12.042  1.00  0.00     0.074 A 
ATOM     50  C   UNL     1       5.014  -3.071  12.103  1.00  0.00     0.049 A 
ATOM     51  N   UNL     1       7.729  -1.776  11.831  1.00  0.00    -0.248 NA
ATOM     52  C   UNL     1       8.687  -3.890  12.101  1.00  0.00     0.031 C 
ATOM     53  C   UNL     1       3.679  -3.649  12.222  1.00  0.00     0.029 A 
ATOM     54  N   UNL     1       4.787  -1.739  11.858  1.00  0.00    -0.354 N 
ATOM     55  C   UNL     1       9.110  -1.671  11.742  1.00  0.00     0.074 A 
ATOM     56  C   UNL     1       9.653  -2.997  11.944  1.00  0.00     0.031 C 
ATOM     57  C   UNL     1       2.767  -2.672  12.071  1.00  0.00     0.029 A 
ATOM     58  C   UNL     1       3.458  -1.397  11.881  1.00  0.00     0.049 A 
ATOM     59  H   UNL     1       5.508  -1.092  11.682  1.00  0.00     0.167 HD
ATOM     60  C   UNL     1       9.858  -0.568  11.508  1.00  0.00     0.037 A 
ATOM     61  C   UNL     1       2.873  -0.187  11.791  1.00  0.00     0.037 A 
ATOM     62  C   UNL     1       9.317   0.751  11.316  1.00  0.00     0.049 A 
ATOM     63  C   UNL     1       3.733   1.040  11.612  1.00  0.00     0.074 A 
ATOM     64  C   UNL     1       9.990   1.933  11.061  1.00  0.00     0.029 A 
ATOM     65  N   UNL     1       7.966   1.063  11.368  1.00  0.00    -0.354 N 
ATOM     66  N   UNL     1       5.037   1.131  11.505  1.00  0.00    -0.248 NA
ATOM     67  C   UNL     1       3.036   2.333  11.540  1.00  0.00     0.031 C 
ATOM     68  C   UNL     1       9.052   2.968  11.010  1.00  0.00     0.029 A 
ATOM     69  C   UNL     1       7.788   2.424  11.175  1.00  0.00     0.049 A 
ATOM     70  H   UNL     1       7.242   0.414  11.521  1.00  0.00     0.167 HD
ATOM     71  C   UNL     1       5.313   2.481  11.321  1.00  0.00     0.074 A 
ATOM     72  C   UNL     1       4.040   3.171  11.322  1.00  0.00     0.031 C 
ATOM     73  C   UNL     1       6.512   3.093  11.164  1.00  0.00     0.037 A 
BRANCH  60  74
ATOM     74  C   UNL     1      11.348  -0.737  11.479  1.00  0.00     0.064 A 
ATOM     75  C   UNL     1      11.996  -1.395  10.423  1.00  0.00     0.173 A 
ATOM     76  C   UNL     1      12.142  -0.210  12.510  1.00  0.00     0.173 A 
ATOM     77  F   UNL     1      11.281  -1.932   9.423  1.00  0.00    -0.203 F 
ATOM     78  C   UNL     1      13.380  -1.542  10.413  1.00  0.00     0.198 A 
ATOM     79  C   UNL     1      13.528  -0.333  12.481  1.00  0.00     0.198 A 
ATOM     80  F   UNL     1      11.572   0.429  13.542  1.00  0.00    -0.203 F 
ATOM     81  F   UNL     1      13.974  -2.216   9.418  1.00  0.00    -0.200 F 
ATOM     82  C   UNL     1      14.145  -1.005  11.437  1.00  0.00     0.200 A 
ATOM     83  F   UNL     1      14.266   0.196  13.467  1.00  0.00    -0.200 F 
ATOM     84  F   UNL     1      15.479  -1.141  11.422  1.00  0.00    -0.200 F 
ENDBRANCH  60  74
BRANCH  61  85
ATOM     85  C   UNL     1       1.395  -0.065  11.888  1.00  0.00     0.064 A 
ATOM     86  C   UNL     1       0.628   0.327  10.782  1.00  0.00     0.173 A 
ATOM     87  C   UNL     1       0.722  -0.309  13.095  1.00  0.00     0.173 A 
ATOM     88  F   UNL     1       1.230   0.598   9.614  1.00  0.00    -0.203 F 
ATOM     89  C   UNL     1      -0.752   0.489  10.884  1.00  0.00     0.198 A 
ATOM     90  C   UNL     1      -0.661  -0.174  13.188  1.00  0.00     0.198 A 
ATOM     91  F   UNL     1       1.410  -0.680  14.184  1.00  0.00    -0.203 F 
ATOM     92  F   UNL     1      -1.454   0.914   9.825  1.00  0.00    -0.200 F 
ATOM     93  C   UNL     1      -1.396   0.233  12.085  1.00  0.00     0.200 A 
ATOM     94  F   UNL     1      -1.280  -0.430  14.348  1.00  0.00    -0.200 F 
ATOM     95  F   UNL     1      -2.723   0.390  12.182  1.00  0.00    -0.200 F 
ENDBRANCH  61  85
BRANCH  73  96
ATOM     96  C   UNL     1       6.509   4.577  10.929  1.00  0.00     0.064 A 
ATOM     97  C   UNL     1       6.204   5.487  11.951  1.00  0.00     0.173 A 
ATOM     98  C   UNL     1       6.865   5.095   9.674  1.00  0.00     0.173 A 
ATOM     99  F   UNL     1       5.844   5.043  13.165  1.00  0.00    -0.203 F 
ATOM    100  C   UNL     1       6.233   6.860  11.719  1.00  0.00     0.198 A 
ATOM    101  C   UNL     1       6.923   6.468   9.454  1.00  0.00     0.198 A 
ATOM    102  F   UNL     1       7.173   4.267   8.664  1.00  0.00    -0.203 F 
ATOM    103  F   UNL     1       5.895   7.711  12.698  1.00  0.00    -0.200 F 
ATOM    104  C   UNL     1       6.601   7.349  10.474  1.00  0.00     0.200 A 
ATOM    105  F   UNL     1       7.293   6.938   8.254  1.00  0.00    -0.200 F 
ATOM    106  F   UNL     1       6.638   8.671  10.255  1.00  0.00    -0.200 F 
ENDBRANCH  73  96
ENDBRANCH  47  48
ENDBRANCH  40  42
ENDBRANCH  39  40
ENDBRANCH  38  39
ENDBRANCH  37  38
ENDBRANCH  36  37
ENDBRANCH  35  36
ENDBRANCH  34  35
ENDBRANCH   1  34
TORSDOF 23
