REMARK SMILES CC1(C)[C@H](C(=O)Nc2cccc3[nH]ccc23)[C@H]1C(=O)OCCOCCOCCOC(=O)c1ccc(-c2c3nc(c(-c4c(F)c(F)c(F)c(F)c4F)c4ccc([nH]4)c(-c4c(F)c(F)c(F)c(F)c4F)c4nc(c(-c5c(F)c(F)c(F)c(F)c5F)c5ccc2[nH]5)C=C4)C=C3)cc1
REMARK SMILES IDX 24 1 23 2 22 3 21 4 20 5 18 6 19 7 17 8 1 9 2 10 3 11 4 12
REMARK SMILES IDX 5 13 6 14 7 15 8 17 9 18 16 19 10 20 12 21 15 22 11 23 13 24
REMARK SMILES IDX 14 25 25 27 26 28 27 29 28 30 29 31 30 32 31 33 32 34 33 35
REMARK SMILES IDX 94 36 34 37 93 38 35 39 36 40 37 41 87 42 38 43 92 44 86 45
REMARK SMILES IDX 88 46 39 47 91 48 85 49 84 50 40 52 72 53 52 54 71 55 53 56
REMARK SMILES IDX 56 57 70 58 89 59 54 60 55 61 69 63 90 64 57 65 41 66 42 67
REMARK SMILES IDX 50 68 43 69 44 70 48 71 51 72 45 73 46 74 49 75 47 76 73 77
REMARK SMILES IDX 74 78 82 79 75 80 76 81 80 82 83 83 77 84 78 85 81 86 79 87
REMARK SMILES IDX 58 88 59 89 67 90 60 91 61 92 65 93 68 94 62 95 63 96 66 97
REMARK SMILES IDX 64 98
REMARK H PARENT 7 16 13 26 88 51 56 62
REMARK Flexibility Score: inf
ROOT
ATOM      1  C   UNL     1      -1.191  -1.063   3.846  1.00  0.00     0.188 C 
ENDROOT
BRANCH   1   2
ATOM      2  O   UNL     1      -2.068  -2.049   4.388  1.00  0.00    -0.376 OA
BRANCH   2   3
ATOM      3  C   UNL     1      -2.412  -3.183   3.589  1.00  0.00     0.202 C 
BRANCH   3   4
ATOM      4  C   UNL     1      -2.925  -2.922   2.165  1.00  0.00     0.261 C 
BRANCH   4   5
ATOM      5  O   UNL     1      -1.966  -2.204   1.374  1.00  0.00    -0.463 OA
BRANCH   5   6
ATOM      6  C   UNL     1      -2.456  -1.237   0.562  1.00  0.00     0.310 C 
ATOM      7  O   UNL     1      -3.633  -1.063   0.275  1.00  0.00    -0.252 OA
BRANCH   6   8
ATOM      8  C   UNL     1      -1.419  -0.251   0.167  1.00  0.00     0.118 C 
ATOM      9  C   UNL     1       0.389  -1.997  -0.671  1.00  0.00     0.013 C 
ATOM     10  C   UNL     1      -0.044  -0.570  -0.427  1.00  0.00    -0.009 C 
ATOM     11  C   UNL     1       1.114   0.296   0.003  1.00  0.00     0.013 C 
ATOM     12  C   UNL     1      -1.176  -0.043  -1.306  1.00  0.00     0.100 C 
BRANCH  12  13
ATOM     13  C   UNL     1      -1.294   1.291  -1.972  1.00  0.00     0.228 C 
ATOM     14  O   UNL     1      -1.130   1.348  -3.186  1.00  0.00    -0.274 OA
ATOM     15  N   UNL     1      -1.901   2.313  -1.280  1.00  0.00    -0.325 N 
ATOM     16  H   UNL     1      -2.866   2.439  -1.426  1.00  0.00     0.169 HD
BRANCH  15  17
ATOM     17  C   UNL     1      -1.272   3.197  -0.380  1.00  0.00     0.050 A 
ATOM     18  C   UNL     1       0.121   3.284  -0.283  1.00  0.00     0.027 A 
ATOM     19  C   UNL     1      -2.047   4.065   0.425  1.00  0.00     0.023 A 
ATOM     20  C   UNL     1       0.740   4.062   0.695  1.00  0.00     0.004 A 
ATOM     21  C   UNL     1      -1.400   4.844   1.390  1.00  0.00     0.047 A 
ATOM     22  C   UNL     1      -3.438   4.370   0.527  1.00  0.00     0.030 A 
ATOM     23  C   UNL     1      -0.015   4.831   1.577  1.00  0.00     0.027 A 
ATOM     24  N   UNL     1      -2.363   5.574   2.048  1.00  0.00    -0.361 N 
ATOM     25  C   UNL     1      -3.596   5.318   1.513  1.00  0.00     0.083 A 
ATOM     26  H   UNL     1      -2.191   6.190   2.796  1.00  0.00     0.166 HD
ENDBRANCH  15  17
ENDBRANCH  12  13
ENDBRANCH   6   8
ENDBRANCH   5   6
ENDBRANCH   4   5
ENDBRANCH   3   4
ENDBRANCH   2   3
ENDBRANCH   1   2
BRANCH   1  27
ATOM     27  C   UNL     1       0.122  -1.520   3.180  1.00  0.00     0.188 C 
BRANCH  27  28
ATOM     28  O   UNL     1       0.307  -2.918   3.194  1.00  0.00    -0.376 OA
BRANCH  28  29
ATOM     29  C   UNL     1       1.373  -3.434   3.969  1.00  0.00     0.202 C 
BRANCH  29  30
ATOM     30  C   UNL     1       1.448  -3.079   5.465  1.00  0.00     0.261 C 
BRANCH  30  31
ATOM     31  O   UNL     1       1.178  -1.713   5.822  1.00  0.00    -0.460 OA
BRANCH  31  32
ATOM     32  C   UNL     1       2.176  -0.819   5.640  1.00  0.00     0.338 C 
ATOM     33  O   UNL     1       3.285  -1.035   5.189  1.00  0.00    -0.246 OA
BRANCH  32  34
ATOM     34  C   UNL     1       1.630   0.531   5.900  1.00  0.00     0.060 A 
ATOM     35  C   UNL     1       1.589   1.457   4.849  1.00  0.00     0.016 A 
ATOM     36  C   UNL     1       1.180   0.890   7.173  1.00  0.00     0.016 A 
ATOM     37  C   UNL     1       1.131   2.755   5.077  1.00  0.00     0.010 A 
ATOM     38  C   UNL     1       0.739   2.198   7.405  1.00  0.00     0.010 A 
ATOM     39  C   UNL     1       0.744   3.146   6.366  1.00  0.00    -0.014 A 
BRANCH  39  40
ATOM     40  C   UNL     1       0.529   4.587   6.657  1.00  0.00     0.031 A 
ATOM     41  C   UNL     1       1.657   5.372   7.270  1.00  0.00     0.074 A 
ATOM     42  C   UNL     1      -0.627   5.200   6.347  1.00  0.00     0.049 A 
ATOM     43  N   UNL     1       1.701   6.631   7.624  1.00  0.00    -0.248 NA
ATOM     44  C   UNL     1       2.907   4.635   7.513  1.00  0.00     0.031 C 
ATOM     45  C   UNL     1      -1.783   4.562   5.724  1.00  0.00     0.029 A 
ATOM     46  N   UNL     1      -1.019   6.505   6.528  1.00  0.00    -0.354 N 
ATOM     47  C   UNL     1       2.976   6.834   8.137  1.00  0.00     0.074 A 
ATOM     48  C   UNL     1       3.667   5.564   8.073  1.00  0.00     0.031 C 
ATOM     49  C   UNL     1      -2.764   5.473   5.590  1.00  0.00     0.029 A 
ATOM     50  C   UNL     1      -2.311   6.752   6.134  1.00  0.00     0.049 A 
ATOM     51  H   UNL     1      -0.428   7.197   6.904  1.00  0.00     0.167 HD
ATOM     52  C   UNL     1       3.527   7.976   8.613  1.00  0.00     0.037 A 
ATOM     53  C   UNL     1      -3.045   7.879   6.222  1.00  0.00     0.037 A 
ATOM     54  C   UNL     1       2.841   9.239   8.683  1.00  0.00     0.049 A 
ATOM     55  C   UNL     1      -2.430   9.124   6.814  1.00  0.00     0.074 A 
ATOM     56  C   UNL     1       3.316  10.455   9.143  1.00  0.00     0.029 A 
ATOM     57  N   UNL     1       1.527   9.446   8.291  1.00  0.00    -0.354 N 
ATOM     58  N   UNL     1      -1.215   9.313   7.269  1.00  0.00    -0.248 NA
ATOM     59  C   UNL     1      -3.291  10.313   6.899  1.00  0.00     0.031 C 
ATOM     60  C   UNL     1       2.274  11.385   9.076  1.00  0.00     0.029 A 
ATOM     61  C   UNL     1       1.168  10.764   8.518  1.00  0.00     0.049 A 
ATOM     62  H   UNL     1       0.937   8.757   7.909  1.00  0.00     0.167 HD
ATOM     63  C   UNL     1      -1.157  10.645   7.666  1.00  0.00     0.074 A 
ATOM     64  C   UNL     1      -2.454  11.221   7.382  1.00  0.00     0.031 C 
ATOM     65  C   UNL     1      -0.123  11.329   8.216  1.00  0.00     0.037 A 
BRANCH  52  66
ATOM     66  C   UNL     1       4.937   7.904   9.123  1.00  0.00     0.064 A 
ATOM     67  C   UNL     1       6.028   7.739   8.258  1.00  0.00     0.173 A 
ATOM     68  C   UNL     1       5.201   8.031  10.496  1.00  0.00     0.173 A 
ATOM     69  F   UNL     1       5.828   7.598   6.939  1.00  0.00    -0.203 F 
ATOM     70  C   UNL     1       7.330   7.678   8.750  1.00  0.00     0.198 A 
ATOM     71  C   UNL     1       6.505   7.999  10.981  1.00  0.00     0.198 A 
ATOM     72  F   UNL     1       4.193   8.193  11.366  1.00  0.00    -0.203 F 
ATOM     73  F   UNL     1       8.353   7.472   7.909  1.00  0.00    -0.200 F 
ATOM     74  C   UNL     1       7.568   7.815  10.109  1.00  0.00     0.200 A 
ATOM     75  F   UNL     1       6.734   8.144  12.294  1.00  0.00    -0.200 F 
ATOM     76  F   UNL     1       8.821   7.763  10.580  1.00  0.00    -0.200 F 
ENDBRANCH  52  66
BRANCH  53  77
ATOM     77  C   UNL     1      -4.451   7.892   5.738  1.00  0.00     0.064 A 
ATOM     78  C   UNL     1      -4.820   8.646   4.616  1.00  0.00     0.173 A 
ATOM     79  C   UNL     1      -5.458   7.178   6.404  1.00  0.00     0.173 A 
ATOM     80  F   UNL     1      -3.895   9.359   3.956  1.00  0.00    -0.203 F 
ATOM     81  C   UNL     1      -6.146   8.705   4.192  1.00  0.00     0.198 A 
ATOM     82  C   UNL     1      -6.779   7.212   5.960  1.00  0.00     0.198 A 
ATOM     83  F   UNL     1      -5.157   6.441   7.483  1.00  0.00    -0.203 F 
ATOM     84  F   UNL     1      -6.479   9.475   3.147  1.00  0.00    -0.200 F 
ATOM     85  C   UNL     1      -7.124   7.984   4.861  1.00  0.00     0.200 A 
ATOM     86  F   UNL     1      -7.717   6.503   6.601  1.00  0.00    -0.200 F 
ATOM     87  F   UNL     1      -8.398   8.039   4.451  1.00  0.00    -0.200 F 
ENDBRANCH  53  77
BRANCH  65  88
ATOM     88  C   UNL     1      -0.330  12.790   8.504  1.00  0.00     0.064 A 
ATOM     89  C   UNL     1      -1.166  13.231   9.540  1.00  0.00     0.173 A 
ATOM     90  C   UNL     1       0.355  13.762   7.756  1.00  0.00     0.173 A 
ATOM     91  F   UNL     1      -1.853  12.344  10.276  1.00  0.00    -0.203 F 
ATOM     92  C   UNL     1      -1.331  14.590   9.798  1.00  0.00     0.198 A 
ATOM     93  C   UNL     1       0.213  15.118   8.039  1.00  0.00     0.198 A 
ATOM     94  F   UNL     1       1.175  13.395   6.760  1.00  0.00    -0.203 F 
ATOM     95  F   UNL     1      -2.175  14.989  10.760  1.00  0.00    -0.200 F 
ATOM     96  C   UNL     1      -0.636  15.531   9.053  1.00  0.00     0.200 A 
ATOM     97  F   UNL     1       0.898  16.024   7.328  1.00  0.00    -0.200 F 
ATOM     98  F   UNL     1      -0.791  16.837   9.308  1.00  0.00    -0.200 F 
ENDBRANCH  65  88
ENDBRANCH  39  40
ENDBRANCH  32  34
ENDBRANCH  31  32
ENDBRANCH  30  31
ENDBRANCH  29  30
ENDBRANCH  28  29
ENDBRANCH  27  28
ENDBRANCH   1  27
TORSDOF 19
