REMARK SMILES Cc1nc(-c2ccccc2F)sc1C(=O)NCc1ccc(C(=O)OCCOCCOCCOC(=O)c2ccc(-c3c4nc(c(-c5c(F)c(F)c(F)c(F)c5F)c5ccc([nH]5)c(-c5c(F)c(F)c(F)c(F)c5F)c5nc(c(-c6c(F)c(F)c(F)c(F)c6F)c6ccc3[nH]6)C=C5)C=C4)cc2)cc1
REMARK SMILES IDX 28 1 27 2 26 3 25 4 24 5 22 6 23 7 21 8 18 9 19 10 100 11
REMARK SMILES IDX 20 12 99 13 17 14 16 15 14 16 15 17 13 19 1 20 2 21 3 22
REMARK SMILES IDX 4 23 12 24 5 25 6 26 10 27 7 28 9 29 11 30 8 31 29 32 30 33
REMARK SMILES IDX 31 34 32 35 33 36 34 37 35 38 36 39 37 40 98 41 38 42 97 43
REMARK SMILES IDX 39 44 40 45 41 46 91 47 42 48 96 49 90 50 92 51 43 52 95 53
REMARK SMILES IDX 89 54 88 55 44 57 76 58 56 59 75 60 57 61 60 62 74 63 93 64
REMARK SMILES IDX 58 65 59 66 73 68 94 69 61 70 45 71 46 72 54 73 47 74 48 75
REMARK SMILES IDX 52 76 55 77 49 78 50 79 53 80 51 81 77 82 78 83 86 84 79 85
REMARK SMILES IDX 80 86 84 87 87 88 81 89 82 90 85 91 83 92 62 93 63 94 71 95
REMARK SMILES IDX 64 96 65 97 69 98 72 99 66 100 67 101 70 102 68 103
REMARK H PARENT 16 18 92 56 60 67
REMARK Flexibility Score: inf
ROOT
ATOM      1  C   UNL     1      -8.050  -2.728  -4.717  1.00  0.00     0.188 C 
ENDROOT
BRANCH   1   2
ATOM      2  O   UNL     1      -8.499  -3.034  -6.029  1.00  0.00    -0.376 OA
BRANCH   2   3
ATOM      3  C   UNL     1      -7.950  -4.149  -6.722  1.00  0.00     0.202 C 
BRANCH   3   4
ATOM      4  C   UNL     1      -6.429  -4.327  -6.824  1.00  0.00     0.261 C 
BRANCH   4   5
ATOM      5  O   UNL     1      -5.755  -4.346  -5.558  1.00  0.00    -0.460 OA
BRANCH   5   6
ATOM      6  C   UNL     1      -4.846  -3.356  -5.373  1.00  0.00     0.338 C 
ATOM      7  O   UNL     1      -4.519  -2.500  -6.177  1.00  0.00    -0.246 OA
BRANCH   6   8
ATOM      8  C   UNL     1      -4.431  -3.314  -3.955  1.00  0.00     0.060 A 
ATOM      9  C   UNL     1      -3.618  -3.087  -1.277  1.00  0.00    -0.029 A 
ATOM     10  C   UNL     1      -3.953  -1.948  -2.016  1.00  0.00     0.006 A 
ATOM     11  C   UNL     1      -3.732  -4.348  -1.890  1.00  0.00     0.006 A 
ATOM     12  C   UNL     1      -4.346  -2.057  -3.348  1.00  0.00     0.016 A 
ATOM     13  C   UNL     1      -4.146  -4.466  -3.220  1.00  0.00     0.016 A 
BRANCH   9  14
ATOM     14  C   UNL     1      -3.062  -2.976   0.118  1.00  0.00     0.152 C 
BRANCH  14  15
ATOM     15  N   UNL     1      -1.626  -3.079   0.101  1.00  0.00    -0.347 N 
ATOM     16  C   UNL     1      -0.532  -2.268   0.026  1.00  0.00     0.263 C 
ATOM     17  O   UNL     1       0.498  -2.958  -0.051  1.00  0.00    -0.268 OA
ATOM     18  H   UNL     1      -1.350  -4.022   0.160  1.00  0.00     0.164 HD
BRANCH  16  19
ATOM     19  C   UNL     1      -0.469  -0.805   0.045  1.00  0.00     0.115 A 
ATOM     20  C   UNL     1      -2.745   0.539   0.326  1.00  0.00     0.068 C 
ATOM     21  C   UNL     1      -1.290   0.316   0.178  1.00  0.00     0.062 A 
ATOM     22  N   UNL     1      -0.624   1.541   0.181  1.00  0.00    -0.240 NA
ATOM     23  C   UNL     1       0.664   1.409   0.002  1.00  0.00     0.127 A 
ATOM     24  S   UNL     1       1.187  -0.196  -0.145  1.00  0.00    -0.108 S 
BRANCH  23  25
ATOM     25  C   UNL     1       1.580   2.546   0.008  1.00  0.00     0.046 A 
ATOM     26  C   UNL     1       1.462   3.501   1.033  1.00  0.00     0.014 A 
ATOM     27  C   UNL     1       2.499   2.783  -1.016  1.00  0.00     0.133 A 
ATOM     28  C   UNL     1       2.239   4.661   1.025  1.00  0.00     0.001 A 
ATOM     29  C   UNL     1       3.273   3.944  -1.033  1.00  0.00     0.040 A 
ATOM     30  F   UNL     1       2.628   1.922  -2.037  1.00  0.00    -0.206 F 
ATOM     31  C   UNL     1       3.140   4.886  -0.013  1.00  0.00     0.003 A 
ENDBRANCH  23  25
ENDBRANCH  16  19
ENDBRANCH  14  15
ENDBRANCH   9  14
ENDBRANCH   6   8
ENDBRANCH   5   6
ENDBRANCH   4   5
ENDBRANCH   3   4
ENDBRANCH   2   3
ENDBRANCH   1   2
BRANCH   1  32
ATOM     32  C   UNL     1      -8.050  -3.816  -3.622  1.00  0.00     0.188 C 
BRANCH  32  33
ATOM     33  O   UNL     1      -8.352  -5.121  -4.048  1.00  0.00    -0.376 OA
BRANCH  33  34
ATOM     34  C   UNL     1      -9.688  -5.596  -4.055  1.00  0.00     0.202 C 
BRANCH  34  35
ATOM     35  C   UNL     1     -10.963  -4.743  -3.902  1.00  0.00     0.261 C 
BRANCH  35  36
ATOM     36  O   UNL     1     -10.827  -3.338  -3.692  1.00  0.00    -0.460 OA
BRANCH  36  37
ATOM     37  C   UNL     1     -10.986  -2.916  -2.416  1.00  0.00     0.338 C 
ATOM     38  O   UNL     1     -11.161  -3.596  -1.423  1.00  0.00    -0.246 OA
BRANCH  37  39
ATOM     39  C   UNL     1     -10.754  -1.461  -2.375  1.00  0.00     0.060 A 
ATOM     40  C   UNL     1      -9.648  -0.981  -1.664  1.00  0.00     0.016 A 
ATOM     41  C   UNL     1     -11.642  -0.581  -2.996  1.00  0.00     0.016 A 
ATOM     42  C   UNL     1      -9.441   0.393  -1.548  1.00  0.00     0.010 A 
ATOM     43  C   UNL     1     -11.441   0.796  -2.865  1.00  0.00     0.010 A 
ATOM     44  C   UNL     1     -10.357   1.288  -2.118  1.00  0.00    -0.014 A 
BRANCH  44  45
ATOM     45  C   UNL     1     -10.266   2.733  -1.801  1.00  0.00     0.031 A 
ATOM     46  C   UNL     1     -11.132   3.290  -0.706  1.00  0.00     0.074 A 
ATOM     47  C   UNL     1      -9.410   3.534  -2.458  1.00  0.00     0.049 A 
ATOM     48  N   UNL     1     -11.241   4.522  -0.279  1.00  0.00    -0.248 NA
ATOM     49  C   UNL     1     -11.989   2.327   0.005  1.00  0.00     0.031 C 
ATOM     50  C   UNL     1      -8.491   3.103  -3.509  1.00  0.00     0.029 A 
ATOM     51  N   UNL     1      -9.179   4.882  -2.337  1.00  0.00    -0.354 N 
ATOM     52  C   UNL     1     -12.176   4.482   0.746  1.00  0.00     0.074 A 
ATOM     53  C   UNL     1     -12.627   3.113   0.860  1.00  0.00     0.031 C 
ATOM     54  C   UNL     1      -7.798   4.170  -3.943  1.00  0.00     0.029 A 
ATOM     55  C   UNL     1      -8.247   5.362  -3.223  1.00  0.00     0.049 A 
ATOM     56  H   UNL     1      -9.639   5.450  -1.678  1.00  0.00     0.167 HD
ATOM     57  C   UNL     1     -12.609   5.497   1.530  1.00  0.00     0.037 A 
ATOM     58  C   UNL     1      -7.820   6.622  -3.439  1.00  0.00     0.037 A 
ATOM     59  C   UNL     1     -12.160   6.859   1.416  1.00  0.00     0.049 A 
ATOM     60  C   UNL     1      -8.377   7.748  -2.608  1.00  0.00     0.074 A 
ATOM     61  C   UNL     1     -12.530   7.953   2.178  1.00  0.00     0.029 A 
ATOM     62  N   UNL     1     -11.250   7.314   0.474  1.00  0.00    -0.354 N 
ATOM     63  N   UNL     1      -9.246   7.701  -1.627  1.00  0.00    -0.248 NA
ATOM     64  C   UNL     1      -7.896   9.104  -2.914  1.00  0.00     0.031 C 
ATOM     65  C   UNL     1     -11.884   9.081   1.664  1.00  0.00     0.029 A 
ATOM     66  C   UNL     1     -11.067   8.680   0.619  1.00  0.00     0.049 A 
ATOM     67  H   UNL     1     -10.800   6.752  -0.196  1.00  0.00     0.167 HD
ATOM     68  C   UNL     1      -9.397   9.009  -1.184  1.00  0.00     0.074 A 
ATOM     69  C   UNL     1      -8.523   9.829  -1.996  1.00  0.00     0.031 C 
ATOM     70  C   UNL     1     -10.189   9.485  -0.192  1.00  0.00     0.037 A 
BRANCH  57  71
ATOM     71  C   UNL     1     -13.634   5.180   2.578  1.00  0.00     0.064 A 
ATOM     72  C   UNL     1     -14.947   5.659   2.455  1.00  0.00     0.173 A 
ATOM     73  C   UNL     1     -13.302   4.460   3.735  1.00  0.00     0.173 A 
ATOM     74  F   UNL     1     -15.313   6.356   1.369  1.00  0.00    -0.203 F 
ATOM     75  C   UNL     1     -15.886   5.441   3.459  1.00  0.00     0.198 A 
ATOM     76  C   UNL     1     -14.252   4.219   4.725  1.00  0.00     0.198 A 
ATOM     77  F   UNL     1     -12.064   3.968   3.893  1.00  0.00    -0.203 F 
ATOM     78  F   UNL     1     -17.125   5.935   3.334  1.00  0.00    -0.200 F 
ATOM     79  C   UNL     1     -15.539   4.719   4.591  1.00  0.00     0.200 A 
ATOM     80  F   UNL     1     -13.922   3.501   5.807  1.00  0.00    -0.200 F 
ATOM     81  F   UNL     1     -16.447   4.501   5.553  1.00  0.00    -0.200 F 
ENDBRANCH  57  71
BRANCH  58  82
ATOM     82  C   UNL     1      -6.804   6.881  -4.492  1.00  0.00     0.064 A 
ATOM     83  C   UNL     1      -7.113   6.737  -5.853  1.00  0.00     0.173 A 
ATOM     84  C   UNL     1      -5.499   7.266  -4.157  1.00  0.00     0.173 A 
ATOM     85  F   UNL     1      -8.350   6.378  -6.226  1.00  0.00    -0.203 F 
ATOM     86  C   UNL     1      -6.149   6.946  -6.837  1.00  0.00     0.198 A 
ATOM     87  C   UNL     1      -4.542   7.499  -5.143  1.00  0.00     0.198 A 
ATOM     88  F   UNL     1      -5.164   7.444  -2.871  1.00  0.00    -0.203 F 
ATOM     89  F   UNL     1      -6.463   6.773  -8.128  1.00  0.00    -0.200 F 
ATOM     90  C   UNL     1      -4.865   7.330  -6.481  1.00  0.00     0.200 A 
ATOM     91  F   UNL     1      -3.311   7.899  -4.797  1.00  0.00    -0.200 F 
ATOM     92  F   UNL     1      -3.941   7.544  -7.428  1.00  0.00    -0.200 F 
ENDBRANCH  58  82
BRANCH  70  93
ATOM     93  C   UNL     1     -10.142  10.958   0.100  1.00  0.00     0.064 A 
ATOM     94  C   UNL     1      -9.584  11.426   1.300  1.00  0.00     0.173 A 
ATOM     95  C   UNL     1     -10.732  11.896  -0.759  1.00  0.00     0.173 A 
ATOM     96  F   UNL     1      -9.017  10.568   2.162  1.00  0.00    -0.203 F 
ATOM     97  C   UNL     1      -9.636  12.775   1.638  1.00  0.00     0.198 A 
ATOM     98  C   UNL     1     -10.756  13.249  -0.432  1.00  0.00     0.198 A 
ATOM     99  F   UNL     1     -11.270  11.501  -1.923  1.00  0.00    -0.203 F 
ATOM    100  F   UNL     1      -9.134  13.192   2.808  1.00  0.00    -0.200 F 
ATOM    101  C   UNL     1     -10.219  13.686   0.771  1.00  0.00     0.200 A 
ATOM    102  F   UNL     1     -11.301  14.132  -1.280  1.00  0.00    -0.200 F 
ATOM    103  F   UNL     1     -10.264  14.986   1.094  1.00  0.00    -0.200 F 
ENDBRANCH  70  93
ENDBRANCH  44  45
ENDBRANCH  37  39
ENDBRANCH  36  37
ENDBRANCH  35  36
ENDBRANCH  34  35
ENDBRANCH  33  34
ENDBRANCH  32  33
ENDBRANCH   1  32
TORSDOF 21
