REMARK SMILES Cc1cc(N2N=C(C(=O)OCCOCCOCCOC(=O)c3ccc(-c4c5nc(c(-c6c(F)c(F)c(F)c(F)c6F)c6ccc([nH]6)c(-c6c(F)c(F)c(F)c(F)c6F)c6nc(c(-c7c(F)c(F)c(F)c(F)c7F)c7ccc4[nH]7)C=C6)C=C5)cc3)C[C@H]2c2ccccc2)c([N+](=O)[O-])cc1C
REMARK SMILES IDX 14 1 13 2 12 3 11 4 10 5 8 6 9 7 7 8 5 9 6 10 86 11 85 12
REMARK SMILES IDX 4 13 1 14 2 15 3 16 98 17 97 18 99 19 93 20 94 21 95 22
REMARK SMILES IDX 96 23 87 24 88 25 92 26 89 27 91 28 90 29 15 30 16 31 17 32
REMARK SMILES IDX 18 33 19 34 20 35 21 36 22 37 23 38 84 39 24 40 83 41 25 42
REMARK SMILES IDX 26 43 27 44 77 45 28 46 82 47 76 48 78 49 29 50 81 51 75 52
REMARK SMILES IDX 74 53 30 55 62 56 42 57 61 58 43 59 46 60 60 61 79 62 44 63
REMARK SMILES IDX 45 64 59 66 80 67 47 68 31 69 32 70 40 71 33 72 34 73 38 74
REMARK SMILES IDX 41 75 35 76 36 77 39 78 37 79 63 80 64 81 72 82 65 83 66 84
REMARK SMILES IDX 70 85 73 86 67 87 68 88 71 89 69 90 48 91 49 92 57 93 50 94
REMARK SMILES IDX 51 95 55 96 58 97 52 98 53 99 56 100 54 101
REMARK H PARENT 78 54 46 65
REMARK Flexibility Score: inf
ROOT
ATOM      1  C   UNL     1      -7.213   0.378   2.423  1.00  0.00     0.188 C 
ENDROOT
BRANCH   1   2
ATOM      2  O   UNL     1      -8.110   0.952   3.370  1.00  0.00    -0.376 OA
BRANCH   2   3
ATOM      3  C   UNL     1      -8.709   2.214   3.097  1.00  0.00     0.202 C 
BRANCH   3   4
ATOM      4  C   UNL     1      -7.775   3.394   2.801  1.00  0.00     0.261 C 
BRANCH   4   5
ATOM      5  O   UNL     1      -6.850   3.119   1.736  1.00  0.00    -0.459 OA
BRANCH   5   6
ATOM      6  C   UNL     1      -5.561   3.418   2.003  1.00  0.00     0.354 C 
ATOM      7  O   UNL     1      -5.118   4.034   2.941  1.00  0.00    -0.245 OA
BRANCH   6   8
ATOM      8  C   UNL     1      -4.662   2.788   0.962  1.00  0.00     0.148 C 
ATOM      9  N   UNL     1      -3.023   1.784   0.091  1.00  0.00    -0.250 N 
ATOM     10  N   UNL     1      -3.629   2.063   1.278  1.00  0.00    -0.169 NA
ATOM     11  C   UNL     1      -3.527   2.608  -1.022  1.00  0.00     0.144 C 
ATOM     12  C   UNL     1      -4.933   2.943  -0.505  1.00  0.00     0.098 C 
BRANCH   9  13
ATOM     13  C   UNL     1      -1.903   0.968   0.050  1.00  0.00     0.138 A 
ATOM     14  C   UNL     1       1.856   1.555   0.433  1.00  0.00     0.045 C 
ATOM     15  C   UNL     1       0.560   0.814   0.253  1.00  0.00    -0.046 A 
ATOM     16  C   UNL     1      -0.647   1.536   0.335  1.00  0.00     0.039 A 
ATOM     17  C   UNL     1       0.518  -0.560  -0.019  1.00  0.00    -0.041 A 
ATOM     18  C   UNL     1      -0.728  -1.159  -0.264  1.00  0.00     0.091 A 
ATOM     19  C   UNL     1       1.740  -1.439  -0.022  1.00  0.00     0.045 C 
ATOM     20  C   UNL     1      -1.919  -0.399  -0.265  1.00  0.00     0.294 A 
BRANCH  20  21
ATOM     21  N   UNL     1      -3.160  -1.102  -0.620  1.00  0.00     0.065 N 
ATOM     22  O   UNL     1      -3.120  -2.342  -0.655  1.00  0.00    -0.258 OA
ATOM     23  O   UNL     1      -4.176  -0.453  -0.910  1.00  0.00    -0.258 OA
ENDBRANCH  20  21
ENDBRANCH   9  13
BRANCH  11  24
ATOM     24  C   UNL     1      -2.640   3.823  -1.287  1.00  0.00    -0.023 A 
ATOM     25  C   UNL     1      -2.940   5.117  -0.824  1.00  0.00     0.006 A 
ATOM     26  C   UNL     1      -1.447   3.651  -2.013  1.00  0.00     0.006 A 
ATOM     27  C   UNL     1      -2.087   6.192  -1.079  1.00  0.00     0.000 A 
ATOM     28  C   UNL     1      -0.576   4.720  -2.235  1.00  0.00     0.000 A 
ATOM     29  C   UNL     1      -0.899   5.991  -1.773  1.00  0.00     0.000 A 
ENDBRANCH  11  24
ENDBRANCH   6   8
ENDBRANCH   5   6
ENDBRANCH   4   5
ENDBRANCH   3   4
ENDBRANCH   2   3
ENDBRANCH   1   2
BRANCH   1  30
ATOM     30  C   UNL     1      -7.557   0.412   0.920  1.00  0.00     0.188 C 
BRANCH  30  31
ATOM     31  O   UNL     1      -8.832   0.948   0.618  1.00  0.00    -0.376 OA
BRANCH  31  32
ATOM     32  C   UNL     1      -9.763   0.037   0.048  1.00  0.00     0.202 C 
BRANCH  32  33
ATOM     33  C   UNL     1     -10.231  -1.101   0.968  1.00  0.00     0.261 C 
BRANCH  33  34
ATOM     34  O   UNL     1      -9.179  -1.892   1.551  1.00  0.00    -0.460 OA
BRANCH  34  35
ATOM     35  C   UNL     1      -8.571  -2.795   0.748  1.00  0.00     0.338 C 
ATOM     36  O   UNL     1      -8.820  -3.025  -0.420  1.00  0.00    -0.246 OA
BRANCH  35  37
ATOM     37  C   UNL     1      -7.422  -3.356   1.492  1.00  0.00     0.060 A 
ATOM     38  C   UNL     1      -6.126  -3.020   1.090  1.00  0.00     0.016 A 
ATOM     39  C   UNL     1      -7.619  -4.213   2.578  1.00  0.00     0.016 A 
ATOM     40  C   UNL     1      -5.026  -3.546   1.770  1.00  0.00     0.010 A 
ATOM     41  C   UNL     1      -6.511  -4.760   3.240  1.00  0.00     0.010 A 
ATOM     42  C   UNL     1      -5.205  -4.445   2.827  1.00  0.00    -0.014 A 
BRANCH  42  43
ATOM     43  C   UNL     1      -4.024  -5.162   3.376  1.00  0.00     0.031 A 
ATOM     44  C   UNL     1      -3.737  -6.559   2.895  1.00  0.00     0.074 A 
ATOM     45  C   UNL     1      -3.182  -4.567   4.241  1.00  0.00     0.049 A 
ATOM     46  N   UNL     1      -2.797  -7.391   3.267  1.00  0.00    -0.248 NA
ATOM     47  C   UNL     1      -4.628  -7.088   1.851  1.00  0.00     0.031 C 
ATOM     48  C   UNL     1      -3.302  -3.196   4.733  1.00  0.00     0.029 A 
ATOM     49  N   UNL     1      -2.054  -5.049   4.862  1.00  0.00    -0.354 N 
ATOM     50  C   UNL     1      -2.998  -8.545   2.521  1.00  0.00     0.074 A 
ATOM     51  C   UNL     1      -4.152  -8.313   1.681  1.00  0.00     0.031 C 
ATOM     52  C   UNL     1      -2.298  -2.952   5.593  1.00  0.00     0.029 A 
ATOM     53  C   UNL     1      -1.486  -4.159   5.741  1.00  0.00     0.049 A 
ATOM     54  H   UNL     1      -1.688  -5.947   4.693  1.00  0.00     0.167 HD
ATOM     55  C   UNL     1      -2.283  -9.694   2.535  1.00  0.00     0.037 A 
ATOM     56  C   UNL     1      -0.448  -4.313   6.588  1.00  0.00     0.037 A 
ATOM     57  C   UNL     1      -1.114  -9.918   3.344  1.00  0.00     0.049 A 
ATOM     58  C   UNL     1       0.290  -5.628   6.627  1.00  0.00     0.074 A 
ATOM     59  C   UNL     1      -0.301 -11.038   3.390  1.00  0.00     0.029 A 
ATOM     60  N   UNL     1      -0.593  -9.007   4.248  1.00  0.00    -0.354 N 
ATOM     61  N   UNL     1       0.107  -6.706   5.904  1.00  0.00    -0.248 NA
ATOM     62  C   UNL     1       1.383  -5.748   7.606  1.00  0.00     0.031 C 
ATOM     63  C   UNL     1       0.681 -10.825   4.363  1.00  0.00     0.029 A 
ATOM     64  C   UNL     1       0.512  -9.553   4.883  1.00  0.00     0.049 A 
ATOM     65  H   UNL     1      -0.954  -8.107   4.416  1.00  0.00     0.167 HD
ATOM     66  C   UNL     1       1.073  -7.615   6.318  1.00  0.00     0.074 A 
ATOM     67  C   UNL     1       1.855  -6.958   7.343  1.00  0.00     0.031 C 
ATOM     68  C   UNL     1       1.291  -8.883   5.891  1.00  0.00     0.037 A 
BRANCH  55  69
ATOM     69  C   UNL     1      -2.758 -10.826   1.674  1.00  0.00     0.064 A 
ATOM     70  C   UNL     1      -2.583 -10.823   0.283  1.00  0.00     0.173 A 
ATOM     71  C   UNL     1      -3.332 -11.962   2.264  1.00  0.00     0.173 A 
ATOM     72  F   UNL     1      -2.050  -9.755  -0.329  1.00  0.00    -0.203 F 
ATOM     73  C   UNL     1      -2.973 -11.916  -0.487  1.00  0.00     0.198 A 
ATOM     74  C   UNL     1      -3.697 -13.062   1.495  1.00  0.00     0.198 A 
ATOM     75  F   UNL     1      -3.516 -12.014   3.592  1.00  0.00    -0.203 F 
ATOM     76  F   UNL     1      -2.820 -11.885  -1.818  1.00  0.00    -0.200 F 
ATOM     77  C   UNL     1      -3.520 -13.038   0.120  1.00  0.00     0.200 A 
ATOM     78  F   UNL     1      -4.212 -14.150   2.085  1.00  0.00    -0.200 F 
ATOM     79  F   UNL     1      -3.876 -14.096  -0.621  1.00  0.00    -0.200 F 
ENDBRANCH  55  69
BRANCH  56  80
ATOM     80  C   UNL     1      -0.060  -3.213   7.513  1.00  0.00     0.064 A 
ATOM     81  C   UNL     1       1.185  -2.576   7.407  1.00  0.00     0.173 A 
ATOM     82  C   UNL     1      -0.900  -2.827   8.569  1.00  0.00     0.173 A 
ATOM     83  F   UNL     1       2.040  -2.934   6.438  1.00  0.00    -0.203 F 
ATOM     84  C   UNL     1       1.586  -1.619   8.339  1.00  0.00     0.198 A 
ATOM     85  C   UNL     1      -0.511  -1.847   9.480  1.00  0.00     0.198 A 
ATOM     86  F   UNL     1      -2.096  -3.413   8.725  1.00  0.00    -0.203 F 
ATOM     87  F   UNL     1       2.810  -1.080   8.256  1.00  0.00    -0.200 F 
ATOM     88  C   UNL     1       0.737  -1.253   9.372  1.00  0.00     0.200 A 
ATOM     89  F   UNL     1      -1.337  -1.494  10.475  1.00  0.00    -0.200 F 
ATOM     90  F   UNL     1       1.129  -0.344  10.275  1.00  0.00    -0.200 F 
ENDBRANCH  56  80
BRANCH  68  91
ATOM     91  C   UNL     1       2.442  -9.631   6.499  1.00  0.00     0.064 A 
ATOM     92  C   UNL     1       2.405 -10.092   7.824  1.00  0.00     0.173 A 
ATOM     93  C   UNL     1       3.584  -9.921   5.736  1.00  0.00     0.173 A 
ATOM     94  F   UNL     1       1.343  -9.829   8.600  1.00  0.00    -0.203 F 
ATOM     95  C   UNL     1       3.479 -10.789   8.370  1.00  0.00     0.198 A 
ATOM     96  C   UNL     1       4.643 -10.646   6.276  1.00  0.00     0.198 A 
ATOM     97  F   UNL     1       3.668  -9.512   4.461  1.00  0.00    -0.203 F 
ATOM     98  F   UNL     1       3.442 -11.175   9.653  1.00  0.00    -0.200 F 
ATOM     99  C   UNL     1       4.594 -11.072   7.594  1.00  0.00     0.200 A 
ATOM    100  F   UNL     1       5.713 -10.931   5.520  1.00  0.00    -0.200 F 
ATOM    101  F   UNL     1       5.625 -11.748   8.120  1.00  0.00    -0.200 F 
ENDBRANCH  68  91
ENDBRANCH  42  43
ENDBRANCH  35  37
ENDBRANCH  34  35
ENDBRANCH  33  34
ENDBRANCH  32  33
ENDBRANCH  31  32
ENDBRANCH  30  31
ENDBRANCH   1  30
TORSDOF 20
