REMARK SMILES CCCCOc1ccc(-c2nc(C)c(C(=O)OCCOCCOCCOC(=O)c3ccc(-c4c5nc(c(-c6c(F)c(F)c(F)c(F)c6F)c6ccc([nH]6)c(-c6c(F)c(F)c(F)c(F)c6F)c6nc(c(-c7c(F)c(F)c(F)c(F)c7F)c7ccc4[nH]7)C=C6)C=C5)cc3)s2)cc1OC
REMARK SMILES IDX 20 1 19 2 18 3 17 4 15 5 16 6 14 7 10 8 11 9 92 10 12 11
REMARK SMILES IDX 13 12 9 13 6 14 7 15 94 16 8 17 93 18 5 19 4 20 3 21 2 22
REMARK SMILES IDX 1 23 95 24 96 25 21 26 22 27 23 28 24 29 25 30 26 31 27 32
REMARK SMILES IDX 28 33 29 34 30 35 91 36 31 37 90 38 32 39 33 40 34 41 84 42
REMARK SMILES IDX 35 43 89 44 83 45 85 46 36 47 88 48 82 49 81 50 37 52 69 53
REMARK SMILES IDX 49 54 68 55 50 56 53 57 67 58 86 59 51 60 52 61 66 63 87 64
REMARK SMILES IDX 54 65 38 66 39 67 47 68 40 69 41 70 45 71 48 72 42 73 43 74
REMARK SMILES IDX 46 75 44 76 70 77 71 78 79 79 72 80 73 81 77 82 80 83 74 84
REMARK SMILES IDX 75 85 78 86 76 87 55 88 56 89 64 90 57 91 58 92 62 93 65 94
REMARK SMILES IDX 59 95 60 96 63 97 61 98
REMARK H PARENT 85 51 53 62
REMARK Flexibility Score: inf
ROOT
ATOM      1  O   UNL     1      -6.473  -4.275   6.282  1.00  0.00    -0.376 OA
ENDROOT
BRANCH   1   2
ATOM      2  C   UNL     1      -7.433  -5.132   5.679  1.00  0.00     0.202 C 
BRANCH   2   3
ATOM      3  C   UNL     1      -8.133  -4.627   4.415  1.00  0.00     0.261 C 
BRANCH   3   4
ATOM      4  O   UNL     1      -7.218  -4.263   3.367  1.00  0.00    -0.459 OA
BRANCH   4   5
ATOM      5  C   UNL     1      -7.317  -2.981   2.912  1.00  0.00     0.350 C 
ATOM      6  O   UNL     1      -8.193  -2.196   3.257  1.00  0.00    -0.245 OA
BRANCH   5   7
ATOM      7  C   UNL     1      -6.188  -2.647   2.072  1.00  0.00     0.135 A 
ATOM      8  C   UNL     1      -4.358  -1.417   1.034  1.00  0.00     0.124 A 
ATOM      9  N   UNL     1      -4.363  -2.661   0.607  1.00  0.00    -0.240 NA
ATOM     10  S   UNL     1      -5.627  -1.020   2.115  1.00  0.00    -0.106 S 
ATOM     11  C   UNL     1      -5.391  -3.386   1.208  1.00  0.00     0.064 A 
ATOM     12  C   UNL     1      -5.510  -4.820   0.823  1.00  0.00     0.068 C 
BRANCH   8  13
ATOM     13  C   UNL     1      -3.404  -0.383   0.626  1.00  0.00     0.014 A 
ATOM     14  C   UNL     1      -1.568   1.600  -0.167  1.00  0.00     0.161 A 
ATOM     15  C   UNL     1      -2.293   0.879  -1.124  1.00  0.00     0.051 A 
ATOM     16  C   UNL     1      -1.805   1.375   1.195  1.00  0.00     0.161 A 
ATOM     17  C   UNL     1      -3.193  -0.116  -0.731  1.00  0.00     0.015 A 
ATOM     18  C   UNL     1      -2.695   0.364   1.578  1.00  0.00     0.061 A 
BRANCH  14  19
ATOM     19  O   UNL     1      -0.666   2.551  -0.557  1.00  0.00    -0.490 OA
BRANCH  19  20
ATOM     20  C   UNL     1       0.388   2.070  -1.401  1.00  0.00     0.230 C 
BRANCH  20  21
ATOM     21  C   UNL     1       1.699   1.941  -0.618  1.00  0.00     0.041 C 
BRANCH  21  22
ATOM     22  C   UNL     1       1.749   0.782   0.382  1.00  0.00     0.000 C 
ATOM     23  C   UNL     1       1.685  -0.590  -0.271  1.00  0.00     0.004 C 
ENDBRANCH  21  22
ENDBRANCH  20  21
ENDBRANCH  19  20
ENDBRANCH  14  19
BRANCH  16  24
ATOM     24  O   UNL     1      -1.197   1.995   2.255  1.00  0.00    -0.493 OA
ATOM     25  C   UNL     1      -0.848   3.363   2.076  1.00  0.00     0.278 C 
ENDBRANCH  16  24
ENDBRANCH   8  13
ENDBRANCH   5   7
ENDBRANCH   4   5
ENDBRANCH   3   4
ENDBRANCH   2   3
ENDBRANCH   1   2
BRANCH   1  26
ATOM     26  C   UNL     1      -5.303  -3.905   5.562  1.00  0.00     0.188 C 
BRANCH  26  27
ATOM     27  C   UNL     1      -4.556  -4.937   4.694  1.00  0.00     0.188 C 
BRANCH  27  28
ATOM     28  O   UNL     1      -4.956  -6.283   4.889  1.00  0.00    -0.376 OA
BRANCH  28  29
ATOM     29  C   UNL     1      -3.971  -7.145   5.446  1.00  0.00     0.202 C 
BRANCH  29  30
ATOM     30  C   UNL     1      -3.783  -6.965   6.956  1.00  0.00     0.261 C 
BRANCH  30  31
ATOM     31  O   UNL     1      -3.350  -5.653   7.354  1.00  0.00    -0.460 OA
BRANCH  31  32
ATOM     32  C   UNL     1      -2.108  -5.287   6.971  1.00  0.00     0.338 C 
ATOM     33  O   UNL     1      -1.308  -5.945   6.330  1.00  0.00    -0.246 OA
BRANCH  32  34
ATOM     34  C   UNL     1      -1.917  -3.868   7.328  1.00  0.00     0.060 A 
ATOM     35  C   UNL     1      -1.553  -2.963   6.323  1.00  0.00     0.016 A 
ATOM     36  C   UNL     1      -2.064  -3.442   8.650  1.00  0.00     0.016 A 
ATOM     37  C   UNL     1      -1.289  -1.632   6.651  1.00  0.00     0.010 A 
ATOM     38  C   UNL     1      -1.784  -2.113   8.979  1.00  0.00     0.010 A 
ATOM     39  C   UNL     1      -1.357  -1.212   7.987  1.00  0.00    -0.014 A 
BRANCH  39  40
ATOM     40  C   UNL     1      -0.773   0.094   8.377  1.00  0.00     0.031 A 
ATOM     41  C   UNL     1       0.657   0.121   8.846  1.00  0.00     0.074 A 
ATOM     42  C   UNL     1      -1.480   1.235   8.305  1.00  0.00     0.049 A 
ATOM     43  N   UNL     1       1.385   1.131   9.249  1.00  0.00    -0.248 NA
ATOM     44  C   UNL     1       1.360  -1.173   8.865  1.00  0.00     0.031 C 
ATOM     45  C   UNL     1      -2.861   1.349   7.845  1.00  0.00     0.029 A 
ATOM     46  N   UNL     1      -1.122   2.522   8.628  1.00  0.00    -0.354 N 
ATOM     47  C   UNL     1       2.627   0.597   9.563  1.00  0.00     0.074 A 
ATOM     48  C   UNL     1       2.547  -0.830   9.340  1.00  0.00     0.031 C 
ATOM     49  C   UNL     1      -3.239   2.638   7.922  1.00  0.00     0.029 A 
ATOM     50  C   UNL     1      -2.133   3.434   8.455  1.00  0.00     0.049 A 
ATOM     51  H   UNL     1      -0.225   2.766   8.952  1.00  0.00     0.167 HD
ATOM     52  C   UNL     1       3.742   1.238   9.987  1.00  0.00     0.037 A 
ATOM     53  C   UNL     1      -2.161   4.757   8.711  1.00  0.00     0.037 A 
ATOM     54  C   UNL     1       3.825   2.654  10.219  1.00  0.00     0.049 A 
ATOM     55  C   UNL     1      -0.925   5.439   9.242  1.00  0.00     0.074 A 
ATOM     56  C   UNL     1       4.912   3.397  10.647  1.00  0.00     0.029 A 
ATOM     57  N   UNL     1       2.774   3.541  10.049  1.00  0.00    -0.354 N 
ATOM     58  N   UNL     1       0.256   4.933   9.502  1.00  0.00    -0.248 NA
ATOM     59  C   UNL     1      -1.026   6.882   9.508  1.00  0.00     0.031 C 
ATOM     60  C   UNL     1       4.506   4.730  10.773  1.00  0.00     0.029 A 
ATOM     61  C   UNL     1       3.181   4.823  10.379  1.00  0.00     0.049 A 
ATOM     62  H   UNL     1       1.872   3.297   9.739  1.00  0.00     0.167 HD
ATOM     63  C   UNL     1       1.045   5.996   9.925  1.00  0.00     0.074 A 
ATOM     64  C   UNL     1       0.211   7.178   9.882  1.00  0.00     0.031 C 
ATOM     65  C   UNL     1       2.345   5.994  10.310  1.00  0.00     0.037 A 
BRANCH  52  66
ATOM     66  C   UNL     1       4.957   0.399  10.247  1.00  0.00     0.064 A 
ATOM     67  C   UNL     1       5.698  -0.164   9.197  1.00  0.00     0.173 A 
ATOM     68  C   UNL     1       5.395   0.168  11.559  1.00  0.00     0.173 A 
ATOM     69  F   UNL     1       5.309   0.014   7.925  1.00  0.00    -0.203 F 
ATOM     70  C   UNL     1       6.819  -0.948   9.453  1.00  0.00     0.198 A 
ATOM     71  C   UNL     1       6.532  -0.595  11.810  1.00  0.00     0.198 A 
ATOM     72  F   UNL     1       4.721   0.685  12.598  1.00  0.00    -0.203 F 
ATOM     73  F   UNL     1       7.485  -1.514   8.437  1.00  0.00    -0.200 F 
ATOM     74  C   UNL     1       7.238  -1.158  10.758  1.00  0.00     0.200 A 
ATOM     75  F   UNL     1       6.941  -0.790  13.071  1.00  0.00    -0.200 F 
ATOM     76  F   UNL     1       8.319  -1.911  11.003  1.00  0.00    -0.200 F 
ENDBRANCH  52  66
BRANCH  53  77
ATOM     77  C   UNL     1      -3.402   5.536   8.466  1.00  0.00     0.064 A 
ATOM     78  C   UNL     1      -3.469   6.482   7.433  1.00  0.00     0.173 A 
ATOM     79  C   UNL     1      -4.533   5.376   9.279  1.00  0.00     0.173 A 
ATOM     80  F   UNL     1      -2.402   6.693   6.648  1.00  0.00    -0.203 F 
ATOM     81  C   UNL     1      -4.614   7.253   7.237  1.00  0.00     0.198 A 
ATOM     82  C   UNL     1      -5.686   6.129   9.066  1.00  0.00     0.198 A 
ATOM     83  F   UNL     1      -4.516   4.490  10.286  1.00  0.00    -0.203 F 
ATOM     84  F   UNL     1      -4.633   8.186   6.275  1.00  0.00    -0.200 F 
ATOM     85  C   UNL     1      -5.723   7.072   8.050  1.00  0.00     0.200 A 
ATOM     86  F   UNL     1      -6.756   5.949   9.851  1.00  0.00    -0.200 F 
ATOM     87  F   UNL     1      -6.821   7.816   7.863  1.00  0.00    -0.200 F 
ENDBRANCH  53  77
BRANCH  65  88
ATOM     88  C   UNL     1       2.966   7.313  10.665  1.00  0.00     0.064 A 
ATOM     89  C   UNL     1       2.657   7.978  11.860  1.00  0.00     0.173 A 
ATOM     90  C   UNL     1       3.924   7.893   9.819  1.00  0.00     0.173 A 
ATOM     91  F   UNL     1       1.739   7.471  12.697  1.00  0.00    -0.203 F 
ATOM     92  C   UNL     1       3.267   9.188  12.184  1.00  0.00     0.198 A 
ATOM     93  C   UNL     1       4.552   9.088  10.159  1.00  0.00     0.198 A 
ATOM     94  F   UNL     1       4.262   7.292   8.668  1.00  0.00    -0.203 F 
ATOM     95  F   UNL     1       2.926   9.827  13.311  1.00  0.00    -0.200 F 
ATOM     96  C   UNL     1       4.218   9.737  11.338  1.00  0.00     0.200 A 
ATOM     97  F   UNL     1       5.481   9.611   9.346  1.00  0.00    -0.200 F 
ATOM     98  F   UNL     1       4.810  10.897  11.655  1.00  0.00    -0.200 F 
ENDBRANCH  65  88
ENDBRANCH  39  40
ENDBRANCH  32  34
ENDBRANCH  31  32
ENDBRANCH  30  31
ENDBRANCH  29  30
ENDBRANCH  28  29
ENDBRANCH  27  28
ENDBRANCH  26  27
ENDBRANCH   1  26
TORSDOF 23
