REMARK SMILES C[C@@H]([NH2+]CC(C)(C)S(C)(=O)=O)C(=O)OCCOCCOCCOC(=O)c1ccc(-c2c3nc(c(-c4c(F)c(F)c(F)c(F)c4F)c4ccc([nH]4)c(-c4c(F)c(F)c(F)c(F)c4F)c4nc(c(-c5c(F)c(F)c(F)c(F)c5F)c5ccc2[nH]5)C=C4)C=C3)cc1
REMARK SMILES IDX 18 1 17 2 16 3 15 4 14 5 12 6 13 7 2 8 1 9 3 10 4 13 5 14
REMARK SMILES IDX 6 15 7 16 8 17 9 18 10 19 11 20 19 21 20 22 21 23 22 24
REMARK SMILES IDX 23 25 24 26 25 27 26 28 27 29 88 30 28 31 87 32 29 33 30 34
REMARK SMILES IDX 31 35 81 36 32 37 86 38 80 39 82 40 33 41 85 42 79 43 78 44
REMARK SMILES IDX 34 46 66 47 46 48 65 49 47 50 50 51 64 52 83 53 48 54 49 55
REMARK SMILES IDX 63 57 84 58 51 59 35 60 36 61 44 62 37 63 38 64 42 65 45 66
REMARK SMILES IDX 39 67 40 68 43 69 41 70 67 71 68 72 76 73 69 74 70 75 74 76
REMARK SMILES IDX 77 77 71 78 72 79 75 80 73 81 52 82 53 83 61 84 54 85 55 86
REMARK SMILES IDX 59 87 62 88 56 89 57 90 60 91 58 92
REMARK H PARENT 3 11 3 12 82 45 50 56
REMARK Flexibility Score: inf
ROOT
ATOM      1  C   UNL     1      -2.336   1.414   0.078  1.00  0.00     0.188 C 
ENDROOT
BRANCH   1   2
ATOM      2  O   UNL     1      -3.645   0.865   0.120  1.00  0.00    -0.376 OA
BRANCH   2   3
ATOM      3  C   UNL     1      -3.974  -0.004  -0.962  1.00  0.00     0.202 C 
BRANCH   3   4
ATOM      4  C   UNL     1      -3.266  -1.368  -0.954  1.00  0.00     0.261 C 
BRANCH   4   5
ATOM      5  O   UNL     1      -1.833  -1.283  -0.887  1.00  0.00    -0.459 OA
BRANCH   5   6
ATOM      6  C   UNL     1      -1.173  -0.995  -2.042  1.00  0.00     0.364 C 
ATOM      7  O   UNL     1      -1.762  -0.811  -3.100  1.00  0.00    -0.245 OA
BRANCH   6   8
ATOM      8  C   UNL     1       0.333  -0.719  -1.763  1.00  0.00     0.290 C 
ATOM      9  C   UNL     1       0.913  -1.630  -0.664  1.00  0.00     0.088 C 
BRANCH   8  10
ATOM     10  N   UNL     1       1.215  -0.799  -2.948  1.00  0.00    -0.333 N 
ATOM     11  H   UNL     1       1.253  -1.780  -3.226  1.00  0.00     0.347 HD
ATOM     12  H   UNL     1       2.090  -0.381  -2.630  1.00  0.00     0.347 HD
BRANCH  10  13
ATOM     13  C   UNL     1       0.873  -0.028  -4.142  1.00  0.00     0.283 C 
BRANCH  13  14
ATOM     14  C   UNL     1       1.367   1.423  -4.406  1.00  0.00     0.115 C 
ATOM     15  C   UNL     1       2.886   1.534  -4.206  1.00  0.00     0.034 C 
ATOM     16  C   UNL     1       1.038   1.730  -5.888  1.00  0.00     0.034 C 
BRANCH  14  17
ATOM     17  S   UNL     1       0.558   2.717  -3.386  1.00  0.00     0.158 S 
ATOM     18  C   UNL     1      -1.183   2.646  -3.742  1.00  0.00     0.159 C 
ATOM     19  O   UNL     1       0.719   2.405  -1.979  1.00  0.00    -0.228 OA
ATOM     20  O   UNL     1       1.008   4.014  -3.864  1.00  0.00    -0.228 OA
ENDBRANCH  14  17
ENDBRANCH  13  14
ENDBRANCH  10  13
ENDBRANCH   8  10
ENDBRANCH   6   8
ENDBRANCH   5   6
ENDBRANCH   4   5
ENDBRANCH   3   4
ENDBRANCH   2   3
ENDBRANCH   1   2
BRANCH   1  21
ATOM     21  C   UNL     1      -1.347   0.830   1.106  1.00  0.00     0.188 C 
BRANCH  21  22
ATOM     22  O   UNL     1      -1.721  -0.246   1.950  1.00  0.00    -0.376 OA
BRANCH  22  23
ATOM     23  C   UNL     1      -2.953  -0.165   2.654  1.00  0.00     0.202 C 
BRANCH  23  24
ATOM     24  C   UNL     1      -3.232   1.049   3.555  1.00  0.00     0.261 C 
BRANCH  24  25
ATOM     25  O   UNL     1      -2.923   2.327   2.976  1.00  0.00    -0.460 OA
BRANCH  25  26
ATOM     26  C   UNL     1      -1.858   2.964   3.527  1.00  0.00     0.338 C 
ATOM     27  O   UNL     1      -1.179   2.600   4.470  1.00  0.00    -0.246 OA
BRANCH  26  28
ATOM     28  C   UNL     1      -1.499   4.133   2.701  1.00  0.00     0.060 A 
ATOM     29  C   UNL     1      -0.237   4.156   2.087  1.00  0.00     0.016 A 
ATOM     30  C   UNL     1      -2.354   5.230   2.608  1.00  0.00     0.016 A 
ATOM     31  C   UNL     1       0.188   5.289   1.399  1.00  0.00     0.010 A 
ATOM     32  C   UNL     1      -1.911   6.381   1.951  1.00  0.00     0.010 A 
ATOM     33  C   UNL     1      -0.626   6.426   1.378  1.00  0.00    -0.014 A 
BRANCH  33  34
ATOM     34  C   UNL     1      -0.054   7.731   0.975  1.00  0.00     0.031 A 
ATOM     35  C   UNL     1       0.492   8.625   2.053  1.00  0.00     0.074 A 
ATOM     36  C   UNL     1      -0.019   8.118  -0.310  1.00  0.00     0.049 A 
ATOM     37  N   UNL     1       0.918   9.859   1.979  1.00  0.00    -0.248 NA
ATOM     38  C   UNL     1       0.562   8.043   3.404  1.00  0.00     0.031 C 
ATOM     39  C   UNL     1      -0.440   7.309  -1.449  1.00  0.00     0.029 A 
ATOM     40  N   UNL     1       0.379   9.309  -0.864  1.00  0.00    -0.354 N 
ATOM     41  C   UNL     1       1.291  10.205   3.271  1.00  0.00     0.074 A 
ATOM     42  C   UNL     1       1.025   9.060   4.114  1.00  0.00     0.031 C 
ATOM     43  C   UNL     1      -0.307   8.039  -2.571  1.00  0.00     0.029 A 
ATOM     44  C   UNL     1       0.170   9.376  -2.218  1.00  0.00     0.049 A 
ATOM     45  H   UNL     1       0.775  10.043  -0.341  1.00  0.00     0.167 HD
ATOM     46  C   UNL     1       1.810  11.374   3.713  1.00  0.00     0.037 A 
ATOM     47  C   UNL     1       0.316  10.414  -3.065  1.00  0.00     0.037 A 
ATOM     48  C   UNL     1       2.070  12.511   2.871  1.00  0.00     0.049 A 
ATOM     49  C   UNL     1       0.808  11.737  -2.535  1.00  0.00     0.074 A 
ATOM     50  C   UNL     1       2.595  13.742   3.219  1.00  0.00     0.029 A 
ATOM     51  N   UNL     1       1.816  12.552   1.508  1.00  0.00    -0.354 N 
ATOM     52  N   UNL     1       1.155  12.065  -1.313  1.00  0.00    -0.248 NA
ATOM     53  C   UNL     1       0.929  12.836  -3.505  1.00  0.00     0.031 C 
ATOM     54  C   UNL     1       2.614  14.546   2.075  1.00  0.00     0.029 A 
ATOM     55  C   UNL     1       2.152  13.798   1.004  1.00  0.00     0.049 A 
ATOM     56  H   UNL     1       1.452  11.807   0.978  1.00  0.00     0.167 HD
ATOM     57  C   UNL     1       1.567  13.391  -1.373  1.00  0.00     0.074 A 
ATOM     58  C   UNL     1       1.429  13.807  -2.753  1.00  0.00     0.031 C 
ATOM     59  C   UNL     1       2.023  14.190  -0.377  1.00  0.00     0.037 A 
BRANCH  46  60
ATOM     60  C   UNL     1       2.087  11.491   5.182  1.00  0.00     0.064 A 
ATOM     61  C   UNL     1       3.143  10.799   5.793  1.00  0.00     0.173 A 
ATOM     62  C   UNL     1       1.287  12.315   5.989  1.00  0.00     0.173 A 
ATOM     63  F   UNL     1       3.925   9.984   5.069  1.00  0.00    -0.203 F 
ATOM     64  C   UNL     1       3.371  10.906   7.163  1.00  0.00     0.198 A 
ATOM     65  C   UNL     1       1.535  12.442   7.352  1.00  0.00     0.198 A 
ATOM     66  F   UNL     1       0.264  12.998   5.453  1.00  0.00    -0.203 F 
ATOM     67  F   UNL     1       4.353  10.197   7.735  1.00  0.00    -0.200 F 
ATOM     68  C   UNL     1       2.571  11.732   7.940  1.00  0.00     0.200 A 
ATOM     69  F   UNL     1       0.768  13.247   8.099  1.00  0.00    -0.200 F 
ATOM     70  F   UNL     1       2.793  11.836   9.257  1.00  0.00    -0.200 F 
ENDBRANCH  46  60
BRANCH  47  71
ATOM     71  C   UNL     1      -0.034  10.253  -4.499  1.00  0.00     0.064 A 
ATOM     72  C   UNL     1       0.955  10.274  -5.492  1.00  0.00     0.173 A 
ATOM     73  C   UNL     1      -1.367  10.094  -4.908  1.00  0.00     0.173 A 
ATOM     74  F   UNL     1       2.239  10.458  -5.153  1.00  0.00    -0.203 F 
ATOM     75  C   UNL     1       0.623  10.156  -6.840  1.00  0.00     0.198 A 
ATOM     76  C   UNL     1      -1.694   9.949  -6.254  1.00  0.00     0.198 A 
ATOM     77  F   UNL     1      -2.352  10.075  -3.998  1.00  0.00    -0.203 F 
ATOM     78  F   UNL     1       1.583  10.226  -7.773  1.00  0.00    -0.200 F 
ATOM     79  C   UNL     1      -0.700   9.987  -7.220  1.00  0.00     0.200 A 
ATOM     80  F   UNL     1      -2.974   9.779  -6.616  1.00  0.00    -0.200 F 
ATOM     81  F   UNL     1      -1.018   9.873  -8.516  1.00  0.00    -0.200 F 
ENDBRANCH  47  71
BRANCH  59  82
ATOM     82  C   UNL     1       2.455  15.579  -0.745  1.00  0.00     0.064 A 
ATOM     83  C   UNL     1       1.528  16.580  -1.071  1.00  0.00     0.173 A 
ATOM     84  C   UNL     1       3.815  15.927  -0.714  1.00  0.00     0.173 A 
ATOM     85  F   UNL     1       0.219  16.295  -1.127  1.00  0.00    -0.203 F 
ATOM     86  C   UNL     1       1.949  17.873  -1.372  1.00  0.00     0.198 A 
ATOM     87  C   UNL     1       4.229  17.227  -0.987  1.00  0.00     0.198 A 
ATOM     88  F   UNL     1       4.741  15.009  -0.399  1.00  0.00    -0.203 F 
ATOM     89  F   UNL     1       1.050  18.803  -1.721  1.00  0.00    -0.200 F 
ATOM     90  C   UNL     1       3.297  18.197  -1.322  1.00  0.00     0.200 A 
ATOM     91  F   UNL     1       5.530  17.542  -0.924  1.00  0.00    -0.200 F 
ATOM     92  F   UNL     1       3.698  19.445  -1.602  1.00  0.00    -0.200 F 
ENDBRANCH  59  82
ENDBRANCH  33  34
ENDBRANCH  26  28
ENDBRANCH  25  26
ENDBRANCH  24  25
ENDBRANCH  23  24
ENDBRANCH  22  23
ENDBRANCH  21  22
ENDBRANCH   1  21
TORSDOF 21
