REMARK SMILES O=C(OCCOCCOCCOC(=O)c1sccc1S(=O)(=O)Nc1ccccc1N1CCCCC1)c1ccc(-c2c3nc(c(-c4c(F)c(F)c(F)c(F)c4F)c4ccc([nH]4)c(-c4c(F)c(F)c(F)c(F)c4F)c4nc(c(-c5c(F)c(F)c(F)c(F)c5F)c5ccc2[nH]5)C=C4)C=C3)cc1
REMARK SMILES IDX 8 1 7 2 6 3 5 4 4 5 3 6 2 7 1 8 36 9 37 10 98 11 38 12 97 13
REMARK SMILES IDX 39 14 40 15 41 16 91 17 42 18 96 19 90 20 92 21 43 22 95 23
REMARK SMILES IDX 89 24 88 25 44 27 76 28 56 29 75 30 57 31 60 32 74 33 93 34
REMARK SMILES IDX 58 35 59 36 73 38 94 39 61 40 45 41 46 42 54 43 47 44 48 45
REMARK SMILES IDX 52 46 55 47 49 48 50 49 53 50 51 51 77 52 78 53 86 54 79 55
REMARK SMILES IDX 80 56 84 57 87 58 81 59 82 60 85 61 83 62 62 63 63 64 71 65
REMARK SMILES IDX 64 66 65 67 69 68 72 69 66 70 67 71 70 72 68 73 9 74 10 75
REMARK SMILES IDX 11 76 12 77 13 78 14 79 15 80 16 81 19 82 17 83 18 84 20 85
REMARK SMILES IDX 21 86 22 87 23 88 24 90 25 91 29 92 26 93 28 94 27 95 30 96
REMARK SMILES IDX 31 97 35 98 32 99 34 100 33 101
REMARK H PARENT 92 26 60 37 23 89
REMARK Flexibility Score: inf
ROOT
ATOM      1  C   UNL     1       3.156   0.373   3.092  1.00  0.00     0.188 C 
ENDROOT
BRANCH   1   2
ATOM      2  C   UNL     1       3.015   0.950   1.681  1.00  0.00     0.188 C 
BRANCH   2   3
ATOM      3  O   UNL     1       4.146   0.544   0.912  1.00  0.00    -0.376 OA
BRANCH   3   4
ATOM      4  C   UNL     1       4.857   1.591   0.277  1.00  0.00     0.202 C 
BRANCH   4   5
ATOM      5  C   UNL     1       4.388   1.800  -1.165  1.00  0.00     0.261 C 
BRANCH   5   6
ATOM      6  O   UNL     1       3.004   1.446  -1.344  1.00  0.00    -0.460 OA
BRANCH   6   7
ATOM      7  C   UNL     1       2.504   0.287  -1.846  1.00  0.00     0.338 C 
ATOM      8  O   UNL     1       1.298   0.225  -2.088  1.00  0.00    -0.246 OA
BRANCH   7   9
ATOM      9  C   UNL     1       3.344  -0.905  -2.199  1.00  0.00     0.060 A 
ATOM     10  C   UNL     1       4.526  -1.276  -1.554  1.00  0.00     0.016 A 
ATOM     11  C   UNL     1       2.855  -1.766  -3.195  1.00  0.00     0.016 A 
ATOM     12  C   UNL     1       5.236  -2.425  -1.907  1.00  0.00     0.010 A 
ATOM     13  C   UNL     1       3.540  -2.943  -3.531  1.00  0.00     0.010 A 
ATOM     14  C   UNL     1       4.747  -3.272  -2.894  1.00  0.00    -0.014 A 
BRANCH  14  15
ATOM     15  C   UNL     1       5.537  -4.443  -3.339  1.00  0.00     0.031 A 
ATOM     16  C   UNL     1       6.204  -4.385  -4.673  1.00  0.00     0.074 A 
ATOM     17  C   UNL     1       5.729  -5.520  -2.555  1.00  0.00     0.049 A 
ATOM     18  N   UNL     1       6.832  -5.328  -5.321  1.00  0.00    -0.248 NA
ATOM     19  C   UNL     1       6.233  -3.069  -5.332  1.00  0.00     0.031 C 
ATOM     20  C   UNL     1       5.392  -5.610  -1.143  1.00  0.00     0.029 A 
ATOM     21  N   UNL     1       6.222  -6.769  -2.848  1.00  0.00    -0.354 N 
ATOM     22  C   UNL     1       7.379  -4.710  -6.432  1.00  0.00     0.074 A 
ATOM     23  C   UNL     1       6.957  -3.326  -6.410  1.00  0.00     0.031 C 
ATOM     24  C   UNL     1       5.532  -6.878  -0.728  1.00  0.00     0.029 A 
ATOM     25  C   UNL     1       5.957  -7.685  -1.855  1.00  0.00     0.049 A 
ATOM     26  H   UNL     1       6.710  -6.985  -3.675  1.00  0.00     0.167 HD
ATOM     27  C   UNL     1       8.197  -5.253  -7.360  1.00  0.00     0.037 A 
ATOM     28  C   UNL     1       5.991  -9.028  -1.877  1.00  0.00     0.037 A 
ATOM     29  C   UNL     1       8.583  -6.637  -7.372  1.00  0.00     0.049 A 
ATOM     30  C   UNL     1       6.605  -9.683  -3.074  1.00  0.00     0.074 A 
ATOM     31  C   UNL     1       9.393  -7.304  -8.270  1.00  0.00     0.029 A 
ATOM     32  N   UNL     1       8.158  -7.575  -6.438  1.00  0.00    -0.354 N 
ATOM     33  N   UNL     1       7.108  -9.112  -4.141  1.00  0.00    -0.248 NA
ATOM     34  C   UNL     1       6.716 -11.145  -3.058  1.00  0.00     0.031 C 
ATOM     35  C   UNL     1       9.408  -8.659  -7.915  1.00  0.00     0.029 A 
ATOM     36  C   UNL     1       8.642  -8.828  -6.771  1.00  0.00     0.049 A 
ATOM     37  H   UNL     1       7.596  -7.377  -5.655  1.00  0.00     0.167 HD
ATOM     38  C   UNL     1       7.663 -10.132  -4.891  1.00  0.00     0.074 A 
ATOM     39  C   UNL     1       7.401 -11.365  -4.172  1.00  0.00     0.031 C 
ATOM     40  C   UNL     1       8.361 -10.044  -6.048  1.00  0.00     0.037 A 
BRANCH  27  41
ATOM     41  C   UNL     1       8.680  -4.343  -8.443  1.00  0.00     0.064 A 
ATOM     42  C   UNL     1       9.671  -3.378  -8.206  1.00  0.00     0.173 A 
ATOM     43  C   UNL     1       8.120  -4.415  -9.725  1.00  0.00     0.173 A 
ATOM     44  F   UNL     1      10.212  -3.250  -6.985  1.00  0.00    -0.203 F 
ATOM     45  C   UNL     1      10.070  -2.503  -9.213  1.00  0.00     0.198 A 
ATOM     46  C   UNL     1       8.535  -3.551 -10.734  1.00  0.00     0.198 A 
ATOM     47  F   UNL     1       7.158  -5.310  -9.992  1.00  0.00    -0.203 F 
ATOM     48  F   UNL     1      10.984  -1.557  -8.955  1.00  0.00    -0.200 F 
ATOM     49  C   UNL     1       9.504  -2.593 -10.476  1.00  0.00     0.200 A 
ATOM     50  F   UNL     1       7.984  -3.634 -11.953  1.00  0.00    -0.200 F 
ATOM     51  F   UNL     1       9.882  -1.744 -11.442  1.00  0.00    -0.200 F 
ENDBRANCH  27  41
BRANCH  28  52
ATOM     52  C   UNL     1       5.379  -9.818  -0.777  1.00  0.00     0.064 A 
ATOM     53  C   UNL     1       6.148 -10.554   0.131  1.00  0.00     0.173 A 
ATOM     54  C   UNL     1       3.981  -9.874  -0.641  1.00  0.00     0.173 A 
ATOM     55  F   UNL     1       7.484 -10.555   0.028  1.00  0.00    -0.203 F 
ATOM     56  C   UNL     1       5.544 -11.336   1.118  1.00  0.00     0.198 A 
ATOM     57  C   UNL     1       3.380 -10.641   0.356  1.00  0.00     0.198 A 
ATOM     58  F   UNL     1       3.194  -9.191  -1.486  1.00  0.00    -0.203 F 
ATOM     59  F   UNL     1       6.303 -12.073   1.941  1.00  0.00    -0.200 F 
ATOM     60  C   UNL     1       4.162 -11.379   1.230  1.00  0.00     0.200 A 
ATOM     61  F   UNL     1       2.044 -10.676   0.457  1.00  0.00    -0.200 F 
ATOM     62  F   UNL     1       3.584 -12.148   2.163  1.00  0.00    -0.200 F 
ENDBRANCH  28  52
BRANCH  40  63
ATOM     63  C   UNL     1       8.927 -11.320  -6.583  1.00  0.00     0.064 A 
ATOM     64  C   UNL     1       8.113 -12.284  -7.190  1.00  0.00     0.173 A 
ATOM     65  C   UNL     1      10.305 -11.568  -6.500  1.00  0.00     0.173 A 
ATOM     66  F   UNL     1       6.786 -12.098  -7.264  1.00  0.00    -0.203 F 
ATOM     67  C   UNL     1       8.658 -13.466  -7.680  1.00  0.00     0.198 A 
ATOM     68  C   UNL     1      10.850 -12.737  -7.017  1.00  0.00     0.198 A 
ATOM     69  F   UNL     1      11.121 -10.673  -5.923  1.00  0.00    -0.203 F 
ATOM     70  F   UNL     1       7.857 -14.398  -8.215  1.00  0.00    -0.200 F 
ATOM     71  C   UNL     1      10.025 -13.687  -7.601  1.00  0.00     0.200 A 
ATOM     72  F   UNL     1      12.171 -12.946  -6.948  1.00  0.00    -0.200 F 
ATOM     73  F   UNL     1      10.548 -14.824  -8.081  1.00  0.00    -0.200 F 
ENDBRANCH  40  63
ENDBRANCH  14  15
ENDBRANCH   7   9
ENDBRANCH   6   7
ENDBRANCH   5   6
ENDBRANCH   4   5
ENDBRANCH   3   4
ENDBRANCH   2   3
ENDBRANCH   1   2
BRANCH   1  74
ATOM     74  O   UNL     1       4.510   0.511   3.524  1.00  0.00    -0.376 OA
BRANCH  74  75
ATOM     75  C   UNL     1       5.202  -0.714   3.783  1.00  0.00     0.202 C 
BRANCH  75  76
ATOM     76  C   UNL     1       5.402  -1.715   2.631  1.00  0.00     0.261 C 
BRANCH  76  77
ATOM     77  O   UNL     1       4.519  -2.865   2.657  1.00  0.00    -0.459 OA
BRANCH  77  78
ATOM     78  C   UNL     1       3.543  -2.916   1.712  1.00  0.00     0.349 C 
ATOM     79  O   UNL     1       3.086  -1.929   1.163  1.00  0.00    -0.245 OA
BRANCH  78  80
ATOM     80  C   UNL     1       3.158  -4.272   1.358  1.00  0.00     0.133 A 
ATOM     81  S   UNL     1       2.250  -4.406  -0.129  1.00  0.00    -0.136 S 
ATOM     82  C   UNL     1       3.363  -5.526   1.912  1.00  0.00     0.113 A 
ATOM     83  C   UNL     1       2.159  -6.100  -0.027  1.00  0.00     0.067 A 
ATOM     84  C   UNL     1       2.752  -6.569   1.120  1.00  0.00     0.035 A 
BRANCH  82  85
ATOM     85  S   UNL     1       4.305  -5.905   3.316  1.00  0.00     0.263 S 
ATOM     86  O   UNL     1       4.316  -7.359   3.322  1.00  0.00    -0.201 OA
ATOM     87  O   UNL     1       5.564  -5.221   3.115  1.00  0.00    -0.201 OA
BRANCH  85  88
ATOM     88  N   UNL     1       3.687  -5.471   4.815  1.00  0.00    -0.277 N 
ATOM     89  H   UNL     1       3.812  -6.089   5.571  1.00  0.00     0.180 HD
BRANCH  88  90
ATOM     90  C   UNL     1       2.983  -4.241   5.043  1.00  0.00     0.072 A 
ATOM     91  C   UNL     1       3.611  -3.284   5.855  1.00  0.00     0.029 A 
ATOM     92  C   UNL     1       1.669  -4.020   4.563  1.00  0.00     0.061 A 
ATOM     93  C   UNL     1       2.956  -2.098   6.194  1.00  0.00     0.002 A 
ATOM     94  C   UNL     1       1.061  -2.791   4.884  1.00  0.00     0.028 A 
ATOM     95  C   UNL     1       1.688  -1.844   5.694  1.00  0.00     0.002 A 
BRANCH  92  96
ATOM     96  N   UNL     1       0.928  -4.975   3.880  1.00  0.00    -0.370 N 
ATOM     97  C   UNL     1       0.118  -4.619   2.714  1.00  0.00     0.116 C 
ATOM     98  C   UNL     1       0.847  -6.341   4.399  1.00  0.00     0.116 C 
ATOM     99  C   UNL     1      -1.325  -5.066   2.853  1.00  0.00     0.021 C 
ATOM    100  C   UNL     1      -0.614  -6.770   4.527  1.00  0.00     0.021 C 
ATOM    101  C   UNL     1      -1.376  -6.543   3.226  1.00  0.00     0.004 C 
ENDBRANCH  92  96
ENDBRANCH  88  90
ENDBRANCH  85  88
ENDBRANCH  82  85
ENDBRANCH  78  80
ENDBRANCH  77  78
ENDBRANCH  76  77
ENDBRANCH  75  76
ENDBRANCH  74  75
ENDBRANCH   1  74
TORSDOF 21
