REMARK SMILES O=C(OCCOCCOCCOC(=O)c1cc(-c2ccc[nH]c2=O)ccc1Cl)c1ccc(-c2c3nc(c(-c4c(F)c(F)c(F)c(F)c4F)c4ccc([nH]4)c(-c4c(F)c(F)c(F)c(F)c4F)c4nc(c(-c5c(F)c(F)c(F)c(F)c5F)c5ccc2[nH]5)C=C4)C=C3)cc1
REMARK SMILES IDX 7 1 6 2 5 3 4 4 3 5 2 6 1 7 29 8 30 9 91 10 31 11 90 12
REMARK SMILES IDX 32 13 33 14 34 15 84 16 35 17 89 18 83 19 85 20 36 21 88 22
REMARK SMILES IDX 82 23 81 24 37 26 69 27 49 28 68 29 50 30 53 31 67 32 86 33
REMARK SMILES IDX 51 34 52 35 66 37 87 38 54 39 38 40 39 41 47 42 40 43 41 44
REMARK SMILES IDX 45 45 48 46 42 47 43 48 46 49 44 50 70 51 71 52 79 53 72 54
REMARK SMILES IDX 73 55 77 56 80 57 74 58 75 59 78 60 76 61 55 62 56 63 64 64
REMARK SMILES IDX 57 65 58 66 62 67 65 68 59 69 60 70 63 71 61 72 8 73 9 74
REMARK SMILES IDX 10 75 11 76 12 77 13 78 14 79 15 80 16 81 27 82 17 83 26 84
REMARK SMILES IDX 28 85 25 86 18 87 19 88 23 89 20 90 22 91 24 92 21 93
REMARK H PARENT 85 25 53 36 22 94
REMARK Flexibility Score: inf
ROOT
ATOM      1  C   UNL     1       2.379   2.267  -0.547  1.00  0.00     0.188 C 
ENDROOT
BRANCH   1   2
ATOM      2  O   UNL     1       3.607   1.685  -0.089  1.00  0.00    -0.376 OA
BRANCH   2   3
ATOM      3  C   UNL     1       4.403   1.125  -1.135  1.00  0.00     0.202 C 
BRANCH   3   4
ATOM      4  C   UNL     1       4.083  -0.344  -1.448  1.00  0.00     0.261 C 
BRANCH   4   5
ATOM      5  O   UNL     1       2.691  -0.655  -1.245  1.00  0.00    -0.460 OA
BRANCH   5   6
ATOM      6  C   UNL     1       2.130  -1.268  -0.172  1.00  0.00     0.338 C 
ATOM      7  O   UNL     1       0.929  -1.531  -0.182  1.00  0.00    -0.246 OA
BRANCH   6   8
ATOM      8  C   UNL     1       2.925  -1.705   1.010  1.00  0.00     0.060 A 
ATOM      9  C   UNL     1       4.017  -1.004   1.513  1.00  0.00     0.016 A 
ATOM     10  C   UNL     1       2.509  -2.862   1.691  1.00  0.00     0.016 A 
ATOM     11  C   UNL     1       4.781  -1.518   2.552  1.00  0.00     0.010 A 
ATOM     12  C   UNL     1       3.218  -3.333   2.804  1.00  0.00     0.010 A 
ATOM     13  C   UNL     1       4.391  -2.687   3.209  1.00  0.00    -0.014 A 
BRANCH  13  14
ATOM     14  C   UNL     1       5.293  -3.237   4.249  1.00  0.00     0.031 A 
ATOM     15  C   UNL     1       6.029  -4.517   3.983  1.00  0.00     0.074 A 
ATOM     16  C   UNL     1       5.571  -2.505   5.345  1.00  0.00     0.049 A 
ATOM     17  N   UNL     1       6.888  -5.151   4.738  1.00  0.00    -0.248 NA
ATOM     18  C   UNL     1       5.779  -5.166   2.685  1.00  0.00     0.031 C 
ATOM     19  C   UNL     1       4.985  -1.199   5.650  1.00  0.00     0.029 A 
ATOM     20  N   UNL     1       6.456  -2.718   6.371  1.00  0.00    -0.354 N 
ATOM     21  C   UNL     1       7.265  -6.276   4.018  1.00  0.00     0.074 A 
ATOM     22  C   UNL     1       6.527  -6.254   2.774  1.00  0.00     0.031 C 
ATOM     23  C   UNL     1       5.575  -0.700   6.747  1.00  0.00     0.029 A 
ATOM     24  C   UNL     1       6.512  -1.682   7.272  1.00  0.00     0.049 A 
ATOM     25  H   UNL     1       6.999  -3.535   6.455  1.00  0.00     0.167 HD
ATOM     26  C   UNL     1       8.155  -7.235   4.362  1.00  0.00     0.037 A 
ATOM     27  C   UNL     1       7.224  -1.545   8.406  1.00  0.00     0.037 A 
ATOM     28  C   UNL     1       8.889  -7.241   5.597  1.00  0.00     0.049 A 
ATOM     29  C   UNL     1       8.158  -2.656   8.796  1.00  0.00     0.074 A 
ATOM     30  C   UNL     1       9.743  -8.207   6.097  1.00  0.00     0.029 A 
ATOM     31  N   UNL     1       8.865  -6.208   6.525  1.00  0.00    -0.354 N 
ATOM     32  N   UNL     1       8.437  -3.761   8.148  1.00  0.00    -0.248 NA
ATOM     33  C   UNL     1       8.867  -2.509  10.072  1.00  0.00     0.031 C 
ATOM     34  C   UNL     1      10.219  -7.767   7.338  1.00  0.00     0.029 A 
ATOM     35  C   UNL     1       9.688  -6.512   7.595  1.00  0.00     0.049 A 
ATOM     36  H   UNL     1       8.338  -5.380   6.435  1.00  0.00     0.167 HD
ATOM     37  C   UNL     1       9.354  -4.442   8.933  1.00  0.00     0.074 A 
ATOM     38  C   UNL     1       9.611  -3.607  10.090  1.00  0.00     0.031 C 
ATOM     39  C   UNL     1       9.921  -5.655   8.729  1.00  0.00     0.037 A 
BRANCH  26  40
ATOM     40  C   UNL     1       8.335  -8.370   3.399  1.00  0.00     0.064 A 
ATOM     41  C   UNL     1       9.037  -8.209   2.195  1.00  0.00     0.173 A 
ATOM     42  C   UNL     1       7.770  -9.625   3.669  1.00  0.00     0.173 A 
ATOM     43  F   UNL     1       9.568  -7.019   1.878  1.00  0.00    -0.203 F 
ATOM     44  C   UNL     1       9.143  -9.257   1.284  1.00  0.00     0.198 A 
ATOM     45  C   UNL     1       7.897 -10.677   2.766  1.00  0.00     0.198 A 
ATOM     46  F   UNL     1       7.082  -9.827   4.802  1.00  0.00    -0.203 F 
ATOM     47  F   UNL     1       9.768  -9.065   0.114  1.00  0.00    -0.200 F 
ATOM     48  C   UNL     1       8.576 -10.490   1.571  1.00  0.00     0.200 A 
ATOM     49  F   UNL     1       7.348 -11.867   3.044  1.00  0.00    -0.200 F 
ATOM     50  F   UNL     1       8.668 -11.494   0.688  1.00  0.00    -0.200 F 
ENDBRANCH  26  40
BRANCH  27  51
ATOM     51  C   UNL     1       7.048  -0.339   9.261  1.00  0.00     0.064 A 
ATOM     52  C   UNL     1       8.091   0.573   9.467  1.00  0.00     0.173 A 
ATOM     53  C   UNL     1       5.824  -0.078   9.900  1.00  0.00     0.173 A 
ATOM     54  F   UNL     1       9.287   0.362   8.897  1.00  0.00    -0.203 F 
ATOM     55  C   UNL     1       7.925   1.686  10.291  1.00  0.00     0.198 A 
ATOM     56  C   UNL     1       5.649   1.051  10.696  1.00  0.00     0.198 A 
ATOM     57  F   UNL     1       4.787  -0.913   9.734  1.00  0.00    -0.203 F 
ATOM     58  F   UNL     1       8.955   2.515  10.509  1.00  0.00    -0.200 F 
ATOM     59  C   UNL     1       6.702   1.928  10.900  1.00  0.00     0.200 A 
ATOM     60  F   UNL     1       4.459   1.287  11.265  1.00  0.00    -0.200 F 
ATOM     61  F   UNL     1       6.542   2.998  11.691  1.00  0.00    -0.200 F 
ENDBRANCH  27  51
BRANCH  39  62
ATOM     62  C   UNL     1      10.875  -6.136   9.777  1.00  0.00     0.064 A 
ATOM     63  C   UNL     1      10.417  -6.603  11.017  1.00  0.00     0.173 A 
ATOM     64  C   UNL     1      12.255  -6.152   9.530  1.00  0.00     0.173 A 
ATOM     65  F   UNL     1       9.106  -6.589  11.301  1.00  0.00    -0.203 F 
ATOM     66  C   UNL     1      11.311  -7.049  11.985  1.00  0.00     0.198 A 
ATOM     67  C   UNL     1      13.144  -6.621  10.492  1.00  0.00     0.198 A 
ATOM     68  F   UNL     1      12.737  -5.717   8.357  1.00  0.00    -0.203 F 
ATOM     69  F   UNL     1      10.857  -7.450  13.180  1.00  0.00    -0.200 F 
ATOM     70  C   UNL     1      12.673  -7.062  11.719  1.00  0.00     0.200 A 
ATOM     71  F   UNL     1      14.459  -6.641  10.232  1.00  0.00    -0.200 F 
ATOM     72  F   UNL     1      13.533  -7.493  12.652  1.00  0.00    -0.200 F 
ENDBRANCH  39  62
ENDBRANCH  13  14
ENDBRANCH   6   8
ENDBRANCH   5   6
ENDBRANCH   4   5
ENDBRANCH   3   4
ENDBRANCH   2   3
ENDBRANCH   1   2
BRANCH   1  73
ATOM     73  C   UNL     1       1.928   3.372   0.411  1.00  0.00     0.188 C 
BRANCH  73  74
ATOM     74  O   UNL     1       2.682   4.582   0.309  1.00  0.00    -0.376 OA
BRANCH  74  75
ATOM     75  C   UNL     1       4.049   4.526   0.710  1.00  0.00     0.202 C 
BRANCH  75  76
ATOM     76  C   UNL     1       4.306   4.574   2.220  1.00  0.00     0.261 C 
BRANCH  76  77
ATOM     77  O   UNL     1       3.816   3.436   2.954  1.00  0.00    -0.460 OA
BRANCH  77  78
ATOM     78  C   UNL     1       2.762   3.705   3.763  1.00  0.00     0.339 C 
ATOM     79  O   UNL     1       2.090   4.721   3.798  1.00  0.00    -0.246 OA
BRANCH  78  80
ATOM     80  C   UNL     1       2.505   2.580   4.670  1.00  0.00     0.079 A 
ATOM     81  C   UNL     1       1.412   1.737   4.410  1.00  0.00     0.026 A 
ATOM     82  C   UNL     1       3.204   2.485   5.877  1.00  0.00     0.055 A 
ATOM     83  C   UNL     1       1.011   0.800   5.372  1.00  0.00    -0.012 A 
ATOM     84  C   UNL     1       2.796   1.557   6.836  1.00  0.00     0.022 A 
ATOM     85  Cl  UNL     1       4.557   3.489   6.253  1.00  0.00    -0.083 Cl
ATOM     86  C   UNL     1       1.710   0.718   6.584  1.00  0.00     0.010 A 
BRANCH  83  87
ATOM     87  C   UNL     1      -0.171  -0.053   5.181  1.00  0.00     0.047 A 
ATOM     88  C   UNL     1      -0.132  -1.126   4.369  1.00  0.00     0.016 A 
ATOM     89  C   UNL     1      -1.431   0.206   5.964  1.00  0.00     0.255 A 
ATOM     90  C   UNL     1      -1.266  -2.015   4.246  1.00  0.00     0.019 A 
ATOM     91  N   UNL     1      -2.451  -0.699   5.785  1.00  0.00    -0.329 N 
ATOM     92  O   UNL     1      -1.548   1.160   6.727  1.00  0.00    -0.269 OA
ATOM     93  C   UNL     1      -2.378  -1.784   4.953  1.00  0.00     0.086 A 
ATOM     94  H   UNL     1      -3.286  -0.558   6.287  1.00  0.00     0.169 HD
ENDBRANCH  83  87
ENDBRANCH  78  80
ENDBRANCH  77  78
ENDBRANCH  76  77
ENDBRANCH  75  76
ENDBRANCH  74  75
ENDBRANCH  73  74
ENDBRANCH   1  73
TORSDOF 18
