REMARK SMILES Cc1ccc(Nc2c(F)cccc2I)c(CC(=O)OCCOCCOCCOC(=O)c2ccc(-c3c4nc(c(-c5c(F)c(F)c(F)c(F)c5F)c5ccc([nH]5)c(-c5c(F)c(F)c(F)c(F)c5F)c5nc(c(-c6c(F)c(F)c(F)c(F)c6F)c6ccc3[nH]6)C=C5)C=C4)cc2)c1
REMARK SMILES IDX 23 1 22 2 21 3 20 4 19 5 17 6 18 7 16 8 15 9 1 10 2 11 3 12
REMARK SMILES IDX 94 13 4 14 5 15 6 16 7 18 8 19 13 20 9 21 10 22 12 23 14 24
REMARK SMILES IDX 11 25 24 26 25 27 26 28 27 29 28 30 29 31 30 32 31 33 32 34
REMARK SMILES IDX 93 35 33 36 92 37 34 38 35 39 36 40 86 41 37 42 91 43 85 44
REMARK SMILES IDX 87 45 38 46 90 47 84 48 83 49 39 51 71 52 51 53 70 54 52 55
REMARK SMILES IDX 55 56 69 57 88 58 53 59 54 60 68 62 89 63 56 64 40 65 41 66
REMARK SMILES IDX 49 67 42 68 43 69 47 70 50 71 44 72 45 73 48 74 46 75 72 76
REMARK SMILES IDX 73 77 81 78 74 79 75 80 79 81 82 82 76 83 77 84 80 85 78 86
REMARK SMILES IDX 57 87 58 88 66 89 59 90 60 91 64 92 67 93 61 94 62 95 65 96
REMARK SMILES IDX 63 97
REMARK H PARENT 6 17 87 50 55 61
REMARK Flexibility Score: inf
ROOT
ATOM      1  C   UNL     1      -4.760   0.835  -4.015  1.00  0.00     0.188 C 
ENDROOT
BRANCH   1   2
ATOM      2  O   UNL     1      -4.246   2.004  -4.595  1.00  0.00    -0.376 OA
BRANCH   2   3
ATOM      3  C   UNL     1      -2.883   2.104  -4.918  1.00  0.00     0.202 C 
BRANCH   3   4
ATOM      4  C   UNL     1      -1.615   2.572  -4.037  1.00  0.00     0.261 C 
BRANCH   4   5
ATOM      5  O   UNL     1      -1.049   2.417  -2.330  1.00  0.00    -0.463 OA
BRANCH   5   6
ATOM      6  C   UNL     1      -0.968   3.098  -0.848  1.00  0.00     0.310 C 
ATOM      7  O   UNL     1      -1.399   4.142  -0.342  1.00  0.00    -0.252 OA
BRANCH   6   8
ATOM      8  C   UNL     1      -0.517   2.189   0.156  1.00  0.00     0.160 C 
BRANCH   8   9
ATOM      9  C   UNL     1      -0.513   0.914  -0.614  1.00  0.00    -0.013 A 
ATOM     10  C   UNL     1       3.104  -0.175  -0.027  1.00  0.00     0.044 C 
ATOM     11  C   UNL     1       1.610  -0.212  -0.068  1.00  0.00    -0.051 A 
ATOM     12  C   UNL     1       0.841  -1.076   0.678  1.00  0.00     0.005 A 
ATOM     13  C   UNL     1       0.923   0.732  -0.793  1.00  0.00     0.009 A 
ATOM     14  C   UNL     1      -0.586  -0.982   0.656  1.00  0.00     0.026 A 
ATOM     15  C   UNL     1      -1.520  -0.003  -0.214  1.00  0.00     0.042 A 
BRANCH  15  16
ATOM     16  N   UNL     1      -3.399  -0.429  -0.823  1.00  0.00    -0.352 N 
ATOM     17  H   UNL     1      -3.662   0.077  -1.625  1.00  0.00     0.167 HD
BRANCH  16  18
ATOM     18  C   UNL     1      -4.721  -1.540  -0.225  1.00  0.00     0.088 A 
ATOM     19  C   UNL     1      -4.514  -2.534   0.952  1.00  0.00     0.147 A 
ATOM     20  C   UNL     1      -5.934  -1.829  -0.900  1.00  0.00     0.040 A 
ATOM     21  F   UNL     1      -3.354  -2.732   1.621  1.00  0.00    -0.205 F 
ATOM     22  C   UNL     1      -5.390  -3.533   1.378  1.00  0.00     0.041 A 
ATOM     23  C   UNL     1      -6.760  -2.944  -0.442  1.00  0.00     0.017 A 
ATOM     24  I   UNL     1      -6.994  -1.032  -2.472  1.00  0.00    -0.042 I 
ATOM     25  C   UNL     1      -6.511  -3.769   0.653  1.00  0.00     0.004 A 
ENDBRANCH  16  18
ENDBRANCH  15  16
ENDBRANCH   8   9
ENDBRANCH   6   8
ENDBRANCH   5   6
ENDBRANCH   4   5
ENDBRANCH   3   4
ENDBRANCH   2   3
ENDBRANCH   1   2
BRANCH   1  26
ATOM     26  C   UNL     1      -4.314  -0.571  -4.433  1.00  0.00     0.188 C 
BRANCH  26  27
ATOM     27  O   UNL     1      -2.937  -0.734  -4.679  1.00  0.00    -0.376 OA
BRANCH  27  28
ATOM     28  C   UNL     1      -2.510  -2.089  -4.860  1.00  0.00     0.202 C 
BRANCH  28  29
ATOM     29  C   UNL     1      -2.958  -3.220  -3.830  1.00  0.00     0.261 C 
BRANCH  29  30
ATOM     30  O   UNL     1      -2.193  -3.307  -2.554  1.00  0.00    -0.460 OA
BRANCH  30  31
ATOM     31  C   UNL     1      -2.800  -3.258  -1.280  1.00  0.00     0.338 C 
ATOM     32  O   UNL     1      -3.647  -4.088  -1.007  1.00  0.00    -0.246 OA
BRANCH  31  33
ATOM     33  C   UNL     1      -2.302  -1.906  -0.429  1.00  0.00     0.060 A 
ATOM     34  C   UNL     1      -2.950  -0.666   0.946  1.00  0.00     0.016 A 
ATOM     35  C   UNL     1      -1.892  -1.105  -1.991  1.00  0.00     0.016 A 
ATOM     36  C   UNL     1      -3.286   1.131   0.450  1.00  0.00     0.010 A 
ATOM     37  C   UNL     1      -2.330   0.547  -2.328  1.00  0.00     0.010 A 
ATOM     38  C   UNL     1      -3.016   1.785  -1.240  1.00  0.00    -0.014 A 
BRANCH  38  39
ATOM     39  C   UNL     1      -3.035   3.491  -2.037  1.00  0.00     0.031 A 
ATOM     40  C   UNL     1      -1.569   4.633  -2.491  1.00  0.00     0.074 A 
ATOM     41  C   UNL     1      -4.127   3.953  -2.690  1.00  0.00     0.049 A 
ATOM     42  N   UNL     1      -1.345   5.877  -2.103  1.00  0.00    -0.248 NA
ATOM     43  C   UNL     1      -0.051   4.208  -3.023  1.00  0.00     0.031 C 
ATOM     44  C   UNL     1      -4.146   5.013  -3.718  1.00  0.00     0.029 A 
ATOM     45  N   UNL     1      -5.457   3.518  -2.672  1.00  0.00    -0.354 N 
ATOM     46  C   UNL     1       0.027   6.198  -2.416  1.00  0.00     0.074 A 
ATOM     47  C   UNL     1       0.785   5.020  -2.426  1.00  0.00     0.031 C 
ATOM     48  C   UNL     1      -5.422   5.355  -3.979  1.00  0.00     0.029 A 
ATOM     49  C   UNL     1      -6.235   4.651  -3.006  1.00  0.00     0.049 A 
ATOM     50  H   UNL     1      -5.783   2.612  -2.470  1.00  0.00     0.167 HD
ATOM     51  C   UNL     1       0.400   7.247  -3.214  1.00  0.00     0.037 A 
ATOM     52  C   UNL     1      -6.965   5.237  -2.018  1.00  0.00     0.037 A 
ATOM     53  C   UNL     1      -0.820   7.910  -3.583  1.00  0.00     0.049 A 
ATOM     54  C   UNL     1      -6.383   6.589  -1.669  1.00  0.00     0.074 A 
ATOM     55  C   UNL     1      -1.651   7.827  -4.685  1.00  0.00     0.029 A 
ATOM     56  N   UNL     1      -1.599   8.332  -2.527  1.00  0.00    -0.354 N 
ATOM     57  N   UNL     1      -5.152   6.947  -1.939  1.00  0.00    -0.248 NA
ATOM     58  C   UNL     1      -7.168   7.684  -1.115  1.00  0.00     0.031 C 
ATOM     59  C   UNL     1      -2.966   8.181  -4.245  1.00  0.00     0.029 A 
ATOM     60  C   UNL     1      -2.914   8.473  -2.891  1.00  0.00     0.049 A 
ATOM     61  H   UNL     1      -1.254   8.510  -1.623  1.00  0.00     0.167 HD
ATOM     62  C   UNL     1      -4.982   8.269  -1.655  1.00  0.00     0.074 A 
ATOM     63  C   UNL     1      -6.269   8.684  -1.133  1.00  0.00     0.031 C 
ATOM     64  C   UNL     1      -3.823   8.956  -1.869  1.00  0.00     0.037 A 
BRANCH  51  65
ATOM     65  C   UNL     1       1.766   7.397  -3.920  1.00  0.00     0.064 A 
ATOM     66  C   UNL     1       1.869   8.164  -5.098  1.00  0.00     0.173 A 
ATOM     67  C   UNL     1       3.006   6.838  -3.499  1.00  0.00     0.173 A 
ATOM     68  F   UNL     1       0.806   8.808  -5.594  1.00  0.00    -0.203 F 
ATOM     69  C   UNL     1       3.069   8.317  -5.811  1.00  0.00     0.198 A 
ATOM     70  C   UNL     1       4.188   6.923  -4.256  1.00  0.00     0.198 A 
ATOM     71  F   UNL     1       3.144   6.236  -2.310  1.00  0.00    -0.203 F 
ATOM     72  F   UNL     1       3.097   9.099  -6.899  1.00  0.00    -0.200 F 
ATOM     73  C   UNL     1       4.223   7.677  -5.406  1.00  0.00     0.200 A 
ATOM     74  F   UNL     1       5.296   6.285  -3.847  1.00  0.00    -0.200 F 
ATOM     75  F   UNL     1       5.363   7.816  -6.098  1.00  0.00    -0.200 F 
ENDBRANCH  51  65
BRANCH  52  76
ATOM     76  C   UNL     1      -7.565   4.184  -1.141  1.00  0.00     0.064 A 
ATOM     77  C   UNL     1      -8.523   3.333  -1.746  1.00  0.00     0.173 A 
ATOM     78  C   UNL     1      -6.901   3.687  -0.009  1.00  0.00     0.173 A 
ATOM     79  F   UNL     1      -9.133   3.713  -2.882  1.00  0.00    -0.203 F 
ATOM     80  C   UNL     1      -8.749   2.037  -1.288  1.00  0.00     0.198 A 
ATOM     81  C   UNL     1      -7.124   2.379   0.441  1.00  0.00     0.198 A 
ATOM     82  F   UNL     1      -5.943   4.410   0.585  1.00  0.00    -0.203 F 
ATOM     83  F   UNL     1      -9.566   1.220  -1.971  1.00  0.00    -0.200 F 
ATOM     84  C   UNL     1      -8.045   1.560  -0.195  1.00  0.00     0.200 A 
ATOM     85  F   UNL     1      -6.390   1.875   1.444  1.00  0.00    -0.200 F 
ATOM     86  F   UNL     1      -8.213   0.294   0.216  1.00  0.00    -0.200 F 
ENDBRANCH  52  76
BRANCH  64  87
ATOM     87  C   UNL     1      -3.413  10.180  -1.074  1.00  0.00     0.064 A 
ATOM     88  C   UNL     1      -3.957  10.490   0.181  1.00  0.00     0.173 A 
ATOM     89  C   UNL     1      -2.303  10.978  -1.463  1.00  0.00     0.173 A 
ATOM     90  F   UNL     1      -4.886   9.718   0.759  1.00  0.00    -0.203 F 
ATOM     91  C   UNL     1      -3.520  11.585   0.921  1.00  0.00     0.198 A 
ATOM     92  C   UNL     1      -1.783  11.982  -0.655  1.00  0.00     0.198 A 
ATOM     93  F   UNL     1      -1.656  10.795  -2.624  1.00  0.00    -0.203 F 
ATOM     94  F   UNL     1      -4.160  11.910   2.052  1.00  0.00    -0.200 F 
ATOM     95  C   UNL     1      -2.424  12.320   0.513  1.00  0.00     0.200 A 
ATOM     96  F   UNL     1      -0.655  12.609  -1.018  1.00  0.00    -0.200 F 
ATOM     97  F   UNL     1      -1.980  13.344   1.252  1.00  0.00    -0.200 F 
ENDBRANCH  64  87
ENDBRANCH  38  39
ENDBRANCH  31  33
ENDBRANCH  30  31
ENDBRANCH  29  30
ENDBRANCH  28  29
ENDBRANCH  27  28
ENDBRANCH  26  27
ENDBRANCH   1  26
TORSDOF 20
