REMARK SMILES Nc1ccc2[nH]cc(C(=O)OCCOCCOCCOC(=O)c3ccc(-c4c5nc(c(-c6c(F)c(F)c(F)c(F)c6F)c6ccc([nH]6)c(-c6c(F)c(F)c(F)c(F)c6F)c6nc(c(-c7c(F)c(F)c(F)c(F)c7F)c7ccc4[nH]7)C=C6)C=C5)cc3)c2c1
REMARK SMILES IDX 16 1 15 2 14 3 13 4 12 5 11 6 9 7 10 8 8 9 2 10 3 11 87 12
REMARK SMILES IDX 4 13 86 14 5 15 6 16 7 17 1 19 17 22 18 23 19 24 20 25 21 26
REMARK SMILES IDX 22 27 23 28 24 29 85 30 25 31 84 32 26 33 27 34 28 35 78 36
REMARK SMILES IDX 29 37 83 38 77 39 79 40 30 41 82 42 76 43 75 44 31 46 63 47
REMARK SMILES IDX 43 48 62 49 44 50 47 51 61 52 80 53 45 54 46 55 60 57 81 58
REMARK SMILES IDX 48 59 32 60 33 61 41 62 34 63 35 64 39 65 42 66 36 67 37 68
REMARK SMILES IDX 40 69 38 70 64 71 65 72 73 73 66 74 67 75 71 76 74 77 68 78
REMARK SMILES IDX 69 79 72 80 70 81 49 82 50 83 58 84 51 85 52 86 56 87 59 88
REMARK SMILES IDX 53 89 54 90 57 91 55 92
REMARK H PARENT 6 18 1 20 1 21 79 45 47 56
REMARK Flexibility Score: inf
ROOT
ATOM      1  C   UNL     1      -2.436   4.919   0.766  1.00  0.00     0.188 C 
ENDROOT
BRANCH   1   2
ATOM      2  C   UNL     1      -3.964   4.748   0.613  1.00  0.00     0.188 C 
BRANCH   2   3
ATOM      3  O   UNL     1      -4.773   4.637   1.770  1.00  0.00    -0.376 OA
BRANCH   3   4
ATOM      4  C   UNL     1      -4.464   3.602   2.693  1.00  0.00     0.202 C 
BRANCH   4   5
ATOM      5  C   UNL     1      -4.429   2.192   2.099  1.00  0.00     0.261 C 
BRANCH   5   6
ATOM      6  O   UNL     1      -3.183   2.000   1.402  1.00  0.00    -0.460 OA
BRANCH   6   7
ATOM      7  C   UNL     1      -3.286   1.395   0.182  1.00  0.00     0.340 C 
ATOM      8  O   UNL     1      -4.270   0.817  -0.221  1.00  0.00    -0.246 OA
BRANCH   7   9
ATOM      9  C   UNL     1      -2.161   1.721  -0.687  1.00  0.00     0.085 A 
ATOM     10  C   UNL     1       1.201  -0.048  -0.437  1.00  0.00     0.032 A 
ATOM     11  C   UNL     1       1.626   0.299  -1.722  1.00  0.00     0.027 A 
ATOM     12  C   UNL     1      -0.086   0.302  -0.010  1.00  0.00     0.036 A 
ATOM     13  C   UNL     1       0.876   1.144  -2.537  1.00  0.00     0.029 A 
ATOM     14  C   UNL     1      -0.857   1.172  -0.794  1.00  0.00     0.016 A 
ATOM     15  C   UNL     1      -0.321   1.617  -2.007  1.00  0.00     0.046 A 
ATOM     16  N   UNL     1      -1.188   2.540  -2.518  1.00  0.00    -0.360 N 
ATOM     17  C   UNL     1      -2.224   2.708  -1.650  1.00  0.00     0.099 A 
ATOM     18  H   UNL     1      -1.081   3.010  -3.377  1.00  0.00     0.166 HD
BRANCH  10  19
ATOM     19  N   UNL     1       1.998  -0.854   0.366  1.00  0.00    -0.399 N 
ATOM     20  H   UNL     1       2.903  -1.102   0.070  1.00  0.00     0.156 HD
ATOM     21  H   UNL     1       1.656  -1.177   1.231  1.00  0.00     0.156 HD
ENDBRANCH  10  19
ENDBRANCH   7   9
ENDBRANCH   6   7
ENDBRANCH   5   6
ENDBRANCH   4   5
ENDBRANCH   3   4
ENDBRANCH   2   3
ENDBRANCH   1   2
BRANCH   1  22
ATOM     22  O   UNL     1      -1.926   5.593   1.905  1.00  0.00    -0.376 OA
BRANCH  22  23
ATOM     23  C   UNL     1      -2.543   6.815   2.284  1.00  0.00     0.202 C 
BRANCH  23  24
ATOM     24  C   UNL     1      -2.456   7.948   1.254  1.00  0.00     0.261 C 
BRANCH  24  25
ATOM     25  O   UNL     1      -3.275   7.652   0.107  1.00  0.00    -0.460 OA
BRANCH  25  26
ATOM     26  C   UNL     1      -2.764   7.990  -1.103  1.00  0.00     0.338 C 
ATOM     27  O   UNL     1      -1.850   8.765  -1.319  1.00  0.00    -0.246 OA
BRANCH  26  28
ATOM     28  C   UNL     1      -3.295   7.029  -2.106  1.00  0.00     0.060 A 
ATOM     29  C   UNL     1      -4.643   6.662  -2.151  1.00  0.00     0.016 A 
ATOM     30  C   UNL     1      -2.372   6.374  -2.931  1.00  0.00     0.016 A 
ATOM     31  C   UNL     1      -5.040   5.573  -2.938  1.00  0.00     0.010 A 
ATOM     32  C   UNL     1      -2.780   5.310  -3.746  1.00  0.00     0.010 A 
ATOM     33  C   UNL     1      -4.107   4.861  -3.717  1.00  0.00    -0.014 A 
BRANCH  33  34
ATOM     34  C   UNL     1      -4.604   3.880  -4.705  1.00  0.00     0.031 A 
ATOM     35  C   UNL     1      -5.390   4.541  -5.759  1.00  0.00     0.074 A 
ATOM     36  C   UNL     1      -4.476   2.536  -4.839  1.00  0.00     0.049 A 
ATOM     37  N   UNL     1      -6.668   4.420  -5.883  1.00  0.00    -0.248 NA
ATOM     38  C   UNL     1      -4.765   5.505  -6.664  1.00  0.00     0.031 C 
ATOM     39  C   UNL     1      -3.822   1.583  -3.966  1.00  0.00     0.029 A 
ATOM     40  N   UNL     1      -4.896   1.713  -5.865  1.00  0.00    -0.354 N 
ATOM     41  C   UNL     1      -6.995   5.127  -7.018  1.00  0.00     0.074 A 
ATOM     42  C   UNL     1      -5.826   5.893  -7.376  1.00  0.00     0.031 C 
ATOM     43  C   UNL     1      -3.585   0.414  -4.595  1.00  0.00     0.029 A 
ATOM     44  C   UNL     1      -4.316   0.448  -5.846  1.00  0.00     0.049 A 
ATOM     45  H   UNL     1      -5.546   1.995  -6.547  1.00  0.00     0.167 HD
ATOM     46  C   UNL     1      -8.116   4.800  -7.705  1.00  0.00     0.037 A 
ATOM     47  C   UNL     1      -4.553  -0.628  -6.630  1.00  0.00     0.037 A 
ATOM     48  C   UNL     1      -9.032   4.014  -6.910  1.00  0.00     0.049 A 
ATOM     49  C   UNL     1      -5.980  -0.579  -6.997  1.00  0.00     0.074 A 
ATOM     50  C   UNL     1      -9.729   4.204  -5.733  1.00  0.00     0.029 A 
ATOM     51  N   UNL     1      -9.071   2.670  -7.171  1.00  0.00    -0.354 N 
ATOM     52  N   UNL     1      -6.957  -0.795  -6.160  1.00  0.00    -0.248 NA
ATOM     53  C   UNL     1      -6.369  -0.040  -8.292  1.00  0.00     0.031 C 
ATOM     54  C   UNL     1      -9.913   2.909  -5.165  1.00  0.00     0.029 A 
ATOM     55  C   UNL     1      -9.325   1.976  -6.016  1.00  0.00     0.049 A 
ATOM     56  H   UNL     1      -8.936   2.263  -8.057  1.00  0.00     0.167 HD
ATOM     57  C   UNL     1      -7.984  -0.009  -6.639  1.00  0.00     0.074 A 
ATOM     58  C   UNL     1      -7.643   0.253  -8.028  1.00  0.00     0.031 C 
ATOM     59  C   UNL     1      -8.824   0.635  -5.782  1.00  0.00     0.037 A 
BRANCH  46  60
ATOM     60  C   UNL     1      -8.182   4.828  -9.206  1.00  0.00     0.064 A 
ATOM     61  C   UNL     1      -9.429   4.682  -9.839  1.00  0.00     0.173 A 
ATOM     62  C   UNL     1      -7.048   4.688 -10.037  1.00  0.00     0.173 A 
ATOM     63  F   UNL     1     -10.565   4.741  -9.127  1.00  0.00    -0.203 F 
ATOM     64  C   UNL     1      -9.530   4.374 -11.196  1.00  0.00     0.198 A 
ATOM     65  C   UNL     1      -7.154   4.443 -11.403  1.00  0.00     0.198 A 
ATOM     66  F   UNL     1      -5.803   4.662  -9.545  1.00  0.00    -0.203 F 
ATOM     67  F   UNL     1     -10.732   4.121 -11.732  1.00  0.00    -0.200 F 
ATOM     68  C   UNL     1      -8.394   4.258 -11.977  1.00  0.00     0.200 A 
ATOM     69  F   UNL     1      -6.041   4.302 -12.135  1.00  0.00    -0.200 F 
ATOM     70  F   UNL     1      -8.487   3.914 -13.268  1.00  0.00    -0.200 F 
ENDBRANCH  46  60
BRANCH  47  71
ATOM     71  C   UNL     1      -3.635  -1.709  -7.060  1.00  0.00     0.064 A 
ATOM     72  C   UNL     1      -4.116  -2.866  -7.698  1.00  0.00     0.173 A 
ATOM     73  C   UNL     1      -2.243  -1.500  -7.119  1.00  0.00     0.173 A 
ATOM     74  F   UNL     1      -5.429  -3.136  -7.717  1.00  0.00    -0.203 F 
ATOM     75  C   UNL     1      -3.268  -3.726  -8.403  1.00  0.00     0.198 A 
ATOM     76  C   UNL     1      -1.395  -2.364  -7.817  1.00  0.00     0.198 A 
ATOM     77  F   UNL     1      -1.690  -0.401  -6.583  1.00  0.00    -0.203 F 
ATOM     78  F   UNL     1      -3.780  -4.770  -9.069  1.00  0.00    -0.200 F 
ATOM     79  C   UNL     1      -1.911  -3.464  -8.477  1.00  0.00     0.200 A 
ATOM     80  F   UNL     1      -0.087  -2.085  -7.907  1.00  0.00    -0.200 F 
ATOM     81  F   UNL     1      -1.111  -4.242  -9.219  1.00  0.00    -0.200 F 
ENDBRANCH  47  71
BRANCH  59  82
ATOM     82  C   UNL     1      -9.051   0.031  -4.427  1.00  0.00     0.064 A 
ATOM     83  C   UNL     1      -8.072  -0.109  -3.431  1.00  0.00     0.173 A 
ATOM     84  C   UNL     1     -10.367  -0.330  -4.095  1.00  0.00     0.173 A 
ATOM     85  F   UNL     1      -6.809   0.285  -3.644  1.00  0.00    -0.203 F 
ATOM     86  C   UNL     1      -8.396  -0.616  -2.171  1.00  0.00     0.198 A 
ATOM     87  C   UNL     1     -10.694  -0.800  -2.827  1.00  0.00     0.198 A 
ATOM     88  F   UNL     1     -11.351  -0.186  -4.997  1.00  0.00    -0.203 F 
ATOM     89  F   UNL     1      -7.446  -0.757  -1.236  1.00  0.00    -0.200 F 
ATOM     90  C   UNL     1      -9.707  -0.951  -1.868  1.00  0.00     0.200 A 
ATOM     91  F   UNL     1     -11.969  -1.085  -2.528  1.00  0.00    -0.200 F 
ATOM     92  F   UNL     1     -10.025  -1.397  -0.644  1.00  0.00    -0.200 F 
ENDBRANCH  59  82
ENDBRANCH  33  34
ENDBRANCH  26  28
ENDBRANCH  25  26
ENDBRANCH  24  25
ENDBRANCH  23  24
ENDBRANCH  22  23
ENDBRANCH   1  22
TORSDOF 18
