REMARK SMILES COc1cccc(-c2c(C(=O)OCCOCCOCCOC(=O)c3ccc(-c4c5nc(c(-c6c(F)c(F)c(F)c(F)c6F)c6ccc([nH]6)c(-c6c(F)c(F)c(F)c(F)c6F)c6nc(c(-c7c(F)c(F)c(F)c(F)c7F)c7ccc4[nH]7)C=C6)C=C5)cc3)nnn2-c2ccc(OC(F)(F)F)cc2)c1
REMARK SMILES IDX 16 1 15 2 14 3 13 4 12 5 10 6 11 7 9 8 8 9 89 10 87 11 88 12
REMARK SMILES IDX 7 13 3 14 4 15 101 16 5 17 6 18 2 19 1 20 90 21 91 22 100 23
REMARK SMILES IDX 92 24 99 25 93 26 94 27 95 28 96 29 97 30 98 31 17 32 18 33
REMARK SMILES IDX 19 34 20 35 21 36 22 37 23 38 24 39 25 40 86 41 26 42 85 43
REMARK SMILES IDX 27 44 28 45 29 46 79 47 30 48 84 49 78 50 80 51 31 52 83 53
REMARK SMILES IDX 77 54 76 55 32 57 64 58 44 59 63 60 45 61 48 62 62 63 81 64
REMARK SMILES IDX 46 65 47 66 61 68 82 69 49 70 33 71 34 72 42 73 35 74 36 75
REMARK SMILES IDX 40 76 43 77 37 78 38 79 41 80 39 81 65 82 66 83 74 84 67 85
REMARK SMILES IDX 68 86 72 87 75 88 69 89 70 90 73 91 71 92 50 93 51 94 59 95
REMARK SMILES IDX 52 96 53 97 57 98 60 99 54 100 55 101 58 102 56 103
REMARK H PARENT 80 56 48 67
REMARK Flexibility Score: inf
ROOT
ATOM      1  C   UNL     1       5.016   6.387   1.371  1.00  0.00     0.188 C 
ENDROOT
BRANCH   1   2
ATOM      2  O   UNL     1       4.286   7.477   1.889  1.00  0.00    -0.376 OA
BRANCH   2   3
ATOM      3  C   UNL     1       3.139   7.977   1.220  1.00  0.00     0.202 C 
BRANCH   3   4
ATOM      4  C   UNL     1       2.804   7.733  -0.266  1.00  0.00     0.261 C 
BRANCH   4   5
ATOM      5  O   UNL     1       3.131   6.444  -0.792  1.00  0.00    -0.458 OA
BRANCH   5   6
ATOM      6  C   UNL     1       4.111   6.417  -1.743  1.00  0.00     0.361 C 
ATOM      7  O   UNL     1       4.622   7.420  -2.233  1.00  0.00    -0.244 OA
BRANCH   6   8
ATOM      8  C   UNL     1       4.597   5.079  -2.025  1.00  0.00     0.198 A 
ATOM      9  C   UNL     1       3.902   3.893  -2.221  1.00  0.00     0.109 A 
ATOM     10  N   UNL     1       4.920   3.004  -2.558  1.00  0.00    -0.212 N 
ATOM     11  N   UNL     1       5.950   4.808  -2.009  1.00  0.00    -0.122 NA
ATOM     12  N   UNL     1       6.119   3.509  -2.201  1.00  0.00    -0.061 NA
BRANCH   9  13
ATOM     13  C   UNL     1       2.485   3.523  -2.170  1.00  0.00     0.007 A 
ATOM     14  C   UNL     1       0.768   1.885  -1.601  1.00  0.00     0.119 A 
ATOM     15  C   UNL     1      -0.171   2.650  -2.291  1.00  0.00     0.046 A 
ATOM     16  C   UNL     1       2.090   2.326  -1.534  1.00  0.00     0.056 A 
ATOM     17  C   UNL     1       0.195   3.862  -2.875  1.00  0.00     0.005 A 
ATOM     18  C   UNL     1       1.519   4.300  -2.815  1.00  0.00     0.011 A 
BRANCH  14  19
ATOM     19  O   UNL     1       0.299   0.700  -1.104  1.00  0.00    -0.497 OA
ATOM     20  C   UNL     1       0.963   0.194   0.049  1.00  0.00     0.278 C 
ENDBRANCH  14  19
ENDBRANCH   9  13
BRANCH  10  21
ATOM     21  C   UNL     1       4.827   1.826  -3.330  1.00  0.00     0.067 A 
ATOM     22  C   UNL     1       5.602   0.707  -3.025  1.00  0.00     0.032 A 
ATOM     23  C   UNL     1       3.961   1.809  -4.428  1.00  0.00     0.032 A 
ATOM     24  C   UNL     1       5.437  -0.456  -3.786  1.00  0.00     0.049 A 
ATOM     25  C   UNL     1       3.840   0.662  -5.208  1.00  0.00     0.049 A 
ATOM     26  C   UNL     1       4.555  -0.488  -4.877  1.00  0.00     0.129 A 
BRANCH  26  27
ATOM     27  O   UNL     1       4.482  -1.687  -5.528  1.00  0.00    -0.406 OA
BRANCH  27  28
ATOM     28  C   UNL     1       3.587  -1.776  -6.626  1.00  0.00     0.573 C 
ATOM     29  F   UNL     1       2.321  -1.483  -6.257  1.00  0.00    -0.132 F 
ATOM     30  F   UNL     1       3.965  -0.949  -7.626  1.00  0.00    -0.132 F 
ATOM     31  F   UNL     1       3.601  -3.041  -7.100  1.00  0.00    -0.132 F 
ENDBRANCH  27  28
ENDBRANCH  26  27
ENDBRANCH  10  21
ENDBRANCH   6   8
ENDBRANCH   5   6
ENDBRANCH   4   5
ENDBRANCH   3   4
ENDBRANCH   2   3
ENDBRANCH   1   2
BRANCH   1  32
ATOM     32  C   UNL     1       4.414   4.970   1.429  1.00  0.00     0.188 C 
BRANCH  32  33
ATOM     33  O   UNL     1       3.017   4.770   1.448  1.00  0.00    -0.376 OA
BRANCH  33  34
ATOM     34  C   UNL     1       2.186   5.083   2.551  1.00  0.00     0.202 C 
BRANCH  34  35
ATOM     35  C   UNL     1       2.653   5.323   3.985  1.00  0.00     0.261 C 
BRANCH  35  36
ATOM     36  O   UNL     1       4.031   5.546   4.171  1.00  0.00    -0.460 OA
BRANCH  36  37
ATOM     37  C   UNL     1       4.707   4.410   4.433  1.00  0.00     0.338 C 
ATOM     38  O   UNL     1       4.341   3.263   4.243  1.00  0.00    -0.246 OA
BRANCH  37  39
ATOM     39  C   UNL     1       5.948   4.759   5.113  1.00  0.00     0.060 A 
ATOM     40  C   UNL     1       6.933   3.774   5.165  1.00  0.00     0.016 A 
ATOM     41  C   UNL     1       5.957   5.889   5.943  1.00  0.00     0.016 A 
ATOM     42  C   UNL     1       7.826   3.816   6.207  1.00  0.00     0.010 A 
ATOM     43  C   UNL     1       6.833   5.917   6.996  1.00  0.00     0.010 A 
ATOM     44  C   UNL     1       7.700   4.839   7.154  1.00  0.00    -0.014 A 
BRANCH  44  45
ATOM     45  C   UNL     1       8.597   4.810   8.286  1.00  0.00     0.031 A 
ATOM     46  C   UNL     1       9.958   5.239   7.917  1.00  0.00     0.074 A 
ATOM     47  C   UNL     1       8.172   4.518   9.529  1.00  0.00     0.049 A 
ATOM     48  N   UNL     1      11.037   4.535   7.943  1.00  0.00    -0.248 NA
ATOM     49  C   UNL     1      10.114   6.559   7.279  1.00  0.00     0.031 C 
ATOM     50  C   UNL     1       6.776   4.403   9.965  1.00  0.00     0.029 A 
ATOM     51  N   UNL     1       8.874   4.379  10.690  1.00  0.00    -0.354 N 
ATOM     52  C   UNL     1      12.048   5.414   7.568  1.00  0.00     0.074 A 
ATOM     53  C   UNL     1      11.406   6.541   6.955  1.00  0.00     0.031 C 
ATOM     54  C   UNL     1       6.729   4.447  11.314  1.00  0.00     0.029 A 
ATOM     55  C   UNL     1       8.087   4.457  11.832  1.00  0.00     0.049 A 
ATOM     56  H   UNL     1       9.848   4.237  10.717  1.00  0.00     0.167 HD
ATOM     57  C   UNL     1      13.270   5.301   8.153  1.00  0.00     0.037 A 
ATOM     58  C   UNL     1       8.522   4.588  13.108  1.00  0.00     0.037 A 
ATOM     59  C   UNL     1      13.440   3.981   8.710  1.00  0.00     0.049 A 
ATOM     60  C   UNL     1       9.938   4.157  13.163  1.00  0.00     0.074 A 
ATOM     61  C   UNL     1      13.756   2.725   8.245  1.00  0.00     0.029 A 
ATOM     62  N   UNL     1      12.888   3.827   9.953  1.00  0.00    -0.354 N 
ATOM     63  N   UNL     1      10.325   2.923  12.995  1.00  0.00    -0.248 NA
ATOM     64  C   UNL     1      10.998   5.161  13.085  1.00  0.00     0.031 C 
ATOM     65  C   UNL     1      13.320   1.799   9.240  1.00  0.00     0.029 A 
ATOM     66  C   UNL     1      12.764   2.509  10.300  1.00  0.00     0.049 A 
ATOM     67  H   UNL     1      12.613   4.575  10.529  1.00  0.00     0.167 HD
ATOM     68  C   UNL     1      11.556   3.036  12.382  1.00  0.00     0.074 A 
ATOM     69  C   UNL     1      11.996   4.401  12.627  1.00  0.00     0.031 C 
ATOM     70  C   UNL     1      11.946   2.143  11.431  1.00  0.00     0.037 A 
BRANCH  57  71
ATOM     71  C   UNL     1      14.049   6.480   8.716  1.00  0.00     0.064 A 
ATOM     72  C   UNL     1      15.273   6.212   9.366  1.00  0.00     0.173 A 
ATOM     73  C   UNL     1      13.525   7.774   8.942  1.00  0.00     0.173 A 
ATOM     74  F   UNL     1      15.878   5.023   9.223  1.00  0.00    -0.203 F 
ATOM     75  C   UNL     1      15.860   7.121  10.251  1.00  0.00     0.198 A 
ATOM     76  C   UNL     1      14.136   8.694   9.793  1.00  0.00     0.198 A 
ATOM     77  F   UNL     1      12.357   8.185   8.441  1.00  0.00    -0.203 F 
ATOM     78  F   UNL     1      16.952   6.766  10.940  1.00  0.00    -0.200 F 
ATOM     79  C   UNL     1      15.283   8.356  10.475  1.00  0.00     0.200 A 
ATOM     80  F   UNL     1      13.551   9.881  10.006  1.00  0.00    -0.200 F 
ATOM     81  F   UNL     1      15.805   9.202  11.372  1.00  0.00    -0.200 F 
ENDBRANCH  57  71
BRANCH  58  82
ATOM     82  C   UNL     1       7.865   5.279  14.241  1.00  0.00     0.064 A 
ATOM     83  C   UNL     1       8.248   5.020  15.566  1.00  0.00     0.173 A 
ATOM     84  C   UNL     1       7.039   6.401  14.034  1.00  0.00     0.173 A 
ATOM     85  F   UNL     1       9.066   3.994  15.844  1.00  0.00    -0.203 F 
ATOM     86  C   UNL     1       7.855   5.853  16.619  1.00  0.00     0.198 A 
ATOM     87  C   UNL     1       6.639   7.225  15.086  1.00  0.00     0.198 A 
ATOM     88  F   UNL     1       6.683   6.775  12.796  1.00  0.00    -0.203 F 
ATOM     89  F   UNL     1       8.296   5.612  17.861  1.00  0.00    -0.200 F 
ATOM     90  C   UNL     1       7.060   6.960  16.376  1.00  0.00     0.200 A 
ATOM     91  F   UNL     1       5.896   8.312  14.833  1.00  0.00    -0.200 F 
ATOM     92  F   UNL     1       6.735   7.794  17.374  1.00  0.00    -0.200 F 
ENDBRANCH  58  82
BRANCH  70  93
ATOM     93  C   UNL     1      11.362   0.771  11.488  1.00  0.00     0.064 A 
ATOM     94  C   UNL     1      10.010   0.470  11.263  1.00  0.00     0.173 A 
ATOM     95  C   UNL     1      12.238  -0.297  11.728  1.00  0.00     0.173 A 
ATOM     96  F   UNL     1       9.131   1.435  10.959  1.00  0.00    -0.203 F 
ATOM     97  C   UNL     1       9.554  -0.847  11.314  1.00  0.00     0.198 A 
ATOM     98  C   UNL     1      11.787  -1.612  11.741  1.00  0.00     0.198 A 
ATOM     99  F   UNL     1      13.546  -0.065  11.918  1.00  0.00    -0.203 F 
ATOM    100  F   UNL     1       8.254  -1.116  11.119  1.00  0.00    -0.200 F 
ATOM    101  C   UNL     1      10.443  -1.885  11.546  1.00  0.00     0.200 A 
ATOM    102  F   UNL     1      12.658  -2.613  11.927  1.00  0.00    -0.200 F 
ATOM    103  F   UNL     1      10.009  -3.154  11.562  1.00  0.00    -0.200 F 
ENDBRANCH  70  93
ENDBRANCH  44  45
ENDBRANCH  37  39
ENDBRANCH  36  37
ENDBRANCH  35  36
ENDBRANCH  34  35
ENDBRANCH  33  34
ENDBRANCH  32  33
ENDBRANCH   1  32
TORSDOF 22
