REMARK SMILES Cc1ccccc1CCNc1ccc(C(=O)OCCOCCOCCOC(=O)c2ccc(-c3c4nc(c(-c5c(F)c(F)c(F)c(F)c5F)c5ccc([nH]5)c(-c5c(F)c(F)c(F)c(F)c5F)c5nc(c(-c6c(F)c(F)c(F)c(F)c6F)c6ccc3[nH]6)C=C5)C=C4)cc2)cc1N
REMARK SMILES IDX 21 1 20 2 19 3 18 4 17 5 15 6 16 7 14 8 11 9 12 10 93 11
REMARK SMILES IDX 13 12 92 13 10 14 9 16 8 17 7 18 1 19 2 20 3 21 4 22 6 23
REMARK SMILES IDX 5 24 94 25 22 28 23 29 24 30 25 31 26 32 27 33 28 34 29 35
REMARK SMILES IDX 30 36 91 37 31 38 90 39 32 40 33 41 34 42 84 43 35 44 89 45
REMARK SMILES IDX 83 46 85 47 36 48 88 49 82 50 81 51 37 53 69 54 49 55 68 56
REMARK SMILES IDX 50 57 53 58 67 59 86 60 51 61 52 62 66 64 87 65 54 66 38 67
REMARK SMILES IDX 39 68 47 69 40 70 41 71 45 72 48 73 42 74 43 75 46 76 44 77
REMARK SMILES IDX 70 78 71 79 79 80 72 81 73 82 77 83 80 84 74 85 75 86 78 87
REMARK SMILES IDX 76 88 55 89 56 90 64 91 57 92 58 93 62 94 65 95 59 96 60 97
REMARK SMILES IDX 63 98 61 99
REMARK H PARENT 10 15 94 26 94 27 85 52 53 63
REMARK Flexibility Score: inf
ROOT
ATOM      1  C   UNL     1      -5.334  11.409  -2.354  1.00  0.00     0.188 C 
ENDROOT
BRANCH   1   2
ATOM      2  O   UNL     1      -4.203  12.279  -2.293  1.00  0.00    -0.376 OA
BRANCH   2   3
ATOM      3  C   UNL     1      -3.305  12.379  -3.407  1.00  0.00     0.202 C 
BRANCH   3   4
ATOM      4  C   UNL     1      -1.919  11.609  -3.491  1.00  0.00     0.261 C 
BRANCH   4   5
ATOM      5  O   UNL     1      -1.780  10.106  -3.466  1.00  0.00    -0.460 OA
BRANCH   5   6
ATOM      6  C   UNL     1      -0.840   9.173  -4.029  1.00  0.00     0.338 C 
ATOM      7  O   UNL     1      -0.163   9.489  -4.999  1.00  0.00    -0.246 OA
BRANCH   6   8
ATOM      8  C   UNL     1      -0.649   7.637  -3.281  1.00  0.00     0.062 A 
ATOM      9  C   UNL     1      -0.347   4.882  -2.276  1.00  0.00     0.057 A 
ATOM     10  C   UNL     1       0.178   5.324  -3.504  1.00  0.00     0.029 A 
ATOM     11  C   UNL     1      -1.004   5.821  -1.505  1.00  0.00     0.056 A 
ATOM     12  C   UNL     1       0.010   6.656  -4.008  1.00  0.00     0.018 A 
ATOM     13  C   UNL     1      -1.035   7.151  -1.984  1.00  0.00     0.043 A 
BRANCH   9  14
ATOM     14  N   UNL     1      -0.248   3.564  -1.849  1.00  0.00    -0.383 N 
ATOM     15  H   UNL     1      -1.044   2.986  -1.875  1.00  0.00     0.160 HD
BRANCH  14  16
ATOM     16  C   UNL     1       1.016   3.025  -1.363  1.00  0.00     0.117 C 
BRANCH  16  17
ATOM     17  C   UNL     1       0.917   2.431   0.059  1.00  0.00     0.057 C 
BRANCH  17  18
ATOM     18  C   UNL     1       0.281   1.052   0.103  1.00  0.00    -0.043 A 
ATOM     19  C   UNL     1       2.515  -0.226  -0.101  1.00  0.00     0.044 C 
ATOM     20  C   UNL     1       1.013  -0.150  -0.019  1.00  0.00    -0.048 A 
ATOM     21  C   UNL     1       0.320  -1.376  -0.029  1.00  0.00     0.004 A 
ATOM     22  C   UNL     1      -1.069  -1.423   0.076  1.00  0.00     0.000 A 
ATOM     23  C   UNL     1      -1.118   0.980   0.241  1.00  0.00     0.004 A 
ATOM     24  C   UNL     1      -1.787  -0.244   0.220  1.00  0.00     0.000 A 
ENDBRANCH  17  18
ENDBRANCH  16  17
ENDBRANCH  14  16
ENDBRANCH   9  14
BRANCH  11  25
ATOM     25  N   UNL     1      -1.497   5.509  -0.232  1.00  0.00    -0.397 N 
ATOM     26  H   UNL     1      -1.471   4.580   0.092  1.00  0.00     0.156 HD
ATOM     27  H   UNL     1      -1.869   6.219   0.339  1.00  0.00     0.156 HD
ENDBRANCH  11  25
ENDBRANCH   6   8
ENDBRANCH   5   6
ENDBRANCH   4   5
ENDBRANCH   3   4
ENDBRANCH   2   3
ENDBRANCH   1   2
BRANCH   1  28
ATOM     28  C   UNL     1      -6.055  11.168  -3.644  1.00  0.00     0.188 C 
BRANCH  28  29
ATOM     29  O   UNL     1      -5.114  10.570  -4.520  1.00  0.00    -0.376 OA
BRANCH  29  30
ATOM     30  C   UNL     1      -5.547  10.500  -5.862  1.00  0.00     0.202 C 
BRANCH  30  31
ATOM     31  C   UNL     1      -6.740   9.548  -6.021  1.00  0.00     0.261 C 
BRANCH  31  32
ATOM     32  O   UNL     1      -6.359   8.186  -5.696  1.00  0.00    -0.460 OA
BRANCH  32  33
ATOM     33  C   UNL     1      -6.801   7.657  -4.494  1.00  0.00     0.338 C 
ATOM     34  O   UNL     1      -7.940   7.415  -4.234  1.00  0.00    -0.246 OA
BRANCH  33  35
ATOM     35  C   UNL     1      -5.642   7.559  -3.533  1.00  0.00     0.060 A 
ATOM     36  C   UNL     1      -5.693   7.562  -2.136  1.00  0.00     0.016 A 
ATOM     37  C   UNL     1      -4.412   7.709  -4.058  1.00  0.00     0.016 A 
ATOM     38  C   UNL     1      -4.579   8.055  -1.322  1.00  0.00     0.010 A 
ATOM     39  C   UNL     1      -3.443   8.309  -3.253  1.00  0.00     0.010 A 
ATOM     40  C   UNL     1      -3.436   8.649  -1.870  1.00  0.00    -0.014 A 
BRANCH  40  41
ATOM     41  C   UNL     1      -2.385   9.695  -1.012  1.00  0.00     0.031 A 
ATOM     42  C   UNL     1      -0.699   9.844  -0.920  1.00  0.00     0.074 A 
ATOM     43  C   UNL     1      -2.947  10.594  -0.178  1.00  0.00     0.049 A 
ATOM     44  N   UNL     1       0.086   9.644   0.132  1.00  0.00    -0.248 NA
ATOM     45  C   UNL     1       0.254  10.133  -2.033  1.00  0.00     0.031 C 
ATOM     46  C   UNL     1      -2.304  11.728   0.478  1.00  0.00     0.029 A 
ATOM     47  N   UNL     1      -4.265  10.668   0.286  1.00  0.00    -0.354 N 
ATOM     48  C   UNL     1       1.406   9.858  -0.373  1.00  0.00     0.074 A 
ATOM     49  C   UNL     1       1.318   9.407  -1.698  1.00  0.00     0.031 C 
ATOM     50  C   UNL     1      -3.096  12.151   1.479  1.00  0.00     0.029 A 
ATOM     51  C   UNL     1      -4.203  11.213   1.570  1.00  0.00     0.049 A 
ATOM     52  H   UNL     1      -5.076  10.390  -0.198  1.00  0.00     0.167 HD
ATOM     53  C   UNL     1       2.233  10.932  -0.072  1.00  0.00     0.037 A 
ATOM     54  C   UNL     1      -4.607  10.476   2.637  1.00  0.00     0.037 A 
ATOM     55  C   UNL     1       1.661  11.628   1.048  1.00  0.00     0.049 A 
ATOM     56  C   UNL     1      -3.434  10.314   3.558  1.00  0.00     0.074 A 
ATOM     57  C   UNL     1       1.081  12.867   1.220  1.00  0.00     0.029 A 
ATOM     58  N   UNL     1       1.343  10.867   2.149  1.00  0.00    -0.354 N 
ATOM     59  N   UNL     1      -2.197  10.395   3.139  1.00  0.00    -0.248 NA
ATOM     60  C   UNL     1      -3.530  10.224   5.008  1.00  0.00     0.031 C 
ATOM     61  C   UNL     1       0.271  12.777   2.393  1.00  0.00     0.029 A 
ATOM     62  C   UNL     1       0.415  11.505   2.929  1.00  0.00     0.049 A 
ATOM     63  H   UNL     1       1.729   9.984   2.350  1.00  0.00     0.167 HD
ATOM     64  C   UNL     1      -1.371  10.520   4.213  1.00  0.00     0.074 A 
ATOM     65  C   UNL     1      -2.237  10.343   5.362  1.00  0.00     0.031 C 
ATOM     66  C   UNL     1      -0.047  10.812   4.113  1.00  0.00     0.037 A 
BRANCH  53  67
ATOM     67  C   UNL     1       3.400  11.561  -0.940  1.00  0.00     0.064 A 
ATOM     68  C   UNL     1       4.215  12.569  -0.364  1.00  0.00     0.173 A 
ATOM     69  C   UNL     1       3.752  11.307  -2.300  1.00  0.00     0.173 A 
ATOM     70  F   UNL     1       4.025  12.959   0.903  1.00  0.00    -0.203 F 
ATOM     71  C   UNL     1       5.254  13.228  -1.059  1.00  0.00     0.198 A 
ATOM     72  C   UNL     1       4.827  11.920  -2.971  1.00  0.00     0.198 A 
ATOM     73  F   UNL     1       3.051  10.520  -3.116  1.00  0.00    -0.203 F 
ATOM     74  F   UNL     1       5.942  14.209  -0.458  1.00  0.00    -0.200 F 
ATOM     75  C   UNL     1       5.573  12.890  -2.356  1.00  0.00     0.200 A 
ATOM     76  F   UNL     1       5.099  11.576  -4.241  1.00  0.00    -0.200 F 
ATOM     77  F   UNL     1       6.566  13.505  -3.014  1.00  0.00    -0.200 F 
ENDBRANCH  53  67
BRANCH  54  78
ATOM     78  C   UNL     1      -5.762   9.578   2.309  1.00  0.00     0.064 A 
ATOM     79  C   UNL     1      -6.901  10.215   1.745  1.00  0.00     0.173 A 
ATOM     80  C   UNL     1      -5.676   8.193   2.128  1.00  0.00     0.173 A 
ATOM     81  F   UNL     1      -7.054  11.543   1.879  1.00  0.00    -0.203 F 
ATOM     82  C   UNL     1      -7.798   9.546   0.914  1.00  0.00     0.198 A 
ATOM     83  C   UNL     1      -6.622   7.508   1.339  1.00  0.00     0.198 A 
ATOM     84  F   UNL     1      -4.604   7.516   2.562  1.00  0.00    -0.203 F 
ATOM     85  F   UNL     1      -8.732  10.235   0.242  1.00  0.00    -0.200 F 
ATOM     86  C   UNL     1      -7.652   8.192   0.702  1.00  0.00     0.200 A 
ATOM     87  F   UNL     1      -6.434   6.210   1.051  1.00  0.00    -0.200 F 
ATOM     88  F   UNL     1      -8.439   7.566  -0.187  1.00  0.00    -0.200 F 
ENDBRANCH  54  78
BRANCH  66  89
ATOM     89  C   UNL     1       0.976  10.363   5.119  1.00  0.00     0.064 A 
ATOM     90  C   UNL     1       0.781   9.234   5.929  1.00  0.00     0.173 A 
ATOM     91  C   UNL     1       2.289  10.894   5.099  1.00  0.00     0.173 A 
ATOM     92  F   UNL     1      -0.378   8.561   5.926  1.00  0.00    -0.203 F 
ATOM     93  C   UNL     1       1.803   8.714   6.716  1.00  0.00     0.198 A 
ATOM     94  C   UNL     1       3.328  10.316   5.820  1.00  0.00     0.198 A 
ATOM     95  F   UNL     1       2.612  11.947   4.332  1.00  0.00    -0.203 F 
ATOM     96  F   UNL     1       1.552   7.666   7.512  1.00  0.00    -0.200 F 
ATOM     97  C   UNL     1       3.079   9.241   6.648  1.00  0.00     0.200 A 
ATOM     98  F   UNL     1       4.576  10.783   5.679  1.00  0.00    -0.200 F 
ATOM     99  F   UNL     1       4.071   8.698   7.363  1.00  0.00    -0.200 F 
ENDBRANCH  66  89
ENDBRANCH  40  41
ENDBRANCH  33  35
ENDBRANCH  32  33
ENDBRANCH  31  32
ENDBRANCH  30  31
ENDBRANCH  29  30
ENDBRANCH  28  29
ENDBRANCH   1  28
TORSDOF 22
