REMARK SMILES [NH3+]C[C@H]1CC[C@@H](C(=O)N[C@@H]2C=C[C@@H](C(=O)OCCOCCOCCOC(=O)c3ccc(-c4c5nc(c(-c6c(F)c(F)c(F)c(F)c6F)c6ccc([nH]6)c(-c6c(F)c(F)c(F)c(F)c6F)c6nc(c(-c7c(F)c(F)c(F)c(F)c7F)c7ccc4[nH]7)C=C6)C=C5)cc3)C2)CC1
REMARK SMILES IDX 20 1 19 2 18 3 17 4 16 5 14 6 15 7 13 8 10 9 11 10 91 11
REMARK SMILES IDX 12 12 9 13 7 14 8 15 6 17 3 18 4 19 93 20 5 21 92 22 2 23
REMARK SMILES IDX 1 24 21 28 22 29 23 30 24 31 25 32 26 33 27 34 28 35 29 36
REMARK SMILES IDX 90 37 30 38 89 39 31 40 32 41 33 42 83 43 34 44 88 45 82 46
REMARK SMILES IDX 84 47 35 48 87 49 81 50 80 51 36 53 68 54 48 55 67 56 49 57
REMARK SMILES IDX 52 58 66 59 85 60 50 61 51 62 65 64 86 65 53 66 37 67 38 68
REMARK SMILES IDX 46 69 39 70 40 71 44 72 47 73 41 74 42 75 45 76 43 77 69 78
REMARK SMILES IDX 70 79 78 80 71 81 72 82 76 83 79 84 73 85 74 86 77 87 75 88
REMARK SMILES IDX 54 89 55 90 63 91 56 92 57 93 61 94 64 95 58 96 59 97 62 98
REMARK SMILES IDX 60 99
REMARK H PARENT 9 16 1 25 1 26 1 27 84 52 52 63
REMARK Flexibility Score: inf
ROOT
ATOM      1  C   UNL     1       3.587  -2.161   3.373  1.00  0.00     0.188 C 
ENDROOT
BRANCH   1   2
ATOM      2  O   UNL     1       3.688  -1.583   4.666  1.00  0.00    -0.376 OA
BRANCH   2   3
ATOM      3  C   UNL     1       2.500  -1.341   5.414  1.00  0.00     0.202 C 
BRANCH   3   4
ATOM      4  C   UNL     1       1.300  -0.640   4.743  1.00  0.00     0.261 C 
BRANCH   4   5
ATOM      5  O   UNL     1       1.037  -1.069   3.390  1.00  0.00    -0.463 OA
BRANCH   5   6
ATOM      6  C   UNL     1       0.744  -0.103   2.483  1.00  0.00     0.312 C 
ATOM      7  O   UNL     1       0.554   1.072   2.780  1.00  0.00    -0.252 OA
BRANCH   6   8
ATOM      8  C   UNL     1       0.885  -0.587   1.023  1.00  0.00     0.124 C 
ATOM      9  C   UNL     1      -0.933  -1.822  -0.075  1.00  0.00     0.106 C 
ATOM     10  C   UNL     1      -0.942  -0.394  -0.469  1.00  0.00    -0.006 C 
ATOM     11  C   UNL     1       0.421  -1.996   0.601  1.00  0.00     0.048 C 
ATOM     12  C   UNL     1       0.042   0.283   0.131  1.00  0.00    -0.014 C 
BRANCH   9  13
ATOM     13  N   UNL     1      -1.192  -2.658  -1.206  1.00  0.00    -0.350 N 
ATOM     14  C   UNL     1      -2.342  -3.279  -1.579  1.00  0.00     0.223 C 
ATOM     15  O   UNL     1      -2.322  -3.838  -2.683  1.00  0.00    -0.275 OA
ATOM     16  H   UNL     1      -0.424  -2.805  -1.803  1.00  0.00     0.164 HD
BRANCH  14  17
ATOM     17  C   UNL     1      -3.609  -3.394  -0.702  1.00  0.00     0.078 C 
ATOM     18  C   UNL     1      -3.413  -3.000   2.303  1.00  0.00     0.044 C 
ATOM     19  C   UNL     1      -3.859  -1.829   1.396  1.00  0.00     0.010 C 
ATOM     20  C   UNL     1      -2.868  -4.244   1.572  1.00  0.00     0.010 C 
ATOM     21  C   UNL     1      -4.212  -2.142  -0.065  1.00  0.00     0.014 C 
ATOM     22  C   UNL     1      -3.572  -4.568   0.269  1.00  0.00     0.014 C 
BRANCH  18  23
ATOM     23  C   UNL     1      -2.357  -2.583   3.364  1.00  0.00     0.262 C 
BRANCH  23  24
ATOM     24  N   UNL     1      -2.659  -1.369   4.106  1.00  0.00    -0.357 N 
ATOM     25  H   UNL     1      -1.909  -1.183   4.772  1.00  0.00     0.344 HD
ATOM     26  H   UNL     1      -3.539  -1.488   4.609  1.00  0.00     0.344 HD
ATOM     27  H   UNL     1      -2.740  -0.586   3.458  1.00  0.00     0.344 HD
ENDBRANCH  23  24
ENDBRANCH  18  23
ENDBRANCH  14  17
ENDBRANCH   9  13
ENDBRANCH   6   8
ENDBRANCH   5   6
ENDBRANCH   4   5
ENDBRANCH   3   4
ENDBRANCH   2   3
ENDBRANCH   1   2
BRANCH   1  28
ATOM     28  C   UNL     1       2.607  -3.323   3.131  1.00  0.00     0.188 C 
BRANCH  28  29
ATOM     29  O   UNL     1       1.885  -3.776   4.244  1.00  0.00    -0.376 OA
BRANCH  29  30
ATOM     30  C   UNL     1       2.340  -4.902   4.967  1.00  0.00     0.202 C 
BRANCH  30  31
ATOM     31  C   UNL     1       3.785  -5.446   4.932  1.00  0.00     0.261 C 
BRANCH  31  32
ATOM     32  O   UNL     1       4.678  -4.972   3.916  1.00  0.00    -0.460 OA
BRANCH  32  33
ATOM     33  C   UNL     1       4.709  -5.667   2.750  1.00  0.00     0.338 C 
ATOM     34  O   UNL     1       4.050  -6.642   2.456  1.00  0.00    -0.246 OA
BRANCH  33  35
ATOM     35  C   UNL     1       5.519  -4.883   1.784  1.00  0.00     0.060 A 
ATOM     36  C   UNL     1       4.898  -4.345   0.645  1.00  0.00     0.016 A 
ATOM     37  C   UNL     1       6.877  -4.670   2.012  1.00  0.00     0.016 A 
ATOM     38  C   UNL     1       5.641  -3.604  -0.278  1.00  0.00     0.010 A 
ATOM     39  C   UNL     1       7.626  -3.957   1.072  1.00  0.00     0.010 A 
ATOM     40  C   UNL     1       7.019  -3.442  -0.089  1.00  0.00    -0.014 A 
BRANCH  40  41
ATOM     41  C   UNL     1       7.874  -2.926  -1.188  1.00  0.00     0.031 A 
ATOM     42  C   UNL     1       8.601  -3.926  -2.045  1.00  0.00     0.074 A 
ATOM     43  C   UNL     1       8.023  -1.610  -1.415  1.00  0.00     0.049 A 
ATOM     44  N   UNL     1       9.512  -3.733  -2.963  1.00  0.00    -0.248 NA
ATOM     45  C   UNL     1       8.253  -5.340  -1.827  1.00  0.00     0.031 C 
ATOM     46  C   UNL     1       7.334  -0.541  -0.698  1.00  0.00     0.029 A 
ATOM     47  N   UNL     1       8.831  -0.950  -2.310  1.00  0.00    -0.354 N 
ATOM     48  C   UNL     1       9.853  -4.999  -3.424  1.00  0.00     0.074 A 
ATOM     49  C   UNL     1       9.076  -5.953  -2.663  1.00  0.00     0.031 C 
ATOM     50  C   UNL     1       7.769   0.645  -1.161  1.00  0.00     0.029 A 
ATOM     51  C   UNL     1       8.798   0.417  -2.176  1.00  0.00     0.049 A 
ATOM     52  H   UNL     1       9.381  -1.412  -2.983  1.00  0.00     0.167 HD
ATOM     53  C   UNL     1      10.729  -5.335  -4.399  1.00  0.00     0.037 A 
ATOM     54  C   UNL     1       9.543   1.368  -2.776  1.00  0.00     0.037 A 
ATOM     55  C   UNL     1      11.510  -4.386  -5.147  1.00  0.00     0.049 A 
ATOM     56  C   UNL     1      10.591   0.962  -3.786  1.00  0.00     0.074 A 
ATOM     57  C   UNL     1      12.431  -4.626  -6.151  1.00  0.00     0.029 A 
ATOM     58  N   UNL     1      11.465  -3.011  -4.966  1.00  0.00    -0.354 N 
ATOM     59  N   UNL     1      10.905  -0.234  -4.224  1.00  0.00    -0.248 NA
ATOM     60  C   UNL     1      11.391   2.042  -4.384  1.00  0.00     0.031 C 
ATOM     61  C   UNL     1      12.985  -3.402  -6.538  1.00  0.00     0.029 A 
ATOM     62  C   UNL     1      12.360  -2.393  -5.824  1.00  0.00     0.049 A 
ATOM     63  H   UNL     1      10.884  -2.545  -4.323  1.00  0.00     0.167 HD
ATOM     64  C   UNL     1      11.904  -0.045  -5.174  1.00  0.00     0.074 A 
ATOM     65  C   UNL     1      12.138   1.380  -5.256  1.00  0.00     0.031 C 
ATOM     66  C   UNL     1      12.566  -0.970  -5.913  1.00  0.00     0.037 A 
BRANCH  53  67
ATOM     67  C   UNL     1      10.910  -6.796  -4.694  1.00  0.00     0.064 A 
ATOM     68  C   UNL     1       9.899  -7.555  -5.304  1.00  0.00     0.173 A 
ATOM     69  C   UNL     1      12.120  -7.438  -4.392  1.00  0.00     0.173 A 
ATOM     70  F   UNL     1       8.717  -6.994  -5.598  1.00  0.00    -0.203 F 
ATOM     71  C   UNL     1      10.084  -8.909  -5.574  1.00  0.00     0.198 A 
ATOM     72  C   UNL     1      12.314  -8.783  -4.695  1.00  0.00     0.198 A 
ATOM     73  F   UNL     1      13.121  -6.758  -3.812  1.00  0.00    -0.203 F 
ATOM     74  F   UNL     1       9.086  -9.626  -6.108  1.00  0.00    -0.200 F 
ATOM     75  C   UNL     1      11.294  -9.519  -5.278  1.00  0.00     0.200 A 
ATOM     76  F   UNL     1      13.489  -9.367  -4.422  1.00  0.00    -0.200 F 
ATOM     77  F   UNL     1      11.473 -10.819  -5.547  1.00  0.00    -0.200 F 
ENDBRANCH  53  67
BRANCH  54  78
ATOM     78  C   UNL     1       9.359   2.803  -2.423  1.00  0.00     0.064 A 
ATOM     79  C   UNL     1       8.892   3.727  -3.369  1.00  0.00     0.173 A 
ATOM     80  C   UNL     1       9.697   3.291  -1.152  1.00  0.00     0.173 A 
ATOM     81  F   UNL     1       8.583   3.317  -4.609  1.00  0.00    -0.203 F 
ATOM     82  C   UNL     1       8.799   5.085  -3.068  1.00  0.00     0.198 A 
ATOM     83  C   UNL     1       9.571   4.644  -0.841  1.00  0.00     0.198 A 
ATOM     84  F   UNL     1      10.156   2.454  -0.210  1.00  0.00    -0.203 F 
ATOM     85  F   UNL     1       8.413   5.953  -4.013  1.00  0.00    -0.200 F 
ATOM     86  C   UNL     1       9.134   5.541  -1.803  1.00  0.00     0.200 A 
ATOM     87  F   UNL     1       9.885   5.079   0.387  1.00  0.00    -0.200 F 
ATOM     88  F   UNL     1       9.049   6.847  -1.515  1.00  0.00    -0.200 F 
ENDBRANCH  54  78
BRANCH  66  89
ATOM     89  C   UNL     1      13.564  -0.474  -6.923  1.00  0.00     0.064 A 
ATOM     90  C   UNL     1      14.789   0.091  -6.543  1.00  0.00     0.173 A 
ATOM     91  C   UNL     1      13.309  -0.622  -8.296  1.00  0.00     0.173 A 
ATOM     92  F   UNL     1      15.078   0.267  -5.245  1.00  0.00    -0.203 F 
ATOM     93  C   UNL     1      15.711   0.514  -7.498  1.00  0.00     0.198 A 
ATOM     94  C   UNL     1      14.247  -0.232  -9.248  1.00  0.00     0.198 A 
ATOM     95  F   UNL     1      12.157  -1.166  -8.716  1.00  0.00    -0.203 F 
ATOM     96  F   UNL     1      16.855   1.095  -7.112  1.00  0.00    -0.200 F 
ATOM     97  C   UNL     1      15.444   0.343  -8.849  1.00  0.00     0.200 A 
ATOM     98  F   UNL     1      13.994  -0.415 -10.551  1.00  0.00    -0.200 F 
ATOM     99  F   UNL     1      16.337   0.738  -9.766  1.00  0.00    -0.200 F 
ENDBRANCH  66  89
ENDBRANCH  40  41
ENDBRANCH  33  35
ENDBRANCH  32  33
ENDBRANCH  31  32
ENDBRANCH  30  31
ENDBRANCH  29  30
ENDBRANCH  28  29
ENDBRANCH   1  28
TORSDOF 21
