REMARK SMILES CC(=O)Nc1cccc(-c2ccc(F)c(C(=O)OCCOCCOCCOC(=O)c3ccc(-c4c5nc(c(-c6c(F)c(F)c(F)c(F)c6F)c6ccc([nH]6)c(-c6c(F)c(F)c(F)c(F)c6F)c6nc(c(-c7c(F)c(F)c(F)c(F)c7F)c7ccc4[nH]7)C=C6)C=C5)cc3)c2)c1
REMARK SMILES IDX 22 1 21 2 20 3 19 4 18 5 16 6 17 7 15 8 10 9 11 10 93 11
REMARK SMILES IDX 12 12 13 13 14 14 9 15 5 16 6 17 94 18 7 19 8 20 4 21 1 22
REMARK SMILES IDX 2 23 3 24 23 26 24 27 25 28 26 29 27 30 28 31 29 32 30 33
REMARK SMILES IDX 31 34 92 35 32 36 91 37 33 38 34 39 35 40 85 41 36 42 90 43
REMARK SMILES IDX 84 44 86 45 37 46 89 47 83 48 82 49 38 51 70 52 50 53 69 54
REMARK SMILES IDX 51 55 54 56 68 57 87 58 52 59 53 60 67 62 88 63 55 64 39 65
REMARK SMILES IDX 40 66 48 67 41 68 42 69 46 70 49 71 43 72 44 73 47 74 45 75
REMARK SMILES IDX 71 76 72 77 80 78 73 79 74 80 78 81 81 82 75 83 76 84 79 85
REMARK SMILES IDX 77 86 56 87 57 88 65 89 58 90 59 91 63 92 66 93 60 94 61 95
REMARK SMILES IDX 64 96 62 97
REMARK H PARENT 4 25 86 50 54 61
REMARK Flexibility Score: inf
ROOT
ATOM      1  C   UNL     1       9.957   1.157   1.263  1.00  0.00     0.188 C 
ENDROOT
BRANCH   1   2
ATOM      2  O   UNL     1      10.543   1.743   0.104  1.00  0.00    -0.376 OA
BRANCH   2   3
ATOM      3  C   UNL     1       9.739   2.533  -0.767  1.00  0.00     0.202 C 
BRANCH   3   4
ATOM      4  C   UNL     1       8.509   1.872  -1.399  1.00  0.00     0.261 C 
BRANCH   4   5
ATOM      5  O   UNL     1       7.601   1.335  -0.423  1.00  0.00    -0.460 OA
BRANCH   5   6
ATOM      6  C   UNL     1       7.303   0.018  -0.552  1.00  0.00     0.341 C 
ATOM      7  O   UNL     1       7.612  -0.721  -1.472  1.00  0.00    -0.246 OA
BRANCH   6   8
ATOM      8  C   UNL     1       6.627  -0.441   0.674  1.00  0.00     0.096 A 
ATOM      9  C   UNL     1       4.892  -0.192   2.378  1.00  0.00    -0.017 A 
ATOM     10  C   UNL     1       5.387  -1.351   3.003  1.00  0.00     0.012 A 
ATOM     11  C   UNL     1       5.546   0.265   1.216  1.00  0.00     0.027 A 
ATOM     12  C   UNL     1       6.482  -2.041   2.475  1.00  0.00     0.041 A 
ATOM     13  C   UNL     1       7.089  -1.589   1.309  1.00  0.00     0.137 A 
ATOM     14  F   UNL     1       8.156  -2.253   0.846  1.00  0.00    -0.206 F 
BRANCH   9  15
ATOM     15  C   UNL     1       3.686   0.495   2.880  1.00  0.00    -0.016 A 
ATOM     16  C   UNL     1       1.521   1.538   2.388  1.00  0.00     0.041 A 
ATOM     17  C   UNL     1       1.377   1.857   3.739  1.00  0.00     0.026 A 
ATOM     18  C   UNL     1       2.679   0.881   1.974  1.00  0.00     0.034 A 
ATOM     19  C   UNL     1       2.348   1.465   4.663  1.00  0.00     0.003 A 
ATOM     20  C   UNL     1       3.492   0.784   4.237  1.00  0.00     0.009 A 
BRANCH  16  21
ATOM     21  N   UNL     1       0.516   1.961   1.503  1.00  0.00    -0.326 N 
ATOM     22  C   UNL     1       0.694   0.237  -0.297  1.00  0.00     0.114 C 
ATOM     23  C   UNL     1       0.183   1.547   0.244  1.00  0.00     0.221 C 
ATOM     24  O   UNL     1      -0.594   2.236  -0.422  1.00  0.00    -0.275 OA
ATOM     25  H   UNL     1      -0.050   2.687   1.852  1.00  0.00     0.169 HD
ENDBRANCH  16  21
ENDBRANCH   9  15
ENDBRANCH   6   8
ENDBRANCH   5   6
ENDBRANCH   4   5
ENDBRANCH   3   4
ENDBRANCH   2   3
ENDBRANCH   1   2
BRANCH   1  26
ATOM     26  C   UNL     1       9.012   2.001   2.144  1.00  0.00     0.188 C 
BRANCH  26  27
ATOM     27  O   UNL     1       9.010   3.373   1.806  1.00  0.00    -0.376 OA
BRANCH  27  28
ATOM     28  C   UNL     1       9.610   4.279   2.715  1.00  0.00     0.202 C 
BRANCH  28  29
ATOM     29  C   UNL     1      11.102   4.104   3.035  1.00  0.00     0.261 C 
BRANCH  29  30
ATOM     30  O   UNL     1      11.537   2.773   3.353  1.00  0.00    -0.460 OA
BRANCH  30  31
ATOM     31  C   UNL     1      11.259   2.303   4.588  1.00  0.00     0.338 C 
ATOM     32  O   UNL     1      10.639   2.867   5.470  1.00  0.00    -0.246 OA
BRANCH  31  33
ATOM     33  C   UNL     1      11.695   0.889   4.636  1.00  0.00     0.060 A 
ATOM     34  C   UNL     1      10.747  -0.102   4.916  1.00  0.00     0.016 A 
ATOM     35  C   UNL     1      13.028   0.542   4.394  1.00  0.00     0.016 A 
ATOM     36  C   UNL     1      11.137  -1.443   4.980  1.00  0.00     0.010 A 
ATOM     37  C   UNL     1      13.419  -0.799   4.472  1.00  0.00     0.010 A 
ATOM     38  C   UNL     1      12.480  -1.796   4.789  1.00  0.00    -0.014 A 
BRANCH  38  39
ATOM     39  C   UNL     1      12.925  -3.187   5.054  1.00  0.00     0.031 A 
ATOM     40  C   UNL     1      13.507  -3.522   6.399  1.00  0.00     0.074 A 
ATOM     41  C   UNL     1      12.805  -4.145   4.119  1.00  0.00     0.049 A 
ATOM     42  N   UNL     1      13.951  -4.667   6.854  1.00  0.00    -0.248 NA
ATOM     43  C   UNL     1      13.602  -2.414   7.361  1.00  0.00     0.031 C 
ATOM     44  C   UNL     1      12.249  -3.956   2.783  1.00  0.00     0.029 A 
ATOM     45  N   UNL     1      13.156  -5.473   4.155  1.00  0.00    -0.354 N 
ATOM     46  C   UNL     1      14.371  -4.419   8.153  1.00  0.00     0.074 A 
ATOM     47  C   UNL     1      14.164  -3.008   8.403  1.00  0.00     0.031 C 
ATOM     48  C   UNL     1      12.307  -5.123   2.118  1.00  0.00     0.029 A 
ATOM     49  C   UNL     1      12.923  -6.135   2.977  1.00  0.00     0.049 A 
ATOM     50  H   UNL     1      13.539  -5.908   4.951  1.00  0.00     0.167 HD
ATOM     51  C   UNL     1      14.875  -5.289   9.061  1.00  0.00     0.037 A 
ATOM     52  C   UNL     1      13.189  -7.409   2.627  1.00  0.00     0.037 A 
ATOM     53  C   UNL     1      15.097  -6.689   8.812  1.00  0.00     0.049 A 
ATOM     54  C   UNL     1      13.807  -8.345   3.632  1.00  0.00     0.074 A 
ATOM     55  C   UNL     1      15.571  -7.657   9.680  1.00  0.00     0.029 A 
ATOM     56  N   UNL     1      14.877  -7.317   7.595  1.00  0.00    -0.354 N 
ATOM     57  N   UNL     1      14.150  -8.117   4.877  1.00  0.00    -0.248 NA
ATOM     58  C   UNL     1      14.069  -9.721   3.183  1.00  0.00     0.031 C 
ATOM     59  C   UNL     1      15.686  -8.860   8.974  1.00  0.00     0.029 A 
ATOM     60  C   UNL     1      15.235  -8.654   7.680  1.00  0.00     0.049 A 
ATOM     61  H   UNL     1      14.519  -6.879   6.789  1.00  0.00     0.167 HD
ATOM     62  C   UNL     1      14.648  -9.318   5.365  1.00  0.00     0.074 A 
ATOM     63  C   UNL     1      14.548 -10.280   4.286  1.00  0.00     0.031 C 
ATOM     64  C   UNL     1      15.141  -9.600   6.597  1.00  0.00     0.037 A 
BRANCH  51  65
ATOM     65  C   UNL     1      15.244  -4.736  10.406  1.00  0.00     0.064 A 
ATOM     66  C   UNL     1      14.267  -4.331  11.328  1.00  0.00     0.173 A 
ATOM     67  C   UNL     1      16.590  -4.617  10.780  1.00  0.00     0.173 A 
ATOM     68  F   UNL     1      12.966  -4.410  11.012  1.00  0.00    -0.203 F 
ATOM     69  C   UNL     1      14.626  -3.796  12.563  1.00  0.00     0.198 A 
ATOM     70  C   UNL     1      16.945  -4.107  12.027  1.00  0.00     0.198 A 
ATOM     71  F   UNL     1      17.563  -4.992   9.937  1.00  0.00    -0.203 F 
ATOM     72  F   UNL     1      13.677  -3.366  13.406  1.00  0.00    -0.200 F 
ATOM     73  C   UNL     1      15.963  -3.689  12.913  1.00  0.00     0.200 A 
ATOM     74  F   UNL     1      18.238  -4.013  12.367  1.00  0.00    -0.200 F 
ATOM     75  F   UNL     1      16.307  -3.173  14.101  1.00  0.00    -0.200 F 
ENDBRANCH  51  65
BRANCH  52  76
ATOM     76  C   UNL     1      12.870  -7.875   1.253  1.00  0.00     0.064 A 
ATOM     77  C   UNL     1      11.818  -8.771   1.018  1.00  0.00     0.173 A 
ATOM     78  C   UNL     1      13.611  -7.432   0.148  1.00  0.00     0.173 A 
ATOM     79  F   UNL     1      11.101  -9.245   2.047  1.00  0.00    -0.203 F 
ATOM     80  C   UNL     1      11.526  -9.213  -0.270  1.00  0.00     0.198 A 
ATOM     81  C   UNL     1      13.303  -7.856  -1.143  1.00  0.00     0.198 A 
ATOM     82  F   UNL     1      14.633  -6.580   0.323  1.00  0.00    -0.203 F 
ATOM     83  F   UNL     1      10.540 -10.100  -0.464  1.00  0.00    -0.200 F 
ATOM     84  C   UNL     1      12.263  -8.750  -1.350  1.00  0.00     0.200 A 
ATOM     85  F   UNL     1      14.014  -7.403  -2.183  1.00  0.00    -0.200 F 
ATOM     86  F   UNL     1      11.978  -9.173  -2.589  1.00  0.00    -0.200 F 
ENDBRANCH  52  76
BRANCH  64  87
ATOM     87  C   UNL     1      15.595 -11.008   6.852  1.00  0.00     0.064 A 
ATOM     88  C   UNL     1      16.773 -11.516   6.282  1.00  0.00     0.173 A 
ATOM     89  C   UNL     1      14.864 -11.849   7.706  1.00  0.00     0.173 A 
ATOM     90  F   UNL     1      17.500 -10.758   5.449  1.00  0.00    -0.203 F 
ATOM     91  C   UNL     1      17.186 -12.822   6.537  1.00  0.00     0.198 A 
ATOM     92  C   UNL     1      15.296 -13.144   7.981  1.00  0.00     0.198 A 
ATOM     93  F   UNL     1      13.735 -11.411   8.283  1.00  0.00    -0.203 F 
ATOM     94  F   UNL     1      18.289 -13.300   5.945  1.00  0.00    -0.200 F 
ATOM     95  C   UNL     1      16.452 -13.632   7.390  1.00  0.00     0.200 A 
ATOM     96  F   UNL     1      14.592 -13.921   8.815  1.00  0.00    -0.200 F 
ATOM     97  F   UNL     1      16.855 -14.886   7.638  1.00  0.00    -0.200 F 
ENDBRANCH  64  87
ENDBRANCH  38  39
ENDBRANCH  31  33
ENDBRANCH  30  31
ENDBRANCH  29  30
ENDBRANCH  28  29
ENDBRANCH  27  28
ENDBRANCH  26  27
ENDBRANCH   1  26
TORSDOF 19
