REMARK SMILES Cc1ccc([C@@H](CC(=O)OCCOCCOCCOC(=O)c2ccc(-c3c4nc(c(-c5c(F)c(F)c(F)c(F)c5F)c5ccc([nH]5)c(-c5c(F)c(F)c(F)c(F)c5F)c5nc(c(-c6c(F)c(F)c(F)c(F)c6F)c6ccc3[nH]6)C=C5)C=C4)cc2)NC(=O)c2ccc(OC(F)F)cc2)cc1
REMARK SMILES IDX 13 1 12 2 11 3 10 4 8 5 9 6 7 7 6 8 5 9 1 10 2 11 3 12 99 13
REMARK SMILES IDX 4 14 98 15 85 16 86 17 87 19 88 20 89 21 97 22 90 23 96 24
REMARK SMILES IDX 91 25 92 26 93 27 94 28 95 29 14 30 15 31 16 32 17 33 18 34
REMARK SMILES IDX 19 35 20 36 21 37 22 38 23 39 84 40 24 41 83 42 25 43 26 44
REMARK SMILES IDX 27 45 77 46 28 47 82 48 76 49 78 50 29 51 81 52 75 53 74 54
REMARK SMILES IDX 30 56 62 57 42 58 61 59 43 60 46 61 60 62 79 63 44 64 45 65
REMARK SMILES IDX 59 67 80 68 47 69 31 70 32 71 40 72 33 73 34 74 38 75 41 76
REMARK SMILES IDX 35 77 36 78 39 79 37 80 63 81 64 82 72 83 65 84 66 85 70 86
REMARK SMILES IDX 73 87 67 88 68 89 71 90 69 91 48 92 49 93 57 94 50 95 51 96
REMARK SMILES IDX 55 97 58 98 52 99 53 100 56 101 54 102
REMARK H PARENT 85 18 78 55 46 66
REMARK Flexibility Score: inf
ROOT
ATOM      1  O   UNL     1      -1.651  -5.235  -0.251  1.00  0.00    -0.376 OA
ENDROOT
BRANCH   1   2
ATOM      2  C   UNL     1      -0.550  -4.350   0.065  1.00  0.00     0.202 C 
BRANCH   2   3
ATOM      3  C   UNL     1      -0.393  -2.884  -0.639  1.00  0.00     0.261 C 
BRANCH   3   4
ATOM      4  O   UNL     1      -1.114  -1.337  -0.305  1.00  0.00    -0.463 OA
BRANCH   4   5
ATOM      5  C   UNL     1      -2.116  -0.442  -0.828  1.00  0.00     0.308 C 
ATOM      6  O   UNL     1      -2.959  -0.665  -1.705  1.00  0.00    -0.252 OA
BRANCH   5   7
ATOM      7  C   UNL     1      -2.199   1.026  -0.560  1.00  0.00     0.152 C 
BRANCH   7   8
ATOM      8  C   UNL     1      -2.087   1.568   0.829  1.00  0.00     0.123 C 
BRANCH   8   9
ATOM      9  C   UNL     1      -0.581   1.452   1.059  1.00  0.00    -0.025 A 
ATOM     10  C   UNL     1       3.474   0.464  -0.019  1.00  0.00     0.044 C 
ATOM     11  C   UNL     1       2.101   0.851   0.441  1.00  0.00    -0.051 A 
ATOM     12  C   UNL     1       1.313  -0.063   1.145  1.00  0.00     0.004 A 
ATOM     13  C   UNL     1       1.563   2.095   0.102  1.00  0.00     0.004 A 
ATOM     14  C   UNL     1      -0.002   0.252   1.495  1.00  0.00     0.006 A 
ATOM     15  C   UNL     1       0.239   2.397   0.414  1.00  0.00     0.006 A 
ENDBRANCH   8   9
BRANCH   8  16
ATOM     16  N   UNL     1      -2.937   0.936   1.827  1.00  0.00    -0.345 N 
ATOM     17  C   UNL     1      -4.258   1.017   2.205  1.00  0.00     0.251 C 
ATOM     18  H   UNL     1      -2.440   0.283   2.372  1.00  0.00     0.164 HD
ATOM     19  O   UNL     1      -4.514   0.544   3.318  1.00  0.00    -0.269 OA
BRANCH  17  20
ATOM     20  C   UNL     1      -5.405   1.622   1.466  1.00  0.00     0.040 A 
ATOM     21  C   UNL     1      -6.336   2.331   2.250  1.00  0.00     0.017 A 
ATOM     22  C   UNL     1      -5.770   1.323   0.150  1.00  0.00     0.017 A 
ATOM     23  C   UNL     1      -7.556   2.778   1.723  1.00  0.00     0.047 A 
ATOM     24  C   UNL     1      -6.996   1.793  -0.389  1.00  0.00     0.047 A 
ATOM     25  C   UNL     1      -7.886   2.535   0.392  1.00  0.00     0.126 A 
BRANCH  25  26
ATOM     26  O   UNL     1      -9.102   3.030   0.017  1.00  0.00    -0.435 OA
BRANCH  26  27
ATOM     27  C   UNL     1      -9.404   3.137  -1.368  1.00  0.00     0.542 C 
ATOM     28  F   UNL     1      -8.386   3.742  -2.026  1.00  0.00    -0.167 F 
ATOM     29  F   UNL     1      -9.583   1.905  -1.896  1.00  0.00    -0.167 F 
ENDBRANCH  26  27
ENDBRANCH  25  26
ENDBRANCH  17  20
ENDBRANCH   8  16
ENDBRANCH   7   8
ENDBRANCH   5   7
ENDBRANCH   4   5
ENDBRANCH   3   4
ENDBRANCH   2   3
ENDBRANCH   1   2
BRANCH   1  30
ATOM     30  C   UNL     1      -2.672  -5.629   0.690  1.00  0.00     0.188 C 
BRANCH  30  31
ATOM     31  C   UNL     1      -2.427  -5.578   2.187  1.00  0.00     0.188 C 
BRANCH  31  32
ATOM     32  O   UNL     1      -1.851  -4.326   2.496  1.00  0.00    -0.376 OA
BRANCH  32  33
ATOM     33  C   UNL     1      -1.622  -4.057   3.863  1.00  0.00     0.202 C 
BRANCH  33  34
ATOM     34  C   UNL     1      -2.930  -3.787   4.632  1.00  0.00     0.261 C 
BRANCH  34  35
ATOM     35  O   UNL     1      -3.673  -2.696   4.015  1.00  0.00    -0.460 OA
BRANCH  35  36
ATOM     36  C   UNL     1      -4.853  -2.969   3.334  1.00  0.00     0.338 C 
ATOM     37  O   UNL     1      -5.715  -3.705   3.728  1.00  0.00    -0.246 OA
BRANCH  36  38
ATOM     38  C   UNL     1      -4.738  -2.475   1.897  1.00  0.00     0.060 A 
ATOM     39  C   UNL     1      -5.627  -2.612   0.812  1.00  0.00     0.016 A 
ATOM     40  C   UNL     1      -3.473  -2.210   1.532  1.00  0.00     0.016 A 
ATOM     41  C   UNL     1      -5.156  -2.646  -0.594  1.00  0.00     0.010 A 
ATOM     42  C   UNL     1      -3.105  -2.643   0.273  1.00  0.00     0.010 A 
ATOM     43  C   UNL     1      -3.804  -2.762  -0.916  1.00  0.00    -0.014 A 
BRANCH  43  44
ATOM     44  C   UNL     1      -2.985  -3.064  -2.300  1.00  0.00     0.031 A 
ATOM     45  C   UNL     1      -1.955  -2.110  -3.266  1.00  0.00     0.074 A 
ATOM     46  C   UNL     1      -3.050  -4.356  -2.663  1.00  0.00     0.049 A 
ATOM     47  N   UNL     1      -2.089  -1.859  -4.554  1.00  0.00    -0.248 NA
ATOM     48  C   UNL     1      -0.718  -1.334  -2.858  1.00  0.00     0.031 C 
ATOM     49  C   UNL     1      -2.305  -5.078  -3.681  1.00  0.00     0.029 A 
ATOM     50  N   UNL     1      -3.947  -5.312  -2.170  1.00  0.00    -0.354 N 
ATOM     51  C   UNL     1      -0.925  -1.140  -4.962  1.00  0.00     0.074 A 
ATOM     52  C   UNL     1      -0.417  -0.489  -3.824  1.00  0.00     0.031 C 
ATOM     53  C   UNL     1      -3.001  -6.192  -3.985  1.00  0.00     0.029 A 
ATOM     54  C   UNL     1      -4.267  -6.125  -3.267  1.00  0.00     0.049 A 
ATOM     55  H   UNL     1      -4.282  -5.395  -1.248  1.00  0.00     0.167 HD
ATOM     56  C   UNL     1      -0.076  -1.526  -5.974  1.00  0.00     0.037 A 
ATOM     57  C   UNL     1      -5.526  -6.003  -3.783  1.00  0.00     0.037 A 
ATOM     58  C   UNL     1      -0.574  -2.750  -6.548  1.00  0.00     0.049 A 
ATOM     59  C   UNL     1      -5.498  -5.380  -5.171  1.00  0.00     0.074 A 
ATOM     60  C   UNL     1      -0.228  -4.087  -6.541  1.00  0.00     0.029 A 
ATOM     61  N   UNL     1      -1.880  -2.712  -6.946  1.00  0.00    -0.354 N 
ATOM     62  N   UNL     1      -4.401  -5.041  -5.797  1.00  0.00    -0.248 NA
ATOM     63  C   UNL     1      -6.685  -5.038  -5.949  1.00  0.00     0.031 C 
ATOM     64  C   UNL     1      -1.361  -4.828  -7.015  1.00  0.00     0.029 A 
ATOM     65  C   UNL     1      -2.368  -3.929  -7.310  1.00  0.00     0.049 A 
ATOM     66  H   UNL     1      -2.415  -1.886  -6.967  1.00  0.00     0.167 HD
ATOM     67  C   UNL     1      -4.695  -4.411  -6.972  1.00  0.00     0.074 A 
ATOM     68  C   UNL     1      -6.146  -4.428  -7.020  1.00  0.00     0.031 C 
ATOM     69  C   UNL     1      -3.730  -3.895  -7.793  1.00  0.00     0.037 A 
BRANCH  56  70
ATOM     70  C   UNL     1       1.347  -0.969  -6.183  1.00  0.00     0.064 A 
ATOM     71  C   UNL     1       2.358  -1.747  -6.782  1.00  0.00     0.173 A 
ATOM     72  C   UNL     1       1.777   0.330  -5.805  1.00  0.00     0.173 A 
ATOM     73  F   UNL     1       2.093  -2.949  -7.306  1.00  0.00    -0.203 F 
ATOM     74  C   UNL     1       3.692  -1.323  -6.879  1.00  0.00     0.198 A 
ATOM     75  C   UNL     1       3.124   0.729  -5.837  1.00  0.00     0.198 A 
ATOM     76  F   UNL     1       0.900   1.263  -5.402  1.00  0.00    -0.203 F 
ATOM     77  F   UNL     1       4.601  -2.118  -7.462  1.00  0.00    -0.200 F 
ATOM     78  C   UNL     1       4.084  -0.103  -6.370  1.00  0.00     0.200 A 
ATOM     79  F   UNL     1       3.483   1.923  -5.339  1.00  0.00    -0.200 F 
ATOM     80  F   UNL     1       5.369   0.277  -6.417  1.00  0.00    -0.200 F 
ENDBRANCH  56  70
BRANCH  57  81
ATOM     81  C   UNL     1      -6.559  -5.833  -2.691  1.00  0.00     0.064 A 
ATOM     82  C   UNL     1      -6.519  -6.742  -1.598  1.00  0.00     0.173 A 
ATOM     83  C   UNL     1      -7.315  -4.673  -2.494  1.00  0.00     0.173 A 
ATOM     84  F   UNL     1      -5.836  -7.894  -1.709  1.00  0.00    -0.203 F 
ATOM     85  C   UNL     1      -7.052  -6.430  -0.346  1.00  0.00     0.198 A 
ATOM     86  C   UNL     1      -7.905  -4.391  -1.249  1.00  0.00     0.198 A 
ATOM     87  F   UNL     1      -7.391  -3.736  -3.449  1.00  0.00    -0.203 F 
ATOM     88  F   UNL     1      -6.832  -7.243   0.698  1.00  0.00    -0.200 F 
ATOM     89  C   UNL     1      -7.731  -5.243  -0.167  1.00  0.00     0.200 A 
ATOM     90  F   UNL     1      -8.527  -3.218  -1.059  1.00  0.00    -0.200 F 
ATOM     91  F   UNL     1      -8.164  -4.890   1.052  1.00  0.00    -0.200 F 
ENDBRANCH  57  81
BRANCH  69  92
ATOM     92  C   UNL     1      -4.002  -3.165  -9.091  1.00  0.00     0.064 A 
ATOM     93  C   UNL     1      -4.974  -3.625  -9.983  1.00  0.00     0.173 A 
ATOM     94  C   UNL     1      -3.240  -2.052  -9.547  1.00  0.00     0.173 A 
ATOM     95  F   UNL     1      -5.660  -4.748  -9.729  1.00  0.00    -0.203 F 
ATOM     96  C   UNL     1      -5.243  -2.959 -11.180  1.00  0.00     0.198 A 
ATOM     97  C   UNL     1      -3.472  -1.426 -10.765  1.00  0.00     0.198 A 
ATOM     98  F   UNL     1      -2.248  -1.497  -8.841  1.00  0.00    -0.203 F 
ATOM     99  F   UNL     1      -6.236  -3.395 -11.965  1.00  0.00    -0.200 F 
ATOM    100  C   UNL     1      -4.496  -1.861 -11.569  1.00  0.00     0.200 A 
ATOM    101  F   UNL     1      -2.699  -0.396 -11.137  1.00  0.00    -0.200 F 
ATOM    102  F   UNL     1      -4.755  -1.228 -12.720  1.00  0.00    -0.200 F 
ENDBRANCH  69  92
ENDBRANCH  43  44
ENDBRANCH  36  38
ENDBRANCH  35  36
ENDBRANCH  34  35
ENDBRANCH  33  34
ENDBRANCH  32  33
ENDBRANCH  31  32
ENDBRANCH  30  31
ENDBRANCH   1  30
TORSDOF 23
