REMARK SMILES Cc1nsc(NC(=O)c2ccc(N)cc2)c1C(=O)OCCOCCOCCOC(=O)c1ccc(-c2c3nc(c(-c4c(F)c(F)c(F)c(F)c4F)c4ccc([nH]4)c(-c4c(F)c(F)c(F)c(F)c4F)c4nc(c(-c5c(F)c(F)c(F)c(F)c5F)c5ccc2[nH]5)C=C4)C=C3)cc1
REMARK SMILES IDX 23 1 22 2 21 3 20 4 19 5 17 6 18 7 16 8 1 9 2 10 3 11 4 12
REMARK SMILES IDX 5 13 6 14 7 15 8 17 9 18 10 19 15 20 11 21 14 22 12 23 13 24
REMARK SMILES IDX 24 27 25 28 26 29 27 30 28 31 29 32 30 33 31 34 32 35 93 36
REMARK SMILES IDX 33 37 92 38 34 39 35 40 36 41 86 42 37 43 91 44 85 45 87 46
REMARK SMILES IDX 38 47 90 48 84 49 83 50 39 52 71 53 51 54 70 55 52 56 55 57
REMARK SMILES IDX 69 58 88 59 53 60 54 61 68 63 89 64 56 65 40 66 41 67 49 68
REMARK SMILES IDX 42 69 43 70 47 71 50 72 44 73 45 74 48 75 46 76 72 77 73 78
REMARK SMILES IDX 81 79 74 80 75 81 79 82 82 83 76 84 77 85 80 86 78 87 57 88
REMARK SMILES IDX 58 89 66 90 59 91 60 92 64 93 67 94 61 95 62 96 65 97 63 98
REMARK H PARENT 6 16 13 25 13 26 87 51 55 62
REMARK Flexibility Score: inf
ROOT
ATOM      1  C   UNL     1       3.786   3.699   0.381  1.00  0.00     0.188 C 
ENDROOT
BRANCH   1   2
ATOM      2  O   UNL     1       4.513   3.786   1.594  1.00  0.00    -0.376 OA
BRANCH   2   3
ATOM      3  C   UNL     1       4.320   2.822   2.620  1.00  0.00     0.202 C 
BRANCH   3   4
ATOM      4  C   UNL     1       2.924   2.298   3.026  1.00  0.00     0.261 C 
BRANCH   4   5
ATOM      5  O   UNL     1       2.056   1.905   1.953  1.00  0.00    -0.460 OA
BRANCH   5   6
ATOM      6  C   UNL     1       0.996   2.719   1.693  1.00  0.00     0.343 C 
ATOM      7  O   UNL     1       0.664   3.669   2.397  1.00  0.00    -0.246 OA
BRANCH   6   8
ATOM      8  C   UNL     1       0.444   2.507   0.363  1.00  0.00     0.117 A 
ATOM      9  C   UNL     1       0.667  -0.102   0.149  1.00  0.00     0.069 C 
ATOM     10  C   UNL     1       0.312   1.256  -0.352  1.00  0.00     0.068 A 
ATOM     11  N   UNL     1      -0.106   1.349  -1.615  1.00  0.00    -0.195 NA
ATOM     12  S   UNL     1      -0.245   2.938  -2.018  1.00  0.00    -0.017 S 
ATOM     13  C   UNL     1       0.124   3.567  -0.482  1.00  0.00     0.131 A 
BRANCH  13  14
ATOM     14  N   UNL     1       0.270   4.925  -0.222  1.00  0.00    -0.312 N 
ATOM     15  C   UNL     1       0.039   6.029  -1.012  1.00  0.00     0.256 C 
ATOM     16  H   UNL     1       0.595   5.133   0.684  1.00  0.00     0.171 HD
ATOM     17  O   UNL     1       0.652   7.073  -0.791  1.00  0.00    -0.269 OA
BRANCH  15  18
ATOM     18  C   UNL     1      -0.989   6.026  -2.071  1.00  0.00     0.040 A 
ATOM     19  C   UNL     1      -2.241   5.451  -1.839  1.00  0.00     0.016 A 
ATOM     20  C   UNL     1      -0.719   6.642  -3.296  1.00  0.00     0.016 A 
ATOM     21  C   UNL     1      -3.168   5.372  -2.877  1.00  0.00     0.026 A 
ATOM     22  C   UNL     1      -1.669   6.582  -4.320  1.00  0.00     0.026 A 
ATOM     23  C   UNL     1      -2.872   5.893  -4.138  1.00  0.00     0.031 A 
BRANCH  23  24
ATOM     24  N   UNL     1      -3.816   5.842  -5.150  1.00  0.00    -0.399 N 
ATOM     25  H   UNL     1      -4.660   5.354  -5.012  1.00  0.00     0.156 HD
ATOM     26  H   UNL     1      -3.644   6.293  -6.008  1.00  0.00     0.156 HD
ENDBRANCH  23  24
ENDBRANCH  15  18
ENDBRANCH  13  14
ENDBRANCH   6   8
ENDBRANCH   5   6
ENDBRANCH   4   5
ENDBRANCH   3   4
ENDBRANCH   2   3
ENDBRANCH   1   2
BRANCH   1  27
ATOM     27  C   UNL     1       3.769   2.389  -0.437  1.00  0.00     0.188 C 
BRANCH  27  28
ATOM     28  O   UNL     1       4.093   1.215   0.270  1.00  0.00    -0.376 OA
BRANCH  28  29
ATOM     29  C   UNL     1       5.385   0.628   0.229  1.00  0.00     0.202 C 
BRANCH  29  30
ATOM     30  C   UNL     1       6.674   1.343  -0.178  1.00  0.00     0.261 C 
BRANCH  30  31
ATOM     31  O   UNL     1       6.537   2.706  -0.507  1.00  0.00    -0.460 OA
BRANCH  31  32
ATOM     32  C   UNL     1       6.371   2.934  -1.825  1.00  0.00     0.338 C 
ATOM     33  O   UNL     1       6.244   2.107  -2.712  1.00  0.00    -0.246 OA
BRANCH  32  34
ATOM     34  C   UNL     1       6.361   4.379  -2.044  1.00  0.00     0.060 A 
ATOM     35  C   UNL     1       5.939   4.812  -3.302  1.00  0.00     0.016 A 
ATOM     36  C   UNL     1       7.095   5.186  -1.165  1.00  0.00     0.016 A 
ATOM     37  C   UNL     1       6.554   5.920  -3.822  1.00  0.00     0.010 A 
ATOM     38  C   UNL     1       7.715   6.287  -1.687  1.00  0.00     0.010 A 
ATOM     39  C   UNL     1       7.539   6.534  -3.046  1.00  0.00    -0.014 A 
BRANCH  39  40
ATOM     40  C   UNL     1       8.508   7.354  -3.728  1.00  0.00     0.031 A 
ATOM     41  C   UNL     1       8.043   8.722  -3.997  1.00  0.00     0.074 A 
ATOM     42  C   UNL     1       9.742   6.874  -3.974  1.00  0.00     0.049 A 
ATOM     43  N   UNL     1       7.853   9.282  -5.144  1.00  0.00    -0.248 NA
ATOM     44  C   UNL     1       7.585   9.513  -2.845  1.00  0.00     0.031 C 
ATOM     45  C   UNL     1      10.352   5.624  -3.501  1.00  0.00     0.029 A 
ATOM     46  N   UNL     1      10.765   7.477  -4.629  1.00  0.00    -0.354 N 
ATOM     47  C   UNL     1       7.423  10.569  -4.851  1.00  0.00     0.074 A 
ATOM     48  C   UNL     1       7.101  10.596  -3.449  1.00  0.00     0.031 C 
ATOM     49  C   UNL     1      11.691   5.683  -3.684  1.00  0.00     0.029 A 
ATOM     50  C   UNL     1      12.008   6.907  -4.397  1.00  0.00     0.049 A 
ATOM     51  H   UNL     1      10.636   8.253  -5.221  1.00  0.00     0.167 HD
ATOM     52  C   UNL     1       7.621  11.590  -5.724  1.00  0.00     0.037 A 
ATOM     53  C   UNL     1      13.197   7.493  -4.677  1.00  0.00     0.037 A 
ATOM     54  C   UNL     1       7.869  11.114  -7.059  1.00  0.00     0.049 A 
ATOM     55  C   UNL     1      12.934   8.570  -5.671  1.00  0.00     0.074 A 
ATOM     56  C   UNL     1       7.137  10.375  -7.968  1.00  0.00     0.029 A 
ATOM     57  N   UNL     1       9.169  11.061  -7.498  1.00  0.00    -0.354 N 
ATOM     58  N   UNL     1      12.546   8.341  -6.897  1.00  0.00    -0.248 NA
ATOM     59  C   UNL     1      12.621   9.898  -5.158  1.00  0.00     0.031 C 
ATOM     60  C   UNL     1       8.088   9.531  -8.613  1.00  0.00     0.029 A 
ATOM     61  C   UNL     1       9.348   9.839  -8.099  1.00  0.00     0.049 A 
ATOM     62  H   UNL     1       9.848  11.768  -7.401  1.00  0.00     0.167 HD
ATOM     63  C   UNL     1      11.594   9.318  -7.160  1.00  0.00     0.074 A 
ATOM     64  C   UNL     1      11.731  10.287  -6.076  1.00  0.00     0.031 C 
ATOM     65  C   UNL     1      10.589   9.103  -8.060  1.00  0.00     0.037 A 
BRANCH  52  66
ATOM     66  C   UNL     1       7.953  12.984  -5.276  1.00  0.00     0.064 A 
ATOM     67  C   UNL     1       7.887  14.039  -6.201  1.00  0.00     0.173 A 
ATOM     68  C   UNL     1       8.601  13.273  -4.054  1.00  0.00     0.173 A 
ATOM     69  F   UNL     1       7.323  13.855  -7.404  1.00  0.00    -0.203 F 
ATOM     70  C   UNL     1       8.478  15.277  -5.940  1.00  0.00     0.198 A 
ATOM     71  C   UNL     1       9.134  14.526  -3.773  1.00  0.00     0.198 A 
ATOM     72  F   UNL     1       8.848  12.329  -3.137  1.00  0.00    -0.203 F 
ATOM     73  F   UNL     1       8.499  16.216  -6.894  1.00  0.00    -0.200 F 
ATOM     74  C   UNL     1       9.101  15.518  -4.727  1.00  0.00     0.200 A 
ATOM     75  F   UNL     1       9.753  14.731  -2.601  1.00  0.00    -0.200 F 
ATOM     76  F   UNL     1       9.717  16.685  -4.498  1.00  0.00    -0.200 F 
ENDBRANCH  52  66
BRANCH  53  77
ATOM     77  C   UNL     1      14.416   7.449  -3.834  1.00  0.00     0.064 A 
ATOM     78  C   UNL     1      15.678   7.776  -4.352  1.00  0.00     0.173 A 
ATOM     79  C   UNL     1      14.328   7.328  -2.431  1.00  0.00     0.173 A 
ATOM     80  F   UNL     1      15.834   7.966  -5.670  1.00  0.00    -0.203 F 
ATOM     81  C   UNL     1      16.784   7.970  -3.516  1.00  0.00     0.198 A 
ATOM     82  C   UNL     1      15.432   7.515  -1.600  1.00  0.00     0.198 A 
ATOM     83  F   UNL     1      13.147   7.117  -1.831  1.00  0.00    -0.203 F 
ATOM     84  F   UNL     1      17.965   8.328  -4.041  1.00  0.00    -0.200 F 
ATOM     85  C   UNL     1      16.659   7.844  -2.142  1.00  0.00     0.200 A 
ATOM     86  F   UNL     1      15.284   7.429  -0.270  1.00  0.00    -0.200 F 
ATOM     87  F   UNL     1      17.706   8.079  -1.338  1.00  0.00    -0.200 F 
ENDBRANCH  53  77
BRANCH  65  88
ATOM     88  C   UNL     1      10.669   7.861  -8.906  1.00  0.00     0.064 A 
ATOM     89  C   UNL     1      10.598   6.557  -8.382  1.00  0.00     0.173 A 
ATOM     90  C   UNL     1      10.667   7.993 -10.299  1.00  0.00     0.173 A 
ATOM     91  F   UNL     1      10.484   6.352  -7.065  1.00  0.00    -0.203 F 
ATOM     92  C   UNL     1      10.579   5.440  -9.215  1.00  0.00     0.198 A 
ATOM     93  C   UNL     1      10.611   6.877 -11.130  1.00  0.00     0.198 A 
ATOM     94  F   UNL     1      10.668   9.214 -10.857  1.00  0.00    -0.203 F 
ATOM     95  F   UNL     1      10.524   4.208  -8.687  1.00  0.00    -0.200 F 
ATOM     96  C   UNL     1      10.580   5.601 -10.589  1.00  0.00     0.200 A 
ATOM     97  F   UNL     1      10.559   7.040 -12.460  1.00  0.00    -0.200 F 
ATOM     98  F   UNL     1      10.521   4.530 -11.393  1.00  0.00    -0.200 F 
ENDBRANCH  65  88
ENDBRANCH  39  40
ENDBRANCH  32  34
ENDBRANCH  31  32
ENDBRANCH  30  31
ENDBRANCH  29  30
ENDBRANCH  28  29
ENDBRANCH  27  28
ENDBRANCH   1  27
TORSDOF 20
