REMARK SMILES CCc1cccc(-c2ccc([C@@H](C)C(=O)OCCOCCOCCOC(=O)c3ccc(-c4c5nc(c(-c6c(F)c(F)c(F)c(F)c6F)c6ccc([nH]6)c(-c6c(F)c(F)c(F)c(F)c6F)c6nc(c(-c7c(F)c(F)c(F)c(F)c7F)c7ccc4[nH]7)C=C6)C=C5)cc3)cc2)c1
REMARK SMILES IDX 20 1 19 2 18 3 17 4 16 5 14 6 15 7 12 8 13 9 11 10 8 11 9 12
REMARK SMILES IDX 92 13 10 14 91 15 7 16 3 17 4 18 93 19 5 20 6 21 2 22 1 23
REMARK SMILES IDX 21 24 22 25 23 26 24 27 25 28 26 29 27 30 28 31 29 32 90 33
REMARK SMILES IDX 30 34 89 35 31 36 32 37 33 38 83 39 34 40 88 41 82 42 84 43
REMARK SMILES IDX 35 44 87 45 81 46 80 47 36 49 68 50 48 51 67 52 49 53 52 54
REMARK SMILES IDX 66 55 85 56 50 57 51 58 65 60 86 61 53 62 37 63 38 64 46 65
REMARK SMILES IDX 39 66 40 67 44 68 47 69 41 70 42 71 45 72 43 73 69 74 70 75
REMARK SMILES IDX 78 76 71 77 72 78 76 79 79 80 73 81 74 82 77 83 75 84 54 85
REMARK SMILES IDX 55 86 63 87 56 88 57 89 61 90 64 91 58 92 59 93 62 94 60 95
REMARK H PARENT 84 48 52 59
REMARK Flexibility Score: inf
ROOT
ATOM      1  C   UNL     1      -2.553   9.761  -1.634  1.00  0.00     0.188 C 
ENDROOT
BRANCH   1   2
ATOM      2  O   UNL     1      -3.680  10.421  -2.197  1.00  0.00    -0.376 OA
BRANCH   2   3
ATOM      3  C   UNL     1      -4.018  10.185  -3.558  1.00  0.00     0.202 C 
BRANCH   3   4
ATOM      4  C   UNL     1      -2.957  10.469  -4.635  1.00  0.00     0.261 C 
BRANCH   4   5
ATOM      5  O   UNL     1      -1.681   9.811  -4.455  1.00  0.00    -0.463 OA
BRANCH   5   6
ATOM      6  C   UNL     1      -0.602  10.615  -4.278  1.00  0.00     0.313 C 
ATOM      7  O   UNL     1      -0.667  11.844  -4.309  1.00  0.00    -0.252 OA
BRANCH   6   8
ATOM      8  C   UNL     1       0.737   9.918  -4.013  1.00  0.00     0.126 C 
ATOM      9  C   UNL     1       1.712  10.296  -5.126  1.00  0.00     0.025 C 
BRANCH   8  10
ATOM     10  C   UNL     1       0.817   8.420  -3.717  1.00  0.00    -0.034 A 
ATOM     11  C   UNL     1       1.051   5.634  -3.076  1.00  0.00    -0.018 A 
ATOM     12  C   UNL     1       0.403   6.074  -4.245  1.00  0.00     0.009 A 
ATOM     13  C   UNL     1       1.577   6.616  -2.228  1.00  0.00     0.009 A 
ATOM     14  C   UNL     1       0.296   7.439  -4.569  1.00  0.00     0.005 A 
ATOM     15  C   UNL     1       1.469   7.981  -2.545  1.00  0.00     0.005 A 
BRANCH  11  16
ATOM     16  C   UNL     1       1.248   4.194  -2.805  1.00  0.00    -0.018 A 
ATOM     17  C   UNL     1       1.011   2.188  -1.383  1.00  0.00    -0.048 A 
ATOM     18  C   UNL     1       1.692   1.440  -2.351  1.00  0.00     0.004 A 
ATOM     19  C   UNL     1       0.792   3.566  -1.628  1.00  0.00     0.012 A 
ATOM     20  C   UNL     1       2.153   2.043  -3.519  1.00  0.00     0.001 A 
ATOM     21  C   UNL     1       1.935   3.403  -3.740  1.00  0.00     0.009 A 
BRANCH  17  22
ATOM     22  C   UNL     1       0.480   1.573  -0.104  1.00  0.00     0.032 C 
ATOM     23  C   UNL     1       0.899   0.133   0.196  1.00  0.00     0.009 C 
ENDBRANCH  17  22
ENDBRANCH  11  16
ENDBRANCH   8  10
ENDBRANCH   6   8
ENDBRANCH   5   6
ENDBRANCH   4   5
ENDBRANCH   3   4
ENDBRANCH   2   3
ENDBRANCH   1   2
BRANCH   1  24
ATOM     24  C   UNL     1      -2.209   8.331  -2.078  1.00  0.00     0.188 C 
BRANCH  24  25
ATOM     25  O   UNL     1      -3.207   7.700  -2.849  1.00  0.00    -0.376 OA
BRANCH  25  26
ATOM     26  C   UNL     1      -3.659   6.442  -2.388  1.00  0.00     0.202 C 
BRANCH  26  27
ATOM     27  C   UNL     1      -4.480   6.506  -1.093  1.00  0.00     0.261 C 
BRANCH  27  28
ATOM     28  O   UNL     1      -3.863   7.220  -0.003  1.00  0.00    -0.460 OA
BRANCH  28  29
ATOM     29  C   UNL     1      -2.817   6.623   0.604  1.00  0.00     0.338 C 
ATOM     30  O   UNL     1      -2.353   5.516   0.354  1.00  0.00    -0.246 OA
BRANCH  29  31
ATOM     31  C   UNL     1      -2.165   7.607   1.496  1.00  0.00     0.060 A 
ATOM     32  C   UNL     1      -0.806   7.897   1.308  1.00  0.00     0.016 A 
ATOM     33  C   UNL     1      -2.878   8.217   2.530  1.00  0.00     0.016 A 
ATOM     34  C   UNL     1      -0.141   8.747   2.195  1.00  0.00     0.010 A 
ATOM     35  C   UNL     1      -2.208   9.056   3.427  1.00  0.00     0.010 A 
ATOM     36  C   UNL     1      -0.825   9.284   3.294  1.00  0.00    -0.014 A 
BRANCH  36  37
ATOM     37  C   UNL     1      -0.054   9.870   4.421  1.00  0.00     0.031 A 
ATOM     38  C   UNL     1       0.211   9.006   5.626  1.00  0.00     0.074 A 
ATOM     39  C   UNL     1       0.433  11.122   4.377  1.00  0.00     0.049 A 
ATOM     40  N   UNL     1       0.827   9.295   6.745  1.00  0.00    -0.248 NA
ATOM     41  C   UNL     1      -0.295   7.627   5.558  1.00  0.00     0.031 C 
ATOM     42  C   UNL     1       0.278  12.051   3.262  1.00  0.00     0.029 A 
ATOM     43  N   UNL     1       1.152  11.829   5.311  1.00  0.00    -0.354 N 
ATOM     44  C   UNL     1       0.777   8.136   7.511  1.00  0.00     0.074 A 
ATOM     45  C   UNL     1       0.030   7.158   6.751  1.00  0.00     0.031 C 
ATOM     46  C   UNL     1       0.868  13.216   3.583  1.00  0.00     0.029 A 
ATOM     47  C   UNL     1       1.417  13.122   4.936  1.00  0.00     0.049 A 
ATOM     48  H   UNL     1       1.448  11.444   6.167  1.00  0.00     0.167 HD
ATOM     49  C   UNL     1       1.318   7.900   8.731  1.00  0.00     0.037 A 
ATOM     50  C   UNL     1       2.014  14.121   5.618  1.00  0.00     0.037 A 
ATOM     51  C   UNL     1       2.050   8.876   9.494  1.00  0.00     0.049 A 
ATOM     52  C   UNL     1       2.550  13.860   7.004  1.00  0.00     0.074 A 
ATOM     53  C   UNL     1       2.639   8.736  10.739  1.00  0.00     0.029 A 
ATOM     54  N   UNL     1       2.283  10.182   9.087  1.00  0.00    -0.354 N 
ATOM     55  N   UNL     1       2.521  12.757   7.713  1.00  0.00    -0.248 NA
ATOM     56  C   UNL     1       3.215  14.984   7.680  1.00  0.00     0.031 C 
ATOM     57  C   UNL     1       3.177   9.973  11.110  1.00  0.00     0.029 A 
ATOM     58  C   UNL     1       2.988  10.865  10.067  1.00  0.00     0.049 A 
ATOM     59  H   UNL     1       1.991  10.567   8.230  1.00  0.00     0.167 HD
ATOM     60  C   UNL     1       3.187  13.043   8.899  1.00  0.00     0.074 A 
ATOM     61  C   UNL     1       3.623  14.421   8.808  1.00  0.00     0.031 C 
ATOM     62  C   UNL     1       3.421  12.237   9.965  1.00  0.00     0.037 A 
BRANCH  49  63
ATOM     63  C   UNL     1       1.105   6.534   9.322  1.00  0.00     0.064 A 
ATOM     64  C   UNL     1       1.700   5.388   8.770  1.00  0.00     0.173 A 
ATOM     65  C   UNL     1       0.294   6.368  10.455  1.00  0.00     0.173 A 
ATOM     66  F   UNL     1       2.472   5.487   7.677  1.00  0.00    -0.203 F 
ATOM     67  C   UNL     1       1.455   4.125   9.303  1.00  0.00     0.198 A 
ATOM     68  C   UNL     1       0.083   5.107  11.008  1.00  0.00     0.198 A 
ATOM     69  F   UNL     1      -0.296   7.428  11.027  1.00  0.00    -0.203 F 
ATOM     70  F   UNL     1       1.978   3.039   8.716  1.00  0.00    -0.200 F 
ATOM     71  C   UNL     1       0.652   3.986  10.424  1.00  0.00     0.200 A 
ATOM     72  F   UNL     1      -0.682   4.977  12.101  1.00  0.00    -0.200 F 
ATOM     73  F   UNL     1       0.418   2.770  10.936  1.00  0.00    -0.200 F 
ENDBRANCH  49  63
BRANCH  50  74
ATOM     74  C   UNL     1       2.125  15.470   5.002  1.00  0.00     0.064 A 
ATOM     75  C   UNL     1       3.368  16.003   4.631  1.00  0.00     0.173 A 
ATOM     76  C   UNL     1       0.986  16.260   4.781  1.00  0.00     0.173 A 
ATOM     77  F   UNL     1       4.489  15.300   4.848  1.00  0.00    -0.203 F 
ATOM     78  C   UNL     1       3.469  17.279   4.079  1.00  0.00     0.198 A 
ATOM     79  C   UNL     1       1.085  17.523   4.200  1.00  0.00     0.198 A 
ATOM     80  F   UNL     1      -0.226  15.800   5.123  1.00  0.00    -0.203 F 
ATOM     81  F   UNL     1       4.673  17.783   3.779  1.00  0.00    -0.200 F 
ATOM     82  C   UNL     1       2.327  18.034   3.856  1.00  0.00     0.200 A 
ATOM     83  F   UNL     1      -0.022  18.244   3.977  1.00  0.00    -0.200 F 
ATOM     84  F   UNL     1       2.424  19.258   3.319  1.00  0.00    -0.200 F 
ENDBRANCH  50  74
BRANCH  62  85
ATOM     85  C   UNL     1       4.225  12.805  11.103  1.00  0.00     0.064 A 
ATOM     86  C   UNL     1       3.722  13.810  11.943  1.00  0.00     0.173 A 
ATOM     87  C   UNL     1       5.511  12.311  11.375  1.00  0.00     0.173 A 
ATOM     88  F   UNL     1       2.502  14.325  11.723  1.00  0.00    -0.203 F 
ATOM     89  C   UNL     1       4.489  14.325  12.986  1.00  0.00     0.198 A 
ATOM     90  C   UNL     1       6.261  12.802  12.441  1.00  0.00     0.198 A 
ATOM     91  F   UNL     1       6.040  11.342  10.613  1.00  0.00    -0.203 F 
ATOM     92  F   UNL     1       4.010  15.327  13.736  1.00  0.00    -0.200 F 
ATOM     93  C   UNL     1       5.754  13.816  13.238  1.00  0.00     0.200 A 
ATOM     94  F   UNL     1       7.475  12.295  12.694  1.00  0.00    -0.200 F 
ATOM     95  F   UNL     1       6.488  14.309  14.245  1.00  0.00    -0.200 F 
ENDBRANCH  62  85
ENDBRANCH  36  37
ENDBRANCH  29  31
ENDBRANCH  28  29
ENDBRANCH  27  28
ENDBRANCH  26  27
ENDBRANCH  25  26
ENDBRANCH  24  25
ENDBRANCH   1  24
TORSDOF 20
