REMARK SMILES C[C@H](Cc1cccs1)N(C)C(=O)[C@@H]([NH3+])CCC(=O)OCCOCCOCCOC(=O)c1ccc(-c2c3nc(c(-c4c(F)c(F)c(F)c(F)c4F)c4ccc([nH]4)c(-c4c(F)c(F)c(F)c(F)c4F)c4nc(c(-c5c(F)c(F)c(F)c(F)c5F)c5ccc2[nH]5)C=C4)C=C3)cc1
REMARK SMILES IDX 21 1 20 2 19 3 17 4 18 5 16 6 15 7 13 8 11 9 12 10 9 11
REMARK SMILES IDX 10 12 2 13 1 14 3 15 4 16 5 17 8 18 6 19 7 20 14 21 22 25
REMARK SMILES IDX 23 26 24 27 25 28 26 29 27 30 28 31 29 32 30 33 31 34 32 35
REMARK SMILES IDX 93 36 33 37 92 38 34 39 35 40 36 41 86 42 37 43 91 44 85 45
REMARK SMILES IDX 87 46 38 47 90 48 84 49 83 50 39 52 71 53 51 54 70 55 52 56
REMARK SMILES IDX 55 57 69 58 88 59 53 60 54 61 68 63 89 64 56 65 40 66 41 67
REMARK SMILES IDX 49 68 42 69 43 70 47 71 50 72 44 73 45 74 48 75 46 76 72 77
REMARK SMILES IDX 73 78 81 79 74 80 75 81 79 82 82 83 76 84 77 85 80 86 78 87
REMARK SMILES IDX 57 88 58 89 66 90 59 91 60 92 64 93 67 94 61 95 62 96 65 97
REMARK SMILES IDX 63 98
REMARK H PARENT 14 22 14 23 14 24 87 51 55 62
REMARK Flexibility Score: inf
ROOT
ATOM      1  C   UNL     1      -4.577   4.764   3.727  1.00  0.00     0.202 C 
ENDROOT
BRANCH   1   2
ATOM      2  C   UNL     1      -3.165   4.259   3.386  1.00  0.00     0.261 C 
BRANCH   2   3
ATOM      3  O   UNL     1      -3.110   2.843   3.117  1.00  0.00    -0.463 OA
BRANCH   3   4
ATOM      4  C   UNL     1      -2.304   2.109   3.925  1.00  0.00     0.306 C 
ATOM      5  O   UNL     1      -1.579   2.571   4.800  1.00  0.00    -0.252 OA
BRANCH   4   6
ATOM      6  C   UNL     1      -2.482   0.607   3.770  1.00  0.00     0.129 C 
BRANCH   6   7
ATOM      7  C   UNL     1      -3.339   0.024   2.637  1.00  0.00     0.087 C 
BRANCH   7   8
ATOM      8  C   UNL     1      -2.960   0.462   1.220  1.00  0.00     0.271 C 
BRANCH   8   9
ATOM      9  C   UNL     1      -1.433   0.460   1.026  1.00  0.00     0.280 C 
ATOM     10  O   UNL     1      -0.877   1.558   1.115  1.00  0.00    -0.268 OA
BRANCH   9  11
ATOM     11  N   UNL     1      -0.698  -0.715   0.926  1.00  0.00    -0.338 N 
ATOM     12  C   UNL     1      -1.282  -2.053   0.885  1.00  0.00     0.147 C 
BRANCH  11  13
ATOM     13  C   UNL     1       0.779  -0.654   1.085  1.00  0.00     0.087 C 
ATOM     14  C   UNL     1       1.159  -0.306   2.528  1.00  0.00     0.031 C 
BRANCH  13  15
ATOM     15  C   UNL     1       1.517   0.124  -0.045  1.00  0.00     0.071 C 
BRANCH  15  16
ATOM     16  C   UNL     1       1.993   1.518   0.275  1.00  0.00     0.007 A 
ATOM     17  C   UNL     1       2.999   1.910   1.140  1.00  0.00     0.015 A 
ATOM     18  S   UNL     1       1.334   2.878  -0.544  1.00  0.00    -0.149 S 
ATOM     19  C   UNL     1       3.075   3.325   1.281  1.00  0.00     0.012 A 
ATOM     20  C   UNL     1       2.188   3.971   0.453  1.00  0.00     0.065 A 
ENDBRANCH  15  16
ENDBRANCH  13  15
ENDBRANCH  11  13
ENDBRANCH   9  11
ENDBRANCH   8   9
BRANCH   8  21
ATOM     21  N   UNL     1      -3.688  -0.303   0.190  1.00  0.00    -0.347 N 
ATOM     22  H   UNL     1      -3.431  -1.289   0.254  1.00  0.00     0.345 HD
ATOM     23  H   UNL     1      -3.442   0.052  -0.734  1.00  0.00     0.345 HD
ATOM     24  H   UNL     1      -4.692  -0.203   0.338  1.00  0.00     0.345 HD
ENDBRANCH   8  21
ENDBRANCH   7   8
ENDBRANCH   6   7
ENDBRANCH   4   6
ENDBRANCH   3   4
ENDBRANCH   2   3
ENDBRANCH   1   2
BRANCH   1  25
ATOM     25  O   UNL     1      -5.255   4.080   4.783  1.00  0.00    -0.376 OA
BRANCH  25  26
ATOM     26  C   UNL     1      -5.561   2.708   4.555  1.00  0.00     0.188 C 
BRANCH  26  27
ATOM     27  C   UNL     1      -6.373   2.409   3.296  1.00  0.00     0.188 C 
BRANCH  27  28
ATOM     28  O   UNL     1      -5.843   2.913   2.081  1.00  0.00    -0.376 OA
BRANCH  28  29
ATOM     29  C   UNL     1      -6.647   2.792   0.905  1.00  0.00     0.202 C 
BRANCH  29  30
ATOM     30  C   UNL     1      -8.175   3.001   1.016  1.00  0.00     0.261 C 
BRANCH  30  31
ATOM     31  O   UNL     1      -8.867   2.192   1.994  1.00  0.00    -0.460 OA
BRANCH  31  32
ATOM     32  C   UNL     1      -8.654   0.858   1.972  1.00  0.00     0.338 C 
ATOM     33  O   UNL     1      -8.132   0.226   1.067  1.00  0.00    -0.246 OA
BRANCH  32  34
ATOM     34  C   UNL     1      -8.902   0.301   3.335  1.00  0.00     0.060 A 
ATOM     35  C   UNL     1      -8.086  -0.756   3.763  1.00  0.00     0.016 A 
ATOM     36  C   UNL     1      -9.857   0.829   4.213  1.00  0.00     0.016 A 
ATOM     37  C   UNL     1      -8.277  -1.342   5.017  1.00  0.00     0.010 A 
ATOM     38  C   UNL     1     -10.056   0.235   5.470  1.00  0.00     0.010 A 
ATOM     39  C   UNL     1      -9.308  -0.894   5.852  1.00  0.00    -0.014 A 
BRANCH  39  40
ATOM     40  C   UNL     1      -9.766  -1.782   6.957  1.00  0.00     0.031 A 
ATOM     41  C   UNL     1     -10.956  -2.672   6.692  1.00  0.00     0.074 A 
ATOM     42  C   UNL     1      -9.111  -1.884   8.129  1.00  0.00     0.049 A 
ATOM     43  N   UNL     1     -11.523  -3.567   7.463  1.00  0.00    -0.248 NA
ATOM     44  C   UNL     1     -11.590  -2.535   5.371  1.00  0.00     0.031 C 
ATOM     45  C   UNL     1      -7.924  -1.124   8.509  1.00  0.00     0.029 A 
ATOM     46  N   UNL     1      -9.360  -2.687   9.219  1.00  0.00    -0.354 N 
ATOM     47  C   UNL     1     -12.575  -4.090   6.721  1.00  0.00     0.074 A 
ATOM     48  C   UNL     1     -12.597  -3.388   5.459  1.00  0.00     0.031 C 
ATOM     49  C   UNL     1      -7.547  -1.495   9.746  1.00  0.00     0.029 A 
ATOM     50  C   UNL     1      -8.478  -2.502  10.256  1.00  0.00     0.049 A 
ATOM     51  H   UNL     1     -10.101  -3.334   9.252  1.00  0.00     0.167 HD
ATOM     52  C   UNL     1     -13.439  -5.080   7.049  1.00  0.00     0.037 A 
ATOM     53  C   UNL     1      -8.436  -3.073  11.478  1.00  0.00     0.037 A 
ATOM     54  C   UNL     1     -13.426  -5.790   8.300  1.00  0.00     0.049 A 
ATOM     55  C   UNL     1      -9.452  -4.130  11.846  1.00  0.00     0.074 A 
ATOM     56  C   UNL     1     -14.259  -6.813   8.720  1.00  0.00     0.029 A 
ATOM     57  N   UNL     1     -12.538  -5.547   9.336  1.00  0.00    -0.354 N 
ATOM     58  N   UNL     1     -10.426  -4.636  11.128  1.00  0.00    -0.248 NA
ATOM     59  C   UNL     1      -9.349  -4.706  13.195  1.00  0.00     0.031 C 
ATOM     60  C   UNL     1     -13.913  -7.148  10.033  1.00  0.00     0.029 A 
ATOM     61  C   UNL     1     -12.816  -6.387  10.403  1.00  0.00     0.049 A 
ATOM     62  H   UNL     1     -11.816  -4.877   9.318  1.00  0.00     0.167 HD
ATOM     63  C   UNL     1     -11.018  -5.615  11.919  1.00  0.00     0.074 A 
ATOM     64  C   UNL     1     -10.287  -5.642  13.166  1.00  0.00     0.031 C 
ATOM     65  C   UNL     1     -12.071  -6.423  11.635  1.00  0.00     0.037 A 
BRANCH  52  66
ATOM     66  C   UNL     1     -14.497  -5.436   6.044  1.00  0.00     0.064 A 
ATOM     67  C   UNL     1     -14.186  -6.083   4.838  1.00  0.00     0.173 A 
ATOM     68  C   UNL     1     -15.845  -5.150   6.306  1.00  0.00     0.173 A 
ATOM     69  F   UNL     1     -12.910  -6.361   4.529  1.00  0.00    -0.203 F 
ATOM     70  C   UNL     1     -15.183  -6.407   3.921  1.00  0.00     0.198 A 
ATOM     71  C   UNL     1     -16.843  -5.507   5.403  1.00  0.00     0.198 A 
ATOM     72  F   UNL     1     -16.197  -4.533   7.444  1.00  0.00    -0.203 F 
ATOM     73  F   UNL     1     -14.857  -6.976   2.753  1.00  0.00    -0.200 F 
ATOM     74  C   UNL     1     -16.511  -6.127   4.208  1.00  0.00     0.200 A 
ATOM     75  F   UNL     1     -18.126  -5.247   5.689  1.00  0.00    -0.200 F 
ATOM     76  F   UNL     1     -17.470  -6.449   3.330  1.00  0.00    -0.200 F 
ENDBRANCH  52  66
BRANCH  53  77
ATOM     77  C   UNL     1      -7.399  -2.662  12.466  1.00  0.00     0.064 A 
ATOM     78  C   UNL     1      -6.412  -3.557  12.905  1.00  0.00     0.173 A 
ATOM     79  C   UNL     1      -7.414  -1.382  13.040  1.00  0.00     0.173 A 
ATOM     80  F   UNL     1      -6.374  -4.805  12.413  1.00  0.00    -0.203 F 
ATOM     81  C   UNL     1      -5.503  -3.199  13.899  1.00  0.00     0.198 A 
ATOM     82  C   UNL     1      -6.482  -1.013  14.009  1.00  0.00     0.198 A 
ATOM     83  F   UNL     1      -8.341  -0.489  12.665  1.00  0.00    -0.203 F 
ATOM     84  F   UNL     1      -4.616  -4.098  14.348  1.00  0.00    -0.200 F 
ATOM     85  C   UNL     1      -5.535  -1.926  14.447  1.00  0.00     0.200 A 
ATOM     86  F   UNL     1      -6.514   0.221  14.530  1.00  0.00    -0.200 F 
ATOM     87  F   UNL     1      -4.665  -1.584  15.407  1.00  0.00    -0.200 F 
ENDBRANCH  53  77
BRANCH  65  88
ATOM     88  C   UNL     1     -12.452  -7.458  12.659  1.00  0.00     0.064 A 
ATOM     89  C   UNL     1     -13.004  -7.114  13.903  1.00  0.00     0.173 A 
ATOM     90  C   UNL     1     -12.276  -8.824  12.380  1.00  0.00     0.173 A 
ATOM     91  F   UNL     1     -13.189  -5.826  14.226  1.00  0.00    -0.203 F 
ATOM     92  C   UNL     1     -13.318  -8.093  14.844  1.00  0.00     0.198 A 
ATOM     93  C   UNL     1     -12.628  -9.801  13.308  1.00  0.00     0.198 A 
ATOM     94  F   UNL     1     -11.767  -9.214  11.202  1.00  0.00    -0.203 F 
ATOM     95  F   UNL     1     -13.778  -7.735  16.051  1.00  0.00    -0.200 F 
ATOM     96  C   UNL     1     -13.135  -9.434  14.544  1.00  0.00     0.200 A 
ATOM     97  F   UNL     1     -12.469 -11.097  13.007  1.00  0.00    -0.200 F 
ATOM     98  F   UNL     1     -13.437 -10.373  15.451  1.00  0.00    -0.200 F 
ENDBRANCH  65  88
ENDBRANCH  39  40
ENDBRANCH  32  34
ENDBRANCH  31  32
ENDBRANCH  30  31
ENDBRANCH  29  30
ENDBRANCH  28  29
ENDBRANCH  27  28
ENDBRANCH  26  27
ENDBRANCH  25  26
ENDBRANCH   1  25
TORSDOF 25
