REMARK SMILES CCNC(=O)N1CC[C@H](Cc2cccc(C(=O)OCCOCCOCCOC(=O)c3ccc(-c4c5nc(c(-c6c(F)c(F)c(F)c(F)c6F)c6ccc([nH]6)c(-c6c(F)c(F)c(F)c(F)c6F)c6nc(c(-c7c(F)c(F)c(F)c(F)c7F)c7ccc4[nH]7)C=C6)C=C5)cc3)c2)C1
REMARK SMILES IDX 22 1 21 2 20 3 19 4 18 5 16 6 17 7 15 8 11 9 12 10 93 11
REMARK SMILES IDX 13 12 14 13 10 14 9 15 6 16 7 17 94 18 8 19 4 20 3 21 5 23
REMARK SMILES IDX 2 24 1 25 23 26 24 27 25 28 26 29 27 30 28 31 29 32 30 33
REMARK SMILES IDX 31 34 92 35 32 36 91 37 33 38 34 39 35 40 85 41 36 42 90 43
REMARK SMILES IDX 84 44 86 45 37 46 89 47 83 48 82 49 38 51 70 52 50 53 69 54
REMARK SMILES IDX 51 55 54 56 68 57 87 58 52 59 53 60 67 62 88 63 55 64 39 65
REMARK SMILES IDX 40 66 48 67 41 68 42 69 46 70 49 71 43 72 44 73 47 74 45 75
REMARK SMILES IDX 71 76 72 77 80 78 73 79 74 80 78 81 81 82 75 83 76 84 79 85
REMARK SMILES IDX 77 86 56 87 57 88 65 89 58 90 59 91 63 92 66 93 60 94 61 95
REMARK SMILES IDX 64 96 62 97
REMARK H PARENT 3 22 86 50 54 61
REMARK Flexibility Score: inf
ROOT
ATOM      1  C   UNL     1     -10.812  -1.468   1.225  1.00  0.00     0.188 C 
ENDROOT
BRANCH   1   2
ATOM      2  O   UNL     1     -11.678  -2.421   0.628  1.00  0.00    -0.376 OA
BRANCH   2   3
ATOM      3  C   UNL     1     -11.194  -3.709   0.274  1.00  0.00     0.202 C 
BRANCH   3   4
ATOM      4  C   UNL     1      -9.886  -3.879  -0.515  1.00  0.00     0.261 C 
BRANCH   4   5
ATOM      5  O   UNL     1      -8.781  -3.111  -0.023  1.00  0.00    -0.460 OA
BRANCH   5   6
ATOM      6  C   UNL     1      -8.363  -2.096  -0.823  1.00  0.00     0.338 C 
ATOM      7  O   UNL     1      -8.772  -1.817  -1.934  1.00  0.00    -0.246 OA
BRANCH   6   8
ATOM      8  C   UNL     1      -7.446  -1.224  -0.053  1.00  0.00     0.060 A 
ATOM      9  C   UNL     1      -5.603  -0.919   1.496  1.00  0.00    -0.047 A 
ATOM     10  C   UNL     1      -5.776   0.470   1.404  1.00  0.00     0.004 A 
ATOM     11  C   UNL     1      -6.487  -1.762   0.807  1.00  0.00     0.019 A 
ATOM     12  C   UNL     1      -6.768   1.008   0.581  1.00  0.00     0.001 A 
ATOM     13  C   UNL     1      -7.584   0.163  -0.169  1.00  0.00     0.016 A 
BRANCH   9  14
ATOM     14  C   UNL     1      -4.427  -1.495   2.256  1.00  0.00     0.041 C 
BRANCH  14  15
ATOM     15  C   UNL     1      -3.671  -2.548   1.431  1.00  0.00     0.015 C 
ATOM     16  N   UNL     1      -1.393  -2.931   0.940  1.00  0.00    -0.325 N 
ATOM     17  C   UNL     1      -2.108  -2.931  -0.319  1.00  0.00     0.121 C 
ATOM     18  C   UNL     1      -2.328  -2.969   2.049  1.00  0.00     0.125 C 
ATOM     19  C   UNL     1      -3.292  -2.056   0.016  1.00  0.00     0.027 C 
BRANCH  16  20
ATOM     20  C   UNL     1      -0.054  -3.022   1.140  1.00  0.00     0.317 C 
ATOM     21  N   UNL     1       0.781  -2.423   0.254  1.00  0.00    -0.338 N 
ATOM     22  H   UNL     1       1.650  -2.864   0.113  1.00  0.00     0.165 HD
ATOM     23  O   UNL     1       0.430  -3.582   2.123  1.00  0.00    -0.249 OA
BRANCH  21  24
ATOM     24  C   UNL     1       0.549  -1.208  -0.510  1.00  0.00     0.114 C 
ATOM     25  C   UNL     1       1.213  -0.011   0.147  1.00  0.00     0.027 C 
ENDBRANCH  21  24
ENDBRANCH  16  20
ENDBRANCH  14  15
ENDBRANCH   9  14
ENDBRANCH   6   8
ENDBRANCH   5   6
ENDBRANCH   4   5
ENDBRANCH   3   4
ENDBRANCH   2   3
ENDBRANCH   1   2
BRANCH   1  26
ATOM     26  C   UNL     1      -9.923  -1.857   2.426  1.00  0.00     0.188 C 
BRANCH  26  27
ATOM     27  O   UNL     1      -9.980  -3.207   2.808  1.00  0.00    -0.376 OA
BRANCH  27  28
ATOM     28  C   UNL     1     -10.918  -3.630   3.781  1.00  0.00     0.202 C 
BRANCH  28  29
ATOM     29  C   UNL     1     -12.152  -2.832   4.256  1.00  0.00     0.261 C 
BRANCH  29  30
ATOM     30  O   UNL     1     -12.350  -1.505   3.760  1.00  0.00    -0.460 OA
BRANCH  30  31
ATOM     31  C   UNL     1     -11.982  -0.490   4.574  1.00  0.00     0.338 C 
ATOM     32  O   UNL     1     -11.449  -0.572   5.672  1.00  0.00    -0.246 OA
BRANCH  31  33
ATOM     33  C   UNL     1     -12.172   0.781   3.850  1.00  0.00     0.060 A 
ATOM     34  C   UNL     1     -11.046   1.507   3.437  1.00  0.00     0.016 A 
ATOM     35  C   UNL     1     -13.458   1.254   3.583  1.00  0.00     0.016 A 
ATOM     36  C   UNL     1     -11.206   2.715   2.756  1.00  0.00     0.010 A 
ATOM     37  C   UNL     1     -13.614   2.475   2.920  1.00  0.00     0.010 A 
ATOM     38  C   UNL     1     -12.491   3.220   2.517  1.00  0.00    -0.014 A 
BRANCH  38  39
ATOM     39  C   UNL     1     -12.673   4.580   1.955  1.00  0.00     0.031 A 
ATOM     40  C   UNL     1     -12.983   5.718   2.886  1.00  0.00     0.074 A 
ATOM     41  C   UNL     1     -12.585   4.800   0.631  1.00  0.00     0.049 A 
ATOM     42  N   UNL     1     -13.274   6.964   2.612  1.00  0.00    -0.248 NA
ATOM     43  C   UNL     1     -12.967   5.402   4.322  1.00  0.00     0.031 C 
ATOM     44  C   UNL     1     -12.249   3.792  -0.370  1.00  0.00     0.029 A 
ATOM     45  N   UNL     1     -12.790   5.947  -0.096  1.00  0.00    -0.354 N 
ATOM     46  C   UNL     1     -13.489   7.578   3.839  1.00  0.00     0.074 A 
ATOM     47  C   UNL     1     -13.319   6.562   4.856  1.00  0.00     0.031 C 
ATOM     48  C   UNL     1     -12.285   4.361  -1.588  1.00  0.00     0.029 A 
ATOM     49  C   UNL     1     -12.688   5.761  -1.452  1.00  0.00     0.049 A 
ATOM     50  H   UNL     1     -12.992   6.818   0.315  1.00  0.00     0.167 HD
ATOM     51  C   UNL     1     -13.799   8.873   4.092  1.00  0.00     0.037 A 
ATOM     52  C   UNL     1     -12.926   6.614  -2.468  1.00  0.00     0.037 A 
ATOM     53  C   UNL     1     -13.975   9.878   3.076  1.00  0.00     0.049 A 
ATOM     54  C   UNL     1     -13.367   8.024  -2.165  1.00  0.00     0.074 A 
ATOM     55  C   UNL     1     -14.251  11.225   3.233  1.00  0.00     0.029 A 
ATOM     56  N   UNL     1     -13.915   9.641   1.710  1.00  0.00    -0.354 N 
ATOM     57  N   UNL     1     -13.530   8.612  -1.004  1.00  0.00    -0.248 NA
ATOM     58  C   UNL     1     -13.662   8.888  -3.318  1.00  0.00     0.031 C 
ATOM     59  C   UNL     1     -14.426  11.787   1.964  1.00  0.00     0.029 A 
ATOM     60  C   UNL     1     -14.194  10.806   1.013  1.00  0.00     0.049 A 
ATOM     61  H   UNL     1     -13.704   8.772   1.297  1.00  0.00     0.167 HD
ATOM     62  C   UNL     1     -13.926   9.914  -1.285  1.00  0.00     0.074 A 
ATOM     63  C   UNL     1     -13.959  10.037  -2.727  1.00  0.00     0.031 C 
ATOM     64  C   UNL     1     -14.234  10.917  -0.424  1.00  0.00     0.037 A 
BRANCH  51  65
ATOM     65  C   UNL     1     -14.013   9.263   5.527  1.00  0.00     0.064 A 
ATOM     66  C   UNL     1     -12.959   9.302   6.452  1.00  0.00     0.173 A 
ATOM     67  C   UNL     1     -15.293   9.619   5.979  1.00  0.00     0.173 A 
ATOM     68  F   UNL     1     -11.717   8.960   6.076  1.00  0.00    -0.203 F 
ATOM     69  C   UNL     1     -13.185   9.643   7.784  1.00  0.00     0.198 A 
ATOM     70  C   UNL     1     -15.510   9.993   7.302  1.00  0.00     0.198 A 
ATOM     71  F   UNL     1     -16.337   9.605   5.136  1.00  0.00    -0.203 F 
ATOM     72  F   UNL     1     -12.174   9.614   8.662  1.00  0.00    -0.200 F 
ATOM     73  C   UNL     1     -14.458   9.994   8.206  1.00  0.00     0.200 A 
ATOM     74  F   UNL     1     -16.738  10.346   7.704  1.00  0.00    -0.200 F 
ATOM     75  F   UNL     1     -14.674  10.325   9.486  1.00  0.00    -0.200 F 
ENDBRANCH  51  65
BRANCH  52  76
ATOM     76  C   UNL     1     -12.768   6.155  -3.873  1.00  0.00     0.064 A 
ATOM     77  C   UNL     1     -11.743   6.662  -4.684  1.00  0.00     0.173 A 
ATOM     78  C   UNL     1     -13.637   5.209  -4.436  1.00  0.00     0.173 A 
ATOM     79  F   UNL     1     -10.906   7.593  -4.201  1.00  0.00    -0.203 F 
ATOM     80  C   UNL     1     -11.599   6.247  -6.006  1.00  0.00     0.198 A 
ATOM     81  C   UNL     1     -13.474   4.772  -5.749  1.00  0.00     0.198 A 
ATOM     82  F   UNL     1     -14.640   4.699  -3.705  1.00  0.00    -0.203 F 
ATOM     83  F   UNL     1     -10.637   6.779  -6.772  1.00  0.00    -0.200 F 
ATOM     84  C   UNL     1     -12.459   5.296  -6.535  1.00  0.00     0.200 A 
ATOM     85  F   UNL     1     -14.302   3.847  -6.253  1.00  0.00    -0.200 F 
ATOM     86  F   UNL     1     -12.315   4.891  -7.804  1.00  0.00    -0.200 F 
ENDBRANCH  52  76
BRANCH  64  87
ATOM     87  C   UNL     1     -14.620  12.244  -1.016  1.00  0.00     0.064 A 
ATOM     88  C   UNL     1     -15.842  12.427  -1.681  1.00  0.00     0.173 A 
ATOM     89  C   UNL     1     -13.777  13.359  -0.879  1.00  0.00     0.173 A 
ATOM     90  F   UNL     1     -16.678  11.392  -1.854  1.00  0.00    -0.203 F 
ATOM     91  C   UNL     1     -16.194  13.668  -2.208  1.00  0.00     0.198 A 
ATOM     92  C   UNL     1     -14.148  14.606  -1.376  1.00  0.00     0.198 A 
ATOM     93  F   UNL     1     -12.600  13.243  -0.246  1.00  0.00    -0.203 F 
ATOM     94  F   UNL     1     -17.344  13.806  -2.882  1.00  0.00    -0.200 F 
ATOM     95  C   UNL     1     -15.351  14.758  -2.047  1.00  0.00     0.200 A 
ATOM     96  F   UNL     1     -13.339  15.661  -1.205  1.00  0.00    -0.200 F 
ATOM     97  F   UNL     1     -15.696  15.953  -2.544  1.00  0.00    -0.200 F 
ENDBRANCH  64  87
ENDBRANCH  38  39
ENDBRANCH  31  33
ENDBRANCH  30  31
ENDBRANCH  29  30
ENDBRANCH  28  29
ENDBRANCH  27  28
ENDBRANCH  26  27
ENDBRANCH   1  26
TORSDOF 21
