REMARK SMILES Cc1nc(-c2cccc(N3C[C@H](C(=O)OCCOCCOCCOC(=O)c4ccc(-c5c6nc(c(-c7c(F)c(F)c(F)c(F)c7F)c7ccc([nH]7)c(-c7c(F)c(F)c(F)c(F)c7F)c7nc(c(-c8c(F)c(F)c(F)c(F)c8F)c8ccc5[nH]8)C=C7)C=C6)cc4)CC3=O)c2)no1
REMARK SMILES IDX 19 1 18 2 17 3 16 4 15 5 13 6 14 7 12 8 10 9 11 10 91 11
REMARK SMILES IDX 90 12 92 13 9 14 5 15 6 16 93 17 7 18 8 19 4 20 1 21 2 22
REMARK SMILES IDX 3 23 95 24 94 25 20 26 21 27 22 28 23 29 24 30 25 31 26 32
REMARK SMILES IDX 27 33 28 34 89 35 29 36 88 37 30 38 31 39 32 40 82 41 33 42
REMARK SMILES IDX 87 43 81 44 83 45 34 46 86 47 80 48 79 49 35 51 67 52 47 53
REMARK SMILES IDX 66 54 48 55 51 56 65 57 84 58 49 59 50 60 64 62 85 63 52 64
REMARK SMILES IDX 36 65 37 66 45 67 38 68 39 69 43 70 46 71 40 72 41 73 44 74
REMARK SMILES IDX 42 75 68 76 69 77 77 78 70 79 71 80 75 81 78 82 72 83 73 84
REMARK SMILES IDX 76 85 74 86 53 87 54 88 62 89 55 90 56 91 60 92 63 93 57 94
REMARK SMILES IDX 58 95 61 96 59 97
REMARK H PARENT 83 50 51 61
REMARK Flexibility Score: inf
ROOT
ATOM      1  C   UNL     1       7.147   5.538   5.477  1.00  0.00     0.188 C 
ENDROOT
BRANCH   1   2
ATOM      2  O   UNL     1       8.513   5.741   5.207  1.00  0.00    -0.376 OA
BRANCH   2   3
ATOM      3  C   UNL     1       8.924   6.636   4.191  1.00  0.00     0.202 C 
BRANCH   3   4
ATOM      4  C   UNL     1       8.060   7.052   2.989  1.00  0.00     0.261 C 
BRANCH   4   5
ATOM      5  O   UNL     1       6.638   7.040   3.158  1.00  0.00    -0.463 OA
BRANCH   5   6
ATOM      6  C   UNL     1       5.981   6.030   2.525  1.00  0.00     0.311 C 
ATOM      7  O   UNL     1       6.531   5.143   1.887  1.00  0.00    -0.252 OA
BRANCH   6   8
ATOM      8  C   UNL     1       4.479   6.146   2.720  1.00  0.00     0.128 C 
ATOM      9  N   UNL     1       3.648   4.202   1.782  1.00  0.00    -0.312 N 
ATOM     10  C   UNL     1       3.813   5.599   1.477  1.00  0.00     0.141 C 
ATOM     11  C   UNL     1       3.626   3.954   3.149  1.00  0.00     0.227 C 
ATOM     12  C   UNL     1       3.904   5.264   3.832  1.00  0.00     0.117 C 
ATOM     13  O   UNL     1       3.457   2.900   3.742  1.00  0.00    -0.274 OA
BRANCH   9  14
ATOM     14  C   UNL     1       3.579   3.207   0.805  1.00  0.00     0.044 A 
ATOM     15  C   UNL     1       2.437   1.301  -0.141  1.00  0.00     0.025 A 
ATOM     16  C   UNL     1       3.424   1.208  -1.131  1.00  0.00     0.012 A 
ATOM     17  C   UNL     1       2.543   2.280   0.849  1.00  0.00     0.038 A 
ATOM     18  C   UNL     1       4.481   2.119  -1.155  1.00  0.00     0.003 A 
ATOM     19  C   UNL     1       4.544   3.134  -0.203  1.00  0.00     0.026 A 
BRANCH  15  20
ATOM     20  C   UNL     1       1.259   0.458  -0.161  1.00  0.00     0.202 A 
ATOM     21  C   UNL     1      -2.231  -0.151   0.046  1.00  0.00     0.114 C 
ATOM     22  C   UNL     1      -0.766  -0.061  -0.052  1.00  0.00     0.223 A 
ATOM     23  N   UNL     1       0.014   0.977   0.118  1.00  0.00    -0.191 NA
ATOM     24  O   UNL     1      -0.092  -1.196  -0.391  1.00  0.00    -0.339 OA
ATOM     25  N   UNL     1       1.257  -0.845  -0.480  1.00  0.00    -0.057 NA
ENDBRANCH  15  20
ENDBRANCH   9  14
ENDBRANCH   6   8
ENDBRANCH   5   6
ENDBRANCH   4   5
ENDBRANCH   3   4
ENDBRANCH   2   3
ENDBRANCH   1   2
BRANCH   1  26
ATOM     26  C   UNL     1       6.288   6.716   5.991  1.00  0.00     0.188 C 
BRANCH  26  27
ATOM     27  O   UNL     1       6.871   7.980   6.204  1.00  0.00    -0.376 OA
BRANCH  27  28
ATOM     28  C   UNL     1       7.921   8.127   7.139  1.00  0.00     0.202 C 
BRANCH  28  29
ATOM     29  C   UNL     1       8.050   7.279   8.417  1.00  0.00     0.261 C 
BRANCH  29  30
ATOM     30  O   UNL     1       7.681   5.896   8.333  1.00  0.00    -0.460 OA
BRANCH  30  31
ATOM     31  C   UNL     1       6.554   5.551   9.008  1.00  0.00     0.338 C 
ATOM     32  O   UNL     1       5.820   6.284   9.641  1.00  0.00    -0.246 OA
BRANCH  31  33
ATOM     33  C   UNL     1       6.224   4.136   8.737  1.00  0.00     0.060 A 
ATOM     34  C   UNL     1       5.049   3.838   8.030  1.00  0.00     0.016 A 
ATOM     35  C   UNL     1       7.028   3.111   9.233  1.00  0.00     0.016 A 
ATOM     36  C   UNL     1       4.662   2.510   7.839  1.00  0.00     0.010 A 
ATOM     37  C   UNL     1       6.626   1.781   9.061  1.00  0.00     0.010 A 
ATOM     38  C   UNL     1       5.426   1.474   8.391  1.00  0.00    -0.014 A 
BRANCH  38  39
ATOM     39  C   UNL     1       4.897   0.086   8.418  1.00  0.00     0.031 A 
ATOM     40  C   UNL     1       4.285  -0.432   9.691  1.00  0.00     0.074 A 
ATOM     41  C   UNL     1       4.950  -0.707   7.333  1.00  0.00     0.049 A 
ATOM     42  N   UNL     1       3.845  -1.630   9.982  1.00  0.00    -0.248 NA
ATOM     43  C   UNL     1       4.152   0.539  10.789  1.00  0.00     0.031 C 
ATOM     44  C   UNL     1       5.456  -0.312   6.022  1.00  0.00     0.029 A 
ATOM     45  N   UNL     1       4.581  -2.021   7.173  1.00  0.00    -0.354 N 
ATOM     46  C   UNL     1       3.392  -1.559  11.293  1.00  0.00     0.074 A 
ATOM     47  C   UNL     1       3.641  -0.210  11.754  1.00  0.00     0.031 C 
ATOM     48  C   UNL     1       5.386  -1.368   5.194  1.00  0.00     0.029 A 
ATOM     49  C   UNL     1       4.868  -2.522   5.927  1.00  0.00     0.049 A 
ATOM     50  H   UNL     1       4.152  -2.552   7.883  1.00  0.00     0.167 HD
ATOM     51  C   UNL     1       2.811  -2.527  12.042  1.00  0.00     0.037 A 
ATOM     52  C   UNL     1       4.752  -3.776   5.444  1.00  0.00     0.037 A 
ATOM     53  C   UNL     1       2.570  -3.872  11.585  1.00  0.00     0.049 A 
ATOM     54  C   UNL     1       4.193  -4.864   6.329  1.00  0.00     0.074 A 
ATOM     55  C   UNL     1       1.985  -4.924  12.268  1.00  0.00     0.029 A 
ATOM     56  N   UNL     1       2.910  -4.352  10.329  1.00  0.00    -0.354 N 
ATOM     57  N   UNL     1       3.758  -4.790   7.564  1.00  0.00    -0.248 NA
ATOM     58  C   UNL     1       4.107  -6.212   5.748  1.00  0.00     0.031 C 
ATOM     59  C   UNL     1       2.029  -6.056  11.449  1.00  0.00     0.029 A 
ATOM     60  C   UNL     1       2.576  -5.694  10.229  1.00  0.00     0.049 A 
ATOM     61  H   UNL     1       3.328  -3.819   9.614  1.00  0.00     0.167 HD
ATOM     62  C   UNL     1       3.316  -6.066   7.893  1.00  0.00     0.074 A 
ATOM     63  C   UNL     1       3.525  -6.894   6.724  1.00  0.00     0.031 C 
ATOM     64  C   UNL     1       2.780  -6.510   9.058  1.00  0.00     0.037 A 
BRANCH  51  65
ATOM     65  C   UNL     1       2.429  -2.175  13.452  1.00  0.00     0.064 A 
ATOM     66  C   UNL     1       1.380  -1.287  13.736  1.00  0.00     0.173 A 
ATOM     67  C   UNL     1       3.106  -2.755  14.536  1.00  0.00     0.173 A 
ATOM     68  F   UNL     1       0.706  -0.696  12.737  1.00  0.00    -0.203 F 
ATOM     69  C   UNL     1       1.047  -0.967  15.050  1.00  0.00     0.198 A 
ATOM     70  C   UNL     1       2.747  -2.459  15.849  1.00  0.00     0.198 A 
ATOM     71  F   UNL     1       4.112  -3.616  14.324  1.00  0.00    -0.203 F 
ATOM     72  F   UNL     1       0.079  -0.072  15.295  1.00  0.00    -0.200 F 
ATOM     73  C   UNL     1       1.725  -1.558  16.104  1.00  0.00     0.200 A 
ATOM     74  F   UNL     1       3.394  -3.044  16.866  1.00  0.00    -0.200 F 
ATOM     75  F   UNL     1       1.400  -1.253  17.368  1.00  0.00    -0.200 F 
ENDBRANCH  51  65
BRANCH  52  76
ATOM     76  C   UNL     1       5.197  -4.081   4.058  1.00  0.00     0.064 A 
ATOM     77  C   UNL     1       4.283  -4.466   3.067  1.00  0.00     0.173 A 
ATOM     78  C   UNL     1       6.555  -4.026   3.704  1.00  0.00     0.173 A 
ATOM     79  F   UNL     1       2.980  -4.574   3.364  1.00  0.00    -0.203 F 
ATOM     80  C   UNL     1       4.711  -4.803   1.784  1.00  0.00     0.198 A 
ATOM     81  C   UNL     1       6.977  -4.330   2.412  1.00  0.00     0.198 A 
ATOM     82  F   UNL     1       7.474  -3.679   4.617  1.00  0.00    -0.203 F 
ATOM     83  F   UNL     1       3.824  -5.233   0.875  1.00  0.00    -0.200 F 
ATOM     84  C   UNL     1       6.056  -4.727   1.455  1.00  0.00     0.200 A 
ATOM     85  F   UNL     1       8.278  -4.253   2.099  1.00  0.00    -0.200 F 
ATOM     86  F   UNL     1       6.468  -5.056   0.223  1.00  0.00    -0.200 F 
ENDBRANCH  52  76
BRANCH  64  87
ATOM     87  C   UNL     1       2.336  -7.946   9.119  1.00  0.00     0.064 A 
ATOM     88  C   UNL     1       3.253  -9.008   9.123  1.00  0.00     0.173 A 
ATOM     89  C   UNL     1       0.971  -8.261   9.220  1.00  0.00     0.173 A 
ATOM     90  F   UNL     1       4.568  -8.765   9.017  1.00  0.00    -0.203 F 
ATOM     91  C   UNL     1       2.819 -10.329   9.198  1.00  0.00     0.198 A 
ATOM     92  C   UNL     1       0.543  -9.581   9.331  1.00  0.00     0.198 A 
ATOM     93  F   UNL     1       0.050  -7.285   9.231  1.00  0.00    -0.203 F 
ATOM     94  F   UNL     1       3.711 -11.329   9.149  1.00  0.00    -0.200 F 
ATOM     95  C   UNL     1       1.467 -10.615   9.310  1.00  0.00     0.200 A 
ATOM     96  F   UNL     1      -0.763  -9.852   9.459  1.00  0.00    -0.200 F 
ATOM     97  F   UNL     1       1.052 -11.886   9.393  1.00  0.00    -0.200 F 
ENDBRANCH  64  87
ENDBRANCH  38  39
ENDBRANCH  31  33
ENDBRANCH  30  31
ENDBRANCH  29  30
ENDBRANCH  28  29
ENDBRANCH  27  28
ENDBRANCH  26  27
ENDBRANCH   1  26
TORSDOF 19
