REMARK SMILES CC[C@@]1(C(=O)OCCOCCOCCOC(=O)c2ccc(-c3c4nc(c(-c5c(F)c(F)c(F)c(F)c5F)c5ccc([nH]5)c(-c5c(F)c(F)c(F)c(F)c5F)c5nc(c(-c6c(F)c(F)c(F)c(F)c6F)c6ccc3[nH]6)C=C5)C=C4)cc2)CCC[N@@H+](Cc2ccc(C3CC3)cc2)C1
REMARK SMILES IDX 10 1 9 2 8 3 7 4 6 5 4 6 5 7 3 8 81 9 95 10 82 11 84 12
REMARK SMILES IDX 83 13 2 15 1 16 85 17 86 18 87 19 94 20 88 21 93 22 89 23
REMARK SMILES IDX 90 24 91 25 92 26 11 27 12 28 13 29 14 30 15 31 16 32 17 33
REMARK SMILES IDX 18 34 19 35 80 36 20 37 79 38 21 39 22 40 23 41 73 42 24 43
REMARK SMILES IDX 78 44 72 45 74 46 25 47 77 48 71 49 70 50 26 52 58 53 38 54
REMARK SMILES IDX 57 55 39 56 42 57 56 58 75 59 40 60 41 61 55 63 76 64 43 65
REMARK SMILES IDX 27 66 28 67 36 68 29 69 30 70 34 71 37 72 31 73 32 74 35 75
REMARK SMILES IDX 33 76 59 77 60 78 68 79 61 80 62 81 66 82 69 83 63 84 64 85
REMARK SMILES IDX 67 86 65 87 44 88 45 89 53 90 46 91 47 92 51 93 54 94 48 95
REMARK SMILES IDX 49 96 52 97 50 98
REMARK H PARENT 84 14 74 51 42 62
REMARK Flexibility Score: inf
ROOT
ATOM      1  C   UNL     1       0.234   1.172  -2.160  1.00  0.00     0.188 C 
ENDROOT
BRANCH   1   2
ATOM      2  O   UNL     1      -0.965   1.730  -1.643  1.00  0.00    -0.376 OA
BRANCH   2   3
ATOM      3  C   UNL     1      -2.029   0.797  -1.434  1.00  0.00     0.202 C 
BRANCH   3   4
ATOM      4  C   UNL     1      -1.830  -0.043  -0.171  1.00  0.00     0.261 C 
BRANCH   4   5
ATOM      5  O   UNL     1      -0.697  -0.911  -0.330  1.00  0.00    -0.463 OA
BRANCH   5   6
ATOM      6  C   UNL     1      -0.881  -2.188  -0.764  1.00  0.00     0.317 C 
ATOM      7  O   UNL     1      -1.978  -2.683  -0.994  1.00  0.00    -0.251 OA
BRANCH   6   8
ATOM      8  C   UNL     1       0.477  -2.864  -1.074  1.00  0.00     0.117 C 
ATOM      9  C   UNL     1       0.449  -4.388  -0.797  1.00  0.00     0.030 C 
ATOM     10  C   UNL     1       1.574  -2.242  -0.176  1.00  0.00     0.281 C 
ATOM     11  C   UNL     1       0.490  -4.759   0.691  1.00  0.00     0.063 C 
ATOM     12  N   UNL     1       1.278  -2.543   1.223  1.00  0.00    -0.330 N 
ATOM     13  C   UNL     1       1.509  -3.950   1.501  1.00  0.00     0.262 C 
ATOM     14  H   UNL     1       0.279  -2.394   1.362  1.00  0.00     0.348 HD
BRANCH   8  15
ATOM     15  C   UNL     1       0.830  -2.631  -2.574  1.00  0.00     0.021 C 
ATOM     16  C   UNL     1      -0.303  -2.905  -3.561  1.00  0.00     0.005 C 
ENDBRANCH   8  15
BRANCH  12  17
ATOM     17  C   UNL     1       1.790  -1.583   2.199  1.00  0.00     0.299 C 
BRANCH  17  18
ATOM     18  C   UNL     1       3.287  -1.453   2.293  1.00  0.00     0.006 A 
ATOM     19  C   UNL     1       4.010  -2.208   3.219  1.00  0.00     0.010 A 
ATOM     20  C   UNL     1       3.982  -0.566   1.466  1.00  0.00     0.010 A 
ATOM     21  C   UNL     1       5.403  -2.106   3.280  1.00  0.00     0.004 A 
ATOM     22  C   UNL     1       5.375  -0.479   1.527  1.00  0.00     0.004 A 
ATOM     23  C   UNL     1       6.126  -1.262   2.419  1.00  0.00    -0.045 A 
BRANCH  23  24
ATOM     24  C   UNL     1       7.641  -1.246   2.478  1.00  0.00     0.019 C 
ATOM     25  C   UNL     1       8.473  -0.890   1.270  1.00  0.00     0.009 C 
ATOM     26  C   UNL     1       8.407   0.052   2.438  1.00  0.00     0.009 C 
ENDBRANCH  23  24
ENDBRANCH  17  18
ENDBRANCH  12  17
ENDBRANCH   6   8
ENDBRANCH   5   6
ENDBRANCH   4   5
ENDBRANCH   3   4
ENDBRANCH   2   3
ENDBRANCH   1   2
BRANCH   1  27
ATOM     27  C   UNL     1       1.512   1.519  -1.369  1.00  0.00     0.188 C 
BRANCH  27  28
ATOM     28  O   UNL     1       1.427   2.307  -0.194  1.00  0.00    -0.376 OA
BRANCH  28  29
ATOM     29  C   UNL     1       0.734   3.547  -0.285  1.00  0.00     0.202 C 
BRANCH  29  30
ATOM     30  C   UNL     1       1.155   4.546  -1.378  1.00  0.00     0.261 C 
BRANCH  30  31
ATOM     31  O   UNL     1       1.172   4.008  -2.719  1.00  0.00    -0.460 OA
BRANCH  31  32
ATOM     32  C   UNL     1       2.371   4.040  -3.345  1.00  0.00     0.338 C 
ATOM     33  O   UNL     1       3.420   4.520  -2.921  1.00  0.00    -0.246 OA
BRANCH  32  34
ATOM     34  C   UNL     1       2.337   3.252  -4.591  1.00  0.00     0.060 A 
ATOM     35  C   UNL     1       3.118   2.089  -4.671  1.00  0.00     0.016 A 
ATOM     36  C   UNL     1       1.651   3.716  -5.713  1.00  0.00     0.016 A 
ATOM     37  C   UNL     1       3.240   1.402  -5.880  1.00  0.00     0.010 A 
ATOM     38  C   UNL     1       1.794   3.039  -6.932  1.00  0.00     0.010 A 
ATOM     39  C   UNL     1       2.614   1.900  -7.029  1.00  0.00    -0.014 A 
BRANCH  39  40
ATOM     40  C   UNL     1       2.954   1.336  -8.361  1.00  0.00     0.031 A 
ATOM     41  C   UNL     1       3.997   2.027  -9.197  1.00  0.00     0.074 A 
ATOM     42  C   UNL     1       2.354   0.225  -8.823  1.00  0.00     0.049 A 
ATOM     43  N   UNL     1       4.396   1.764 -10.416  1.00  0.00    -0.248 NA
ATOM     44  C   UNL     1       4.681   3.170  -8.572  1.00  0.00     0.031 C 
ATOM     45  C   UNL     1       1.367  -0.567  -8.095  1.00  0.00     0.029 A 
ATOM     46  N   UNL     1       2.483  -0.419 -10.029  1.00  0.00    -0.354 N 
ATOM     47  C   UNL     1       5.367   2.714 -10.707  1.00  0.00     0.074 A 
ATOM     48  C   UNL     1       5.482   3.571  -9.547  1.00  0.00     0.031 C 
ATOM     49  C   UNL     1       0.960  -1.580  -8.878  1.00  0.00     0.029 A 
ATOM     50  C   UNL     1       1.633  -1.488 -10.174  1.00  0.00     0.049 A 
ATOM     51  H   UNL     1       3.123  -0.141 -10.724  1.00  0.00     0.167 HD
ATOM     52  C   UNL     1       6.098   2.857 -11.839  1.00  0.00     0.037 A 
ATOM     53  C   UNL     1       1.405  -2.280 -11.240  1.00  0.00     0.037 A 
ATOM     54  C   UNL     1       5.985   2.007 -12.995  1.00  0.00     0.049 A 
ATOM     55  C   UNL     1       2.176  -2.054 -12.516  1.00  0.00     0.074 A 
ATOM     56  C   UNL     1       6.696   2.063 -14.181  1.00  0.00     0.029 A 
ATOM     57  N   UNL     1       5.094   0.951 -13.112  1.00  0.00    -0.354 N 
ATOM     58  N   UNL     1       3.105  -1.167 -12.778  1.00  0.00    -0.248 NA
ATOM     59  C   UNL     1       1.865  -2.943 -13.646  1.00  0.00     0.031 C 
ATOM     60  C   UNL     1       6.200   1.072 -15.035  1.00  0.00     0.029 A 
ATOM     61  C   UNL     1       5.218   0.364 -14.361  1.00  0.00     0.049 A 
ATOM     62  H   UNL     1       4.465   0.661 -12.412  1.00  0.00     0.167 HD
ATOM     63  C   UNL     1       3.510  -1.410 -14.085  1.00  0.00     0.074 A 
ATOM     64  C   UNL     1       2.731  -2.533 -14.562  1.00  0.00     0.031 C 
ATOM     65  C   UNL     1       4.445  -0.761 -14.822  1.00  0.00     0.037 A 
BRANCH  52  66
ATOM     66  C   UNL     1       7.069   4.001 -11.894  1.00  0.00     0.064 A 
ATOM     67  C   UNL     1       8.253   4.002 -11.142  1.00  0.00     0.173 A 
ATOM     68  C   UNL     1       6.822   5.098 -12.733  1.00  0.00     0.173 A 
ATOM     69  F   UNL     1       8.528   2.983 -10.315  1.00  0.00    -0.203 F 
ATOM     70  C   UNL     1       9.142   5.072 -11.209  1.00  0.00     0.198 A 
ATOM     71  C   UNL     1       7.727   6.153 -12.819  1.00  0.00     0.198 A 
ATOM     72  F   UNL     1       5.707   5.144 -13.477  1.00  0.00    -0.203 F 
ATOM     73  F   UNL     1      10.244   5.074 -10.447  1.00  0.00    -0.200 F 
ATOM     74  C   UNL     1       8.882   6.143 -12.051  1.00  0.00     0.200 A 
ATOM     75  F   UNL     1       7.479   7.181 -13.643  1.00  0.00    -0.200 F 
ATOM     76  F   UNL     1       9.741   7.170 -12.118  1.00  0.00    -0.200 F 
ENDBRANCH  52  66
BRANCH  53  77
ATOM     77  C   UNL     1       0.383  -3.357 -11.157  1.00  0.00     0.064 A 
ATOM     78  C   UNL     1       0.754  -4.708 -11.171  1.00  0.00     0.173 A 
ATOM     79  C   UNL     1      -0.985  -3.055 -11.080  1.00  0.00     0.173 A 
ATOM     80  F   UNL     1       2.047  -5.046 -11.274  1.00  0.00    -0.203 F 
ATOM     81  C   UNL     1      -0.206  -5.718 -11.127  1.00  0.00     0.198 A 
ATOM     82  C   UNL     1      -1.941  -4.065 -11.008  1.00  0.00     0.198 A 
ATOM     83  F   UNL     1      -1.391  -1.777 -11.069  1.00  0.00    -0.203 F 
ATOM     84  F   UNL     1       0.173  -7.002 -11.187  1.00  0.00    -0.200 F 
ATOM     85  C   UNL     1      -1.552  -5.396 -11.038  1.00  0.00     0.200 A 
ATOM     86  F   UNL     1      -3.240  -3.749 -10.913  1.00  0.00    -0.200 F 
ATOM     87  F   UNL     1      -2.474  -6.367 -10.992  1.00  0.00    -0.200 F 
ENDBRANCH  53  77
BRANCH  65  88
ATOM     88  C   UNL     1       4.716  -1.273 -16.208  1.00  0.00     0.064 A 
ATOM     89  C   UNL     1       3.803  -1.085 -17.256  1.00  0.00     0.173 A 
ATOM     90  C   UNL     1       5.929  -1.916 -16.501  1.00  0.00     0.173 A 
ATOM     91  F   UNL     1       2.624  -0.488 -17.025  1.00  0.00    -0.203 F 
ATOM     92  C   UNL     1       4.085  -1.542 -18.541  1.00  0.00     0.198 A 
ATOM     93  C   UNL     1       6.220  -2.345 -17.793  1.00  0.00     0.198 A 
ATOM     94  F   UNL     1       6.839  -2.114 -15.537  1.00  0.00    -0.203 F 
ATOM     95  F   UNL     1       3.181  -1.389 -19.518  1.00  0.00    -0.200 F 
ATOM     96  C   UNL     1       5.296  -2.163 -18.811  1.00  0.00     0.200 A 
ATOM     97  F   UNL     1       7.395  -2.933 -18.054  1.00  0.00    -0.200 F 
ATOM     98  F   UNL     1       5.569  -2.594 -20.050  1.00  0.00    -0.200 F 
ENDBRANCH  65  88
ENDBRANCH  39  40
ENDBRANCH  32  34
ENDBRANCH  31  32
ENDBRANCH  30  31
ENDBRANCH  29  30
ENDBRANCH  28  29
ENDBRANCH  27  28
ENDBRANCH   1  27
TORSDOF 21
