REMARK SMILES Cc1cscc1C(=O)N1C[C@@H](C(=O)OCCOCCOCCOC(=O)c2ccc(-c3c4nc(c(-c5c(F)c(F)c(F)c(F)c5F)c5ccc([nH]5)c(-c5c(F)c(F)c(F)c(F)c5F)c5nc(c(-c6c(F)c(F)c(F)c(F)c6F)c6ccc3[nH]6)C=C5)C=C4)cc2)Oc2ccccc21
REMARK SMILES IDX 18 1 17 2 16 3 15 4 14 5 12 6 13 7 11 8 9 9 10 10 95 11
REMARK SMILES IDX 90 12 94 13 89 14 91 15 93 16 92 17 7 18 8 19 6 20 1 21 2 22
REMARK SMILES IDX 3 23 4 24 5 25 19 26 20 27 21 28 22 29 23 30 24 31 25 32
REMARK SMILES IDX 26 33 27 34 88 35 28 36 87 37 29 38 30 39 31 40 81 41 32 42
REMARK SMILES IDX 86 43 80 44 82 45 33 46 85 47 79 48 78 49 34 51 66 52 46 53
REMARK SMILES IDX 65 54 47 55 50 56 64 57 83 58 48 59 49 60 63 62 84 63 51 64
REMARK SMILES IDX 35 65 36 66 44 67 37 68 38 69 42 70 45 71 39 72 40 73 43 74
REMARK SMILES IDX 41 75 67 76 68 77 76 78 69 79 70 80 74 81 77 82 71 83 72 84
REMARK SMILES IDX 75 85 73 86 52 87 53 88 61 89 54 90 55 91 59 92 62 93 56 94
REMARK SMILES IDX 57 95 60 96 58 97
REMARK H PARENT 82 50 50 61
REMARK Flexibility Score: inf
ROOT
ATOM      1  C   UNL     1       3.906   5.238  -4.096  1.00  0.00     0.188 C 
ENDROOT
BRANCH   1   2
ATOM      2  O   UNL     1       3.042   6.352  -3.947  1.00  0.00    -0.376 OA
BRANCH   2   3
ATOM      3  C   UNL     1       2.007   6.233  -2.981  1.00  0.00     0.202 C 
BRANCH   3   4
ATOM      4  C   UNL     1       2.491   6.237  -1.527  1.00  0.00     0.261 C 
BRANCH   4   5
ATOM      5  O   UNL     1       3.384   5.163  -1.192  1.00  0.00    -0.460 OA
BRANCH   5   6
ATOM      6  C   UNL     1       2.900   3.902  -1.315  1.00  0.00     0.349 C 
ATOM      7  O   UNL     1       1.768   3.622  -1.693  1.00  0.00    -0.248 OA
BRANCH   6   8
ATOM      8  C   UNL     1       3.987   2.854  -1.044  1.00  0.00     0.302 C 
ATOM      9  N   UNL     1       2.700   1.978   0.812  1.00  0.00    -0.300 N 
ATOM     10  C   UNL     1       3.310   1.619  -0.473  1.00  0.00     0.183 C 
ATOM     11  C   UNL     1       3.553   2.765   1.654  1.00  0.00     0.086 A 
ATOM     12  C   UNL     1       4.742   3.303   1.124  1.00  0.00     0.144 A 
ATOM     13  C   UNL     1       3.262   2.991   3.002  1.00  0.00     0.030 A 
ATOM     14  O   UNL     1       5.079   3.236  -0.209  1.00  0.00    -0.475 OA
ATOM     15  C   UNL     1       5.645   3.987   1.939  1.00  0.00     0.049 A 
ATOM     16  C   UNL     1       4.152   3.702   3.811  1.00  0.00     0.002 A 
ATOM     17  C   UNL     1       5.348   4.185   3.285  1.00  0.00     0.004 A 
BRANCH   9  18
ATOM     18  C   UNL     1       1.324   1.873   1.047  1.00  0.00     0.259 C 
ATOM     19  O   UNL     1       0.711   2.688   1.737  1.00  0.00    -0.269 OA
BRANCH  18  20
ATOM     20  C   UNL     1       0.581   0.769   0.414  1.00  0.00     0.053 A 
ATOM     21  C   UNL     1       2.302  -1.226   0.495  1.00  0.00     0.046 C 
ATOM     22  C   UNL     1       0.976  -0.611   0.189  1.00  0.00    -0.028 A 
ATOM     23  C   UNL     1      -0.073  -1.349  -0.332  1.00  0.00     0.069 A 
ATOM     24  S   UNL     1      -1.488  -0.434  -0.575  1.00  0.00    -0.151 S 
ATOM     25  C   UNL     1      -0.739   0.967   0.033  1.00  0.00     0.079 A 
ENDBRANCH  18  20
ENDBRANCH   9  18
ENDBRANCH   6   8
ENDBRANCH   5   6
ENDBRANCH   4   5
ENDBRANCH   3   4
ENDBRANCH   2   3
ENDBRANCH   1   2
BRANCH   1  26
ATOM     26  C   UNL     1       5.316   5.417  -3.488  1.00  0.00     0.188 C 
BRANCH  26  27
ATOM     27  O   UNL     1       5.809   6.705  -3.149  1.00  0.00    -0.376 OA
BRANCH  27  28
ATOM     28  C   UNL     1       5.453   7.826  -3.943  1.00  0.00     0.202 C 
BRANCH  28  29
ATOM     29  C   UNL     1       5.873   7.831  -5.419  1.00  0.00     0.261 C 
BRANCH  29  30
ATOM     30  O   UNL     1       5.501   6.654  -6.160  1.00  0.00    -0.460 OA
BRANCH  30  31
ATOM     31  C   UNL     1       6.524   5.847  -6.537  1.00  0.00     0.338 C 
ATOM     32  O   UNL     1       7.715   6.029  -6.362  1.00  0.00    -0.246 OA
BRANCH  31  33
ATOM     33  C   UNL     1       5.989   4.572  -7.066  1.00  0.00     0.060 A 
ATOM     34  C   UNL     1       6.395   3.380  -6.449  1.00  0.00     0.016 A 
ATOM     35  C   UNL     1       5.147   4.533  -8.179  1.00  0.00     0.016 A 
ATOM     36  C   UNL     1       5.973   2.147  -6.949  1.00  0.00     0.010 A 
ATOM     37  C   UNL     1       4.747   3.294  -8.697  1.00  0.00     0.010 A 
ATOM     38  C   UNL     1       5.175   2.094  -8.099  1.00  0.00    -0.014 A 
BRANCH  38  39
ATOM     39  C   UNL     1       4.912   0.790  -8.759  1.00  0.00     0.031 A 
ATOM     40  C   UNL     1       5.802   0.354  -9.890  1.00  0.00     0.074 A 
ATOM     41  C   UNL     1       3.906  -0.006  -8.356  1.00  0.00     0.049 A 
ATOM     42  N   UNL     1       5.725  -0.710 -10.649  1.00  0.00    -0.248 NA
ATOM     43  C   UNL     1       6.934   1.239 -10.207  1.00  0.00     0.031 C 
ATOM     44  C   UNL     1       2.999   0.274  -7.246  1.00  0.00     0.029 A 
ATOM     45  N   UNL     1       3.472  -1.213  -8.851  1.00  0.00    -0.354 N 
ATOM     46  C   UNL     1       6.792  -0.622 -11.533  1.00  0.00     0.074 A 
ATOM     47  C   UNL     1       7.489   0.611 -11.233  1.00  0.00     0.031 C 
ATOM     48  C   UNL     1       2.101  -0.723  -7.156  1.00  0.00     0.029 A 
ATOM     49  C   UNL     1       2.349  -1.693  -8.222  1.00  0.00     0.049 A 
ATOM     50  H   UNL     1       3.923  -1.688  -9.586  1.00  0.00     0.167 HD
ATOM     51  C   UNL     1       7.161  -1.491 -12.504  1.00  0.00     0.037 A 
ATOM     52  C   UNL     1       1.592  -2.774  -8.497  1.00  0.00     0.037 A 
ATOM     53  C   UNL     1       6.465  -2.713 -12.812  1.00  0.00     0.049 A 
ATOM     54  C   UNL     1       1.968  -3.675  -9.647  1.00  0.00     0.074 A 
ATOM     55  C   UNL     1       6.781  -3.670 -13.761  1.00  0.00     0.029 A 
ATOM     56  N   UNL     1       5.305  -3.140 -12.185  1.00  0.00    -0.354 N 
ATOM     57  N   UNL     1       2.995  -3.602 -10.457  1.00  0.00    -0.248 NA
ATOM     58  C   UNL     1       1.071  -4.809  -9.921  1.00  0.00     0.031 C 
ATOM     59  C   UNL     1       5.780  -4.648 -13.747  1.00  0.00     0.029 A 
ATOM     60  C   UNL     1       4.870  -4.328 -12.752  1.00  0.00     0.049 A 
ATOM     61  H   UNL     1       4.855  -2.669 -11.447  1.00  0.00     0.167 HD
ATOM     62  C   UNL     1       2.880  -4.685 -11.321  1.00  0.00     0.074 A 
ATOM     63  C   UNL     1       1.694  -5.412 -10.925  1.00  0.00     0.031 C 
ATOM     64  C   UNL     1       3.685  -5.043 -12.352  1.00  0.00     0.037 A 
BRANCH  51  65
ATOM     65  C   UNL     1       8.361  -1.135 -13.331  1.00  0.00     0.064 A 
ATOM     66  C   UNL     1       9.661  -1.198 -12.807  1.00  0.00     0.173 A 
ATOM     67  C   UNL     1       8.211  -0.763 -14.675  1.00  0.00     0.173 A 
ATOM     68  F   UNL     1       9.856  -1.536 -11.524  1.00  0.00    -0.203 F 
ATOM     69  C   UNL     1      10.765  -0.877 -13.593  1.00  0.00     0.198 A 
ATOM     70  C   UNL     1       9.319  -0.469 -15.466  1.00  0.00     0.198 A 
ATOM     71  F   UNL     1       6.989  -0.692 -15.225  1.00  0.00    -0.203 F 
ATOM     72  F   UNL     1      11.995  -0.902 -13.060  1.00  0.00    -0.200 F 
ATOM     73  C   UNL     1      10.594  -0.520 -14.923  1.00  0.00     0.200 A 
ATOM     74  F   UNL     1       9.152  -0.137 -16.753  1.00  0.00    -0.200 F 
ATOM     75  F   UNL     1      11.658  -0.219 -15.680  1.00  0.00    -0.200 F 
ENDBRANCH  51  65
BRANCH  52  76
ATOM     76  C   UNL     1       0.376  -3.055  -7.689  1.00  0.00     0.064 A 
ATOM     77  C   UNL     1       0.309  -4.175  -6.848  1.00  0.00     0.173 A 
ATOM     78  C   UNL     1      -0.755  -2.230  -7.768  1.00  0.00     0.173 A 
ATOM     79  F   UNL     1       1.354  -5.011  -6.763  1.00  0.00    -0.203 F 
ATOM     80  C   UNL     1      -0.849  -4.466  -6.129  1.00  0.00     0.198 A 
ATOM     81  C   UNL     1      -1.902  -2.507  -7.027  1.00  0.00     0.198 A 
ATOM     82  F   UNL     1      -0.745  -1.151  -8.565  1.00  0.00    -0.203 F 
ATOM     83  F   UNL     1      -0.902  -5.569  -5.370  1.00  0.00    -0.200 F 
ATOM     84  C   UNL     1      -1.951  -3.629  -6.215  1.00  0.00     0.200 A 
ATOM     85  F   UNL     1      -2.962  -1.691  -7.108  1.00  0.00    -0.200 F 
ATOM     86  F   UNL     1      -3.064  -3.911  -5.523  1.00  0.00    -0.200 F 
ENDBRANCH  52  76
BRANCH  64  87
ATOM     87  C   UNL     1       3.325  -6.286 -13.115  1.00  0.00     0.064 A 
ATOM     88  C   UNL     1       2.224  -6.321 -13.984  1.00  0.00     0.173 A 
ATOM     89  C   UNL     1       4.114  -7.441 -13.011  1.00  0.00     0.173 A 
ATOM     90  F   UNL     1       1.428  -5.247 -14.108  1.00  0.00    -0.203 F 
ATOM     91  C   UNL     1       1.915  -7.473 -14.703  1.00  0.00     0.198 A 
ATOM     92  C   UNL     1       3.819  -8.582 -13.754  1.00  0.00     0.198 A 
ATOM     93  F   UNL     1       5.182  -7.460 -12.200  1.00  0.00    -0.203 F 
ATOM     94  F   UNL     1       0.832  -7.497 -15.494  1.00  0.00    -0.200 F 
ATOM     95  C   UNL     1       2.716  -8.599 -14.594  1.00  0.00     0.200 A 
ATOM     96  F   UNL     1       4.603  -9.665 -13.657  1.00  0.00    -0.200 F 
ATOM     97  F   UNL     1       2.422  -9.704 -15.293  1.00  0.00    -0.200 F 
ENDBRANCH  64  87
ENDBRANCH  38  39
ENDBRANCH  31  33
ENDBRANCH  30  31
ENDBRANCH  29  30
ENDBRANCH  28  29
ENDBRANCH  27  28
ENDBRANCH  26  27
ENDBRANCH   1  26
TORSDOF 19
