REMARK SMILES CC(C)(C)OC(=O)N1CCSC[C@@H]1CC(=O)OCCOCCOCCOC(=O)c1ccc(-c2c3nc(c(-c4c(F)c(F)c(F)c(F)c4F)c4ccc([nH]4)c(-c4c(F)c(F)c(F)c(F)c4F)c4nc(c(-c5c(F)c(F)c(F)c(F)c5F)c5ccc2[nH]5)C=C4)C=C3)cc1
REMARK SMILES IDX 21 1 20 2 19 3 18 4 17 5 15 6 16 7 14 8 13 9 8 10 9 11 10 12
REMARK SMILES IDX 12 13 11 14 6 15 7 16 5 17 2 18 1 19 3 20 4 21 22 22 23 23
REMARK SMILES IDX 24 24 25 25 26 26 27 27 28 28 29 29 30 30 91 31 31 32 90 33
REMARK SMILES IDX 32 34 33 35 34 36 84 37 35 38 89 39 83 40 85 41 36 42 88 43
REMARK SMILES IDX 82 44 81 45 37 47 69 48 49 49 68 50 50 51 53 52 67 53 86 54
REMARK SMILES IDX 51 55 52 56 66 58 87 59 54 60 38 61 39 62 47 63 40 64 41 65
REMARK SMILES IDX 45 66 48 67 42 68 43 69 46 70 44 71 70 72 71 73 79 74 72 75
REMARK SMILES IDX 73 76 77 77 80 78 74 79 75 80 78 81 76 82 55 83 56 84 64 85
REMARK SMILES IDX 57 86 58 87 62 88 65 89 59 90 60 91 63 92 61 93
REMARK H PARENT 85 46 53 57
REMARK Flexibility Score: inf
ROOT
ATOM      1  C   UNL     1      -2.850  -1.951  -5.626  1.00  0.00     0.188 C 
ENDROOT
BRANCH   1   2
ATOM      2  O   UNL     1      -3.781  -2.193  -6.672  1.00  0.00    -0.376 OA
BRANCH   2   3
ATOM      3  C   UNL     1      -3.850  -3.503  -7.234  1.00  0.00     0.202 C 
BRANCH   3   4
ATOM      4  C   UNL     1      -2.536  -4.099  -7.758  1.00  0.00     0.261 C 
BRANCH   4   5
ATOM      5  O   UNL     1      -1.551  -4.247  -6.715  1.00  0.00    -0.463 OA
BRANCH   5   6
ATOM      6  C   UNL     1      -0.256  -4.223  -7.115  1.00  0.00     0.307 C 
ATOM      7  O   UNL     1       0.107  -4.380  -8.274  1.00  0.00    -0.252 OA
BRANCH   6   8
ATOM      8  C   UNL     1       0.673  -3.735  -6.019  1.00  0.00     0.148 C 
BRANCH   8   9
ATOM      9  C   UNL     1       0.704  -4.481  -4.666  1.00  0.00     0.109 C 
ATOM     10  N   UNL     1       1.313  -3.605  -3.614  1.00  0.00    -0.303 N 
ATOM     11  C   UNL     1       2.726  -3.248  -3.805  1.00  0.00     0.134 C 
ATOM     12  C   UNL     1       3.630  -4.483  -3.761  1.00  0.00     0.091 C 
ATOM     13  C   UNL     1       1.421  -5.842  -4.727  1.00  0.00     0.095 C 
ATOM     14  S   UNL     1       3.214  -5.710  -5.049  1.00  0.00    -0.158 SA
BRANCH  10  15
ATOM     15  C   UNL     1       0.645  -3.325  -2.421  1.00  0.00     0.410 C 
ATOM     16  O   UNL     1      -0.404  -3.860  -2.099  1.00  0.00    -0.224 OA
BRANCH  15  17
ATOM     17  O   UNL     1       1.272  -2.361  -1.697  1.00  0.00    -0.444 OA
BRANCH  17  18
ATOM     18  C   UNL     1       0.983  -1.992  -0.312  1.00  0.00     0.106 C 
ATOM     19  C   UNL     1       1.588  -0.584  -0.156  1.00  0.00     0.056 C 
ATOM     20  C   UNL     1       1.724  -2.962   0.608  1.00  0.00     0.056 C 
ATOM     21  C   UNL     1      -0.488  -1.920   0.103  1.00  0.00     0.056 C 
ENDBRANCH  17  18
ENDBRANCH  15  17
ENDBRANCH  10  15
ENDBRANCH   8   9
ENDBRANCH   6   8
ENDBRANCH   5   6
ENDBRANCH   4   5
ENDBRANCH   3   4
ENDBRANCH   2   3
ENDBRANCH   1   2
BRANCH   1  22
ATOM     22  C   UNL     1      -2.699  -2.987  -4.503  1.00  0.00     0.188 C 
BRANCH  22  23
ATOM     23  O   UNL     1      -3.694  -3.991  -4.466  1.00  0.00    -0.376 OA
BRANCH  23  24
ATOM     24  C   UNL     1      -4.277  -4.180  -3.182  1.00  0.00     0.202 C 
BRANCH  24  25
ATOM     25  C   UNL     1      -5.279  -3.067  -2.849  1.00  0.00     0.261 C 
BRANCH  25  26
ATOM     26  O   UNL     1      -4.698  -1.745  -2.863  1.00  0.00    -0.460 OA
BRANCH  26  27
ATOM     27  C   UNL     1      -3.957  -1.408  -1.785  1.00  0.00     0.338 C 
ATOM     28  O   UNL     1      -3.804  -2.048  -0.762  1.00  0.00    -0.246 OA
BRANCH  27  29
ATOM     29  C   UNL     1      -3.244  -0.148  -2.085  1.00  0.00     0.060 A 
ATOM     30  C   UNL     1      -1.906  -0.181  -2.506  1.00  0.00     0.016 A 
ATOM     31  C   UNL     1      -3.870   1.069  -1.839  1.00  0.00     0.016 A 
ATOM     32  C   UNL     1      -1.170   0.994  -2.626  1.00  0.00     0.010 A 
ATOM     33  C   UNL     1      -3.133   2.250  -1.965  1.00  0.00     0.010 A 
ATOM     34  C   UNL     1      -1.771   2.215  -2.321  1.00  0.00    -0.014 A 
BRANCH  34  35
ATOM     35  C   UNL     1      -0.960   3.448  -2.222  1.00  0.00     0.031 A 
ATOM     36  C   UNL     1      -0.667   4.010  -0.861  1.00  0.00     0.074 A 
ATOM     37  C   UNL     1      -0.501   4.066  -3.323  1.00  0.00     0.049 A 
ATOM     38  N   UNL     1      -0.214   5.190  -0.529  1.00  0.00    -0.248 NA
ATOM     39  C   UNL     1      -0.925   3.117   0.281  1.00  0.00     0.031 C 
ATOM     40  C   UNL     1      -0.623   3.563  -4.689  1.00  0.00     0.029 A 
ATOM     41  N   UNL     1       0.135   5.274  -3.461  1.00  0.00    -0.354 N 
ATOM     42  C   UNL     1      -0.175   5.199   0.859  1.00  0.00     0.074 A 
ATOM     43  C   UNL     1      -0.643   3.905   1.308  1.00  0.00     0.031 C 
ATOM     44  C   UNL     1      -0.111   4.474  -5.534  1.00  0.00     0.029 A 
ATOM     45  C   UNL     1       0.307   5.647  -4.770  1.00  0.00     0.049 A 
ATOM     46  H   UNL     1       0.438   5.818  -2.698  1.00  0.00     0.167 HD
ATOM     47  C   UNL     1       0.206   6.207   1.678  1.00  0.00     0.037 A 
ATOM     48  C   UNL     1       0.694   6.827  -5.292  1.00  0.00     0.037 A 
ATOM     49  C   UNL     1       0.685   7.483   1.215  1.00  0.00     0.049 A 
ATOM     50  C   UNL     1       1.015   7.970  -4.364  1.00  0.00     0.074 A 
ATOM     51  C   UNL     1       1.096   8.575   1.959  1.00  0.00     0.029 A 
ATOM     52  N   UNL     1       0.817   7.835  -0.121  1.00  0.00    -0.354 N 
ATOM     53  N   UNL     1       1.005   8.002  -3.054  1.00  0.00    -0.248 NA
ATOM     54  C   UNL     1       1.387   9.247  -4.990  1.00  0.00     0.031 C 
ATOM     55  C   UNL     1       1.434   9.603   1.073  1.00  0.00     0.029 A 
ATOM     56  C   UNL     1       1.284   9.134  -0.223  1.00  0.00     0.049 A 
ATOM     57  H   UNL     1       0.610   7.247  -0.883  1.00  0.00     0.167 HD
ATOM     58  C   UNL     1       1.395   9.286  -2.698  1.00  0.00     0.074 A 
ATOM     59  C   UNL     1       1.640  10.004  -3.932  1.00  0.00     0.031 C 
ATOM     60  C   UNL     1       1.539   9.823  -1.462  1.00  0.00     0.037 A 
BRANCH  47  61
ATOM     61  C   UNL     1       0.073   5.992   3.156  1.00  0.00     0.064 A 
ATOM     62  C   UNL     1       0.935   5.142   3.864  1.00  0.00     0.173 A 
ATOM     63  C   UNL     1      -0.914   6.679   3.881  1.00  0.00     0.173 A 
ATOM     64  F   UNL     1       1.882   4.449   3.215  1.00  0.00    -0.203 F 
ATOM     65  C   UNL     1       0.801   4.973   5.240  1.00  0.00     0.198 A 
ATOM     66  C   UNL     1      -1.027   6.528   5.260  1.00  0.00     0.198 A 
ATOM     67  F   UNL     1      -1.763   7.504   3.252  1.00  0.00    -0.203 F 
ATOM     68  F   UNL     1       1.610   4.124   5.890  1.00  0.00    -0.200 F 
ATOM     69  C   UNL     1      -0.173   5.672   5.938  1.00  0.00     0.200 A 
ATOM     70  F   UNL     1      -1.962   7.212   5.933  1.00  0.00    -0.200 F 
ATOM     71  F   UNL     1      -0.294   5.514   7.263  1.00  0.00    -0.200 F 
ENDBRANCH  47  61
BRANCH  48  72
ATOM     72  C   UNL     1       0.739   7.006  -6.766  1.00  0.00     0.064 A 
ATOM     73  C   UNL     1       1.958   7.180  -7.434  1.00  0.00     0.173 A 
ATOM     74  C   UNL     1      -0.435   7.016  -7.535  1.00  0.00     0.173 A 
ATOM     75  F   UNL     1       3.104   7.206  -6.738  1.00  0.00    -0.203 F 
ATOM     76  C   UNL     1       2.000   7.368  -8.814  1.00  0.00     0.198 A 
ATOM     77  C   UNL     1      -0.389   7.175  -8.917  1.00  0.00     0.198 A 
ATOM     78  F   UNL     1      -1.628   6.859  -6.942  1.00  0.00    -0.203 F 
ATOM     79  F   UNL     1       3.176   7.575  -9.423  1.00  0.00    -0.200 F 
ATOM     80  C   UNL     1       0.828   7.358  -9.555  1.00  0.00     0.200 A 
ATOM     81  F   UNL     1      -1.523   7.153  -9.630  1.00  0.00    -0.200 F 
ATOM     82  F   UNL     1       0.871   7.534 -10.883  1.00  0.00    -0.200 F 
ENDBRANCH  48  72
BRANCH  60  83
ATOM     83  C   UNL     1       2.035  11.237  -1.376  1.00  0.00     0.064 A 
ATOM     84  C   UNL     1       1.214  12.328  -1.695  1.00  0.00     0.173 A 
ATOM     85  C   UNL     1       3.334  11.502  -0.914  1.00  0.00     0.173 A 
ATOM     86  F   UNL     1      -0.029  12.125  -2.155  1.00  0.00    -0.203 F 
ATOM     87  C   UNL     1       1.682  13.633  -1.569  1.00  0.00     0.198 A 
ATOM     88  C   UNL     1       3.788  12.808  -0.764  1.00  0.00     0.198 A 
ATOM     89  F   UNL     1       4.155  10.492  -0.590  1.00  0.00    -0.203 F 
ATOM     90  F   UNL     1       0.894  14.661  -1.915  1.00  0.00    -0.200 F 
ATOM     91  C   UNL     1       2.964  13.873  -1.096  1.00  0.00     0.200 A 
ATOM     92  F   UNL     1       5.022  13.037  -0.294  1.00  0.00    -0.200 F 
ATOM     93  F   UNL     1       3.407  15.130  -0.966  1.00  0.00    -0.200 F 
ENDBRANCH  60  83
ENDBRANCH  34  35
ENDBRANCH  27  29
ENDBRANCH  26  27
ENDBRANCH  25  26
ENDBRANCH  24  25
ENDBRANCH  23  24
ENDBRANCH  22  23
ENDBRANCH   1  22
TORSDOF 21
