REMARK SMILES Cc1ccc([C@H](C)Nc2ccc(C(=O)OCCOCCOCCOC(=O)c3ccc(-c4c5nc(c(-c6c(F)c(F)c(F)c(F)c6F)c6ccc([nH]6)c(-c6c(F)c(F)c(F)c(F)c6F)c6nc(c(-c7c(F)c(F)c(F)c(F)c7F)c7ccc4[nH]7)C=C6)C=C5)cc3)cc2Cl)cc1F
REMARK SMILES IDX 19 1 18 2 17 3 16 4 15 5 13 6 14 7 12 8 9 9 10 10 91 11
REMARK SMILES IDX 11 12 90 13 92 14 8 15 6 17 7 18 5 19 1 20 2 21 3 22 94 23
REMARK SMILES IDX 4 24 93 25 95 26 20 27 21 28 22 29 23 30 24 31 25 32 26 33
REMARK SMILES IDX 27 34 28 35 89 36 29 37 88 38 30 39 31 40 32 41 82 42 33 43
REMARK SMILES IDX 87 44 81 45 83 46 34 47 86 48 80 49 79 50 35 52 67 53 47 54
REMARK SMILES IDX 66 55 48 56 51 57 65 58 84 59 49 60 50 61 64 63 85 64 52 65
REMARK SMILES IDX 36 66 37 67 45 68 38 69 39 70 43 71 46 72 40 73 41 74 44 75
REMARK SMILES IDX 42 76 68 77 69 78 77 79 70 80 71 81 75 82 78 83 72 84 73 85
REMARK SMILES IDX 76 86 74 87 53 88 54 89 62 90 55 91 56 92 60 93 63 94 57 95
REMARK SMILES IDX 58 96 61 97 59 98
REMARK H PARENT 8 16 83 51 51 62
REMARK Flexibility Score: inf
ROOT
ATOM      1  C   UNL     1      -7.367  -3.461   6.393  1.00  0.00     0.188 C 
ENDROOT
BRANCH   1   2
ATOM      2  O   UNL     1      -8.247  -2.933   7.374  1.00  0.00    -0.376 OA
BRANCH   2   3
ATOM      3  C   UNL     1      -9.398  -2.217   6.950  1.00  0.00     0.202 C 
BRANCH   3   4
ATOM      4  C   UNL     1      -9.232  -1.018   5.999  1.00  0.00     0.261 C 
BRANCH   4   5
ATOM      5  O   UNL     1      -8.340  -1.223   4.889  1.00  0.00    -0.460 OA
BRANCH   5   6
ATOM      6  C   UNL     1      -7.154  -0.565   4.951  1.00  0.00     0.338 C 
ATOM      7  O   UNL     1      -6.792   0.218   5.810  1.00  0.00    -0.246 OA
BRANCH   6   8
ATOM      8  C   UNL     1      -6.237  -1.090   3.911  1.00  0.00     0.061 A 
ATOM      9  C   UNL     1      -4.425  -2.166   2.017  1.00  0.00     0.053 A 
ATOM     10  C   UNL     1      -4.035  -1.931   3.346  1.00  0.00     0.028 A 
ATOM     11  C   UNL     1      -5.757  -1.847   1.665  1.00  0.00     0.065 A 
ATOM     12  C   UNL     1      -4.921  -1.386   4.279  1.00  0.00     0.018 A 
ATOM     13  C   UNL     1      -6.660  -1.334   2.607  1.00  0.00     0.038 A 
ATOM     14  Cl  UNL     1      -6.408  -2.151   0.089  1.00  0.00    -0.082 Cl
BRANCH   9  15
ATOM     15  N   UNL     1      -3.450  -2.641   1.145  1.00  0.00    -0.377 N 
ATOM     16  H   UNL     1      -2.998  -3.490   1.356  1.00  0.00     0.161 HD
BRANCH  15  17
ATOM     17  C   UNL     1      -3.070  -1.924  -0.075  1.00  0.00     0.106 C 
ATOM     18  C   UNL     1      -1.867  -1.031   0.268  1.00  0.00     0.036 C 
BRANCH  17  19
ATOM     19  C   UNL     1      -2.849  -2.925  -1.209  1.00  0.00    -0.023 A 
ATOM     20  C   UNL     1      -2.776  -5.508  -4.697  1.00  0.00     0.047 C 
ATOM     21  C   UNL     1      -2.745  -4.647  -3.472  1.00  0.00    -0.015 A 
ATOM     22  C   UNL     1      -1.837  -3.594  -3.335  1.00  0.00     0.007 A 
ATOM     23  C   UNL     1      -3.679  -4.849  -2.460  1.00  0.00     0.126 A 
ATOM     24  C   UNL     1      -1.889  -2.744  -2.219  1.00  0.00     0.006 A 
ATOM     25  C   UNL     1      -3.731  -4.014  -1.348  1.00  0.00     0.045 A 
ATOM     26  F   UNL     1      -4.573  -5.843  -2.564  1.00  0.00    -0.207 F 
ENDBRANCH  17  19
ENDBRANCH  15  17
ENDBRANCH   9  15
ENDBRANCH   6   8
ENDBRANCH   5   6
ENDBRANCH   4   5
ENDBRANCH   3   4
ENDBRANCH   2   3
ENDBRANCH   1   2
BRANCH   1  27
ATOM     27  C   UNL     1      -7.911  -4.144   5.113  1.00  0.00     0.188 C 
BRANCH  27  28
ATOM     28  O   UNL     1      -9.323  -4.101   4.948  1.00  0.00    -0.376 OA
BRANCH  28  29
ATOM     29  C   UNL     1      -9.988  -5.361   4.904  1.00  0.00     0.202 C 
BRANCH  29  30
ATOM     30  C   UNL     1     -10.222  -6.006   6.277  1.00  0.00     0.261 C 
BRANCH  30  31
ATOM     31  O   UNL     1      -9.053  -6.036   7.091  1.00  0.00    -0.460 OA
BRANCH  31  32
ATOM     32  C   UNL     1      -8.100  -6.854   6.614  1.00  0.00     0.338 C 
ATOM     33  O   UNL     1      -8.148  -7.579   5.635  1.00  0.00    -0.246 OA
BRANCH  32  34
ATOM     34  C   UNL     1      -6.909  -6.753   7.447  1.00  0.00     0.060 A 
ATOM     35  C   UNL     1      -5.668  -6.798   6.788  1.00  0.00     0.016 A 
ATOM     36  C   UNL     1      -7.077  -7.069   8.788  1.00  0.00     0.016 A 
ATOM     37  C   UNL     1      -4.630  -7.468   7.393  1.00  0.00     0.010 A 
ATOM     38  C   UNL     1      -6.058  -7.767   9.372  1.00  0.00     0.010 A 
ATOM     39  C   UNL     1      -4.914  -8.071   8.608  1.00  0.00    -0.014 A 
BRANCH  39  40
ATOM     40  C   UNL     1      -4.227  -9.261   9.059  1.00  0.00     0.031 A 
ATOM     41  C   UNL     1      -3.337  -9.164  10.212  1.00  0.00     0.074 A 
ATOM     42  C   UNL     1      -4.743 -10.430   8.620  1.00  0.00     0.049 A 
ATOM     43  N   UNL     1      -2.716 -10.161  10.729  1.00  0.00    -0.248 NA
ATOM     44  C   UNL     1      -3.031  -7.889  10.846  1.00  0.00     0.031 C 
ATOM     45  C   UNL     1      -4.755 -11.713   9.309  1.00  0.00     0.029 A 
ATOM     46  N   UNL     1      -5.264 -10.712   7.344  1.00  0.00    -0.354 N 
ATOM     47  C   UNL     1      -2.182  -9.736  11.921  1.00  0.00     0.074 A 
ATOM     48  C   UNL     1      -2.287  -8.298  11.875  1.00  0.00     0.031 C 
ATOM     49  C   UNL     1      -5.002 -12.682   8.412  1.00  0.00     0.029 A 
ATOM     50  C   UNL     1      -4.936 -12.068   7.097  1.00  0.00     0.049 A 
ATOM     51  H   UNL     1      -5.753 -10.098   6.750  1.00  0.00     0.167 HD
ATOM     52  C   UNL     1      -1.848 -10.689  12.838  1.00  0.00     0.037 A 
ATOM     53  C   UNL     1      -3.999 -12.384   6.150  1.00  0.00     0.037 A 
ATOM     54  C   UNL     1      -1.925 -12.024  12.231  1.00  0.00     0.049 A 
ATOM     55  C   UNL     1      -2.748 -13.047   6.695  1.00  0.00     0.074 A 
ATOM     56  C   UNL     1      -2.848 -13.058  12.244  1.00  0.00     0.029 A 
ATOM     57  N   UNL     1      -1.054 -12.308  11.196  1.00  0.00    -0.354 N 
ATOM     58  N   UNL     1      -2.472 -13.154   7.965  1.00  0.00    -0.248 NA
ATOM     59  C   UNL     1      -1.670 -13.567   5.852  1.00  0.00     0.031 C 
ATOM     60  C   UNL     1      -2.533 -13.942  11.165  1.00  0.00     0.029 A 
ATOM     61  C   UNL     1      -1.415 -13.451  10.515  1.00  0.00     0.049 A 
ATOM     62  H   UNL     1      -0.269 -11.759  10.971  1.00  0.00     0.167 HD
ATOM     63  C   UNL     1      -1.223 -13.681   8.122  1.00  0.00     0.074 A 
ATOM     64  C   UNL     1      -0.758 -13.933   6.771  1.00  0.00     0.031 C 
ATOM     65  C   UNL     1      -0.642 -13.832   9.344  1.00  0.00     0.037 A 
BRANCH  52  66
ATOM     66  C   UNL     1      -1.620 -10.473  14.319  1.00  0.00     0.064 A 
ATOM     67  C   UNL     1      -1.550 -11.589  15.184  1.00  0.00     0.173 A 
ATOM     68  C   UNL     1      -1.534  -9.230  14.976  1.00  0.00     0.173 A 
ATOM     69  F   UNL     1      -1.563 -12.843  14.711  1.00  0.00    -0.203 F 
ATOM     70  C   UNL     1      -1.469 -11.465  16.574  1.00  0.00     0.198 A 
ATOM     71  C   UNL     1      -1.457  -9.105  16.366  1.00  0.00     0.198 A 
ATOM     72  F   UNL     1      -1.501  -8.070  14.324  1.00  0.00    -0.203 F 
ATOM     73  F   UNL     1      -1.433 -12.566  17.337  1.00  0.00    -0.200 F 
ATOM     74  C   UNL     1      -1.436 -10.222  17.167  1.00  0.00     0.200 A 
ATOM     75  F   UNL     1      -1.407  -7.882  16.916  1.00  0.00    -0.200 F 
ATOM     76  F   UNL     1      -1.373 -10.099  18.499  1.00  0.00    -0.200 F 
ENDBRANCH  52  66
BRANCH  53  77
ATOM     77  C   UNL     1      -4.018 -11.434   5.003  1.00  0.00     0.064 A 
ATOM     78  C   UNL     1      -5.168 -11.384   4.192  1.00  0.00     0.173 A 
ATOM     79  C   UNL     1      -3.152 -10.333   4.971  1.00  0.00     0.173 A 
ATOM     80  F   UNL     1      -6.026 -12.417   4.183  1.00  0.00    -0.203 F 
ATOM     81  C   UNL     1      -5.503 -10.232   3.483  1.00  0.00     0.198 A 
ATOM     82  C   UNL     1      -3.491  -9.182   4.258  1.00  0.00     0.198 A 
ATOM     83  F   UNL     1      -2.042 -10.320   5.723  1.00  0.00    -0.203 F 
ATOM     84  F   UNL     1      -6.656 -10.176   2.802  1.00  0.00    -0.200 F 
ATOM     85  C   UNL     1      -4.681  -9.119   3.547  1.00  0.00     0.200 A 
ATOM     86  F   UNL     1      -2.706  -8.097   4.334  1.00  0.00    -0.200 F 
ATOM     87  F   UNL     1      -5.047  -7.973   2.956  1.00  0.00    -0.200 F 
ENDBRANCH  53  77
BRANCH  65  88
ATOM     88  C   UNL     1       0.744 -14.357   9.530  1.00  0.00     0.064 A 
ATOM     89  C   UNL     1       1.145 -15.592   9.008  1.00  0.00     0.173 A 
ATOM     90  C   UNL     1       1.662 -13.693  10.369  1.00  0.00     0.173 A 
ATOM     91  F   UNL     1       0.326 -16.294   8.210  1.00  0.00    -0.203 F 
ATOM     92  C   UNL     1       2.395 -16.134   9.314  1.00  0.00     0.198 A 
ATOM     93  C   UNL     1       2.883 -14.260  10.717  1.00  0.00     0.198 A 
ATOM     94  F   UNL     1       1.401 -12.469  10.854  1.00  0.00    -0.203 F 
ATOM     95  F   UNL     1       2.764 -17.302   8.771  1.00  0.00    -0.200 F 
ATOM     96  C   UNL     1       3.252 -15.480  10.185  1.00  0.00     0.200 A 
ATOM     97  F   UNL     1       3.696 -13.619  11.568  1.00  0.00    -0.200 F 
ATOM     98  F   UNL     1       4.436 -16.020  10.504  1.00  0.00    -0.200 F 
ENDBRANCH  65  88
ENDBRANCH  39  40
ENDBRANCH  32  34
ENDBRANCH  31  32
ENDBRANCH  30  31
ENDBRANCH  29  30
ENDBRANCH  28  29
ENDBRANCH  27  28
ENDBRANCH   1  27
TORSDOF 20
