REMARK SMILES N#C/C(=C/c1cccc(OCC(=O)OCCOCCOCCOC(=O)c2ccc(-c3c4nc(c(-c5c(F)c(F)c(F)c(F)c5F)c5ccc([nH]5)c(-c5c(F)c(F)c(F)c(F)c5F)c5nc(c(-c6c(F)c(F)c(F)c(F)c6F)c6ccc3[nH]6)C=C5)C=C4)cc2)c1)c1nc2ccccc2[nH]1
REMARK SMILES IDX 18 1 17 2 16 3 15 4 14 5 12 6 13 7 11 8 10 9 9 10 5 11 6 12
REMARK SMILES IDX 89 13 7 14 8 15 4 16 3 17 2 18 1 19 90 20 91 21 98 22 92 23
REMARK SMILES IDX 97 24 93 26 96 27 94 28 95 29 19 30 20 31 21 32 22 33 23 34
REMARK SMILES IDX 24 35 25 36 26 37 27 38 88 39 28 40 87 41 29 42 30 43 31 44
REMARK SMILES IDX 81 45 32 46 86 47 80 48 82 49 33 50 85 51 79 52 78 53 34 55
REMARK SMILES IDX 66 56 46 57 65 58 47 59 50 60 64 61 83 62 48 63 49 64 63 66
REMARK SMILES IDX 84 67 51 68 35 69 36 70 44 71 37 72 38 73 42 74 45 75 39 76
REMARK SMILES IDX 40 77 43 78 41 79 67 80 68 81 76 82 69 83 70 84 74 85 77 86
REMARK SMILES IDX 71 87 72 88 75 89 73 90 52 91 53 92 61 93 54 94 55 95 59 96
REMARK SMILES IDX 62 97 56 98 57 99 60 100 58 101
REMARK H PARENT 98 25 82 54 50 65
REMARK Flexibility Score: inf
ROOT
ATOM      1  C   UNL     1       6.384  -1.161  -1.582  1.00  0.00     0.188 C 
ENDROOT
BRANCH   1   2
ATOM      2  O   UNL     1       5.193  -2.808  -2.001  1.00  0.00    -0.376 OA
BRANCH   2   3
ATOM      3  C   UNL     1       5.654  -4.157  -2.780  1.00  0.00     0.202 C 
BRANCH   3   4
ATOM      4  C   UNL     1       7.106  -3.835  -3.700  1.00  0.00     0.261 C 
BRANCH   4   5
ATOM      5  O   UNL     1       8.011  -2.038  -3.362  1.00  0.00    -0.461 OA
BRANCH   5   6
ATOM      6  C   UNL     1       8.696  -0.693  -3.678  1.00  0.00     0.344 C 
ATOM      7  O   UNL     1       9.092  -0.419  -4.823  1.00  0.00    -0.248 OA
BRANCH   6   8
ATOM      8  C   UNL     1       8.608   0.751  -2.558  1.00  0.00     0.351 C 
BRANCH   8   9
ATOM      9  O   UNL     1       9.124   1.213  -1.259  1.00  0.00    -0.482 OA
BRANCH   9  10
ATOM     10  C   UNL     1       8.542   1.904  -0.169  1.00  0.00     0.120 A 
ATOM     11  C   UNL     1       6.408   2.179   1.177  1.00  0.00    -0.021 A 
ATOM     12  C   UNL     1       7.107   1.984   2.362  1.00  0.00     0.008 A 
ATOM     13  C   UNL     1       7.264   2.504  -0.028  1.00  0.00     0.054 A 
ATOM     14  C   UNL     1       8.507   1.814   2.288  1.00  0.00     0.004 A 
ATOM     15  C   UNL     1       9.192   1.690   1.047  1.00  0.00     0.046 A 
BRANCH  11  16
ATOM     16  C   UNL     1       4.717   1.355   1.058  1.00  0.00     0.031 C 
ATOM     17  C   UNL     1       3.875   0.010   0.033  1.00  0.00     0.095 C 
BRANCH  17  18
ATOM     18  C   UNL     1       2.355   0.010   0.033  1.00  0.00     0.103 C 
ATOM     19  N   UNL     1       1.094   0.010   0.033  1.00  0.00    -0.192 NA
ENDBRANCH  17  18
BRANCH  17  20
ATOM     20  C   UNL     1       4.504  -1.386  -0.856  1.00  0.00     0.149 A 
ATOM     21  N   UNL     1       5.801  -2.424  -0.416  1.00  0.00    -0.228 NA
ATOM     22  N   UNL     1       4.555  -1.226  -2.694  1.00  0.00    -0.337 N 
ATOM     23  C   UNL     1       6.991  -2.837  -1.892  1.00  0.00     0.089 A 
ATOM     24  C   UNL     1       6.074  -2.001  -3.390  1.00  0.00     0.066 A 
ATOM     25  H   UNL     1       3.860  -0.784  -3.233  1.00  0.00     0.168 HD
ATOM     26  C   UNL     1       8.638  -3.477  -2.144  1.00  0.00     0.030 A 
ATOM     27  C   UNL     1       6.832  -2.092  -4.994  1.00  0.00     0.028 A 
ATOM     28  C   UNL     1       9.331  -3.488  -3.771  1.00  0.00     0.002 A 
ATOM     29  C   UNL     1       8.440  -2.870  -5.152  1.00  0.00     0.002 A 
ENDBRANCH  17  20
ENDBRANCH  11  16
ENDBRANCH   9  10
ENDBRANCH   8   9
ENDBRANCH   6   8
ENDBRANCH   5   6
ENDBRANCH   4   5
ENDBRANCH   3   4
ENDBRANCH   2   3
ENDBRANCH   1   2
BRANCH   1  30
ATOM     30  C   UNL     1       7.777  -1.296  -0.308  1.00  0.00     0.188 C 
BRANCH  30  31
ATOM     31  O   UNL     1       8.335  -2.386   0.470  1.00  0.00    -0.376 OA
BRANCH  31  32
ATOM     32  C   UNL     1       7.687  -3.541   1.001  1.00  0.00     0.202 C 
BRANCH  32  33
ATOM     33  C   UNL     1       6.774  -3.449   2.235  1.00  0.00     0.261 C 
BRANCH  33  34
ATOM     34  O   UNL     1       5.811  -2.421   2.135  1.00  0.00    -0.460 OA
BRANCH  34  35
ATOM     35  C   UNL     1       6.406  -1.213   2.118  1.00  0.00     0.338 C 
ATOM     36  O   UNL     1       7.381  -0.871   2.756  1.00  0.00    -0.246 OA
BRANCH  35  37
ATOM     37  C   UNL     1       5.519  -0.383   1.288  1.00  0.00     0.060 A 
ATOM     38  C   UNL     1       5.718   0.648  -0.324  1.00  0.00     0.016 A 
ATOM     39  C   UNL     1       4.022  -0.102   2.311  1.00  0.00     0.016 A 
ATOM     40  C   UNL     1       4.395   1.950  -0.768  1.00  0.00     0.010 A 
ATOM     41  C   UNL     1       2.822   1.197   1.913  1.00  0.00     0.010 A 
ATOM     42  C   UNL     1       2.996   2.272   0.423  1.00  0.00    -0.014 A 
BRANCH  42  43
ATOM     43  C   UNL     1       2.091   3.536   0.469  1.00  0.00     0.031 A 
ATOM     44  C   UNL     1       1.696   4.334   1.762  1.00  0.00     0.074 A 
ATOM     45  C   UNL     1       1.515   3.978  -0.664  1.00  0.00     0.049 A 
ATOM     46  N   UNL     1       0.820   5.322   1.913  1.00  0.00    -0.248 NA
ATOM     47  C   UNL     1       2.357   3.997   3.031  1.00  0.00     0.031 C 
ATOM     48  C   UNL     1       1.703   3.377  -1.972  1.00  0.00     0.029 A 
ATOM     49  N   UNL     1       0.634   5.018  -0.891  1.00  0.00    -0.354 N 
ATOM     50  C   UNL     1       0.806   5.677   3.274  1.00  0.00     0.074 A 
ATOM     51  C   UNL     1       1.740   4.776   3.914  1.00  0.00     0.031 C 
ATOM     52  C   UNL     1       0.996   4.068  -2.876  1.00  0.00     0.029 A 
ATOM     53  C   UNL     1       0.223   5.108  -2.198  1.00  0.00     0.049 A 
ATOM     54  H   UNL     1       0.332   5.634  -0.185  1.00  0.00     0.167 HD
ATOM     55  C   UNL     1       0.119   6.653   3.945  1.00  0.00     0.037 A 
ATOM     56  C   UNL     1      -0.697   5.884  -2.808  1.00  0.00     0.037 A 
ATOM     57  C   UNL     1      -0.788   7.613   3.344  1.00  0.00     0.049 A 
ATOM     58  C   UNL     1      -1.488   6.918  -2.054  1.00  0.00     0.074 A 
ATOM     59  C   UNL     1      -1.456   8.674   3.948  1.00  0.00     0.029 A 
ATOM     60  N   UNL     1      -1.170   7.629   2.014  1.00  0.00    -0.354 N 
ATOM     61  N   UNL     1      -1.445   7.239  -0.787  1.00  0.00    -0.248 NA
ATOM     62  C   UNL     1      -2.461   7.702  -2.833  1.00  0.00     0.031 C 
ATOM     63  C   UNL     1      -2.302   9.271   3.007  1.00  0.00     0.029 A 
ATOM     64  C   UNL     1      -2.092   8.647   1.791  1.00  0.00     0.049 A 
ATOM     65  H   UNL     1      -0.837   7.010   1.325  1.00  0.00     0.167 HD
ATOM     66  C   UNL     1      -2.358   8.277  -0.624  1.00  0.00     0.074 A 
ATOM     67  C   UNL     1      -2.927   8.546  -1.924  1.00  0.00     0.031 C 
ATOM     68  C   UNL     1      -2.683   8.943   0.511  1.00  0.00     0.037 A 
BRANCH  55  69
ATOM     69  C   UNL     1       0.290   6.773   5.456  1.00  0.00     0.064 A 
ATOM     70  C   UNL     1       1.494   7.189   6.045  1.00  0.00     0.173 A 
ATOM     71  C   UNL     1      -0.809   6.587   6.321  1.00  0.00     0.173 A 
ATOM     72  F   UNL     1       2.573   7.422   5.283  1.00  0.00    -0.203 F 
ATOM     73  C   UNL     1       1.609   7.358   7.429  1.00  0.00     0.198 A 
ATOM     74  C   UNL     1      -0.702   6.797   7.697  1.00  0.00     0.198 A 
ATOM     75  F   UNL     1      -2.008   6.242   5.827  1.00  0.00    -0.203 F 
ATOM     76  F   UNL     1       2.788   7.705   7.965  1.00  0.00    -0.200 F 
ATOM     77  C   UNL     1       0.511   7.166   8.252  1.00  0.00     0.200 A 
ATOM     78  F   UNL     1      -1.779   6.654   8.484  1.00  0.00    -0.200 F 
ATOM     79  F   UNL     1       0.622   7.339   9.578  1.00  0.00    -0.200 F 
ENDBRANCH  55  69
BRANCH  56  80
ATOM     80  C   UNL     1      -0.934   5.686  -4.263  1.00  0.00     0.064 A 
ATOM     81  C   UNL     1      -0.563   6.663  -5.196  1.00  0.00     0.173 A 
ATOM     82  C   UNL     1      -1.504   4.498  -4.748  1.00  0.00     0.173 A 
ATOM     83  F   UNL     1      -0.040   7.825  -4.777  1.00  0.00    -0.203 F 
ATOM     84  C   UNL     1      -0.761   6.463  -6.559  1.00  0.00     0.198 A 
ATOM     85  C   UNL     1      -1.656   4.280  -6.113  1.00  0.00     0.198 A 
ATOM     86  F   UNL     1      -1.868   3.530  -3.894  1.00  0.00    -0.203 F 
ATOM     87  F   UNL     1      -0.439   7.430  -7.429  1.00  0.00    -0.200 F 
ATOM     88  C   UNL     1      -1.292   5.266  -7.017  1.00  0.00     0.200 A 
ATOM     89  F   UNL     1      -2.139   3.110  -6.551  1.00  0.00    -0.200 F 
ATOM     90  F   UNL     1      -1.454   5.062  -8.331  1.00  0.00    -0.200 F 
ENDBRANCH  56  80
BRANCH  68  91
ATOM     91  C   UNL     1      -3.670  10.079   0.406  1.00  0.00     0.064 A 
ATOM     92  C   UNL     1      -5.021   9.869   0.082  1.00  0.00     0.173 A 
ATOM     93  C   UNL     1      -3.261  11.402   0.640  1.00  0.00     0.173 A 
ATOM     94  F   UNL     1      -5.471   8.629  -0.166  1.00  0.00    -0.203 F 
ATOM     95  C   UNL     1      -5.909  10.937  -0.042  1.00  0.00     0.198 A 
ATOM     96  C   UNL     1      -4.160  12.465   0.553  1.00  0.00     0.198 A 
ATOM     97  F   UNL     1      -1.986  11.671   0.958  1.00  0.00    -0.203 F 
ATOM     98  F   UNL     1      -7.176  10.714  -0.418  1.00  0.00    -0.200 F 
ATOM     99  C   UNL     1      -5.480  12.233   0.200  1.00  0.00     0.200 A 
ATOM    100  F   UNL     1      -3.745  13.714   0.804  1.00  0.00    -0.200 F 
ATOM    101  F   UNL     1      -6.335  13.259   0.082  1.00  0.00    -0.200 F 
ENDBRANCH  68  91
ENDBRANCH  42  43
ENDBRANCH  35  37
ENDBRANCH  34  35
ENDBRANCH  33  34
ENDBRANCH  32  33
ENDBRANCH  31  32
ENDBRANCH  30  31
ENDBRANCH   1  30
TORSDOF 22
