REMARK SMILES Cc1ccc(C(=O)Nc2cccc(F)c2C(=O)OCCOCCOCCOC(=O)c2ccc(-c3c4nc(c(-c5c(F)c(F)c(F)c(F)c5F)c5ccc([nH]5)c(-c5c(F)c(F)c(F)c(F)c5F)c5nc(c(-c6c(F)c(F)c(F)c(F)c6F)c6ccc3[nH]6)C=C5)C=C4)cc2)c(F)c1
REMARK SMILES IDX 22 1 21 2 20 3 19 4 18 5 16 6 17 7 15 8 9 9 10 10 11 11
REMARK SMILES IDX 13 12 12 13 14 14 8 15 6 16 7 17 5 19 1 20 2 21 3 22 95 23
REMARK SMILES IDX 4 24 93 25 94 26 23 27 24 28 25 29 26 30 27 31 28 32 29 33
REMARK SMILES IDX 30 34 31 35 92 36 32 37 91 38 33 39 34 40 35 41 85 42 36 43
REMARK SMILES IDX 90 44 84 45 86 46 37 47 89 48 83 49 82 50 38 52 70 53 50 54
REMARK SMILES IDX 69 55 51 56 54 57 68 58 87 59 52 60 53 61 67 63 88 64 55 65
REMARK SMILES IDX 39 66 40 67 48 68 41 69 42 70 46 71 49 72 43 73 44 74 47 75
REMARK SMILES IDX 45 76 71 77 72 78 80 79 73 80 74 81 78 82 81 83 75 84 76 85
REMARK SMILES IDX 79 86 77 87 56 88 57 89 65 90 58 91 59 92 63 93 66 94 60 95
REMARK SMILES IDX 61 96 64 97 62 98
REMARK H PARENT 8 18 86 51 54 62
REMARK Flexibility Score: inf
ROOT
ATOM      1  C   UNL     1      -3.359  -6.390  -0.928  1.00  0.00     0.188 C 
ENDROOT
BRANCH   1   2
ATOM      2  O   UNL     1      -4.303  -6.518  -1.977  1.00  0.00    -0.376 OA
BRANCH   2   3
ATOM      3  C   UNL     1      -3.832  -7.053  -3.210  1.00  0.00     0.202 C 
BRANCH   3   4
ATOM      4  C   UNL     1      -2.553  -6.459  -3.840  1.00  0.00     0.261 C 
BRANCH   4   5
ATOM      5  O   UNL     1      -1.439  -6.304  -2.933  1.00  0.00    -0.460 OA
BRANCH   5   6
ATOM      6  C   UNL     1      -1.025  -5.033  -2.692  1.00  0.00     0.343 C 
ATOM      7  O   UNL     1      -1.403  -4.023  -3.272  1.00  0.00    -0.246 OA
BRANCH   6   8
ATOM      8  C   UNL     1      -0.272  -4.977  -1.419  1.00  0.00     0.119 A 
ATOM      9  C   UNL     1      -0.651  -4.080  -0.393  1.00  0.00     0.059 A 
ATOM     10  C   UNL     1       0.079  -4.052   0.807  1.00  0.00     0.027 A 
ATOM     11  C   UNL     1       1.201  -4.867   0.967  1.00  0.00     0.005 A 
ATOM     12  C   UNL     1       0.855  -5.776  -1.246  1.00  0.00     0.139 A 
ATOM     13  C   UNL     1       1.593  -5.721  -0.065  1.00  0.00     0.040 A 
ATOM     14  F   UNL     1       1.267  -6.597  -2.221  1.00  0.00    -0.206 F 
BRANCH   9  15
ATOM     15  N   UNL     1      -1.760  -3.224  -0.552  1.00  0.00    -0.321 N 
ATOM     16  C   UNL     1      -1.913  -1.889  -0.232  1.00  0.00     0.258 C 
ATOM     17  O   UNL     1      -3.057  -1.450  -0.134  1.00  0.00    -0.269 OA
ATOM     18  H   UNL     1      -2.553  -3.645  -0.956  1.00  0.00     0.170 HD
BRANCH  16  19
ATOM     19  C   UNL     1      -0.736  -0.972  -0.173  1.00  0.00     0.075 A 
ATOM     20  C   UNL     1       2.639   1.718   0.066  1.00  0.00     0.044 C 
ATOM     21  C   UNL     1       1.463   0.797  -0.026  1.00  0.00    -0.048 A 
ATOM     22  C   UNL     1       1.615  -0.468  -0.587  1.00  0.00     0.004 A 
ATOM     23  C   UNL     1       0.189   1.207   0.379  1.00  0.00     0.043 A 
ATOM     24  C   UNL     1       0.517  -1.319  -0.699  1.00  0.00     0.017 A 
ATOM     25  C   UNL     1      -0.893   0.324   0.322  1.00  0.00     0.136 A 
ATOM     26  F   UNL     1      -2.082   0.776   0.746  1.00  0.00    -0.206 F 
ENDBRANCH  16  19
ENDBRANCH   9  15
ENDBRANCH   6   8
ENDBRANCH   5   6
ENDBRANCH   4   5
ENDBRANCH   3   4
ENDBRANCH   2   3
ENDBRANCH   1   2
BRANCH   1  27
ATOM     27  C   UNL     1      -2.502  -7.603  -0.493  1.00  0.00     0.188 C 
BRANCH  27  28
ATOM     28  O   UNL     1      -2.610  -8.706  -1.373  1.00  0.00    -0.376 OA
BRANCH  28  29
ATOM     29  C   UNL     1      -3.195  -9.896  -0.864  1.00  0.00     0.202 C 
BRANCH  29  30
ATOM     30  C   UNL     1      -4.660  -9.871  -0.404  1.00  0.00     0.261 C 
BRANCH  30  31
ATOM     31  O   UNL     1      -5.145  -8.586  -0.042  1.00  0.00    -0.460 OA
BRANCH  31  32
ATOM     32  C   UNL     1      -4.876  -8.257   1.232  1.00  0.00     0.338 C 
ATOM     33  O   UNL     1      -4.331  -8.953   2.074  1.00  0.00    -0.246 OA
BRANCH  32  34
ATOM     34  C   UNL     1      -5.353  -6.873   1.483  1.00  0.00     0.060 A 
ATOM     35  C   UNL     1      -4.572  -6.243   2.473  1.00  0.00     0.016 A 
ATOM     36  C   UNL     1      -6.739  -6.885   1.528  1.00  0.00     0.016 A 
ATOM     37  C   UNL     1      -5.089  -6.215   3.739  1.00  0.00     0.010 A 
ATOM     38  C   UNL     1      -7.257  -6.905   2.787  1.00  0.00     0.010 A 
ATOM     39  C   UNL     1      -6.385  -6.692   3.868  1.00  0.00    -0.014 A 
BRANCH  39  40
ATOM     40  C   UNL     1      -6.936  -7.035   5.143  1.00  0.00     0.031 A 
ATOM     41  C   UNL     1      -7.602  -5.950   5.848  1.00  0.00     0.074 A 
ATOM     42  C   UNL     1      -6.901  -8.336   5.492  1.00  0.00     0.049 A 
ATOM     43  N   UNL     1      -7.803  -5.922   7.110  1.00  0.00    -0.248 NA
ATOM     44  C   UNL     1      -8.025  -4.731   5.157  1.00  0.00     0.031 C 
ATOM     45  C   UNL     1      -7.673  -9.014   6.517  1.00  0.00     0.029 A 
ATOM     46  N   UNL     1      -5.979  -9.293   5.049  1.00  0.00    -0.354 N 
ATOM     47  C   UNL     1      -8.683  -4.891   7.337  1.00  0.00     0.074 A 
ATOM     48  C   UNL     1      -8.689  -4.105   6.128  1.00  0.00     0.031 C 
ATOM     49  C   UNL     1      -7.068 -10.178   6.813  1.00  0.00     0.029 A 
ATOM     50  C   UNL     1      -5.798 -10.208   6.097  1.00  0.00     0.049 A 
ATOM     51  H   UNL     1      -5.540  -9.319   4.168  1.00  0.00     0.167 HD
ATOM     52  C   UNL     1      -9.462  -4.956   8.450  1.00  0.00     0.037 A 
ATOM     53  C   UNL     1      -4.583 -10.272   6.716  1.00  0.00     0.037 A 
ATOM     54  C   UNL     1      -9.084  -6.120   9.253  1.00  0.00     0.049 A 
ATOM     55  C   UNL     1      -4.641  -9.729   8.128  1.00  0.00     0.074 A 
ATOM     56  C   UNL     1      -9.569  -7.419   9.276  1.00  0.00     0.029 A 
ATOM     57  N   UNL     1      -7.802  -6.175   9.802  1.00  0.00    -0.354 N 
ATOM     58  N   UNL     1      -5.488  -8.820   8.539  1.00  0.00    -0.248 NA
ATOM     59  C   UNL     1      -3.790 -10.234   9.200  1.00  0.00     0.031 C 
ATOM     60  C   UNL     1      -8.541  -8.265   9.767  1.00  0.00     0.029 A 
ATOM     61  C   UNL     1      -7.434  -7.485  10.058  1.00  0.00     0.049 A 
ATOM     62  H   UNL     1      -7.236  -5.390   9.983  1.00  0.00     0.167 HD
ATOM     63  C   UNL     1      -5.346  -8.649   9.893  1.00  0.00     0.074 A 
ATOM     64  C   UNL     1      -4.269  -9.554  10.255  1.00  0.00     0.031 C 
ATOM     65  C   UNL     1      -6.138  -7.813  10.634  1.00  0.00     0.037 A 
BRANCH  52  66
ATOM     66  C   UNL     1     -10.765  -4.207   8.539  1.00  0.00     0.064 A 
ATOM     67  C   UNL     1     -11.904  -4.811   9.107  1.00  0.00     0.173 A 
ATOM     68  C   UNL     1     -10.972  -2.917   8.013  1.00  0.00     0.173 A 
ATOM     69  F   UNL     1     -11.837  -6.007   9.704  1.00  0.00    -0.203 F 
ATOM     70  C   UNL     1     -13.165  -4.212   9.071  1.00  0.00     0.198 A 
ATOM     71  C   UNL     1     -12.244  -2.341   7.926  1.00  0.00     0.198 A 
ATOM     72  F   UNL     1      -9.943  -2.166   7.598  1.00  0.00    -0.203 F 
ATOM     73  F   UNL     1     -14.212  -4.838   9.627  1.00  0.00    -0.200 F 
ATOM     74  C   UNL     1     -13.341  -2.992   8.453  1.00  0.00     0.200 A 
ATOM     75  F   UNL     1     -12.398  -1.151   7.327  1.00  0.00    -0.200 F 
ATOM     76  F   UNL     1     -14.558  -2.436   8.386  1.00  0.00    -0.200 F 
ENDBRANCH  52  66
BRANCH  53  77
ATOM     77  C   UNL     1      -3.430 -10.168   5.775  1.00  0.00     0.064 A 
ATOM     78  C   UNL     1      -3.256 -11.201   4.829  1.00  0.00     0.173 A 
ATOM     79  C   UNL     1      -2.723  -8.979   5.555  1.00  0.00     0.173 A 
ATOM     80  F   UNL     1      -3.903 -12.368   4.989  1.00  0.00    -0.203 F 
ATOM     81  C   UNL     1      -2.488 -11.024   3.678  1.00  0.00     0.198 A 
ATOM     82  C   UNL     1      -1.949  -8.805   4.400  1.00  0.00     0.198 A 
ATOM     83  F   UNL     1      -2.833  -7.955   6.412  1.00  0.00    -0.203 F 
ATOM     84  F   UNL     1      -2.422 -11.999   2.758  1.00  0.00    -0.200 F 
ATOM     85  C   UNL     1      -1.848  -9.818   3.456  1.00  0.00     0.200 A 
ATOM     86  F   UNL     1      -1.341  -7.631   4.170  1.00  0.00    -0.200 F 
ATOM     87  F   UNL     1      -1.168  -9.616   2.316  1.00  0.00    -0.200 F 
ENDBRANCH  53  77
BRANCH  65  88
ATOM     88  C   UNL     1      -5.838  -7.358  12.044  1.00  0.00     0.064 A 
ATOM     89  C   UNL     1      -4.545  -7.326  12.593  1.00  0.00     0.173 A 
ATOM     90  C   UNL     1      -6.853  -6.802  12.863  1.00  0.00     0.173 A 
ATOM     91  F   UNL     1      -3.468  -7.658  11.870  1.00  0.00    -0.203 F 
ATOM     92  C   UNL     1      -4.305  -6.893  13.899  1.00  0.00     0.198 A 
ATOM     93  C   UNL     1      -6.597  -6.296  14.135  1.00  0.00     0.198 A 
ATOM     94  F   UNL     1      -8.124  -6.703  12.448  1.00  0.00    -0.203 F 
ATOM     95  F   UNL     1      -3.064  -6.961  14.399  1.00  0.00    -0.200 F 
ATOM     96  C   UNL     1      -5.328  -6.372  14.666  1.00  0.00     0.200 A 
ATOM     97  F   UNL     1      -7.586  -5.721  14.833  1.00  0.00    -0.200 F 
ATOM     98  F   UNL     1      -5.087  -5.923  15.904  1.00  0.00    -0.200 F 
ENDBRANCH  65  88
ENDBRANCH  39  40
ENDBRANCH  32  34
ENDBRANCH  31  32
ENDBRANCH  30  31
ENDBRANCH  29  30
ENDBRANCH  28  29
ENDBRANCH  27  28
ENDBRANCH   1  27
TORSDOF 19
