REMARK SMILES CCOc1cc(OCC)cc(-c2ccc([C@@H](C)C(=O)OCCOCCOCCOC(=O)c3ccc(-c4c5nc(c(-c6c(F)c(F)c(F)c(F)c6F)c6ccc([nH]6)c(-c6c(F)c(F)c(F)c(F)c6F)c6nc(c(-c7c(F)c(F)c(F)c(F)c7F)c7ccc4[nH]7)C=C6)C=C5)cc3)cc2F)c1
REMARK SMILES IDX 24 1 23 2 22 3 21 4 20 5 18 6 19 7 16 8 17 9 15 10 12 11
REMARK SMILES IDX 13 12 96 13 14 14 95 15 97 16 11 17 4 18 5 19 98 20 6 21
REMARK SMILES IDX 10 22 3 23 2 24 1 25 7 26 8 27 9 28 25 29 26 30 27 31 28 32
REMARK SMILES IDX 29 33 30 34 31 35 32 36 33 37 94 38 34 39 93 40 35 41 36 42
REMARK SMILES IDX 37 43 87 44 38 45 92 46 86 47 88 48 39 49 91 50 85 51 84 52
REMARK SMILES IDX 40 54 72 55 52 56 71 57 53 58 56 59 70 60 89 61 54 62 55 63
REMARK SMILES IDX 69 65 90 66 57 67 41 68 42 69 50 70 43 71 44 72 48 73 51 74
REMARK SMILES IDX 45 75 46 76 49 77 47 78 73 79 74 80 82 81 75 82 76 83 80 84
REMARK SMILES IDX 83 85 77 86 78 87 81 88 79 89 58 90 59 91 67 92 60 93 61 94
REMARK SMILES IDX 65 95 68 96 62 97 63 98 66 99 64 100
REMARK H PARENT 88 53 56 64
REMARK Flexibility Score: inf
ROOT
ATOM      1  C   UNL     1       6.315   4.834  -0.636  1.00  0.00     0.188 C 
ENDROOT
BRANCH   1   2
ATOM      2  O   UNL     1       7.069   5.471  -1.660  1.00  0.00    -0.376 OA
BRANCH   2   3
ATOM      3  C   UNL     1       8.104   4.751  -2.316  1.00  0.00     0.202 C 
BRANCH   3   4
ATOM      4  C   UNL     1       9.251   4.187  -1.463  1.00  0.00     0.261 C 
BRANCH   4   5
ATOM      5  O   UNL     1       8.853   3.368  -0.340  1.00  0.00    -0.463 OA
BRANCH   5   6
ATOM      6  C   UNL     1       9.204   3.816   0.892  1.00  0.00     0.313 C 
ATOM      7  O   UNL     1       9.860   4.839   1.077  1.00  0.00    -0.252 OA
BRANCH   6   8
ATOM      8  C   UNL     1       8.729   2.974   2.080  1.00  0.00     0.126 C 
ATOM      9  C   UNL     1       9.949   2.455   2.838  1.00  0.00     0.025 C 
BRANCH   8  10
ATOM     10  C   UNL     1       7.705   1.857   1.896  1.00  0.00    -0.031 A 
ATOM     11  C   UNL     1       5.724  -0.200   1.650  1.00  0.00     0.018 A 
ATOM     12  C   UNL     1       6.910  -0.217   0.890  1.00  0.00     0.012 A 
ATOM     13  C   UNL     1       5.551   0.874   2.526  1.00  0.00     0.131 A 
ATOM     14  C   UNL     1       7.891   0.782   1.019  1.00  0.00     0.005 A 
ATOM     15  C   UNL     1       6.519   1.878   2.658  1.00  0.00     0.044 A 
ATOM     16  F   UNL     1       4.450   0.959   3.289  1.00  0.00    -0.206 F 
BRANCH  11  17
ATOM     17  C   UNL     1       4.766  -1.320   1.574  1.00  0.00    -0.008 A 
ATOM     18  C   UNL     1       2.542  -2.254   1.241  1.00  0.00     0.123 A 
ATOM     19  C   UNL     1       3.035  -3.542   1.452  1.00  0.00     0.092 A 
ATOM     20  C   UNL     1       3.398  -1.148   1.314  1.00  0.00     0.055 A 
ATOM     21  C   UNL     1       4.383  -3.735   1.746  1.00  0.00     0.123 A 
ATOM     22  C   UNL     1       5.230  -2.627   1.806  1.00  0.00     0.055 A 
BRANCH  18  23
ATOM     23  O   UNL     1       1.183  -2.114   1.141  1.00  0.00    -0.494 OA
BRANCH  23  24
ATOM     24  C   UNL     1       0.720  -1.673  -0.139  1.00  0.00     0.226 C 
ATOM     25  C   UNL     1       0.626  -0.162  -0.197  1.00  0.00     0.049 C 
ENDBRANCH  23  24
ENDBRANCH  18  23
BRANCH  21  26
ATOM     26  O   UNL     1       4.770  -5.033   1.945  1.00  0.00    -0.494 OA
BRANCH  26  27
ATOM     27  C   UNL     1       6.017  -5.257   2.609  1.00  0.00     0.226 C 
ATOM     28  C   UNL     1       7.170  -5.329   1.619  1.00  0.00     0.049 C 
ENDBRANCH  26  27
ENDBRANCH  21  26
ENDBRANCH  11  17
ENDBRANCH   8  10
ENDBRANCH   6   8
ENDBRANCH   5   6
ENDBRANCH   4   5
ENDBRANCH   3   4
ENDBRANCH   2   3
ENDBRANCH   1   2
BRANCH   1  29
ATOM     29  C   UNL     1       6.010   3.331  -0.732  1.00  0.00     0.188 C 
BRANCH  29  30
ATOM     30  O   UNL     1       6.279   2.744  -1.988  1.00  0.00    -0.376 OA
BRANCH  30  31
ATOM     31  C   UNL     1       5.182   2.126  -2.633  1.00  0.00     0.202 C 
BRANCH  31  32
ATOM     32  C   UNL     1       4.109   3.109  -3.124  1.00  0.00     0.261 C 
BRANCH  32  33
ATOM     33  O   UNL     1       3.586   4.005  -2.119  1.00  0.00    -0.460 OA
BRANCH  33  34
ATOM     34  C   UNL     1       2.793   3.445  -1.183  1.00  0.00     0.338 C 
ATOM     35  O   UNL     1       2.451   2.270  -1.137  1.00  0.00    -0.246 OA
BRANCH  34  36
ATOM     36  C   UNL     1       2.557   4.404  -0.085  1.00  0.00     0.060 A 
ATOM     37  C   UNL     1       2.948   4.055   1.216  1.00  0.00     0.016 A 
ATOM     38  C   UNL     1       1.921   5.623  -0.324  1.00  0.00     0.016 A 
ATOM     39  C   UNL     1       2.678   4.912   2.284  1.00  0.00     0.010 A 
ATOM     40  C   UNL     1       1.633   6.473   0.751  1.00  0.00     0.010 A 
ATOM     41  C   UNL     1       1.982   6.109   2.065  1.00  0.00    -0.014 A 
BRANCH  41  42
ATOM     42  C   UNL     1       1.488   6.894   3.227  1.00  0.00     0.031 A 
ATOM     43  C   UNL     1       0.050   6.747   3.648  1.00  0.00     0.074 A 
ATOM     44  C   UNL     1       2.310   7.695   3.926  1.00  0.00     0.049 A 
ATOM     45  N   UNL     1      -0.595   7.324   4.631  1.00  0.00    -0.248 NA
ATOM     46  C   UNL     1      -0.773   5.826   2.849  1.00  0.00     0.031 C 
ATOM     47  C   UNL     1       3.727   7.907   3.642  1.00  0.00     0.029 A 
ATOM     48  N   UNL     1       2.065   8.484   5.025  1.00  0.00    -0.354 N 
ATOM     49  C   UNL     1      -1.895   6.837   4.569  1.00  0.00     0.074 A 
ATOM     50  C   UNL     1      -1.958   5.948   3.428  1.00  0.00     0.031 C 
ATOM     51  C   UNL     1       4.228   8.771   4.542  1.00  0.00     0.029 A 
ATOM     52  C   UNL     1       3.161   9.194   5.448  1.00  0.00     0.049 A 
ATOM     53  H   UNL     1       1.187   8.534   5.466  1.00  0.00     0.167 HD
ATOM     54  C   UNL     1      -2.938   7.096   5.394  1.00  0.00     0.037 A 
ATOM     55  C   UNL     1       3.284  10.094   6.445  1.00  0.00     0.037 A 
ATOM     56  C   UNL     1      -2.880   7.983   6.527  1.00  0.00     0.049 A 
ATOM     57  C   UNL     1       2.091  10.410   7.311  1.00  0.00     0.074 A 
ATOM     58  C   UNL     1      -3.880   8.295   7.433  1.00  0.00     0.029 A 
ATOM     59  N   UNL     1      -1.760   8.710   6.906  1.00  0.00    -0.354 N 
ATOM     60  N   UNL     1       0.876   9.919   7.267  1.00  0.00    -0.248 NA
ATOM     61  C   UNL     1       2.294  11.401   8.378  1.00  0.00     0.031 C 
ATOM     62  C   UNL     1      -3.384   9.255   8.322  1.00  0.00     0.029 A 
ATOM     63  C   UNL     1      -2.054   9.490   8.014  1.00  0.00     0.049 A 
ATOM     64  H   UNL     1      -0.886   8.676   6.454  1.00  0.00     0.167 HD
ATOM     65  C   UNL     1       0.181  10.516   8.313  1.00  0.00     0.074 A 
ATOM     66  C   UNL     1       1.119  11.387   8.990  1.00  0.00     0.031 C 
ATOM     67  C   UNL     1      -1.115  10.358   8.681  1.00  0.00     0.037 A 
BRANCH  54  68
ATOM     68  C   UNL     1      -4.249   6.429   5.083  1.00  0.00     0.064 A 
ATOM     69  C   UNL     1      -4.434   5.047   5.246  1.00  0.00     0.173 A 
ATOM     70  C   UNL     1      -5.346   7.188   4.648  1.00  0.00     0.173 A 
ATOM     71  F   UNL     1      -3.415   4.272   5.646  1.00  0.00    -0.203 F 
ATOM     72  C   UNL     1      -5.658   4.448   4.957  1.00  0.00     0.198 A 
ATOM     73  C   UNL     1      -6.577   6.591   4.392  1.00  0.00     0.198 A 
ATOM     74  F   UNL     1      -5.227   8.514   4.479  1.00  0.00    -0.203 F 
ATOM     75  F   UNL     1      -5.795   3.119   5.071  1.00  0.00    -0.200 F 
ATOM     76  C   UNL     1      -6.730   5.221   4.539  1.00  0.00     0.200 A 
ATOM     77  F   UNL     1      -7.617   7.342   4.002  1.00  0.00    -0.200 F 
ATOM     78  F   UNL     1      -7.910   4.644   4.270  1.00  0.00    -0.200 F 
ENDBRANCH  54  68
BRANCH  55  79
ATOM     79  C   UNL     1       4.589  10.768   6.684  1.00  0.00     0.064 A 
ATOM     80  C   UNL     1       5.322  10.537   7.856  1.00  0.00     0.173 A 
ATOM     81  C   UNL     1       5.112  11.685   5.760  1.00  0.00     0.173 A 
ATOM     82  F   UNL     1       4.850   9.692   8.785  1.00  0.00    -0.203 F 
ATOM     83  C   UNL     1       6.514  11.214   8.106  1.00  0.00     0.198 A 
ATOM     84  C   UNL     1       6.321  12.336   5.995  1.00  0.00     0.198 A 
ATOM     85  F   UNL     1       4.448  11.948   4.625  1.00  0.00    -0.203 F 
ATOM     86  F   UNL     1       7.164  11.017   9.261  1.00  0.00    -0.200 F 
ATOM     87  C   UNL     1       7.016  12.108   7.173  1.00  0.00     0.200 A 
ATOM     88  F   UNL     1       6.807  13.191   5.085  1.00  0.00    -0.200 F 
ATOM     89  F   UNL     1       8.163  12.758   7.413  1.00  0.00    -0.200 F 
ENDBRANCH  55  79
BRANCH  67  90
ATOM     90  C   UNL     1      -1.583  11.115   9.895  1.00  0.00     0.064 A 
ATOM     91  C   UNL     1      -1.698  12.514   9.899  1.00  0.00     0.173 A 
ATOM     92  C   UNL     1      -1.924  10.429  11.072  1.00  0.00     0.173 A 
ATOM     93  F   UNL     1      -1.376  13.221   8.805  1.00  0.00    -0.203 F 
ATOM     94  C   UNL     1      -2.084  13.199  11.049  1.00  0.00     0.198 A 
ATOM     95  C   UNL     1      -2.348  11.115  12.207  1.00  0.00     0.198 A 
ATOM     96  F   UNL     1      -1.847   9.091  11.123  1.00  0.00    -0.203 F 
ATOM     97  F   UNL     1      -2.113  14.539  11.049  1.00  0.00    -0.200 F 
ATOM     98  C   UNL     1      -2.413  12.500  12.200  1.00  0.00     0.200 A 
ATOM     99  F   UNL     1      -2.683  10.436  13.313  1.00  0.00    -0.200 F 
ATOM    100  F   UNL     1      -2.780  13.161  13.306  1.00  0.00    -0.200 F 
ENDBRANCH  67  90
ENDBRANCH  41  42
ENDBRANCH  34  36
ENDBRANCH  33  34
ENDBRANCH  32  33
ENDBRANCH  31  32
ENDBRANCH  30  31
ENDBRANCH  29  30
ENDBRANCH   1  29
TORSDOF 23
