REMARK SMILES CC(C)(CC(=O)OCCOCCOCCOC(=O)c1ccc(-c2c3nc(c(-c4c(F)c(F)c(F)c(F)c4F)c4ccc([nH]4)c(-c4c(F)c(F)c(F)c(F)c4F)c4nc(c(-c5c(F)c(F)c(F)c(F)c5F)c5ccc2[nH]5)C=C4)C=C3)cc1)Cc1nc([C@@]2(C)CCCO2)no1
REMARK SMILES IDX 11 1 10 2 9 3 8 4 7 5 5 6 6 7 4 8 2 9 1 10 3 11 82 12 83 13
REMARK SMILES IDX 84 14 93 15 85 16 92 17 86 18 87 19 88 20 91 21 89 22 90 23
REMARK SMILES IDX 12 24 13 25 14 26 15 27 16 28 17 29 18 30 19 31 20 32 81 33
REMARK SMILES IDX 21 34 80 35 22 36 23 37 24 38 74 39 25 40 79 41 73 42 75 43
REMARK SMILES IDX 26 44 78 45 72 46 71 47 27 49 59 50 39 51 58 52 40 53 43 54
REMARK SMILES IDX 57 55 76 56 41 57 42 58 56 60 77 61 44 62 28 63 29 64 37 65
REMARK SMILES IDX 30 66 31 67 35 68 38 69 32 70 33 71 36 72 34 73 60 74 61 75
REMARK SMILES IDX 69 76 62 77 63 78 67 79 70 80 64 81 65 82 68 83 66 84 45 85
REMARK SMILES IDX 46 86 54 87 47 88 48 89 52 90 55 91 49 92 50 93 53 94 51 95
REMARK H PARENT 75 48 43 59
REMARK Flexibility Score: inf
ROOT
ATOM      1  C   UNL     1      -1.431   2.186  -2.725  1.00  0.00     0.188 C 
ENDROOT
BRANCH   1   2
ATOM      2  O   UNL     1      -1.808   3.432  -2.179  1.00  0.00    -0.376 OA
BRANCH   2   3
ATOM      3  C   UNL     1      -1.655   3.501  -0.754  1.00  0.00     0.202 C 
BRANCH   3   4
ATOM      4  C   UNL     1      -2.494   2.487   0.057  1.00  0.00     0.261 C 
BRANCH   4   5
ATOM      5  O   UNL     1      -1.825   1.203   0.155  1.00  0.00    -0.463 OA
BRANCH   5   6
ATOM      6  C   UNL     1      -2.607   0.099   0.024  1.00  0.00     0.306 C 
ATOM      7  O   UNL     1      -3.826   0.115  -0.086  1.00  0.00    -0.252 OA
BRANCH   6   8
ATOM      8  C   UNL     1      -1.824  -1.191   0.175  1.00  0.00     0.129 C 
BRANCH   8   9
ATOM      9  C   UNL     1      -0.646  -1.549  -0.777  1.00  0.00    -0.016 C 
ATOM     10  C   UNL     1       0.440  -0.461  -0.855  1.00  0.00     0.012 C 
ATOM     11  C   UNL     1       0.099  -2.730  -0.067  1.00  0.00     0.012 C 
BRANCH   9  12
ATOM     12  C   UNL     1      -1.173  -2.122  -2.146  1.00  0.00     0.107 C 
BRANCH  12  13
ATOM     13  C   UNL     1      -1.293  -1.248  -3.355  1.00  0.00     0.227 A 
ATOM     14  N   UNL     1      -2.300  -0.764  -4.082  1.00  0.00    -0.193 NA
ATOM     15  O   UNL     1      -0.104  -1.107  -3.982  1.00  0.00    -0.339 OA
ATOM     16  C   UNL     1      -1.654  -0.297  -5.235  1.00  0.00     0.203 A 
ATOM     17  N   UNL     1      -0.345  -0.505  -5.185  1.00  0.00    -0.059 NA
BRANCH  16  18
ATOM     18  C   UNL     1      -2.193   0.416  -6.476  1.00  0.00     0.128 C 
ATOM     19  C   UNL     1      -3.095  -0.505  -7.293  1.00  0.00     0.051 C 
ATOM     20  C   UNL     1      -2.859   1.770  -6.200  1.00  0.00     0.046 C 
ATOM     21  O   UNL     1      -1.093   0.738  -7.413  1.00  0.00    -0.367 OA
ATOM     22  C   UNL     1      -2.348   2.693  -7.288  1.00  0.00     0.032 C 
ATOM     23  C   UNL     1      -0.967   2.154  -7.544  1.00  0.00     0.161 C 
ENDBRANCH  16  18
ENDBRANCH  12  13
ENDBRANCH   9  12
ENDBRANCH   8   9
ENDBRANCH   6   8
ENDBRANCH   5   6
ENDBRANCH   4   5
ENDBRANCH   3   4
ENDBRANCH   2   3
ENDBRANCH   1   2
BRANCH   1  24
ATOM     24  C   UNL     1      -0.184   2.161  -3.616  1.00  0.00     0.188 C 
BRANCH  24  25
ATOM     25  O   UNL     1       1.047   2.706  -3.164  1.00  0.00    -0.376 OA
BRANCH  25  26
ATOM     26  C   UNL     1       2.077   2.508  -4.180  1.00  0.00     0.202 C 
BRANCH  26  27
ATOM     27  C   UNL     1       2.743   1.100  -4.208  1.00  0.00     0.261 C 
BRANCH  27  28
ATOM     28  O   UNL     1       2.228   0.204  -5.239  1.00  0.00    -0.460 OA
BRANCH  28  29
ATOM     29  C   UNL     1       2.756  -1.068  -5.196  1.00  0.00     0.338 C 
ATOM     30  O   UNL     1       3.738  -1.379  -4.548  1.00  0.00    -0.246 OA
BRANCH  29  31
ATOM     31  C   UNL     1       1.888  -2.133  -5.833  1.00  0.00     0.060 A 
ATOM     32  C   UNL     1       1.650  -3.295  -5.074  1.00  0.00     0.016 A 
ATOM     33  C   UNL     1       1.212  -2.000  -7.053  1.00  0.00     0.016 A 
ATOM     34  C   UNL     1       0.728  -4.277  -5.493  1.00  0.00     0.010 A 
ATOM     35  C   UNL     1       0.293  -2.996  -7.481  1.00  0.00     0.010 A 
ATOM     36  C   UNL     1       0.040  -4.151  -6.711  1.00  0.00    -0.014 A 
BRANCH  36  37
ATOM     37  C   UNL     1      -0.679  -5.344  -7.285  1.00  0.00     0.031 A 
ATOM     38  C   UNL     1       0.155  -6.328  -8.075  1.00  0.00     0.074 A 
ATOM     39  C   UNL     1      -1.985  -5.645  -7.106  1.00  0.00     0.049 A 
ATOM     40  N   UNL     1      -0.190  -7.455  -8.650  1.00  0.00    -0.248 NA
ATOM     41  C   UNL     1       1.580  -5.994  -8.214  1.00  0.00     0.031 C 
ATOM     42  C   UNL     1      -2.951  -4.880  -6.324  1.00  0.00     0.029 A 
ATOM     43  N   UNL     1      -2.725  -6.715  -7.583  1.00  0.00    -0.354 N 
ATOM     44  C   UNL     1       0.977  -7.967  -9.201  1.00  0.00     0.074 A 
ATOM     45  C   UNL     1       2.033  -7.021  -8.912  1.00  0.00     0.031 C 
ATOM     46  C   UNL     1      -4.149  -5.502  -6.373  1.00  0.00     0.029 A 
ATOM     47  C   UNL     1      -4.051  -6.703  -7.210  1.00  0.00     0.049 A 
ATOM     48  H   UNL     1      -2.335  -7.426  -8.142  1.00  0.00     0.167 HD
ATOM     49  C   UNL     1       1.177  -9.117  -9.887  1.00  0.00     0.037 A 
ATOM     50  C   UNL     1      -5.067  -7.546  -7.513  1.00  0.00     0.037 A 
ATOM     51  C   UNL     1       0.168 -10.072 -10.243  1.00  0.00     0.049 A 
ATOM     52  C   UNL     1      -4.847  -8.755  -8.406  1.00  0.00     0.074 A 
ATOM     53  C   UNL     1       0.309 -11.232 -10.985  1.00  0.00     0.029 A 
ATOM     54  N   UNL     1      -1.167  -9.974  -9.900  1.00  0.00    -0.354 N 
ATOM     55  N   UNL     1      -3.733  -9.238  -8.896  1.00  0.00    -0.248 NA
ATOM     56  C   UNL     1      -6.042  -9.534  -8.792  1.00  0.00     0.031 C 
ATOM     57  C   UNL     1      -0.953 -11.819 -11.127  1.00  0.00     0.029 A 
ATOM     58  C   UNL     1      -1.867 -11.042 -10.437  1.00  0.00     0.049 A 
ATOM     59  H   UNL     1      -1.561  -9.254  -9.356  1.00  0.00     0.167 HD
ATOM     60  C   UNL     1      -4.087 -10.387  -9.601  1.00  0.00     0.074 A 
ATOM     61  C   UNL     1      -5.517 -10.538  -9.482  1.00  0.00     0.031 C 
ATOM     62  C   UNL     1      -3.284 -11.237 -10.285  1.00  0.00     0.037 A 
BRANCH  49  63
ATOM     63  C   UNL     1       2.576  -9.380 -10.340  1.00  0.00     0.064 A 
ATOM     64  C   UNL     1       3.553  -9.842  -9.447  1.00  0.00     0.173 A 
ATOM     65  C   UNL     1       2.943  -9.150 -11.673  1.00  0.00     0.173 A 
ATOM     66  F   UNL     1       3.245 -10.051  -8.158  1.00  0.00    -0.203 F 
ATOM     67  C   UNL     1       4.862 -10.041  -9.871  1.00  0.00     0.198 A 
ATOM     68  C   UNL     1       4.248  -9.371 -12.097  1.00  0.00     0.198 A 
ATOM     69  F   UNL     1       2.037  -8.704 -12.556  1.00  0.00    -0.203 F 
ATOM     70  F   UNL     1       5.795 -10.437  -8.994  1.00  0.00    -0.200 F 
ATOM     71  C   UNL     1       5.207  -9.808 -11.194  1.00  0.00     0.200 A 
ATOM     72  F   UNL     1       4.581  -9.147 -13.375  1.00  0.00    -0.200 F 
ATOM     73  F   UNL     1       6.471  -9.993 -11.599  1.00  0.00    -0.200 F 
ENDBRANCH  49  63
BRANCH  50  74
ATOM     74  C   UNL     1      -6.448  -7.304  -7.001  1.00  0.00     0.064 A 
ATOM     75  C   UNL     1      -7.048  -8.194  -6.095  1.00  0.00     0.173 A 
ATOM     76  C   UNL     1      -7.242  -6.271  -7.518  1.00  0.00     0.173 A 
ATOM     77  F   UNL     1      -6.348  -9.232  -5.614  1.00  0.00    -0.203 F 
ATOM     78  C   UNL     1      -8.394  -8.074  -5.748  1.00  0.00     0.198 A 
ATOM     79  C   UNL     1      -8.582  -6.138  -7.152  1.00  0.00     0.198 A 
ATOM     80  F   UNL     1      -6.730  -5.413  -8.412  1.00  0.00    -0.203 F 
ATOM     81  F   UNL     1      -8.960  -8.982  -4.940  1.00  0.00    -0.200 F 
ATOM     82  C   UNL     1      -9.160  -7.046  -6.277  1.00  0.00     0.200 A 
ATOM     83  F   UNL     1      -9.322  -5.151  -7.674  1.00  0.00    -0.200 F 
ATOM     84  F   UNL     1     -10.460  -6.948  -5.966  1.00  0.00    -0.200 F 
ENDBRANCH  50  74
BRANCH  62  85
ATOM     85  C   UNL     1      -3.886 -12.458 -10.921  1.00  0.00     0.064 A 
ATOM     86  C   UNL     1      -4.629 -12.384 -12.107  1.00  0.00     0.173 A 
ATOM     87  C   UNL     1      -3.612 -13.733 -10.399  1.00  0.00     0.173 A 
ATOM     88  F   UNL     1      -4.926 -11.191 -12.643  1.00  0.00    -0.203 F 
ATOM     89  C   UNL     1      -5.075 -13.540 -12.748  1.00  0.00     0.198 A 
ATOM     90  C   UNL     1      -4.042 -14.886 -11.052  1.00  0.00     0.198 A 
ATOM     91  F   UNL     1      -2.898 -13.862  -9.271  1.00  0.00    -0.203 F 
ATOM     92  F   UNL     1      -5.793 -13.444 -13.875  1.00  0.00    -0.200 F 
ATOM     93  C   UNL     1      -4.771 -14.789 -12.227  1.00  0.00     0.200 A 
ATOM     94  F   UNL     1      -3.734 -16.092 -10.554  1.00  0.00    -0.200 F 
ATOM     95  F   UNL     1      -5.179 -15.899 -12.858  1.00  0.00    -0.200 F 
ENDBRANCH  62  85
ENDBRANCH  36  37
ENDBRANCH  29  31
ENDBRANCH  28  29
ENDBRANCH  27  28
ENDBRANCH  26  27
ENDBRANCH  25  26
ENDBRANCH  24  25
ENDBRANCH   1  24
TORSDOF 21
