REMARK SMILES Cc1cccc2[nH]cc(C[C@H](NC(=O)OC(C)(C)C)C(=O)OCCOCCOCCOC(=O)c3ccc(-c4c5nc(c(-c6c(F)c(F)c(F)c(F)c6F)c6ccc([nH]6)c(-c6c(F)c(F)c(F)c(F)c6F)c6nc(c(-c7c(F)c(F)c(F)c(F)c7F)c7ccc4[nH]7)C=C6)C=C5)cc3)c12
REMARK SMILES IDX 26 1 25 2 24 3 23 4 22 5 20 6 21 7 11 8 10 9 9 10 1 11 2 12
REMARK SMILES IDX 3 13 97 14 4 15 6 16 5 17 7 18 8 19 12 21 13 22 14 24 15 25
REMARK SMILES IDX 16 26 17 27 18 28 19 29 27 30 28 31 29 32 30 33 31 34 32 35
REMARK SMILES IDX 33 36 34 37 35 38 96 39 36 40 95 41 37 42 38 43 39 44 89 45
REMARK SMILES IDX 40 46 94 47 88 48 90 49 41 50 93 51 87 52 86 53 42 55 74 56
REMARK SMILES IDX 54 57 73 58 55 59 58 60 72 61 91 62 56 63 57 64 71 66 92 67
REMARK SMILES IDX 59 68 43 69 44 70 52 71 45 72 46 73 50 74 53 75 47 76 48 77
REMARK SMILES IDX 51 78 49 79 75 80 76 81 84 82 77 83 78 84 82 85 85 86 79 87
REMARK SMILES IDX 80 88 83 89 81 90 60 91 61 92 69 93 62 94 63 95 67 96 70 97
REMARK SMILES IDX 64 98 65 99 68 100 66 101
REMARK H PARENT 7 20 12 23 90 54 58 65
REMARK Flexibility Score: inf
ROOT
ATOM      1  C   UNL     1       0.435  -5.646   2.169  1.00  0.00     0.188 C 
ENDROOT
BRANCH   1   2
ATOM      2  O   UNL     1      -0.048  -6.864   2.717  1.00  0.00    -0.376 OA
BRANCH   2   3
ATOM      3  C   UNL     1      -1.448  -6.968   2.950  1.00  0.00     0.202 C 
BRANCH   3   4
ATOM      4  C   UNL     1      -2.068  -5.984   3.963  1.00  0.00     0.261 C 
BRANCH   4   5
ATOM      5  O   UNL     1      -2.109  -4.588   3.538  1.00  0.00    -0.462 OA
BRANCH   5   6
ATOM      6  C   UNL     1      -1.230  -3.747   4.156  1.00  0.00     0.329 C 
ATOM      7  O   UNL     1      -0.410  -4.137   4.986  1.00  0.00    -0.250 OA
BRANCH   6   8
ATOM      8  C   UNL     1      -1.359  -2.238   3.792  1.00  0.00     0.200 C 
BRANCH   8   9
ATOM      9  C   UNL     1      -1.788  -1.595   5.130  1.00  0.00     0.075 C 
BRANCH   9  10
ATOM     10  C   UNL     1      -1.099  -0.321   5.495  1.00  0.00    -0.020 A 
ATOM     11  C   UNL     1      -4.040   0.936   4.569  1.00  0.00     0.045 C 
ATOM     12  C   UNL     1      -2.936   1.585   5.358  1.00  0.00    -0.041 A 
ATOM     13  C   UNL     1      -3.187   2.880   5.860  1.00  0.00     0.004 A 
ATOM     14  C   UNL     1      -1.677   0.989   5.651  1.00  0.00     0.006 A 
ATOM     15  C   UNL     1      -2.232   3.587   6.582  1.00  0.00     0.002 A 
ATOM     16  C   UNL     1      -0.721   1.756   6.327  1.00  0.00     0.046 A 
ATOM     17  C   UNL     1      -0.971   3.044   6.809  1.00  0.00     0.027 A 
ATOM     18  N   UNL     1       0.427   1.005   6.423  1.00  0.00    -0.361 N 
ATOM     19  C   UNL     1       0.212  -0.248   5.929  1.00  0.00     0.087 A 
ATOM     20  H   UNL     1       1.280   1.326   6.794  1.00  0.00     0.166 HD
ENDBRANCH   9  10
ENDBRANCH   8   9
BRANCH   8  21
ATOM     21  N   UNL     1      -2.299  -1.791   2.735  1.00  0.00    -0.308 N 
ATOM     22  C   UNL     1      -2.097  -1.257   1.498  1.00  0.00     0.408 C 
ATOM     23  H   UNL     1      -3.248  -1.901   2.972  1.00  0.00     0.168 HD
ATOM     24  O   UNL     1      -3.059  -0.849   0.836  1.00  0.00    -0.225 OA
BRANCH  22  25
ATOM     25  O   UNL     1      -0.840  -1.305   1.043  1.00  0.00    -0.444 OA
BRANCH  25  26
ATOM     26  C   UNL     1      -0.600  -1.678  -0.340  1.00  0.00     0.106 C 
ATOM     27  C   UNL     1      -1.692  -2.597  -0.947  1.00  0.00     0.056 C 
ATOM     28  C   UNL     1      -0.351  -0.558  -1.361  1.00  0.00     0.056 C 
ATOM     29  C   UNL     1       0.750  -2.339  -0.176  1.00  0.00     0.056 C 
ENDBRANCH  25  26
ENDBRANCH  22  25
ENDBRANCH   8  21
ENDBRANCH   6   8
ENDBRANCH   5   6
ENDBRANCH   4   5
ENDBRANCH   3   4
ENDBRANCH   2   3
ENDBRANCH   1   2
BRANCH   1  30
ATOM     30  C   UNL     1      -0.512  -4.931   1.214  1.00  0.00     0.188 C 
BRANCH  30  31
ATOM     31  O   UNL     1       0.008  -5.037  -0.100  1.00  0.00    -0.376 OA
BRANCH  31  32
ATOM     32  C   UNL     1      -0.662  -5.990  -0.905  1.00  0.00     0.202 C 
BRANCH  32  33
ATOM     33  C   UNL     1       0.075  -6.088  -2.230  1.00  0.00     0.261 C 
BRANCH  33  34
ATOM     34  O   UNL     1       0.288  -4.811  -2.849  1.00  0.00    -0.460 OA
BRANCH  34  35
ATOM     35  C   UNL     1       1.420  -4.070  -2.817  1.00  0.00     0.338 C 
ATOM     36  O   UNL     1       1.472  -3.050  -3.503  1.00  0.00    -0.246 OA
BRANCH  35  37
ATOM     37  C   UNL     1       2.608  -4.463  -1.905  1.00  0.00     0.060 A 
ATOM     38  C   UNL     1       3.381  -3.327  -1.595  1.00  0.00     0.016 A 
ATOM     39  C   UNL     1       3.310  -5.499  -2.505  1.00  0.00     0.016 A 
ATOM     40  C   UNL     1       4.284  -2.900  -2.530  1.00  0.00     0.010 A 
ATOM     41  C   UNL     1       4.252  -5.147  -3.440  1.00  0.00     0.010 A 
ATOM     42  C   UNL     1       4.573  -3.797  -3.546  1.00  0.00    -0.014 A 
BRANCH  42  43
ATOM     43  C   UNL     1       5.292  -3.291  -4.682  1.00  0.00     0.031 A 
ATOM     44  C   UNL     1       6.649  -2.856  -4.305  1.00  0.00     0.074 A 
ATOM     45  C   UNL     1       4.711  -3.301  -5.893  1.00  0.00     0.049 A 
ATOM     46  N   UNL     1       7.161  -1.673  -4.380  1.00  0.00    -0.248 NA
ATOM     47  C   UNL     1       7.434  -3.807  -3.494  1.00  0.00     0.031 C 
ATOM     48  C   UNL     1       3.421  -3.880  -6.282  1.00  0.00     0.029 A 
ATOM     49  N   UNL     1       5.253  -2.927  -7.080  1.00  0.00    -0.354 N 
ATOM     50  C   UNL     1       8.418  -1.798  -3.806  1.00  0.00     0.074 A 
ATOM     51  C   UNL     1       8.419  -3.026  -3.060  1.00  0.00     0.031 C 
ATOM     52  C   UNL     1       3.405  -4.073  -7.618  1.00  0.00     0.029 A 
ATOM     53  C   UNL     1       4.630  -3.534  -8.170  1.00  0.00     0.049 A 
ATOM     54  H   UNL     1       6.004  -2.296  -7.163  1.00  0.00     0.167 HD
ATOM     55  C   UNL     1       9.469  -1.069  -4.259  1.00  0.00     0.037 A 
ATOM     56  C   UNL     1       5.258  -3.727  -9.355  1.00  0.00     0.037 A 
ATOM     57  C   UNL     1       9.035   0.116  -4.949  1.00  0.00     0.049 A 
ATOM     58  C   UNL     1       6.400  -2.758  -9.384  1.00  0.00     0.074 A 
ATOM     59  C   UNL     1       8.307   1.226  -4.564  1.00  0.00     0.029 A 
ATOM     60  N   UNL     1       8.970   0.078  -6.322  1.00  0.00    -0.354 N 
ATOM     61  N   UNL     1       6.242  -1.459  -9.410  1.00  0.00    -0.248 NA
ATOM     62  C   UNL     1       7.681  -3.217  -8.854  1.00  0.00     0.031 C 
ATOM     63  C   UNL     1       7.462   1.520  -5.673  1.00  0.00     0.029 A 
ATOM     64  C   UNL     1       7.764   0.622  -6.696  1.00  0.00     0.049 A 
ATOM     65  H   UNL     1       9.661  -0.274  -6.928  1.00  0.00     0.167 HD
ATOM     66  C   UNL     1       7.206  -0.965  -8.535  1.00  0.00     0.074 A 
ATOM     67  C   UNL     1       8.095  -2.091  -8.265  1.00  0.00     0.031 C 
ATOM     68  C   UNL     1       7.036   0.221  -7.878  1.00  0.00     0.037 A 
BRANCH  55  69
ATOM     69  C   UNL     1      10.839  -1.667  -4.395  1.00  0.00     0.064 A 
ATOM     70  C   UNL     1      11.944  -0.828  -4.596  1.00  0.00     0.173 A 
ATOM     71  C   UNL     1      11.075  -3.050  -4.587  1.00  0.00     0.173 A 
ATOM     72  F   UNL     1      11.818   0.502  -4.483  1.00  0.00    -0.203 F 
ATOM     73  C   UNL     1      13.184  -1.337  -4.993  1.00  0.00     0.198 A 
ATOM     74  C   UNL     1      12.325  -3.559  -4.912  1.00  0.00     0.198 A 
ATOM     75  F   UNL     1      10.088  -3.955  -4.580  1.00  0.00    -0.203 F 
ATOM     76  F   UNL     1      14.184  -0.495  -5.283  1.00  0.00    -0.200 F 
ATOM     77  C   UNL     1      13.374  -2.701  -5.145  1.00  0.00     0.200 A 
ATOM     78  F   UNL     1      12.475  -4.882  -5.073  1.00  0.00    -0.200 F 
ATOM     79  F   UNL     1      14.548  -3.185  -5.567  1.00  0.00    -0.200 F 
ENDBRANCH  55  69
BRANCH  56  80
ATOM     80  C   UNL     1       5.210  -4.968 -10.168  1.00  0.00     0.064 A 
ATOM     81  C   UNL     1       5.673  -4.975 -11.491  1.00  0.00     0.173 A 
ATOM     82  C   UNL     1       4.935  -6.230  -9.597  1.00  0.00     0.173 A 
ATOM     83  F   UNL     1       6.006  -3.824 -12.092  1.00  0.00    -0.203 F 
ATOM     84  C   UNL     1       5.861  -6.171 -12.195  1.00  0.00     0.198 A 
ATOM     85  C   UNL     1       5.109  -7.419 -10.303  1.00  0.00     0.198 A 
ATOM     86  F   UNL     1       4.578  -6.350  -8.310  1.00  0.00    -0.203 F 
ATOM     87  F   UNL     1       6.359  -6.142 -13.439  1.00  0.00    -0.200 F 
ATOM     88  C   UNL     1       5.584  -7.391 -11.599  1.00  0.00     0.200 A 
ATOM     89  F   UNL     1       4.869  -8.592  -9.699  1.00  0.00    -0.200 F 
ATOM     90  F   UNL     1       5.813  -8.537 -12.255  1.00  0.00    -0.200 F 
ENDBRANCH  56  80
BRANCH  68  91
ATOM     91  C   UNL     1       5.854   1.073  -8.258  1.00  0.00     0.064 A 
ATOM     92  C   UNL     1       4.518   0.685  -8.050  1.00  0.00     0.173 A 
ATOM     93  C   UNL     1       6.083   2.390  -8.672  1.00  0.00     0.173 A 
ATOM     94  F   UNL     1       4.225  -0.523  -7.556  1.00  0.00    -0.203 F 
ATOM     95  C   UNL     1       3.462   1.565  -8.284  1.00  0.00     0.198 A 
ATOM     96  C   UNL     1       5.029   3.279  -8.870  1.00  0.00     0.198 A 
ATOM     97  F   UNL     1       7.340   2.835  -8.828  1.00  0.00    -0.203 F 
ATOM     98  F   UNL     1       2.197   1.167  -8.082  1.00  0.00    -0.200 F 
ATOM     99  C   UNL     1       3.720   2.865  -8.685  1.00  0.00     0.200 A 
ATOM    100  F   UNL     1       5.286   4.549  -9.209  1.00  0.00    -0.200 F 
ATOM    101  F   UNL     1       2.710   3.727  -8.864  1.00  0.00    -0.200 F 
ENDBRANCH  68  91
ENDBRANCH  42  43
ENDBRANCH  35  37
ENDBRANCH  34  35
ENDBRANCH  33  34
ENDBRANCH  32  33
ENDBRANCH  31  32
ENDBRANCH  30  31
ENDBRANCH   1  30
TORSDOF 22
