REMARK SMILES CCCCCCNC(=O)Oc1cccc(-c2ccc([C@@H](C)C(=O)OCCOCCOCCOC(=O)c3ccc(-c4c5nc(c(-c6c(F)c(F)c(F)c(F)c6F)c6ccc([nH]6)c(-c6c(F)c(F)c(F)c(F)c6F)c6nc(c(-c7c(F)c(F)c(F)c(F)c7F)c7ccc4[nH]7)C=C6)C=C5)cc3)cc2[N+](=O)[O-])c1
REMARK SMILES IDX 25 1 24 2 22 3 23 4 20 5 21 6 19 7 16 8 17 9 100 10 18 11
REMARK SMILES IDX 99 12 15 13 11 14 12 15 104 16 13 17 14 18 10 19 8 20 7 21
REMARK SMILES IDX 9 23 6 24 5 25 4 26 3 27 2 28 1 29 101 30 102 31 103 32
REMARK SMILES IDX 26 33 27 34 28 35 29 36 30 37 31 38 32 39 33 40 34 41 35 42
REMARK SMILES IDX 36 43 37 44 98 45 38 46 97 47 39 48 40 49 41 50 91 51 42 52
REMARK SMILES IDX 96 53 90 54 92 55 43 56 95 57 89 58 88 59 44 61 76 62 56 63
REMARK SMILES IDX 75 64 57 65 60 66 74 67 93 68 58 69 59 70 73 72 94 73 61 74
REMARK SMILES IDX 45 75 46 76 54 77 47 78 48 79 52 80 55 81 49 82 50 83 53 84
REMARK SMILES IDX 51 85 77 86 78 87 86 88 79 89 80 90 84 91 87 92 81 93 82 94
REMARK SMILES IDX 85 95 83 96 62 97 63 98 71 99 64 100 65 101 69 102 72 103
REMARK SMILES IDX 66 104 67 105 70 106 68 107
REMARK H PARENT 7 22 92 60 60 71
REMARK Flexibility Score: inf
ROOT
ATOM      1  C   UNL     1      -2.267  -9.263  13.164  1.00  0.00     0.261 C 
ENDROOT
BRANCH   1   2
ATOM      2  O   UNL     1      -3.223  -8.475  12.419  1.00  0.00    -0.463 OA
BRANCH   2   3
ATOM      3  C   UNL     1      -3.930  -7.562  13.130  1.00  0.00     0.313 C 
ATOM      4  O   UNL     1      -3.819  -7.419  14.347  1.00  0.00    -0.252 OA
BRANCH   3   5
ATOM      5  C   UNL     1      -4.901  -6.689  12.336  1.00  0.00     0.126 C 
ATOM      6  C   UNL     1      -6.318  -6.941  12.851  1.00  0.00     0.025 C 
BRANCH   5   7
ATOM      7  C   UNL     1      -4.891  -6.658  10.807  1.00  0.00    -0.027 A 
ATOM      8  C   UNL     1      -4.955  -6.463   7.923  1.00  0.00     0.060 A 
ATOM      9  C   UNL     1      -5.058  -7.698   8.598  1.00  0.00     0.016 A 
ATOM     10  C   UNL     1      -4.837  -5.326   8.740  1.00  0.00     0.277 A 
ATOM     11  C   UNL     1      -5.045  -7.795  10.006  1.00  0.00     0.006 A 
ATOM     12  C   UNL     1      -4.795  -5.416  10.150  1.00  0.00     0.091 A 
BRANCH   8  13
ATOM     13  C   UNL     1      -5.023  -6.427   6.444  1.00  0.00    -0.008 A 
ATOM     14  C   UNL     1      -4.146  -5.791   4.267  1.00  0.00     0.133 A 
ATOM     15  C   UNL     1      -5.305  -6.236   3.636  1.00  0.00     0.047 A 
ATOM     16  C   UNL     1      -3.988  -5.889   5.655  1.00  0.00     0.056 A 
ATOM     17  C   UNL     1      -6.322  -6.799   4.399  1.00  0.00     0.004 A 
ATOM     18  C   UNL     1      -6.183  -6.886   5.788  1.00  0.00     0.009 A 
BRANCH  14  19
ATOM     19  O   UNL     1      -3.234  -5.081   3.462  1.00  0.00    -0.410 OA
BRANCH  19  20
ATOM     20  C   UNL     1      -1.894  -5.438   3.468  1.00  0.00     0.412 C 
ATOM     21  N   UNL     1      -1.117  -4.613   2.696  1.00  0.00    -0.321 N 
ATOM     22  H   UNL     1      -0.147  -4.785   2.708  1.00  0.00     0.167 HD
ATOM     23  O   UNL     1      -1.410  -6.391   4.063  1.00  0.00    -0.224 OA
BRANCH  21  24
ATOM     24  C   UNL     1      -1.568  -3.514   1.861  1.00  0.00     0.119 C 
BRANCH  24  25
ATOM     25  C   UNL     1      -0.960  -2.172   2.272  1.00  0.00     0.021 C 
BRANCH  25  26
ATOM     26  C   UNL     1       0.567  -2.083   2.158  1.00  0.00     0.002 C 
BRANCH  26  27
ATOM     27  C   UNL     1       1.146  -2.326   0.759  1.00  0.00    -0.000 C 
BRANCH  27  28
ATOM     28  C   UNL     1       0.671  -1.362  -0.331  1.00  0.00    -0.003 C 
ATOM     29  C   UNL     1       1.075   0.083  -0.080  1.00  0.00     0.004 C 
ENDBRANCH  27  28
ENDBRANCH  26  27
ENDBRANCH  25  26
ENDBRANCH  24  25
ENDBRANCH  21  24
ENDBRANCH  19  20
ENDBRANCH  14  19
ENDBRANCH   8  13
BRANCH  10  30
ATOM     30  N   UNL     1      -4.806  -3.979   8.173  1.00  0.00     0.063 N 
ATOM     31  O   UNL     1      -3.941  -3.209   8.618  1.00  0.00    -0.258 OA
ATOM     32  O   UNL     1      -5.672  -3.672   7.345  1.00  0.00    -0.258 OA
ENDBRANCH  10  30
ENDBRANCH   5   7
ENDBRANCH   3   5
ENDBRANCH   2   3
ENDBRANCH   1   2
BRANCH   1  33
ATOM     33  C   UNL     1      -0.824  -9.171  12.653  1.00  0.00     0.202 C 
BRANCH  33  34
ATOM     34  O   UNL     1      -0.224  -7.882  12.640  1.00  0.00    -0.376 OA
BRANCH  34  35
ATOM     35  C   UNL     1      -0.773  -6.861  11.816  1.00  0.00     0.188 C 
BRANCH  35  36
ATOM     36  C   UNL     1      -1.438  -7.229  10.483  1.00  0.00     0.188 C 
BRANCH  36  37
ATOM     37  O   UNL     1      -1.020  -8.469   9.948  1.00  0.00    -0.376 OA
BRANCH  37  38
ATOM     38  C   UNL     1      -0.646  -8.451   8.581  1.00  0.00     0.202 C 
BRANCH  38  39
ATOM     39  C   UNL     1       0.798  -7.966   8.419  1.00  0.00     0.261 C 
BRANCH  39  40
ATOM     40  O   UNL     1       1.040  -6.638   8.922  1.00  0.00    -0.460 OA
BRANCH  40  41
ATOM     41  C   UNL     1       0.402  -5.634   8.280  1.00  0.00     0.338 C 
ATOM     42  O   UNL     1      -0.318  -5.726   7.303  1.00  0.00    -0.246 OA
BRANCH  41  43
ATOM     43  C   UNL     1       0.518  -4.404   9.089  1.00  0.00     0.060 A 
ATOM     44  C   UNL     1      -0.654  -3.695   9.378  1.00  0.00     0.016 A 
ATOM     45  C   UNL     1       1.754  -3.930   9.530  1.00  0.00     0.016 A 
ATOM     46  C   UNL     1      -0.595  -2.479  10.055  1.00  0.00     0.010 A 
ATOM     47  C   UNL     1       1.818  -2.702  10.196  1.00  0.00     0.010 A 
ATOM     48  C   UNL     1       0.649  -1.951  10.421  1.00  0.00    -0.014 A 
BRANCH  48  49
ATOM     49  C   UNL     1       0.746  -0.525  10.816  1.00  0.00     0.031 A 
ATOM     50  C   UNL     1       1.112   0.478   9.754  1.00  0.00     0.074 A 
ATOM     51  C   UNL     1       0.490  -0.116  12.070  1.00  0.00     0.049 A 
ATOM     52  N   UNL     1       1.318   1.766   9.857  1.00  0.00    -0.248 NA
ATOM     53  C   UNL     1       1.271  -0.049   8.388  1.00  0.00     0.031 C 
ATOM     54  C   UNL     1       0.078  -0.977  13.175  1.00  0.00     0.029 A 
ATOM     55  N   UNL     1       0.549   1.140  12.623  1.00  0.00    -0.354 N 
ATOM     56  C   UNL     1       1.639   2.198   8.576  1.00  0.00     0.074 A 
ATOM     57  C   UNL     1       1.631   1.034   7.718  1.00  0.00     0.031 C 
ATOM     58  C   UNL     1      -0.065  -0.225  14.282  1.00  0.00     0.029 A 
ATOM     59  C   UNL     1       0.275   1.162  13.968  1.00  0.00     0.049 A 
ATOM     60  H   UNL     1       0.768   1.948  12.104  1.00  0.00     0.167 HD
ATOM     61  C   UNL     1       1.908   3.454   8.151  1.00  0.00     0.037 A 
ATOM     62  C   UNL     1       0.318   2.185  14.845  1.00  0.00     0.037 A 
ATOM     63  C   UNL     1       1.907   4.615   9.000  1.00  0.00     0.049 A 
ATOM     64  C   UNL     1       0.688   3.566  14.358  1.00  0.00     0.074 A 
ATOM     65  C   UNL     1       2.156   5.933   8.661  1.00  0.00     0.029 A 
ATOM     66  N   UNL     1       1.647   4.593  10.362  1.00  0.00    -0.354 N 
ATOM     67  N   UNL     1       0.973   3.970  13.144  1.00  0.00    -0.248 NA
ATOM     68  C   UNL     1       0.737   4.634  15.368  1.00  0.00     0.031 C 
ATOM     69  C   UNL     1       2.095   6.703   9.826  1.00  0.00     0.029 A 
ATOM     70  C   UNL     1       1.752   5.873  10.882  1.00  0.00     0.049 A 
ATOM     71  H   UNL     1       1.422   3.788  10.882  1.00  0.00     0.167 HD
ATOM     72  C   UNL     1       1.200   5.338  13.238  1.00  0.00     0.074 A 
ATOM     73  C   UNL     1       1.007   5.698  14.627  1.00  0.00     0.031 C 
ATOM     74  C   UNL     1       1.539   6.219  12.264  1.00  0.00     0.037 A 
BRANCH  61  75
ATOM     75  C   UNL     1       2.252   3.636   6.702  1.00  0.00     0.064 A 
ATOM     76  C   UNL     1       1.286   3.513   5.692  1.00  0.00     0.173 A 
ATOM     77  C   UNL     1       3.561   3.969   6.323  1.00  0.00     0.173 A 
ATOM     78  F   UNL     1       0.024   3.177   6.001  1.00  0.00    -0.203 F 
ATOM     79  C   UNL     1       1.623   3.696   4.354  1.00  0.00     0.198 A 
ATOM     80  C   UNL     1       3.887   4.182   4.987  1.00  0.00     0.198 A 
ATOM     81  F   UNL     1       4.522   4.098   7.250  1.00  0.00    -0.203 F 
ATOM     82  F   UNL     1       0.695   3.529   3.401  1.00  0.00    -0.200 F 
ATOM     83  C   UNL     1       2.921   4.039   4.003  1.00  0.00     0.200 A 
ATOM     84  F   UNL     1       5.139   4.523   4.651  1.00  0.00    -0.200 F 
ATOM     85  F   UNL     1       3.241   4.225   2.715  1.00  0.00    -0.200 F 
ENDBRANCH  61  75
BRANCH  62  86
ATOM     86  C   UNL     1       0.022   1.953  16.284  1.00  0.00     0.064 A 
ATOM     87  C   UNL     1      -1.109   2.516  16.892  1.00  0.00     0.173 A 
ATOM     88  C   UNL     1       0.893   1.209  17.094  1.00  0.00     0.173 A 
ATOM     89  F   UNL     1      -1.956   3.263  16.168  1.00  0.00    -0.203 F 
ATOM     90  C   UNL     1      -1.343   2.366  18.258  1.00  0.00     0.198 A 
ATOM     91  C   UNL     1       0.641   1.034  18.453  1.00  0.00     0.198 A 
ATOM     92  F   UNL     1       1.994   0.655  16.565  1.00  0.00    -0.203 F 
ATOM     93  F   UNL     1      -2.399   2.967  18.824  1.00  0.00    -0.200 F 
ATOM     94  C   UNL     1      -0.470   1.622  19.036  1.00  0.00     0.200 A 
ATOM     95  F   UNL     1       1.484   0.308  19.200  1.00  0.00    -0.200 F 
ATOM     96  F   UNL     1      -0.692   1.484  20.351  1.00  0.00    -0.200 F 
ENDBRANCH  62  86
BRANCH  74  97
ATOM     97  C   UNL     1       1.673   7.664  12.650  1.00  0.00     0.064 A 
ATOM     98  C   UNL     1       2.744   8.126  13.428  1.00  0.00     0.173 A 
ATOM     99  C   UNL     1       0.737   8.607  12.197  1.00  0.00     0.173 A 
ATOM    100  F   UNL     1       3.660   7.264  13.895  1.00  0.00    -0.203 F 
ATOM    101  C   UNL     1       2.857   9.473  13.763  1.00  0.00     0.198 A 
ATOM    102  C   UNL     1       0.870   9.958  12.507  1.00  0.00     0.198 A 
ATOM    103  F   UNL     1      -0.302   8.221  11.441  1.00  0.00    -0.203 F 
ATOM    104  F   UNL     1       3.862   9.884  14.549  1.00  0.00    -0.200 F 
ATOM    105  C   UNL     1       1.925  10.389  13.296  1.00  0.00     0.200 A 
ATOM    106  F   UNL     1      -0.022  10.843  12.041  1.00  0.00    -0.200 F 
ATOM    107  F   UNL     1       2.040  11.685  13.614  1.00  0.00    -0.200 F 
ENDBRANCH  74  97
ENDBRANCH  48  49
ENDBRANCH  41  43
ENDBRANCH  40  41
ENDBRANCH  39  40
ENDBRANCH  38  39
ENDBRANCH  37  38
ENDBRANCH  36  37
ENDBRANCH  35  36
ENDBRANCH  34  35
ENDBRANCH  33  34
ENDBRANCH   1  33
TORSDOF 27
