REMARK SMILES O=C(OCCOCCOCCOC(=O)[C@@H](c1ccsc1)[NH+]1CCC(Oc2cccnc2)CC1)c1ccc(-c2c3nc(c(-c4c(F)c(F)c(F)c(F)c4F)c4ccc([nH]4)c(-c4c(F)c(F)c(F)c(F)c4F)c4nc(c(-c5c(F)c(F)c(F)c(F)c5F)c5ccc2[nH]5)C=C4)C=C3)cc1
REMARK SMILES IDX 8 1 7 2 6 3 5 4 4 5 3 6 2 7 1 8 34 9 35 10 96 11 36 12 95 13
REMARK SMILES IDX 37 14 38 15 39 16 89 17 40 18 94 19 88 20 90 21 41 22 93 23
REMARK SMILES IDX 87 24 86 25 42 27 74 28 54 29 73 30 55 31 58 32 72 33 91 34
REMARK SMILES IDX 56 35 57 36 71 38 92 39 59 40 43 41 44 42 52 43 45 44 46 45
REMARK SMILES IDX 50 46 53 47 47 48 48 49 51 50 49 51 75 52 76 53 84 54 77 55
REMARK SMILES IDX 78 56 82 57 85 58 79 59 80 60 83 61 81 62 60 63 61 64 69 65
REMARK SMILES IDX 62 66 63 67 67 68 70 69 64 70 65 71 68 72 66 73 9 74 10 75
REMARK SMILES IDX 11 76 12 77 13 78 14 79 15 80 16 81 17 82 20 83 18 84 19 85
REMARK SMILES IDX 21 86 22 87 33 88 23 90 32 91 24 92 25 93 26 94 27 95 31 96
REMARK SMILES IDX 28 97 30 98 29 99
REMARK H PARENT 90 26 58 37 21 89
REMARK Flexibility Score: inf
ROOT
ATOM      1  C   UNL     1       1.821   1.360   2.327  1.00  0.00     0.188 C 
ENDROOT
BRANCH   1   2
ATOM      2  C   UNL     1       2.526   1.281   0.970  1.00  0.00     0.188 C 
BRANCH   2   3
ATOM      3  O   UNL     1       3.886   0.830   1.046  1.00  0.00    -0.376 OA
BRANCH   3   4
ATOM      4  C   UNL     1       4.801   1.706   0.374  1.00  0.00     0.202 C 
BRANCH   4   5
ATOM      5  C   UNL     1       4.833   1.587  -1.156  1.00  0.00     0.261 C 
BRANCH   5   6
ATOM      6  O   UNL     1       3.593   1.155  -1.728  1.00  0.00    -0.460 OA
BRANCH   6   7
ATOM      7  C   UNL     1       3.144  -0.103  -1.937  1.00  0.00     0.338 C 
ATOM      8  O   UNL     1       2.056  -0.229  -2.506  1.00  0.00    -0.246 OA
BRANCH   7   9
ATOM      9  C   UNL     1       3.841  -1.358  -1.491  1.00  0.00     0.060 A 
ATOM     10  C   UNL     1       4.979  -1.448  -0.681  1.00  0.00     0.016 A 
ATOM     11  C   UNL     1       3.234  -2.567  -1.875  1.00  0.00     0.016 A 
ATOM     12  C   UNL     1       5.487  -2.676  -0.249  1.00  0.00     0.010 A 
ATOM     13  C   UNL     1       3.711  -3.799  -1.414  1.00  0.00     0.010 A 
ATOM     14  C   UNL     1       4.850  -3.860  -0.600  1.00  0.00    -0.014 A 
BRANCH  14  15
ATOM     15  C   UNL     1       5.498  -5.157  -0.315  1.00  0.00     0.031 A 
ATOM     16  C   UNL     1       6.083  -5.885  -1.488  1.00  0.00     0.074 A 
ATOM     17  C   UNL     1       5.632  -5.644   0.933  1.00  0.00     0.049 A 
ATOM     18  N   UNL     1       6.679  -7.045  -1.538  1.00  0.00    -0.248 NA
ATOM     19  C   UNL     1       5.990  -5.199  -2.790  1.00  0.00     0.031 C 
ATOM     20  C   UNL     1       5.205  -4.977   2.163  1.00  0.00     0.029 A 
ATOM     21  N   UNL     1       6.179  -6.825   1.375  1.00  0.00    -0.354 N 
ATOM     22  C   UNL     1       7.042  -7.210  -2.866  1.00  0.00     0.074 A 
ATOM     23  C   UNL     1       6.510  -6.094  -3.608  1.00  0.00     0.031 C 
ATOM     24  C   UNL     1       5.483  -5.771   3.212  1.00  0.00     0.029 A 
ATOM     25  C   UNL     1       6.066  -7.014   2.731  1.00  0.00     0.049 A 
ATOM     26  H   UNL     1       6.611  -7.475   0.775  1.00  0.00     0.167 HD
ATOM     27  C   UNL     1       7.808  -8.178  -3.413  1.00  0.00     0.037 A 
ATOM     28  C   UNL     1       6.381  -8.081   3.490  1.00  0.00     0.037 A 
ATOM     29  C   UNL     1       8.332  -9.284  -2.670  1.00  0.00     0.049 A 
ATOM     30  C   UNL     1       7.068  -9.244   2.827  1.00  0.00     0.074 A 
ATOM     31  C   UNL     1       9.102 -10.339  -3.116  1.00  0.00     0.029 A 
ATOM     32  N   UNL     1       8.121  -9.478  -1.310  1.00  0.00    -0.354 N 
ATOM     33  N   UNL     1       7.428  -9.384   1.574  1.00  0.00    -0.248 NA
ATOM     34  C   UNL     1       7.427 -10.380   3.687  1.00  0.00     0.031 C 
ATOM     35  C   UNL     1       9.313 -11.202  -2.036  1.00  0.00     0.029 A 
ATOM     36  C   UNL     1       8.725 -10.654  -0.905  1.00  0.00     0.049 A 
ATOM     37  H   UNL     1       7.618  -8.869  -0.724  1.00  0.00     0.167 HD
ATOM     38  C   UNL     1       8.112 -10.589   1.506  1.00  0.00     0.074 A 
ATOM     39  C   UNL     1       8.102 -11.148   2.843  1.00  0.00     0.031 C 
ATOM     40  C   UNL     1       8.713 -11.170   0.440  1.00  0.00     0.037 A 
BRANCH  27  41
ATOM     41  C   UNL     1       8.083  -8.055  -4.880  1.00  0.00     0.064 A 
ATOM     42  C   UNL     1       8.890  -7.024  -5.390  1.00  0.00     0.173 A 
ATOM     43  C   UNL     1       7.458  -8.915  -5.792  1.00  0.00     0.173 A 
ATOM     44  F   UNL     1       9.478  -6.151  -4.558  1.00  0.00    -0.203 F 
ATOM     45  C   UNL     1       9.017  -6.828  -6.762  1.00  0.00     0.198 A 
ATOM     46  C   UNL     1       7.615  -8.736  -7.163  1.00  0.00     0.198 A 
ATOM     47  F   UNL     1       6.667  -9.905  -5.354  1.00  0.00    -0.203 F 
ATOM     48  F   UNL     1       9.717  -5.783  -7.226  1.00  0.00    -0.200 F 
ATOM     49  C   UNL     1       8.381  -7.685  -7.647  1.00  0.00     0.200 A 
ATOM     50  F   UNL     1       7.000  -9.564  -8.018  1.00  0.00    -0.200 F 
ATOM     51  F   UNL     1       8.487  -7.484  -8.967  1.00  0.00    -0.200 F 
ENDBRANCH  27  41
BRANCH  28  52
ATOM     52  C   UNL     1       6.052  -8.134   4.942  1.00  0.00     0.064 A 
ATOM     53  C   UNL     1       7.052  -8.086   5.924  1.00  0.00     0.173 A 
ATOM     54  C   UNL     1       4.733  -8.340   5.372  1.00  0.00     0.173 A 
ATOM     55  F   UNL     1       8.332  -7.919   5.562  1.00  0.00    -0.203 F 
ATOM     56  C   UNL     1       6.752  -8.276   7.274  1.00  0.00     0.198 A 
ATOM     57  C   UNL     1       4.434  -8.526   6.723  1.00  0.00     0.198 A 
ATOM     58  F   UNL     1       3.732  -8.375   4.481  1.00  0.00    -0.203 F 
ATOM     59  F   UNL     1       7.737  -8.278   8.182  1.00  0.00    -0.200 F 
ATOM     60  C   UNL     1       5.443  -8.501   7.672  1.00  0.00     0.200 A 
ATOM     61  F   UNL     1       3.163  -8.722   7.103  1.00  0.00    -0.200 F 
ATOM     62  F   UNL     1       5.153  -8.700   8.965  1.00  0.00    -0.200 F 
ENDBRANCH  28  52
BRANCH  40  63
ATOM     63  C   UNL     1       9.471 -12.438   0.690  1.00  0.00     0.064 A 
ATOM     64  C   UNL     1       8.820 -13.649   0.958  1.00  0.00     0.173 A 
ATOM     65  C   UNL     1      10.871 -12.444   0.595  1.00  0.00     0.173 A 
ATOM     66  F   UNL     1       7.484 -13.687   1.077  1.00  0.00    -0.203 F 
ATOM     67  C   UNL     1       9.547 -14.821   1.140  1.00  0.00     0.198 A 
ATOM     68  C   UNL     1      11.591 -13.624   0.742  1.00  0.00     0.198 A 
ATOM     69  F   UNL     1      11.537 -11.309   0.337  1.00  0.00    -0.203 F 
ATOM     70  F   UNL     1       8.910 -15.961   1.441  1.00  0.00    -0.200 F 
ATOM     71  C   UNL     1      10.930 -14.810   1.020  1.00  0.00     0.200 A 
ATOM     72  F   UNL     1      12.924 -13.614   0.607  1.00  0.00    -0.200 F 
ATOM     73  F   UNL     1      11.626 -15.944   1.177  1.00  0.00    -0.200 F 
ENDBRANCH  40  63
ENDBRANCH  14  15
ENDBRANCH   7   9
ENDBRANCH   6   7
ENDBRANCH   5   6
ENDBRANCH   4   5
ENDBRANCH   3   4
ENDBRANCH   2   3
ENDBRANCH   1   2
BRANCH   1  74
ATOM     74  O   UNL     1       2.362   2.245   3.300  1.00  0.00    -0.376 OA
BRANCH  74  75
ATOM     75  C   UNL     1       3.715   2.068   3.688  1.00  0.00     0.202 C 
BRANCH  75  76
ATOM     76  C   UNL     1       4.143   0.785   4.415  1.00  0.00     0.261 C 
BRANCH  76  77
ATOM     77  O   UNL     1       3.565  -0.459   3.990  1.00  0.00    -0.459 OA
BRANCH  77  78
ATOM     78  C   UNL     1       2.502  -0.870   4.752  1.00  0.00     0.370 C 
ATOM     79  O   UNL     1       1.918  -0.136   5.547  1.00  0.00    -0.245 OA
BRANCH  78  80
ATOM     80  C   UNL     1       2.213  -2.382   4.659  1.00  0.00     0.327 C 
BRANCH  80  81
ATOM     81  C   UNL     1       2.008  -3.004   3.276  1.00  0.00     0.032 A 
ATOM     82  C   UNL     1       1.376  -4.293   3.026  1.00  0.00     0.022 A 
ATOM     83  C   UNL     1       2.245  -2.405   2.052  1.00  0.00     0.075 A 
ATOM     84  C   UNL     1       1.170  -4.579   1.699  1.00  0.00     0.065 A 
ATOM     85  S   UNL     1       1.425  -3.189   0.772  1.00  0.00    -0.152 S 
ENDBRANCH  80  81
BRANCH  80  86
ATOM     86  N   UNL     1       3.048  -3.149   5.612  1.00  0.00    -0.319 N 
ATOM     87  C   UNL     1       2.766  -4.566   5.683  1.00  0.00     0.267 C 
ATOM     88  C   UNL     1       4.448  -2.808   5.820  1.00  0.00     0.267 C 
ATOM     89  H   UNL     1       2.668  -2.722   6.457  1.00  0.00     0.349 HD
ATOM     90  C   UNL     1       3.154  -5.114   7.026  1.00  0.00     0.107 C 
ATOM     91  C   UNL     1       4.900  -3.303   7.207  1.00  0.00     0.107 C 
ATOM     92  C   UNL     1       4.592  -4.790   7.413  1.00  0.00     0.184 C 
BRANCH  92  93
ATOM     93  O   UNL     1       4.962  -5.291   8.721  1.00  0.00    -0.488 OA
BRANCH  93  94
ATOM     94  C   UNL     1       4.132  -4.899   9.735  1.00  0.00     0.138 A 
ATOM     95  C   UNL     1       2.903  -5.517   9.958  1.00  0.00     0.050 A 
ATOM     96  C   UNL     1       4.500  -3.865  10.578  1.00  0.00     0.157 A 
ATOM     97  C   UNL     1       2.019  -4.963  10.879  1.00  0.00     0.024 A 
ATOM     98  N   UNL     1       3.682  -3.333  11.517  1.00  0.00    -0.261 NA
ATOM     99  C   UNL     1       2.447  -3.875  11.620  1.00  0.00     0.111 A 
ENDBRANCH  93  94
ENDBRANCH  92  93
ENDBRANCH  80  86
ENDBRANCH  78  80
ENDBRANCH  77  78
ENDBRANCH  76  77
ENDBRANCH  75  76
ENDBRANCH  74  75
ENDBRANCH   1  74
TORSDOF 21
