REMARK SMILES C[NH2+][C@@]1(C(=O)OCCOCCOCCOC(=O)c2ccc(-c3c4nc(c(-c5c(F)c(F)c(F)c(F)c5F)c5ccc([nH]5)c(-c5c(F)c(F)c(F)c(F)c5F)c5nc(c(-c6c(F)c(F)c(F)c(F)c6F)c6ccc3[nH]6)C=C5)C=C4)cc2)CCC[C@@H]([N@@H+](C)C2CC[NH+](C)CC2)C1
REMARK SMILES IDX 10 1 9 2 8 3 7 4 6 5 4 6 5 7 3 8 81 9 94 10 82 11 84 12
REMARK SMILES IDX 83 13 2 14 1 15 85 18 86 19 87 21 88 22 93 23 89 24 92 25
REMARK SMILES IDX 90 26 91 27 11 29 12 30 13 31 14 32 15 33 16 34 17 35 18 36
REMARK SMILES IDX 19 37 80 38 20 39 79 40 21 41 22 42 23 43 73 44 24 45 78 46
REMARK SMILES IDX 72 47 74 48 25 49 77 50 71 51 70 52 26 54 58 55 38 56 57 57
REMARK SMILES IDX 39 58 42 59 56 60 75 61 40 62 41 63 55 65 76 66 43 67 27 68
REMARK SMILES IDX 28 69 36 70 29 71 30 72 34 73 37 74 31 75 32 76 35 77 33 78
REMARK SMILES IDX 59 79 60 80 68 81 61 82 62 83 66 84 69 85 63 86 64 87 67 88
REMARK SMILES IDX 65 89 44 90 45 91 53 92 46 93 47 94 51 95 54 96 48 97 49 98
REMARK SMILES IDX 52 99 50 100
REMARK H PARENT 2 16 2 17 85 20 90 28 74 53 42 64
REMARK Flexibility Score: inf
ROOT
ATOM      1  C   UNL     1      -0.554   1.512  -5.173  1.00  0.00     0.188 C 
ENDROOT
BRANCH   1   2
ATOM      2  O   UNL     1      -1.226   0.794  -6.199  1.00  0.00    -0.376 OA
BRANCH   2   3
ATOM      3  C   UNL     1      -2.628   0.593  -6.033  1.00  0.00     0.202 C 
BRANCH   3   4
ATOM      4  C   UNL     1      -3.085  -0.265  -4.842  1.00  0.00     0.261 C 
BRANCH   4   5
ATOM      5  O   UNL     1      -2.643   0.204  -3.552  1.00  0.00    -0.459 OA
BRANCH   5   6
ATOM      6  C   UNL     1      -1.741  -0.603  -2.926  1.00  0.00     0.368 C 
ATOM      7  O   UNL     1      -1.349  -1.675  -3.385  1.00  0.00    -0.245 OA
BRANCH   6   8
ATOM      8  C   UNL     1      -1.249  -0.057  -1.544  1.00  0.00     0.199 C 
ATOM      9  C   UNL     1      -1.739  -1.112  -0.536  1.00  0.00     0.081 C 
ATOM     10  C   UNL     1      -1.758   1.341  -1.121  1.00  0.00     0.146 C 
ATOM     11  C   UNL     1      -3.262  -1.168  -0.484  1.00  0.00     0.013 C 
ATOM     12  C   UNL     1      -3.176   1.450  -0.520  1.00  0.00     0.190 C 
ATOM     13  C   UNL     1      -3.935   0.160  -0.166  1.00  0.00     0.065 C 
BRANCH   8  14
ATOM     14  N   UNL     1       0.235   0.082  -1.701  1.00  0.00    -0.334 N 
ATOM     15  C   UNL     1       1.094  -0.646  -0.792  1.00  0.00     0.331 C 
ATOM     16  H   UNL     1       0.469  -0.223  -2.646  1.00  0.00     0.347 HD
ATOM     17  H   UNL     1       0.419   1.063  -1.489  1.00  0.00     0.347 HD
ENDBRANCH   8  14
BRANCH  12  18
ATOM     18  N   UNL     1      -3.333   2.573   0.449  1.00  0.00    -0.332 N 
ATOM     19  C   UNL     1      -4.722   3.067   0.451  1.00  0.00     0.333 C 
ATOM     20  H   UNL     1      -2.637   3.191   0.033  1.00  0.00     0.348 HD
BRANCH  18  21
ATOM     21  C   UNL     1      -2.789   2.569   1.844  1.00  0.00     0.195 C 
ATOM     22  C   UNL     1      -1.263   2.673   2.026  1.00  0.00     0.126 C 
ATOM     23  C   UNL     1      -3.361   1.599   2.898  1.00  0.00     0.126 C 
ATOM     24  C   UNL     1      -0.551   1.342   2.238  1.00  0.00     0.268 C 
ATOM     25  C   UNL     1      -2.579   0.298   3.060  1.00  0.00     0.268 C 
ATOM     26  N   UNL     1      -1.148   0.519   3.294  1.00  0.00    -0.337 N 
ATOM     27  C   UNL     1      -0.459  -0.776   3.380  1.00  0.00     0.332 C 
ATOM     28  H   UNL     1      -1.041   1.024   4.174  1.00  0.00     0.347 HD
ENDBRANCH  18  21
ENDBRANCH  12  18
ENDBRANCH   6   8
ENDBRANCH   5   6
ENDBRANCH   4   5
ENDBRANCH   3   4
ENDBRANCH   2   3
ENDBRANCH   1   2
BRANCH   1  29
ATOM     29  C   UNL     1      -1.071   2.915  -4.852  1.00  0.00     0.188 C 
BRANCH  29  30
ATOM     30  O   UNL     1      -2.463   3.000  -4.563  1.00  0.00    -0.376 OA
BRANCH  30  31
ATOM     31  C   UNL     1      -2.905   4.247  -4.011  1.00  0.00     0.202 C 
BRANCH  31  32
ATOM     32  C   UNL     1      -2.512   5.505  -4.810  1.00  0.00     0.261 C 
BRANCH  32  33
ATOM     33  O   UNL     1      -1.088   5.733  -4.843  1.00  0.00    -0.460 OA
BRANCH  33  34
ATOM     34  C   UNL     1      -0.480   5.906  -3.642  1.00  0.00     0.338 C 
ATOM     35  O   UNL     1      -1.021   6.163  -2.588  1.00  0.00    -0.246 OA
BRANCH  34  36
ATOM     36  C   UNL     1       0.939   5.473  -3.771  1.00  0.00     0.060 A 
ATOM     37  C   UNL     1       1.527   4.818  -2.679  1.00  0.00     0.016 A 
ATOM     38  C   UNL     1       1.661   5.632  -4.958  1.00  0.00     0.016 A 
ATOM     39  C   UNL     1       2.853   4.381  -2.750  1.00  0.00     0.010 A 
ATOM     40  C   UNL     1       2.988   5.196  -5.029  1.00  0.00     0.010 A 
ATOM     41  C   UNL     1       3.605   4.608  -3.911  1.00  0.00    -0.014 A 
BRANCH  41  42
ATOM     42  C   UNL     1       5.081   4.450  -3.881  1.00  0.00     0.031 A 
ATOM     43  C   UNL     1       5.917   5.678  -3.633  1.00  0.00     0.074 A 
ATOM     44  C   UNL     1       5.682   3.259  -4.050  1.00  0.00     0.049 A 
ATOM     45  N   UNL     1       7.219   5.810  -3.597  1.00  0.00    -0.248 NA
ATOM     46  C   UNL     1       5.178   6.929  -3.394  1.00  0.00     0.031 C 
ATOM     47  C   UNL     1       5.002   1.985  -4.264  1.00  0.00     0.029 A 
ATOM     48  N   UNL     1       7.019   2.937  -4.075  1.00  0.00    -0.354 N 
ATOM     49  C   UNL     1       7.452   7.153  -3.333  1.00  0.00     0.074 A 
ATOM     50  C   UNL     1       6.162   7.802  -3.254  1.00  0.00     0.031 C 
ATOM     51  C   UNL     1       5.927   1.018  -4.410  1.00  0.00     0.029 A 
ATOM     52  C   UNL     1       7.263   1.610  -4.327  1.00  0.00     0.049 A 
ATOM     53  H   UNL     1       7.734   3.597  -3.926  1.00  0.00     0.167 HD
ATOM     54  C   UNL     1       8.633   7.790  -3.156  1.00  0.00     0.037 A 
ATOM     55  C   UNL     1       8.430   0.955  -4.492  1.00  0.00     0.037 A 
ATOM     56  C   UNL     1       9.921   7.159  -3.237  1.00  0.00     0.049 A 
ATOM     57  C   UNL     1       9.736   1.704  -4.373  1.00  0.00     0.074 A 
ATOM     58  C   UNL     1      11.171   7.725  -3.061  1.00  0.00     0.029 A 
ATOM     59  N   UNL     1      10.126   5.819  -3.527  1.00  0.00    -0.354 N 
ATOM     60  N   UNL     1       9.948   2.966  -4.091  1.00  0.00    -0.248 NA
ATOM     61  C   UNL     1      10.968   0.930  -4.595  1.00  0.00     0.031 C 
ATOM     62  C   UNL     1      12.135   6.739  -3.292  1.00  0.00     0.029 A 
ATOM     63  C   UNL     1      11.484   5.546  -3.560  1.00  0.00     0.049 A 
ATOM     64  H   UNL     1       9.412   5.160  -3.686  1.00  0.00     0.167 HD
ATOM     65  C   UNL     1      11.329   3.129  -4.071  1.00  0.00     0.074 A 
ATOM     66  C   UNL     1      11.908   1.835  -4.359  1.00  0.00     0.031 C 
ATOM     67  C   UNL     1      12.052   4.252  -3.834  1.00  0.00     0.037 A 
BRANCH  54  68
ATOM     68  C   UNL     1       8.581   9.262  -2.878  1.00  0.00     0.064 A 
ATOM     69  C   UNL     1       8.137   9.761  -1.645  1.00  0.00     0.173 A 
ATOM     70  C   UNL     1       8.999  10.183  -3.850  1.00  0.00     0.173 A 
ATOM     71  F   UNL     1       7.708   8.921  -0.691  1.00  0.00    -0.203 F 
ATOM     72  C   UNL     1       8.090  11.132  -1.404  1.00  0.00     0.198 A 
ATOM     73  C   UNL     1       8.978  11.550  -3.595  1.00  0.00     0.198 A 
ATOM     74  F   UNL     1       9.432   9.755  -5.046  1.00  0.00    -0.203 F 
ATOM     75  F   UNL     1       7.617  11.589  -0.236  1.00  0.00    -0.200 F 
ATOM     76  C   UNL     1       8.517  12.024  -2.376  1.00  0.00     0.200 A 
ATOM     77  F   UNL     1       9.399  12.411  -4.532  1.00  0.00    -0.200 F 
ATOM     78  F   UNL     1       8.476  13.343  -2.141  1.00  0.00    -0.200 F 
ENDBRANCH  54  68
BRANCH  55  79
ATOM     79  C   UNL     1       8.432  -0.498  -4.806  1.00  0.00     0.064 A 
ATOM     80  C   UNL     1       8.913  -1.438  -3.883  1.00  0.00     0.173 A 
ATOM     81  C   UNL     1       8.000  -0.971  -6.054  1.00  0.00     0.173 A 
ATOM     82  F   UNL     1       9.371  -1.030  -2.690  1.00  0.00    -0.203 F 
ATOM     83  C   UNL     1       8.982  -2.792  -4.204  1.00  0.00     0.198 A 
ATOM     84  C   UNL     1       8.043  -2.329  -6.363  1.00  0.00     0.198 A 
ATOM     85  F   UNL     1       7.543  -0.112  -6.976  1.00  0.00    -0.203 F 
ATOM     86  F   UNL     1       9.498  -3.662  -3.325  1.00  0.00    -0.200 F 
ATOM     87  C   UNL     1       8.542  -3.237  -5.442  1.00  0.00     0.200 A 
ATOM     88  F   UNL     1       7.615  -2.755  -7.559  1.00  0.00    -0.200 F 
ATOM     89  F   UNL     1       8.614  -4.539  -5.753  1.00  0.00    -0.200 F 
ENDBRANCH  55  79
BRANCH  67  90
ATOM     90  C   UNL     1      13.550   4.133  -3.831  1.00  0.00     0.064 A 
ATOM     91  C   UNL     1      14.278   3.949  -5.016  1.00  0.00     0.173 A 
ATOM     92  C   UNL     1      14.269   4.262  -2.632  1.00  0.00     0.173 A 
ATOM     93  F   UNL     1      13.639   3.808  -6.186  1.00  0.00    -0.203 F 
ATOM     94  C   UNL     1      15.669   3.878  -4.997  1.00  0.00     0.198 A 
ATOM     95  C   UNL     1      15.661   4.219  -2.622  1.00  0.00     0.198 A 
ATOM     96  F   UNL     1      13.622   4.449  -1.472  1.00  0.00    -0.203 F 
ATOM     97  F   UNL     1      16.343   3.661  -6.136  1.00  0.00    -0.200 F 
ATOM     98  C   UNL     1      16.360   4.021  -3.802  1.00  0.00     0.200 A 
ATOM     99  F   UNL     1      16.326   4.373  -1.468  1.00  0.00    -0.200 F 
ATOM    100  F   UNL     1      17.698   3.962  -3.789  1.00  0.00    -0.200 F 
ENDBRANCH  67  90
ENDBRANCH  41  42
ENDBRANCH  34  36
ENDBRANCH  33  34
ENDBRANCH  32  33
ENDBRANCH  31  32
ENDBRANCH  30  31
ENDBRANCH  29  30
ENDBRANCH   1  29
TORSDOF 20
