REMARK SMILES COc1ccc([C@@H]2[NH2+][C@H](C(=O)OCCOCCOCCOC(=O)c3ccc(-c4c5nc(c(-c6c(F)c(F)c(F)c(F)c6F)c6ccc([nH]6)c(-c6c(F)c(F)c(F)c(F)c6F)c6nc(c(-c7c(F)c(F)c(F)c(F)c7F)c7ccc4[nH]7)C=C6)C=C5)cc3)CS2)cc1Cn1nc(C)c(Br)c1C
REMARK SMILES IDX 16 1 15 2 14 3 13 4 12 5 10 6 11 7 9 8 7 9 8 10 88 11 87 14
REMARK SMILES IDX 6 15 3 16 4 17 90 18 5 19 89 20 2 21 1 22 91 23 92 24 93 25
REMARK SMILES IDX 98 26 94 27 96 28 99 29 95 30 97 31 17 32 18 33 19 34 20 35
REMARK SMILES IDX 21 36 22 37 23 38 24 39 25 40 86 41 26 42 85 43 27 44 28 45
REMARK SMILES IDX 29 46 79 47 30 48 84 49 78 50 80 51 31 52 83 53 77 54 76 55
REMARK SMILES IDX 32 57 64 58 44 59 63 60 45 61 48 62 62 63 81 64 46 65 47 66
REMARK SMILES IDX 61 68 82 69 49 70 33 71 34 72 42 73 35 74 36 75 40 76 43 77
REMARK SMILES IDX 37 78 38 79 41 80 39 81 65 82 66 83 74 84 67 85 68 86 72 87
REMARK SMILES IDX 75 88 69 89 70 90 73 91 71 92 50 93 51 94 59 95 52 96 53 97
REMARK SMILES IDX 57 98 60 99 54 100 55 101 58 102 56 103
REMARK H PARENT 8 12 8 13 80 56 48 67
REMARK Flexibility Score: inf
ROOT
ATOM      1  C   UNL     1       5.658   6.992   0.913  1.00  0.00     0.188 C 
ENDROOT
BRANCH   1   2
ATOM      2  O   UNL     1       6.221   6.247  -0.156  1.00  0.00    -0.376 OA
BRANCH   2   3
ATOM      3  C   UNL     1       5.737   4.923  -0.321  1.00  0.00     0.202 C 
BRANCH   3   4
ATOM      4  C   UNL     1       5.637   4.059   0.936  1.00  0.00     0.261 C 
BRANCH   4   5
ATOM      5  O   UNL     1       4.836   4.550   2.020  1.00  0.00    -0.459 OA
BRANCH   5   6
ATOM      6  C   UNL     1       5.376   4.528   3.262  1.00  0.00     0.365 C 
ATOM      7  O   UNL     1       6.535   4.205   3.511  1.00  0.00    -0.245 OA
BRANCH   6   8
ATOM      8  C   UNL     1       4.418   4.976   4.373  1.00  0.00     0.304 C 
ATOM      9  C   UNL     1       2.099   4.302   4.188  1.00  0.00     0.274 C 
ATOM     10  N   UNL     1       3.057   5.375   3.926  1.00  0.00    -0.319 N 
ATOM     11  S   UNL     1       2.633   3.464   5.688  1.00  0.00    -0.087 SA
ATOM     12  H   UNL     1       2.769   6.213   4.433  1.00  0.00     0.348 HD
ATOM     13  H   UNL     1       3.079   5.562   2.924  1.00  0.00     0.348 HD
ATOM     14  C   UNL     1       4.368   3.906   5.462  1.00  0.00     0.153 C 
BRANCH   9  15
ATOM     15  C   UNL     1       1.846   3.400   2.991  1.00  0.00     0.021 A 
ATOM     16  C   UNL     1       1.313   1.806   0.722  1.00  0.00     0.123 A 
ATOM     17  C   UNL     1       0.449   2.847   1.076  1.00  0.00     0.047 A 
ATOM     18  C   UNL     1       2.465   1.538   1.477  1.00  0.00     0.016 A 
ATOM     19  C   UNL     1       0.711   3.634   2.199  1.00  0.00     0.015 A 
ATOM     20  C   UNL     1       2.704   2.346   2.611  1.00  0.00     0.020 A 
BRANCH  16  21
ATOM     21  O   UNL     1       1.011   1.149  -0.440  1.00  0.00    -0.496 OA
ATOM     22  C   UNL     1       0.539  -0.181  -0.236  1.00  0.00     0.278 C 
ENDBRANCH  16  21
BRANCH  18  23
ATOM     23  C   UNL     1       3.392   0.379   1.171  1.00  0.00     0.184 C 
BRANCH  23  24
ATOM     24  N   UNL     1       4.702   0.730   0.622  1.00  0.00    -0.264 N 
ATOM     25  N   UNL     1       4.821   0.911  -0.717  1.00  0.00    -0.177 NA
ATOM     26  C   UNL     1       5.918   0.787   1.279  1.00  0.00     0.050 A 
ATOM     27  C   UNL     1       6.125   1.141  -0.919  1.00  0.00     0.074 A 
ATOM     28  C   UNL     1       6.845   1.023   0.286  1.00  0.00     0.061 A 
ATOM     29  C   UNL     1       6.083   0.722   2.751  1.00  0.00     0.067 C 
ATOM     30  C   UNL     1       6.618   1.527  -2.265  1.00  0.00     0.070 C 
ATOM     31  Br  UNL     1       8.689   1.300   0.478  1.00  0.00    -0.047 Br
ENDBRANCH  23  24
ENDBRANCH  18  23
ENDBRANCH   9  15
ENDBRANCH   6   8
ENDBRANCH   5   6
ENDBRANCH   4   5
ENDBRANCH   3   4
ENDBRANCH   2   3
ENDBRANCH   1   2
BRANCH   1  32
ATOM     32  C   UNL     1       4.119   7.063   1.038  1.00  0.00     0.188 C 
BRANCH  32  33
ATOM     33  O   UNL     1       3.404   6.321   0.067  1.00  0.00    -0.376 OA
BRANCH  33  34
ATOM     34  C   UNL     1       2.633   7.083  -0.850  1.00  0.00     0.202 C 
BRANCH  34  35
ATOM     35  C   UNL     1       3.442   7.931  -1.845  1.00  0.00     0.261 C 
BRANCH  35  36
ATOM     36  O   UNL     1       4.413   8.819  -1.260  1.00  0.00    -0.460 OA
BRANCH  36  37
ATOM     37  C   UNL     1       3.963   9.844  -0.502  1.00  0.00     0.338 C 
ATOM     38  O   UNL     1       2.803  10.169  -0.316  1.00  0.00    -0.246 OA
BRANCH  37  39
ATOM     39  C   UNL     1       5.114  10.338   0.296  1.00  0.00     0.060 A 
ATOM     40  C   UNL     1       5.000  10.372   1.696  1.00  0.00     0.016 A 
ATOM     41  C   UNL     1       6.329  10.660  -0.316  1.00  0.00     0.016 A 
ATOM     42  C   UNL     1       6.089  10.751   2.483  1.00  0.00     0.010 A 
ATOM     43  C   UNL     1       7.406  11.085   0.468  1.00  0.00     0.010 A 
ATOM     44  C   UNL     1       7.276  11.172   1.867  1.00  0.00    -0.014 A 
BRANCH  44  45
ATOM     45  C   UNL     1       8.210  12.035   2.631  1.00  0.00     0.031 A 
ATOM     46  C   UNL     1       7.921  13.514   2.613  1.00  0.00     0.074 A 
ATOM     47  C   UNL     1       9.253  11.556   3.331  1.00  0.00     0.049 A 
ATOM     48  N   UNL     1       8.584  14.506   3.148  1.00  0.00    -0.248 NA
ATOM     49  C   UNL     1       6.707  13.927   1.885  1.00  0.00     0.031 C 
ATOM     50  C   UNL     1       9.611  10.148   3.475  1.00  0.00     0.029 A 
ATOM     51  N   UNL     1      10.212  12.224   4.054  1.00  0.00    -0.354 N 
ATOM     52  C   UNL     1       7.866  15.650   2.823  1.00  0.00     0.074 A 
ATOM     53  C   UNL     1       6.739  15.240   2.019  1.00  0.00     0.031 C 
ATOM     54  C   UNL     1      10.723  10.057   4.230  1.00  0.00     0.029 A 
ATOM     55  C   UNL     1      11.169  11.401   4.597  1.00  0.00     0.049 A 
ATOM     56  H   UNL     1      10.213  13.201   4.172  1.00  0.00     0.167 HD
ATOM     57  C   UNL     1       8.115  16.933   3.170  1.00  0.00     0.037 A 
ATOM     58  C   UNL     1      12.282  11.711   5.292  1.00  0.00     0.037 A 
ATOM     59  C   UNL     1       9.249  17.349   3.944  1.00  0.00     0.049 A 
ATOM     60  C   UNL     1      12.593  13.162   5.585  1.00  0.00     0.074 A 
ATOM     61  C   UNL     1       9.613  18.627   4.325  1.00  0.00     0.029 A 
ATOM     62  N   UNL     1      10.211  16.487   4.449  1.00  0.00    -0.354 N 
ATOM     63  N   UNL     1      11.906  14.238   5.286  1.00  0.00    -0.248 NA
ATOM     64  C   UNL     1      13.838  13.438   6.318  1.00  0.00     0.031 C 
ATOM     65  C   UNL     1      10.821  18.544   5.024  1.00  0.00     0.029 A 
ATOM     66  C   UNL     1      11.176  17.209   5.130  1.00  0.00     0.049 A 
ATOM     67  H   UNL     1      10.208  15.509   4.339  1.00  0.00     0.167 HD
ATOM     68  C   UNL     1      12.607  15.308   5.832  1.00  0.00     0.074 A 
ATOM     69  C   UNL     1      13.772  14.751   6.485  1.00  0.00     0.031 C 
ATOM     70  C   UNL     1      12.312  16.631   5.802  1.00  0.00     0.037 A 
BRANCH  57  71
ATOM     71  C   UNL     1       7.153  17.972   2.678  1.00  0.00     0.064 A 
ATOM     72  C   UNL     1       5.851  18.069   3.192  1.00  0.00     0.173 A 
ATOM     73  C   UNL     1       7.535  18.878   1.679  1.00  0.00     0.173 A 
ATOM     74  F   UNL     1       5.428  17.205   4.128  1.00  0.00    -0.203 F 
ATOM     75  C   UNL     1       4.958  19.020   2.705  1.00  0.00     0.198 A 
ATOM     76  C   UNL     1       6.650  19.848   1.217  1.00  0.00     0.198 A 
ATOM     77  F   UNL     1       8.766  18.822   1.149  1.00  0.00    -0.203 F 
ATOM     78  F   UNL     1       3.702  19.058   3.172  1.00  0.00    -0.200 F 
ATOM     79  C   UNL     1       5.361  19.913   1.724  1.00  0.00     0.200 A 
ATOM     80  F   UNL     1       7.043  20.716   0.274  1.00  0.00    -0.200 F 
ATOM     81  F   UNL     1       4.503  20.832   1.260  1.00  0.00    -0.200 F 
ENDBRANCH  57  71
BRANCH  58  82
ATOM     82  C   UNL     1      13.205  10.641   5.763  1.00  0.00     0.064 A 
ATOM     83  C   UNL     1      13.381  10.388   7.131  1.00  0.00     0.173 A 
ATOM     84  C   UNL     1      13.974   9.892   4.860  1.00  0.00     0.173 A 
ATOM     85  F   UNL     1      12.694  11.099   8.038  1.00  0.00    -0.203 F 
ATOM     86  C   UNL     1      14.309   9.448   7.579  1.00  0.00     0.198 A 
ATOM     87  C   UNL     1      14.880   8.932   5.308  1.00  0.00     0.198 A 
ATOM     88  F   UNL     1      13.854  10.101   3.541  1.00  0.00    -0.203 F 
ATOM     89  F   UNL     1      14.501   9.272   8.893  1.00  0.00    -0.200 F 
ATOM     90  C   UNL     1      15.055   8.718   6.666  1.00  0.00     0.200 A 
ATOM     91  F   UNL     1      15.596   8.225   4.422  1.00  0.00    -0.200 F 
ATOM     92  F   UNL     1      15.952   7.820   7.097  1.00  0.00    -0.200 F 
ENDBRANCH  58  82
BRANCH  70  93
ATOM     93  C   UNL     1      13.214  17.565   6.556  1.00  0.00     0.064 A 
ATOM     94  C   UNL     1      14.513  17.862   6.118  1.00  0.00     0.173 A 
ATOM     95  C   UNL     1      12.747  18.212   7.712  1.00  0.00     0.173 A 
ATOM     96  F   UNL     1      15.010  17.265   5.025  1.00  0.00    -0.203 F 
ATOM     97  C   UNL     1      15.321  18.748   6.826  1.00  0.00     0.198 A 
ATOM     98  C   UNL     1      13.546  19.122   8.398  1.00  0.00     0.198 A 
ATOM     99  F   UNL     1      11.508  17.973   8.167  1.00  0.00    -0.203 F 
ATOM    100  F   UNL     1      16.576  18.979   6.418  1.00  0.00    -0.200 F 
ATOM    101  C   UNL     1      14.835  19.382   7.960  1.00  0.00     0.200 A 
ATOM    102  F   UNL     1      13.067  19.747   9.483  1.00  0.00    -0.200 F 
ATOM    103  F   UNL     1      15.611  20.241   8.635  1.00  0.00    -0.200 F 
ENDBRANCH  70  93
ENDBRANCH  44  45
ENDBRANCH  37  39
ENDBRANCH  36  37
ENDBRANCH  35  36
ENDBRANCH  34  35
ENDBRANCH  33  34
ENDBRANCH  32  33
ENDBRANCH   1  32
TORSDOF 21
