REMARK SMILES C[C@H]1c2ccc(O)cc2OC(=O)[C@@H]1CC(=O)N[C@@H](CC1=c2ccccc2=NC1)C(=O)OCCOCCOCCOC(=O)c1ccc(-c2c3nc(c(-c4c(F)c(F)c(F)c(F)c4F)c4ccc([nH]4)c(-c4c(F)c(F)c(F)c(F)c4F)c4nc(c(-c5c(F)c(F)c(F)c(F)c5F)c5ccc2[nH]5)C=C4)C=C3)cc1
REMARK SMILES IDX 35 1 34 2 33 3 32 4 31 5 29 6 30 7 18 8 17 9 15 10 16 11
REMARK SMILES IDX 14 13 13 14 1 15 2 16 3 17 4 18 9 19 11 20 5 21 8 22 10 23
REMARK SMILES IDX 12 24 6 25 7 26 19 28 20 29 21 30 28 31 22 32 26 33 27 34
REMARK SMILES IDX 23 35 25 36 24 37 36 38 37 39 38 40 39 41 40 42 41 43 42 44
REMARK SMILES IDX 43 45 44 46 105 47 45 48 104 49 46 50 47 51 48 52 98 53
REMARK SMILES IDX 49 54 103 55 97 56 99 57 50 58 102 59 96 60 95 61 51 63
REMARK SMILES IDX 83 64 63 65 82 66 64 67 67 68 81 69 100 70 65 71 66 72 80 74
REMARK SMILES IDX 101 75 68 76 52 77 53 78 61 79 54 80 55 81 59 82 62 83 56 84
REMARK SMILES IDX 57 85 60 86 58 87 84 88 85 89 93 90 86 91 87 92 91 93 94 94
REMARK SMILES IDX 88 95 89 96 92 97 90 98 69 99 70 100 78 101 71 102 72 103
REMARK SMILES IDX 76 104 79 105 73 106 74 107 77 108 75 109
REMARK H PARENT 17 12 7 27 99 62 67 73
REMARK Flexibility Score: inf
ROOT
ATOM      1  C   UNL     1      -1.002  -7.245  -0.143  1.00  0.00     0.188 C 
ENDROOT
BRANCH   1   2
ATOM      2  O   UNL     1      -1.277  -8.448  -0.832  1.00  0.00    -0.376 OA
BRANCH   2   3
ATOM      3  C   UNL     1      -0.208  -9.259  -1.303  1.00  0.00     0.202 C 
BRANCH   3   4
ATOM      4  C   UNL     1       1.078  -8.647  -1.878  1.00  0.00     0.261 C 
BRANCH   4   5
ATOM      5  O   UNL     1       1.728  -7.689  -1.022  1.00  0.00    -0.462 OA
BRANCH   5   6
ATOM      6  C   UNL     1       1.820  -6.444  -1.534  1.00  0.00     0.329 C 
ATOM      7  O   UNL     1       1.466  -6.139  -2.674  1.00  0.00    -0.250 OA
BRANCH   6   8
ATOM      8  C   UNL     1       2.440  -5.386  -0.612  1.00  0.00     0.196 C 
BRANCH   8   9
ATOM      9  N   UNL     1       2.530  -5.383   0.861  1.00  0.00    -0.342 N 
ATOM     10  C   UNL     1       2.226  -4.387   1.757  1.00  0.00     0.221 C 
ATOM     11  O   UNL     1       2.699  -4.452   2.893  1.00  0.00    -0.275 OA
ATOM     12  H   UNL     1       2.856  -6.221   1.262  1.00  0.00     0.164 HD
BRANCH  10  13
ATOM     13  C   UNL     1       1.204  -3.297   1.420  1.00  0.00     0.116 C 
BRANCH  13  14
ATOM     14  C   UNL     1       1.746  -1.948   0.902  1.00  0.00     0.116 C 
ATOM     15  C   UNL     1       1.258   0.504   0.339  1.00  0.00     0.014 C 
ATOM     16  C   UNL     1       0.655  -0.864   0.700  1.00  0.00     0.034 C 
ATOM     17  C   UNL     1      -0.266  -1.280  -0.422  1.00  0.00    -0.001 A 
ATOM     18  C   UNL     1      -1.548  -0.757  -0.580  1.00  0.00     0.011 A 
ATOM     19  C   UNL     1       0.215  -2.158  -1.398  1.00  0.00     0.138 A 
ATOM     20  C   UNL     1       2.422  -2.084  -0.431  1.00  0.00     0.315 C 
ATOM     21  C   UNL     1      -2.322  -1.147  -1.676  1.00  0.00     0.047 A 
ATOM     22  C   UNL     1      -0.585  -2.653  -2.419  1.00  0.00     0.093 A 
ATOM     23  O   UNL     1       1.584  -2.471  -1.466  1.00  0.00    -0.426 OA
ATOM     24  O   UNL     1       3.619  -1.902  -0.602  1.00  0.00    -0.251 OA
ATOM     25  C   UNL     1      -1.855  -2.121  -2.560  1.00  0.00     0.119 A 
BRANCH  25  26
ATOM     26  O   UNL     1      -2.652  -2.510  -3.595  1.00  0.00    -0.508 OA
ATOM     27  H   UNL     1      -3.511  -2.147  -3.687  1.00  0.00     0.293 HD
ENDBRANCH  25  26
ENDBRANCH  13  14
ENDBRANCH  10  13
ENDBRANCH   8   9
BRANCH   8  28
ATOM     28  C   UNL     1       3.815  -5.081  -1.232  1.00  0.00     0.070 C 
BRANCH  28  29
ATOM     29  C   UNL     1       4.980  -6.069  -1.021  1.00  0.00    -0.037 C 
ATOM     30  C   UNL     1       5.106  -6.697   0.155  1.00  0.00     0.001 A 
ATOM     31  C   UNL     1       6.277  -5.303  -1.234  1.00  0.00     0.174 C 
ATOM     32  C   UNL     1       5.160  -8.081   0.539  1.00  0.00     0.010 A 
ATOM     33  C   UNL     1       6.066  -5.809   0.852  1.00  0.00     0.065 A 
ATOM     34  N   UNL     1       6.740  -4.969   0.133  1.00  0.00    -0.280 NA
ATOM     35  C   UNL     1       5.550  -8.350   1.801  1.00  0.00     0.001 A 
ATOM     36  C   UNL     1       6.120  -6.021   2.310  1.00  0.00     0.028 A 
ATOM     37  C   UNL     1       5.838  -7.266   2.736  1.00  0.00     0.002 A 
ENDBRANCH  28  29
ENDBRANCH   8  28
ENDBRANCH   6   8
ENDBRANCH   5   6
ENDBRANCH   4   5
ENDBRANCH   3   4
ENDBRANCH   2   3
ENDBRANCH   1   2
BRANCH   1  38
ATOM     38  C   UNL     1      -0.117  -7.265   1.112  1.00  0.00     0.188 C 
BRANCH  38  39
ATOM     39  O   UNL     1       0.689  -8.386   1.351  1.00  0.00    -0.376 OA
BRANCH  39  40
ATOM     40  C   UNL     1       0.179  -9.479   2.095  1.00  0.00     0.202 C 
BRANCH  40  41
ATOM     41  C   UNL     1      -1.243  -9.574   2.695  1.00  0.00     0.261 C 
BRANCH  41  42
ATOM     42  O   UNL     1      -2.182  -8.530   2.410  1.00  0.00    -0.460 OA
BRANCH  42  43
ATOM     43  C   UNL     1      -2.332  -7.580   3.376  1.00  0.00     0.338 C 
ATOM     44  O   UNL     1      -1.773  -7.529   4.448  1.00  0.00    -0.246 OA
BRANCH  43  45
ATOM     45  C   UNL     1      -3.119  -6.461   2.798  1.00  0.00     0.060 A 
ATOM     46  C   UNL     1      -4.442  -6.657   2.411  1.00  0.00     0.016 A 
ATOM     47  C   UNL     1      -2.513  -5.203   2.635  1.00  0.00     0.016 A 
ATOM     48  C   UNL     1      -5.172  -5.582   1.896  1.00  0.00     0.010 A 
ATOM     49  C   UNL     1      -3.233  -4.138   2.084  1.00  0.00     0.010 A 
ATOM     50  C   UNL     1      -4.582  -4.312   1.743  1.00  0.00    -0.014 A 
BRANCH  50  51
ATOM     51  C   UNL     1      -5.440  -3.145   1.414  1.00  0.00     0.031 A 
ATOM     52  C   UNL     1      -5.624  -2.642   0.017  1.00  0.00     0.074 A 
ATOM     53  C   UNL     1      -6.143  -2.583   2.412  1.00  0.00     0.049 A 
ATOM     54  N   UNL     1      -6.328  -1.623  -0.415  1.00  0.00    -0.248 NA
ATOM     55  C   UNL     1      -4.936  -3.393  -1.033  1.00  0.00     0.031 C 
ATOM     56  C   UNL     1      -6.113  -3.025   3.804  1.00  0.00     0.029 A 
ATOM     57  N   UNL     1      -7.061  -1.565   2.397  1.00  0.00    -0.354 N 
ATOM     58  C   UNL     1      -6.104  -1.558  -1.786  1.00  0.00     0.074 A 
ATOM     59  C   UNL     1      -5.280  -2.700  -2.111  1.00  0.00     0.031 C 
ATOM     60  C   UNL     1      -7.033  -2.337   4.495  1.00  0.00     0.029 A 
ATOM     61  C   UNL     1      -7.678  -1.373   3.606  1.00  0.00     0.049 A 
ATOM     62  H   UNL     1      -7.258  -1.026   1.597  1.00  0.00     0.167 HD
ATOM     63  C   UNL     1      -6.509  -0.608  -2.668  1.00  0.00     0.037 A 
ATOM     64  C   UNL     1      -8.668  -0.531   3.955  1.00  0.00     0.037 A 
ATOM     65  C   UNL     1      -7.471   0.423  -2.354  1.00  0.00     0.049 A 
ATOM     66  C   UNL     1      -9.261   0.391   2.926  1.00  0.00     0.074 A 
ATOM     67  C   UNL     1      -8.023   1.377  -3.194  1.00  0.00     0.029 A 
ATOM     68  N   UNL     1      -8.072   0.592  -1.116  1.00  0.00    -0.354 N 
ATOM     69  N   UNL     1      -8.957   0.521   1.658  1.00  0.00    -0.248 NA
ATOM     70  C   UNL     1     -10.342   1.280   3.375  1.00  0.00     0.031 C 
ATOM     71  C   UNL     1      -8.949   2.127  -2.464  1.00  0.00     0.029 A 
ATOM     72  C   UNL     1      -9.011   1.610  -1.181  1.00  0.00     0.049 A 
ATOM     73  H   UNL     1      -7.863   0.067  -0.310  1.00  0.00     0.167 HD
ATOM     74  C   UNL     1      -9.816   1.490   1.156  1.00  0.00     0.074 A 
ATOM     75  C   UNL     1     -10.672   1.897   2.249  1.00  0.00     0.031 C 
ATOM     76  C   UNL     1      -9.877   2.000  -0.098  1.00  0.00     0.037 A 
BRANCH  63  77
ATOM     77  C   UNL     1      -5.904  -0.592  -4.052  1.00  0.00     0.064 A 
ATOM     78  C   UNL     1      -6.123  -1.610  -4.989  1.00  0.00     0.173 A 
ATOM     79  C   UNL     1      -5.151   0.521  -4.475  1.00  0.00     0.173 A 
ATOM     80  F   UNL     1      -6.850  -2.688  -4.660  1.00  0.00    -0.203 F 
ATOM     81  C   UNL     1      -5.580  -1.539  -6.272  1.00  0.00     0.198 A 
ATOM     82  C   UNL     1      -4.657   0.615  -5.775  1.00  0.00     0.198 A 
ATOM     83  F   UNL     1      -4.924   1.545  -3.636  1.00  0.00    -0.203 F 
ATOM     84  F   UNL     1      -5.759  -2.555  -7.127  1.00  0.00    -0.200 F 
ATOM     85  C   UNL     1      -4.861  -0.422  -6.669  1.00  0.00     0.200 A 
ATOM     86  F   UNL     1      -4.003   1.718  -6.167  1.00  0.00    -0.200 F 
ATOM     87  F   UNL     1      -4.375  -0.343  -7.915  1.00  0.00    -0.200 F 
ENDBRANCH  63  77
BRANCH  64  88
ATOM     88  C   UNL     1      -9.201  -0.586   5.339  1.00  0.00     0.064 A 
ATOM     89  C   UNL     1     -10.480  -1.100   5.590  1.00  0.00     0.173 A 
ATOM     90  C   UNL     1      -8.427  -0.186   6.437  1.00  0.00     0.173 A 
ATOM     91  F   UNL     1     -11.260  -1.485   4.569  1.00  0.00    -0.203 F 
ATOM     92  C   UNL     1     -10.969  -1.205   6.889  1.00  0.00     0.198 A 
ATOM     93  C   UNL     1      -8.904  -0.323   7.738  1.00  0.00     0.198 A 
ATOM     94  F   UNL     1      -7.191   0.298   6.247  1.00  0.00    -0.203 F 
ATOM     95  F   UNL     1     -12.207  -1.671   7.101  1.00  0.00    -0.200 F 
ATOM     96  C   UNL     1     -10.176  -0.827   7.963  1.00  0.00     0.200 A 
ATOM     97  F   UNL     1      -8.125   0.020   8.773  1.00  0.00    -0.200 F 
ATOM     98  F   UNL     1     -10.638  -0.949   9.214  1.00  0.00    -0.200 F 
ENDBRANCH  64  88
BRANCH  76  99
ATOM     99  C   UNL     1     -10.919   3.042  -0.388  1.00  0.00     0.064 A 
ATOM    100  C   UNL     1     -10.815   4.346   0.116  1.00  0.00     0.173 A 
ATOM    101  C   UNL     1     -11.985   2.757  -1.257  1.00  0.00     0.173 A 
ATOM    102  F   UNL     1      -9.820   4.668   0.956  1.00  0.00    -0.203 F 
ATOM    103  C   UNL     1     -11.746   5.324  -0.228  1.00  0.00     0.198 A 
ATOM    104  C   UNL     1     -12.897   3.744  -1.621  1.00  0.00     0.198 A 
ATOM    105  F   UNL     1     -12.126   1.528  -1.775  1.00  0.00    -0.203 F 
ATOM    106  F   UNL     1     -11.643   6.556   0.289  1.00  0.00    -0.200 F 
ATOM    107  C   UNL     1     -12.779   5.026  -1.105  1.00  0.00     0.200 A 
ATOM    108  F   UNL     1     -13.884   3.459  -2.482  1.00  0.00    -0.200 F 
ATOM    109  F   UNL     1     -13.661   5.973  -1.451  1.00  0.00    -0.200 F 
ENDBRANCH  76  99
ENDBRANCH  50  51
ENDBRANCH  43  45
ENDBRANCH  42  43
ENDBRANCH  41  42
ENDBRANCH  40  41
ENDBRANCH  39  40
ENDBRANCH  38  39
ENDBRANCH   1  38
TORSDOF 23
