REMARK SMILES O=C(CC[N@H+]1CCC[C@@H](C(=O)OCCOCCOCCOC(=O)c2ccc(-c3c4nc(c(-c5c(F)c(F)c(F)c(F)c5F)c5ccc([nH]5)c(-c5c(F)c(F)c(F)c(F)c5F)c5nc(c(-c6c(F)c(F)c(F)c(F)c6F)c6ccc3[nH]6)C=C5)C=C4)cc2)C1)Nc1cccc(F)c1
REMARK SMILES IDX 16 1 15 2 14 3 13 4 12 5 10 6 11 7 9 8 5 9 6 10 87 11 7 13
REMARK SMILES IDX 8 14 4 15 3 16 2 17 1 18 88 19 89 21 90 22 95 23 91 24 93 25
REMARK SMILES IDX 92 26 94 27 17 28 18 29 19 30 20 31 21 32 22 33 23 34 24 35
REMARK SMILES IDX 25 36 86 37 26 38 85 39 27 40 28 41 29 42 79 43 30 44 84 45
REMARK SMILES IDX 78 46 80 47 31 48 83 49 77 50 76 51 32 53 64 54 44 55 63 56
REMARK SMILES IDX 45 57 48 58 62 59 81 60 46 61 47 62 61 64 82 65 49 66 33 67
REMARK SMILES IDX 34 68 42 69 35 70 36 71 40 72 43 73 37 74 38 75 41 76 39 77
REMARK SMILES IDX 65 78 66 79 74 80 67 81 68 82 72 83 75 84 69 85 70 86 73 87
REMARK SMILES IDX 71 88 50 89 51 90 59 91 52 92 53 93 57 94 60 95 54 96 55 97
REMARK SMILES IDX 58 98 56 99
REMARK H PARENT 5 12 88 20 80 52 48 63
REMARK Flexibility Score: inf
ROOT
ATOM      1  C   UNL     1      10.191   0.991   2.688  1.00  0.00     0.188 C 
ENDROOT
BRANCH   1   2
ATOM      2  O   UNL     1      11.363   1.767   2.554  1.00  0.00    -0.376 OA
BRANCH   2   3
ATOM      3  C   UNL     1      11.556   2.476   1.339  1.00  0.00     0.202 C 
BRANCH   3   4
ATOM      4  C   UNL     1      10.407   3.254   0.661  1.00  0.00     0.261 C 
BRANCH   4   5
ATOM      5  O   UNL     1       9.083   2.749   0.896  1.00  0.00    -0.463 OA
BRANCH   5   6
ATOM      6  C   UNL     1       8.493   1.990  -0.061  1.00  0.00     0.314 C 
ATOM      7  O   UNL     1       8.962   1.768  -1.168  1.00  0.00    -0.252 OA
BRANCH   6   8
ATOM      8  C   UNL     1       7.211   1.361   0.475  1.00  0.00     0.154 C 
ATOM      9  N   UNL     1       4.804   1.034  -0.086  1.00  0.00    -0.334 N 
ATOM     10  C   UNL     1       5.093  -0.351  -0.486  1.00  0.00     0.262 C 
ATOM     11  C   UNL     1       6.020   1.847  -0.344  1.00  0.00     0.277 C 
ATOM     12  H   UNL     1       4.546   0.988   0.900  1.00  0.00     0.348 HD
ATOM     13  C   UNL     1       6.063  -0.917   0.546  1.00  0.00     0.062 C 
ATOM     14  C   UNL     1       7.384  -0.166   0.515  1.00  0.00     0.027 C 
BRANCH   9  15
ATOM     15  C   UNL     1       3.652   1.676  -0.746  1.00  0.00     0.272 C 
BRANCH  15  16
ATOM     16  C   UNL     1       2.457   0.820  -1.150  1.00  0.00     0.161 C 
BRANCH  16  17
ATOM     17  C   UNL     1       1.620   0.148  -0.075  1.00  0.00     0.230 C 
ATOM     18  O   UNL     1       0.433  -0.082  -0.305  1.00  0.00    -0.275 OA
ATOM     19  N   UNL     1       2.299  -0.267   1.052  1.00  0.00    -0.326 N 
ATOM     20  H   UNL     1       3.144   0.193   1.261  1.00  0.00     0.169 HD
BRANCH  19  21
ATOM     21  C   UNL     1       1.889  -1.292   1.934  1.00  0.00     0.044 A 
ATOM     22  C   UNL     1       2.590  -1.451   3.137  1.00  0.00     0.026 A 
ATOM     23  C   UNL     1       0.867  -2.194   1.625  1.00  0.00     0.065 A 
ATOM     24  C   UNL     1       2.251  -2.477   4.030  1.00  0.00     0.005 A 
ATOM     25  C   UNL     1       0.549  -3.219   2.511  1.00  0.00     0.125 A 
ATOM     26  C   UNL     1       1.225  -3.365   3.714  1.00  0.00     0.039 A 
ATOM     27  F   UNL     1      -0.418  -4.089   2.191  1.00  0.00    -0.207 F 
ENDBRANCH  19  21
ENDBRANCH  16  17
ENDBRANCH  15  16
ENDBRANCH   9  15
ENDBRANCH   6   8
ENDBRANCH   5   6
ENDBRANCH   4   5
ENDBRANCH   3   4
ENDBRANCH   2   3
ENDBRANCH   1   2
BRANCH   1  28
ATOM     28  C   UNL     1       9.113   1.674   3.559  1.00  0.00     0.188 C 
BRANCH  28  29
ATOM     29  O   UNL     1       9.358   2.954   4.113  1.00  0.00    -0.376 OA
BRANCH  29  30
ATOM     30  C   UNL     1      10.580   3.167   4.805  1.00  0.00     0.202 C 
BRANCH  30  31
ATOM     31  C   UNL     1      11.090   2.140   5.840  1.00  0.00     0.261 C 
BRANCH  31  32
ATOM     32  O   UNL     1      10.936   0.745   5.511  1.00  0.00    -0.460 OA
BRANCH  32  33
ATOM     33  C   UNL     1       9.987   0.069   6.204  1.00  0.00     0.338 C 
ATOM     34  O   UNL     1       9.271   0.507   7.099  1.00  0.00    -0.246 OA
BRANCH  33  35
ATOM     35  C   UNL     1       9.769  -1.264   5.602  1.00  0.00     0.060 A 
ATOM     36  C   UNL     1       8.520  -1.555   5.027  1.00  0.00     0.016 A 
ATOM     37  C   UNL     1      10.758  -2.245   5.656  1.00  0.00     0.016 A 
ATOM     38  C   UNL     1       8.251  -2.829   4.521  1.00  0.00     0.010 A 
ATOM     39  C   UNL     1      10.476  -3.531   5.177  1.00  0.00     0.010 A 
ATOM     40  C   UNL     1       9.213  -3.838   4.634  1.00  0.00    -0.014 A 
BRANCH  40  41
ATOM     41  C   UNL     1       8.845  -5.253   4.364  1.00  0.00     0.031 A 
ATOM     42  C   UNL     1       8.494  -6.139   5.528  1.00  0.00     0.074 A 
ATOM     43  C   UNL     1       8.822  -5.750   3.115  1.00  0.00     0.049 A 
ATOM     44  N   UNL     1       8.234  -7.422   5.553  1.00  0.00    -0.248 NA
ATOM     45  C   UNL     1       8.433  -5.487   6.846  1.00  0.00     0.031 C 
ATOM     46  C   UNL     1       9.091  -4.992   1.896  1.00  0.00     0.029 A 
ATOM     47  N   UNL     1       8.576  -7.028   2.671  1.00  0.00    -0.354 N 
ATOM     48  C   UNL     1       7.992  -7.732   6.885  1.00  0.00     0.074 A 
ATOM     49  C   UNL     1       8.162  -6.511   7.642  1.00  0.00     0.031 C 
ATOM     50  C   UNL     1       9.019  -5.824   0.842  1.00  0.00     0.029 A 
ATOM     51  C   UNL     1       8.736  -7.179   1.315  1.00  0.00     0.049 A 
ATOM     52  H   UNL     1       8.310  -7.764   3.267  1.00  0.00     0.167 HD
ATOM     53  C   UNL     1       7.655  -8.926   7.429  1.00  0.00     0.037 A 
ATOM     54  C   UNL     1       8.691  -8.289   0.551  1.00  0.00     0.037 A 
ATOM     55  C   UNL     1       7.491 -10.144   6.678  1.00  0.00     0.049 A 
ATOM     56  C   UNL     1       8.398  -9.625   1.192  1.00  0.00     0.074 A 
ATOM     57  C   UNL     1       7.132 -11.399   7.139  1.00  0.00     0.029 A 
ATOM     58  N   UNL     1       7.689 -10.262   5.311  1.00  0.00    -0.354 N 
ATOM     59  N   UNL     1       8.146  -9.907   2.447  1.00  0.00    -0.248 NA
ATOM     60  C   UNL     1       8.383 -10.798   0.304  1.00  0.00     0.031 C 
ATOM     61  C   UNL     1       7.175 -12.289   6.061  1.00  0.00     0.029 A 
ATOM     62  C   UNL     1       7.491 -11.576   4.916  1.00  0.00     0.049 A 
ATOM     63  H   UNL     1       7.934  -9.523   4.709  1.00  0.00     0.167 HD
ATOM     64  C   UNL     1       7.907 -11.276   2.493  1.00  0.00     0.074 A 
ATOM     65  C   UNL     1       8.034 -11.767   1.138  1.00  0.00     0.031 C 
ATOM     66  C   UNL     1       7.607 -12.055   3.562  1.00  0.00     0.037 A 
BRANCH  53  67
ATOM     67  C   UNL     1       7.474  -8.984   8.919  1.00  0.00     0.064 A 
ATOM     68  C   UNL     1       6.388  -8.366   9.557  1.00  0.00     0.173 A 
ATOM     69  C   UNL     1       8.383  -9.698   9.715  1.00  0.00     0.173 A 
ATOM     70  F   UNL     1       5.498  -7.659   8.845  1.00  0.00    -0.203 F 
ATOM     71  C   UNL     1       6.235  -8.438  10.940  1.00  0.00     0.198 A 
ATOM     72  C   UNL     1       8.207  -9.795  11.093  1.00  0.00     0.198 A 
ATOM     73  F   UNL     1       9.436 -10.311   9.156  1.00  0.00    -0.203 F 
ATOM     74  F   UNL     1       5.218  -7.796  11.534  1.00  0.00    -0.200 F 
ATOM     75  C   UNL     1       7.139  -9.158  11.705  1.00  0.00     0.200 A 
ATOM     76  F   UNL     1       9.075 -10.505  11.828  1.00  0.00    -0.200 F 
ATOM     77  F   UNL     1       6.986  -9.233  13.034  1.00  0.00    -0.200 F 
ENDBRANCH  53  67
BRANCH  54  78
ATOM     78  C   UNL     1       8.949  -8.200  -0.912  1.00  0.00     0.064 A 
ATOM     79  C   UNL     1       7.937  -8.472  -1.844  1.00  0.00     0.173 A 
ATOM     80  C   UNL     1      10.221  -7.877  -1.409  1.00  0.00     0.173 A 
ATOM     81  F   UNL     1       6.712  -8.814  -1.421  1.00  0.00    -0.203 F 
ATOM     82  C   UNL     1       8.193  -8.447  -3.214  1.00  0.00     0.198 A 
ATOM     83  C   UNL     1      10.467  -7.820  -2.779  1.00  0.00     0.198 A 
ATOM     84  F   UNL     1      11.226  -7.614  -0.561  1.00  0.00    -0.203 F 
ATOM     85  F   UNL     1       7.222  -8.766  -4.080  1.00  0.00    -0.200 F 
ATOM     86  C   UNL     1       9.456  -8.114  -3.681  1.00  0.00     0.200 A 
ATOM     87  F   UNL     1      11.686  -7.487  -3.225  1.00  0.00    -0.200 F 
ATOM     88  F   UNL     1       9.701  -8.089  -4.998  1.00  0.00    -0.200 F 
ENDBRANCH  54  78
BRANCH  66  89
ATOM     89  C   UNL     1       7.343 -13.515   3.311  1.00  0.00     0.064 A 
ATOM     90  C   UNL     1       8.365 -14.403   2.942  1.00  0.00     0.173 A 
ATOM     91  C   UNL     1       6.053 -14.041   3.490  1.00  0.00     0.173 A 
ATOM     92  F   UNL     1       9.613 -13.952   2.746  1.00  0.00    -0.203 F 
ATOM     93  C   UNL     1       8.099 -15.755   2.732  1.00  0.00     0.198 A 
ATOM     94  C   UNL     1       5.799 -15.399   3.314  1.00  0.00     0.198 A 
ATOM     95  F   UNL     1       5.040 -13.241   3.852  1.00  0.00    -0.203 F 
ATOM     96  F   UNL     1       9.081 -16.573   2.330  1.00  0.00    -0.200 F 
ATOM     97  C   UNL     1       6.820 -16.253   2.927  1.00  0.00     0.200 A 
ATOM     98  F   UNL     1       4.566 -15.881   3.521  1.00  0.00    -0.200 F 
ATOM     99  F   UNL     1       6.570 -17.555   2.735  1.00  0.00    -0.200 F 
ENDBRANCH  66  89
ENDBRANCH  40  41
ENDBRANCH  33  35
ENDBRANCH  32  33
ENDBRANCH  31  32
ENDBRANCH  30  31
ENDBRANCH  29  30
ENDBRANCH  28  29
ENDBRANCH   1  28
TORSDOF 21
