REMARK SMILES COc1cc(/C=C2/SC(=S)N(c3ccc(C)cc3C)C2=O)ccc1O[C@@H](C)C(=O)OCCOCCOCCOC(=O)c1ccc(-c2c3nc(c(-c4c(F)c(F)c(F)c(F)c4F)c4ccc([nH]4)c(-c4c(F)c(F)c(F)c(F)c4F)c4nc(c(-c5c(F)c(F)c(F)c(F)c5F)c5ccc2[nH]5)C=C4)C=C3)cc1
REMARK SMILES IDX 34 1 33 2 32 3 31 4 30 5 28 6 29 7 26 8 27 9 25 10 24 11
REMARK SMILES IDX 3 12 4 13 5 14 23 15 22 16 2 17 1 18 6 19 7 20 8 21 20 22
REMARK SMILES IDX 9 23 11 24 21 25 10 26 12 27 13 28 18 29 14 30 17 31 19 32
REMARK SMILES IDX 15 33 16 34 35 35 36 36 37 37 38 38 39 39 40 40 41 41 42 42
REMARK SMILES IDX 43 43 104 44 44 45 103 46 45 47 46 48 47 49 97 50 48 51
REMARK SMILES IDX 102 52 96 53 98 54 49 55 101 56 95 57 94 58 50 60 82 61
REMARK SMILES IDX 62 62 81 63 63 64 66 65 80 66 99 67 64 68 65 69 79 71 100 72
REMARK SMILES IDX 67 73 51 74 52 75 60 76 53 77 54 78 58 79 61 80 55 81 56 82
REMARK SMILES IDX 59 83 57 84 83 85 84 86 92 87 85 88 86 89 90 90 93 91 87 92
REMARK SMILES IDX 88 93 91 94 89 95 68 96 69 97 77 98 70 99 71 100 75 101
REMARK SMILES IDX 78 102 72 103 73 104 76 105 74 106
REMARK H PARENT 98 59 66 70
REMARK Flexibility Score: inf
ROOT
ATOM      1  C   UNL     1       3.436  -3.413  -1.445  1.00  0.00     0.188 C 
ENDROOT
BRANCH   1   2
ATOM      2  O   UNL     1       2.560  -4.519  -1.585  1.00  0.00    -0.376 OA
BRANCH   2   3
ATOM      3  C   UNL     1       1.153  -4.300  -1.585  1.00  0.00     0.202 C 
BRANCH   3   4
ATOM      4  C   UNL     1       0.530  -3.226  -0.690  1.00  0.00     0.261 C 
BRANCH   4   5
ATOM      5  O   UNL     1       1.216  -1.974  -0.784  1.00  0.00    -0.461 OA
BRANCH   5   6
ATOM      6  C   UNL     1       1.389  -1.260   0.356  1.00  0.00     0.347 C 
ATOM      7  O   UNL     1       1.014  -1.629   1.464  1.00  0.00    -0.248 OA
BRANCH   6   8
ATOM      8  C   UNL     1       2.254   0.009   0.112  1.00  0.00     0.279 C 
ATOM      9  C   UNL     1       2.167   1.005   1.270  1.00  0.00     0.066 C 
BRANCH   8  10
ATOM     10  O   UNL     1       2.402   0.789  -1.053  1.00  0.00    -0.475 OA
BRANCH  10  11
ATOM     11  C   UNL     1       1.518   0.971  -2.064  1.00  0.00     0.162 A 
ATOM     12  C   UNL     1       0.183   0.596  -2.203  1.00  0.00     0.161 A 
ATOM     13  C   UNL     1      -0.458   0.752  -3.448  1.00  0.00     0.058 A 
ATOM     14  C   UNL     1       0.205   1.305  -4.554  1.00  0.00    -0.020 A 
ATOM     15  C   UNL     1       2.139   1.615  -3.152  1.00  0.00     0.051 A 
ATOM     16  C   UNL     1       1.494   1.794  -4.378  1.00  0.00     0.012 A 
BRANCH  12  17
ATOM     17  O   UNL     1      -0.535  -0.109  -1.280  1.00  0.00    -0.493 OA
ATOM     18  C   UNL     1      -1.110   0.680  -0.248  1.00  0.00     0.278 C 
ENDBRANCH  12  17
BRANCH  14  19
ATOM     19  C   UNL     1      -0.463   1.319  -5.863  1.00  0.00     0.029 C 
ATOM     20  C   UNL     1      -0.060   0.682  -6.978  1.00  0.00     0.081 C 
ATOM     21  S   UNL     1      -1.028   0.660  -8.414  1.00  0.00    -0.054 SA
ATOM     22  C   UNL     1       1.177  -0.131  -7.204  1.00  0.00     0.270 C 
ATOM     23  C   UNL     1       0.022  -0.491  -9.239  1.00  0.00     0.152 C 
ATOM     24  N   UNL     1       1.137  -0.730  -8.461  1.00  0.00    -0.261 N 
ATOM     25  O   UNL     1       2.099  -0.212  -6.405  1.00  0.00    -0.268 OA
ATOM     26  S   UNL     1      -0.397  -1.169 -10.708  1.00  0.00    -0.051 S 
BRANCH  24  27
ATOM     27  C   UNL     1       2.237  -1.531  -8.871  1.00  0.00     0.054 A 
ATOM     28  C   UNL     1       2.420  -2.772  -8.248  1.00  0.00     0.027 A 
ATOM     29  C   UNL     1       3.196  -1.067  -9.790  1.00  0.00    -0.027 A 
ATOM     30  C   UNL     1       3.557  -3.540  -8.505  1.00  0.00     0.005 A 
ATOM     31  C   UNL     1       4.340  -1.853 -10.031  1.00  0.00     0.009 A 
ATOM     32  C   UNL     1       3.083   0.238 -10.525  1.00  0.00     0.046 C 
ATOM     33  C   UNL     1       4.540  -3.075  -9.378  1.00  0.00    -0.051 A 
ATOM     34  C   UNL     1       5.817  -3.845  -9.545  1.00  0.00     0.044 C 
ENDBRANCH  24  27
ENDBRANCH  14  19
ENDBRANCH  10  11
ENDBRANCH   8  10
ENDBRANCH   6   8
ENDBRANCH   5   6
ENDBRANCH   4   5
ENDBRANCH   3   4
ENDBRANCH   2   3
ENDBRANCH   1   2
BRANCH   1  35
ATOM     35  C   UNL     1       3.395  -2.258  -2.469  1.00  0.00     0.188 C 
BRANCH  35  36
ATOM     36  O   UNL     1       2.401  -2.250  -3.462  1.00  0.00    -0.376 OA
BRANCH  36  37
ATOM     37  C   UNL     1       2.481  -3.190  -4.518  1.00  0.00     0.202 C 
BRANCH  37  38
ATOM     38  C   UNL     1       3.817  -3.719  -5.061  1.00  0.00     0.261 C 
BRANCH  38  39
ATOM     39  O   UNL     1       4.821  -4.027  -4.085  1.00  0.00    -0.460 OA
BRANCH  39  40
ATOM     40  C   UNL     1       5.966  -3.311  -4.206  1.00  0.00     0.338 C 
ATOM     41  O   UNL     1       6.276  -2.523  -5.089  1.00  0.00    -0.246 OA
BRANCH  40  42
ATOM     42  C   UNL     1       6.761  -3.463  -2.980  1.00  0.00     0.060 A 
ATOM     43  C   UNL     1       6.907  -2.357  -2.127  1.00  0.00     0.016 A 
ATOM     44  C   UNL     1       7.388  -4.674  -2.698  1.00  0.00     0.016 A 
ATOM     45  C   UNL     1       7.699  -2.458  -0.987  1.00  0.00     0.010 A 
ATOM     46  C   UNL     1       8.207  -4.763  -1.573  1.00  0.00     0.010 A 
ATOM     47  C   UNL     1       8.388  -3.649  -0.731  1.00  0.00    -0.014 A 
BRANCH  47  48
ATOM     48  C   UNL     1       9.451  -3.679   0.297  1.00  0.00     0.031 A 
ATOM     49  C   UNL     1      10.875  -3.515  -0.151  1.00  0.00     0.074 A 
ATOM     50  C   UNL     1       9.159  -3.859   1.596  1.00  0.00     0.049 A 
ATOM     51  N   UNL     1      11.982  -3.616   0.538  1.00  0.00    -0.248 NA
ATOM     52  C   UNL     1      11.077  -3.203  -1.575  1.00  0.00     0.031 C 
ATOM     53  C   UNL     1       7.814  -3.982   2.151  1.00  0.00     0.029 A 
ATOM     54  N   UNL     1       9.988  -3.989   2.682  1.00  0.00    -0.354 N 
ATOM     55  C   UNL     1      13.009  -3.395  -0.370  1.00  0.00     0.074 A 
ATOM     56  C   UNL     1      12.398  -3.183  -1.664  1.00  0.00     0.031 C 
ATOM     57  C   UNL     1       7.909  -4.193   3.476  1.00  0.00     0.029 A 
ATOM     58  C   UNL     1       9.321  -4.260   3.850  1.00  0.00     0.049 A 
ATOM     59  H   UNL     1      10.967  -3.897   2.628  1.00  0.00     0.167 HD
ATOM     60  C   UNL     1      14.343  -3.369  -0.141  1.00  0.00     0.037 A 
ATOM     61  C   UNL     1       9.803  -4.560   5.072  1.00  0.00     0.037 A 
ATOM     62  C   UNL     1      14.942  -3.586   1.149  1.00  0.00     0.049 A 
ATOM     63  C   UNL     1      11.296  -4.603   5.284  1.00  0.00     0.074 A 
ATOM     64  C   UNL     1      16.282  -3.562   1.492  1.00  0.00     0.029 A 
ATOM     65  N   UNL     1      14.236  -3.877   2.307  1.00  0.00    -0.354 N 
ATOM     66  N   UNL     1      12.264  -4.370   4.430  1.00  0.00    -0.248 NA
ATOM     67  C   UNL     1      11.764  -4.948   6.634  1.00  0.00     0.031 C 
ATOM     68  C   UNL     1      16.392  -3.902   2.844  1.00  0.00     0.029 A 
ATOM     69  C   UNL     1      15.116  -4.065   3.361  1.00  0.00     0.049 A 
ATOM     70  H   UNL     1      13.256  -3.940   2.371  1.00  0.00     0.167 HD
ATOM     71  C   UNL     1      13.449  -4.505   5.145  1.00  0.00     0.074 A 
ATOM     72  C   UNL     1      13.077  -4.827   6.506  1.00  0.00     0.031 C 
ATOM     73  C   UNL     1      14.729  -4.372   4.715  1.00  0.00     0.037 A 
BRANCH  60  74
ATOM     74  C   UNL     1      15.245  -3.130  -1.317  1.00  0.00     0.064 A 
ATOM     75  C   UNL     1      15.309  -1.886  -1.962  1.00  0.00     0.173 A 
ATOM     76  C   UNL     1      16.083  -4.154  -1.785  1.00  0.00     0.173 A 
ATOM     77  F   UNL     1      14.518  -0.877  -1.565  1.00  0.00    -0.203 F 
ATOM     78  C   UNL     1      16.160  -1.683  -3.046  1.00  0.00     0.198 A 
ATOM     79  C   UNL     1      16.956  -3.939  -2.848  1.00  0.00     0.198 A 
ATOM     80  F   UNL     1      16.063  -5.364  -1.204  1.00  0.00    -0.203 F 
ATOM     81  F   UNL     1      16.168  -0.501  -3.678  1.00  0.00    -0.200 F 
ATOM     82  C   UNL     1      16.988  -2.707  -3.482  1.00  0.00     0.200 A 
ATOM     83  F   UNL     1      17.766  -4.925  -3.257  1.00  0.00    -0.200 F 
ATOM     84  F   UNL     1      17.814  -2.507  -4.519  1.00  0.00    -0.200 F 
ENDBRANCH  60  74
BRANCH  61  85
ATOM     85  C   UNL     1       8.870  -4.864   6.190  1.00  0.00     0.064 A 
ATOM     86  C   UNL     1       8.777  -4.018   7.304  1.00  0.00     0.173 A 
ATOM     87  C   UNL     1       8.077  -6.021   6.184  1.00  0.00     0.173 A 
ATOM     88  F   UNL     1       9.535  -2.913   7.370  1.00  0.00    -0.203 F 
ATOM     89  C   UNL     1       7.948  -4.330   8.380  1.00  0.00     0.198 A 
ATOM     90  C   UNL     1       7.222  -6.315   7.245  1.00  0.00     0.198 A 
ATOM     91  F   UNL     1       8.129  -6.867   5.145  1.00  0.00    -0.203 F 
ATOM     92  F   UNL     1       7.924  -3.534   9.457  1.00  0.00    -0.200 F 
ATOM     93  C   UNL     1       7.167  -5.476   8.347  1.00  0.00     0.200 A 
ATOM     94  F   UNL     1       6.461  -7.417   7.203  1.00  0.00    -0.200 F 
ATOM     95  F   UNL     1       6.370  -5.776   9.381  1.00  0.00    -0.200 F 
ENDBRANCH  61  85
BRANCH  73  96
ATOM     96  C   UNL     1      15.823  -4.522   5.735  1.00  0.00     0.064 A 
ATOM     97  C   UNL     1      16.134  -5.761   6.315  1.00  0.00     0.173 A 
ATOM     98  C   UNL     1      16.601  -3.413   6.104  1.00  0.00     0.173 A 
ATOM     99  F   UNL     1      15.414  -6.850   6.007  1.00  0.00    -0.203 F 
ATOM    100  C   UNL     1      17.161  -5.877   7.248  1.00  0.00     0.198 A 
ATOM    101  C   UNL     1      17.651  -3.540   7.008  1.00  0.00     0.198 A 
ATOM    102  F   UNL     1      16.354  -2.206   5.572  1.00  0.00    -0.203 F 
ATOM    103  F   UNL     1      17.404  -7.059   7.830  1.00  0.00    -0.200 F 
ATOM    104  C   UNL     1      17.924  -4.769   7.587  1.00  0.00     0.200 A 
ATOM    105  F   UNL     1      18.399  -2.472   7.319  1.00  0.00    -0.200 F 
ATOM    106  F   UNL     1      18.919  -4.886   8.478  1.00  0.00    -0.200 F 
ENDBRANCH  73  96
ENDBRANCH  47  48
ENDBRANCH  40  42
ENDBRANCH  39  40
ENDBRANCH  38  39
ENDBRANCH  37  38
ENDBRANCH  36  37
ENDBRANCH  35  36
ENDBRANCH   1  35
TORSDOF 22
