REMARK SMILES [NH3+][C@@H](Cc1cccc(O)c1)C(=O)OCCOCCOCCOC(=O)c1ccc(-c2c3nc(c(-c4c(F)c(F)c(F)c(F)c4F)c4ccc([nH]4)c(-c4c(F)c(F)c(F)c(F)c4F)c4nc(c(-c5c(F)c(F)c(F)c(F)c5F)c5ccc2[nH]5)C=C4)C=C3)cc1
REMARK SMILES IDX 17 1 16 2 15 3 14 4 13 5 11 6 12 7 2 8 1 9 3 13 4 14 5 15
REMARK SMILES IDX 10 16 6 17 8 18 7 19 9 20 18 22 19 23 20 24 21 25 22 26
REMARK SMILES IDX 23 27 24 28 25 29 26 30 87 31 27 32 86 33 28 34 29 35 30 36
REMARK SMILES IDX 80 37 31 38 85 39 79 40 81 41 32 42 84 43 78 44 77 45 33 47
REMARK SMILES IDX 65 48 45 49 64 50 46 51 49 52 63 53 82 54 47 55 48 56 62 58
REMARK SMILES IDX 83 59 50 60 34 61 35 62 43 63 36 64 37 65 41 66 44 67 38 68
REMARK SMILES IDX 39 69 42 70 40 71 66 72 67 73 75 74 68 75 69 76 73 77 76 78
REMARK SMILES IDX 70 79 71 80 74 81 72 82 51 83 52 84 60 85 53 86 54 87 58 88
REMARK SMILES IDX 61 89 55 90 56 91 59 92 57 93
REMARK H PARENT 1 10 1 11 1 12 9 21 81 46 49 57
REMARK Flexibility Score: inf
ROOT
ATOM      1  C   UNL     1      -2.126  -0.061   1.922  1.00  0.00     0.188 C 
ENDROOT
BRANCH   1   2
ATOM      2  O   UNL     1      -3.437   0.466   1.744  1.00  0.00    -0.376 OA
BRANCH   2   3
ATOM      3  C   UNL     1      -3.795   0.985   0.468  1.00  0.00     0.202 C 
BRANCH   3   4
ATOM      4  C   UNL     1      -2.881   2.024  -0.205  1.00  0.00     0.261 C 
BRANCH   4   5
ATOM      5  O   UNL     1      -1.467   1.745  -0.161  1.00  0.00    -0.459 OA
BRANCH   5   6
ATOM      6  C   UNL     1      -0.678   2.693   0.425  1.00  0.00     0.365 C 
ATOM      7  O   UNL     1      -1.094   3.744   0.904  1.00  0.00    -0.245 OA
BRANCH   6   8
ATOM      8  C   UNL     1       0.829   2.361   0.382  1.00  0.00     0.296 C 
BRANCH   8   9
ATOM      9  N   UNL     1       1.140   0.915   0.444  1.00  0.00    -0.346 N 
ATOM     10  H   UNL     1       2.151   0.783   0.411  1.00  0.00     0.345 HD
ATOM     11  H   UNL     1       0.709   0.440  -0.350  1.00  0.00     0.345 HD
ATOM     12  H   UNL     1       0.774   0.525   1.312  1.00  0.00     0.345 HD
ENDBRANCH   8   9
BRANCH   8  13
ATOM     13  C   UNL     1       1.515   3.048  -0.810  1.00  0.00     0.113 C 
BRANCH  13  14
ATOM     14  C   UNL     1       0.879   2.796  -2.159  1.00  0.00    -0.038 A 
ATOM     15  C   UNL     1       0.234   3.850  -2.820  1.00  0.00     0.004 A 
ATOM     16  C   UNL     1       0.887   1.531  -2.762  1.00  0.00     0.050 A 
ATOM     17  C   UNL     1      -0.415   3.636  -4.037  1.00  0.00     0.004 A 
ATOM     18  C   UNL     1       0.200   1.317  -3.953  1.00  0.00     0.115 A 
ATOM     19  C   UNL     1      -0.448   2.362  -4.600  1.00  0.00     0.046 A 
BRANCH  18  20
ATOM     20  O   UNL     1       0.177   0.048  -4.452  1.00  0.00    -0.508 OA
ATOM     21  H   UNL     1      -0.276  -0.133  -5.252  1.00  0.00     0.293 HD
ENDBRANCH  18  20
ENDBRANCH  13  14
ENDBRANCH   8  13
ENDBRANCH   6   8
ENDBRANCH   5   6
ENDBRANCH   4   5
ENDBRANCH   3   4
ENDBRANCH   2   3
ENDBRANCH   1   2
BRANCH   1  22
ATOM     22  C   UNL     1      -1.540  -0.997   0.847  1.00  0.00     0.188 C 
BRANCH  22  23
ATOM     23  O   UNL     1      -2.368  -1.187  -0.273  1.00  0.00    -0.376 OA
BRANCH  23  24
ATOM     24  C   UNL     1      -2.895  -2.478  -0.495  1.00  0.00     0.202 C 
BRANCH  24  25
ATOM     25  C   UNL     1      -3.510  -3.300   0.658  1.00  0.00     0.261 C 
BRANCH  25  26
ATOM     26  O   UNL     1      -3.006  -3.080   1.988  1.00  0.00    -0.460 OA
BRANCH  26  27
ATOM     27  C   UNL     1      -1.934  -3.806   2.379  1.00  0.00     0.338 C 
ATOM     28  O   UNL     1      -1.338  -4.650   1.721  1.00  0.00    -0.246 OA
BRANCH  27  29
ATOM     29  C   UNL     1      -1.444  -3.269   3.669  1.00  0.00     0.060 A 
ATOM     30  C   UNL     1      -0.193  -2.632   3.719  1.00  0.00     0.016 A 
ATOM     31  C   UNL     1      -2.208  -3.397   4.829  1.00  0.00     0.016 A 
ATOM     32  C   UNL     1       0.303  -2.139   4.930  1.00  0.00     0.010 A 
ATOM     33  C   UNL     1      -1.697  -2.930   6.046  1.00  0.00     0.010 A 
ATOM     34  C   UNL     1      -0.428  -2.324   6.110  1.00  0.00    -0.014 A 
BRANCH  34  35
ATOM     35  C   UNL     1       0.203  -2.069   7.432  1.00  0.00     0.031 A 
ATOM     36  C   UNL     1       0.765  -3.240   8.191  1.00  0.00     0.074 A 
ATOM     37  C   UNL     1       0.271  -0.835   7.962  1.00  0.00     0.049 A 
ATOM     38  N   UNL     1       1.261  -3.293   9.401  1.00  0.00    -0.248 NA
ATOM     39  C   UNL     1       0.760  -4.532   7.486  1.00  0.00     0.031 C 
ATOM     40  C   UNL     1      -0.190   0.391   7.316  1.00  0.00     0.029 A 
ATOM     41  N   UNL     1       0.742  -0.417   9.184  1.00  0.00    -0.354 N 
ATOM     42  C   UNL     1       1.608  -4.622   9.608  1.00  0.00     0.074 A 
ATOM     43  C   UNL     1       1.245  -5.347   8.410  1.00  0.00     0.031 C 
ATOM     44  C   UNL     1      -0.002   1.423   8.159  1.00  0.00     0.029 A 
ATOM     45  C   UNL     1       0.556   0.924   9.416  1.00  0.00     0.049 A 
ATOM     46  H   UNL     1       1.172  -1.021   9.832  1.00  0.00     0.167 HD
ATOM     47  C   UNL     1       2.181  -5.187  10.697  1.00  0.00     0.037 A 
ATOM     48  C   UNL     1       0.779   1.656  10.527  1.00  0.00     0.037 A 
ATOM     49  C   UNL     1       2.543  -4.466  11.889  1.00  0.00     0.049 A 
ATOM     50  C   UNL     1       1.350   0.991  11.756  1.00  0.00     0.074 A 
ATOM     51  C   UNL     1       3.152  -4.947  13.036  1.00  0.00     0.029 A 
ATOM     52  N   UNL     1       2.321  -3.112  12.093  1.00  0.00    -0.354 N 
ATOM     53  N   UNL     1       1.697  -0.260  11.939  1.00  0.00    -0.248 NA
ATOM     54  C   UNL     1       1.563   1.845  12.935  1.00  0.00     0.031 C 
ATOM     55  C   UNL     1       3.237  -3.899  13.958  1.00  0.00     0.029 A 
ATOM     56  C   UNL     1       2.751  -2.748  13.360  1.00  0.00     0.049 A 
ATOM     57  H   UNL     1       1.917  -2.501  11.436  1.00  0.00     0.167 HD
ATOM     58  C   UNL     1       2.198  -0.336  13.234  1.00  0.00     0.074 A 
ATOM     59  C   UNL     1       2.122   0.998  13.789  1.00  0.00     0.031 C 
ATOM     60  C   UNL     1       2.680  -1.414  13.901  1.00  0.00     0.037 A 
BRANCH  47  61
ATOM     61  C   UNL     1       2.419  -6.669  10.668  1.00  0.00     0.064 A 
ATOM     62  C   UNL     1       3.391  -7.249   9.838  1.00  0.00     0.173 A 
ATOM     63  C   UNL     1       1.687  -7.519  11.512  1.00  0.00     0.173 A 
ATOM     64  F   UNL     1       4.109  -6.484   9.002  1.00  0.00    -0.203 F 
ATOM     65  C   UNL     1       3.603  -8.625   9.837  1.00  0.00     0.198 A 
ATOM     66  C   UNL     1       1.925  -8.890  11.533  1.00  0.00     0.198 A 
ATOM     67  F   UNL     1       0.748  -7.017  12.328  1.00  0.00    -0.203 F 
ATOM     68  F   UNL     1       4.502  -9.162   9.001  1.00  0.00    -0.200 F 
ATOM     69  C   UNL     1       2.877  -9.443  10.690  1.00  0.00     0.200 A 
ATOM     70  F   UNL     1       1.233  -9.676  12.369  1.00  0.00    -0.200 F 
ATOM     71  F   UNL     1       3.090 -10.766  10.695  1.00  0.00    -0.200 F 
ENDBRANCH  47  61
BRANCH  48  72
ATOM     72  C   UNL     1       0.442   3.106  10.544  1.00  0.00     0.064 A 
ATOM     73  C   UNL     1       1.442   4.083  10.648  1.00  0.00     0.173 A 
ATOM     74  C   UNL     1      -0.890   3.544  10.488  1.00  0.00     0.173 A 
ATOM     75  F   UNL     1       2.729   3.716  10.738  1.00  0.00    -0.203 F 
ATOM     76  C   UNL     1       1.123   5.438  10.714  1.00  0.00     0.198 A 
ATOM     77  C   UNL     1      -1.206   4.900  10.522  1.00  0.00     0.198 A 
ATOM     78  F   UNL     1      -1.887   2.651  10.399  1.00  0.00    -0.203 F 
ATOM     79  F   UNL     1       2.096   6.346  10.870  1.00  0.00    -0.200 F 
ATOM     80  C   UNL     1      -0.200   5.846  10.644  1.00  0.00     0.200 A 
ATOM     81  F   UNL     1      -2.486   5.290  10.445  1.00  0.00    -0.200 F 
ATOM     82  F   UNL     1      -0.506   7.149  10.707  1.00  0.00    -0.200 F 
ENDBRANCH  48  72
BRANCH  60  83
ATOM     83  C   UNL     1       3.211  -1.196  15.291  1.00  0.00     0.064 A 
ATOM     84  C   UNL     1       2.368  -0.892  16.371  1.00  0.00     0.173 A 
ATOM     85  C   UNL     1       4.584  -1.339  15.555  1.00  0.00     0.173 A 
ATOM     86  F   UNL     1       1.050  -0.734  16.175  1.00  0.00    -0.203 F 
ATOM     87  C   UNL     1       2.882  -0.711  17.653  1.00  0.00     0.198 A 
ATOM     88  C   UNL     1       5.088  -1.192  16.844  1.00  0.00     0.198 A 
ATOM     89  F   UNL     1       5.435  -1.639  14.562  1.00  0.00    -0.203 F 
ATOM     90  F   UNL     1       2.063  -0.370  18.659  1.00  0.00    -0.200 F 
ATOM     91  C   UNL     1       4.239  -0.869  17.890  1.00  0.00     0.200 A 
ATOM     92  F   UNL     1       6.398  -1.365  17.073  1.00  0.00    -0.200 F 
ATOM     93  F   UNL     1       4.729  -0.704  19.127  1.00  0.00    -0.200 F 
ENDBRANCH  60  83
ENDBRANCH  34  35
ENDBRANCH  27  29
ENDBRANCH  26  27
ENDBRANCH  25  26
ENDBRANCH  24  25
ENDBRANCH  23  24
ENDBRANCH  22  23
ENDBRANCH   1  22
TORSDOF 21
