REMARK SMILES C[C@H]1[C@H](C(=O)OCCOCCOCCOC(=O)c2ccc(-c3c4nc(c(-c5c(F)c(F)c(F)c(F)c5F)c5ccc([nH]5)c(-c5c(F)c(F)c(F)c(F)c5F)c5nc(c(-c6c(F)c(F)c(F)c(F)c6F)c6ccc3[nH]6)C=C5)C=C4)cc2)CC[N@@H+]1Cc1ccc(C(F)(F)F)cc1
REMARK SMILES IDX 10 1 9 2 8 3 7 4 6 5 4 6 5 7 3 8 1 9 2 10 83 11 81 12 82 13
REMARK SMILES IDX 84 15 85 16 86 17 94 18 87 19 93 20 88 21 89 22 90 23 91 24
REMARK SMILES IDX 92 25 11 26 12 27 13 28 14 29 15 30 16 31 17 32 18 33 19 34
REMARK SMILES IDX 80 35 20 36 79 37 21 38 22 39 23 40 73 41 24 42 78 43 72 44
REMARK SMILES IDX 74 45 25 46 77 47 71 48 70 49 26 51 58 52 38 53 57 54 39 55
REMARK SMILES IDX 42 56 56 57 75 58 40 59 41 60 55 62 76 63 43 64 27 65 28 66
REMARK SMILES IDX 36 67 29 68 30 69 34 70 37 71 31 72 32 73 35 74 33 75 59 76
REMARK SMILES IDX 60 77 68 78 61 79 62 80 66 81 69 82 63 83 64 84 67 85 65 86
REMARK SMILES IDX 44 87 45 88 53 89 46 90 47 91 51 92 54 93 48 94 49 95 52 96
REMARK SMILES IDX 50 97
REMARK H PARENT 83 14 74 50 42 61
REMARK Flexibility Score: inf
ROOT
ATOM      1  C   UNL     1       1.769   3.876   1.776  1.00  0.00     0.188 C 
ENDROOT
BRANCH   1   2
ATOM      2  O   UNL     1       1.194   4.686   2.794  1.00  0.00    -0.376 OA
BRANCH   2   3
ATOM      3  C   UNL     1       0.156   4.129   3.600  1.00  0.00     0.202 C 
BRANCH   3   4
ATOM      4  C   UNL     1      -1.015   3.433   2.888  1.00  0.00     0.261 C 
BRANCH   4   5
ATOM      5  O   UNL     1      -0.634   2.299   2.074  1.00  0.00    -0.463 OA
BRANCH   5   6
ATOM      6  C   UNL     1      -1.267   2.181   0.882  1.00  0.00     0.315 C 
ATOM      7  O   UNL     1      -2.156   2.945   0.513  1.00  0.00    -0.252 OA
BRANCH   6   8
ATOM      8  C   UNL     1      -0.721   1.104  -0.060  1.00  0.00     0.162 C 
ATOM      9  C   UNL     1       1.438  -0.158  -0.470  1.00  0.00     0.076 C 
ATOM     10  C   UNL     1       0.199  -0.024   0.441  1.00  0.00     0.195 C 
ATOM     11  N   UNL     1      -0.529  -1.288   0.299  1.00  0.00    -0.328 N 
ATOM     12  C   UNL     1      -1.907   0.385  -0.705  1.00  0.00     0.083 C 
ATOM     13  C   UNL     1      -1.588  -1.097  -0.677  1.00  0.00     0.263 C 
ATOM     14  H   UNL     1       0.101  -1.999  -0.072  1.00  0.00     0.348 HD
BRANCH  11  15
ATOM     15  C   UNL     1      -0.886  -1.955   1.553  1.00  0.00     0.299 C 
BRANCH  15  16
ATOM     16  C   UNL     1      -1.578  -1.116   2.606  1.00  0.00     0.006 A 
ATOM     17  C   UNL     1      -0.891  -0.737   3.771  1.00  0.00     0.010 A 
ATOM     18  C   UNL     1      -2.901  -0.694   2.441  1.00  0.00     0.010 A 
ATOM     19  C   UNL     1      -1.505   0.073   4.729  1.00  0.00     0.013 A 
ATOM     20  C   UNL     1      -3.508   0.136   3.385  1.00  0.00     0.013 A 
ATOM     21  C   UNL     1      -2.813   0.537   4.534  1.00  0.00     0.056 A 
BRANCH  21  22
ATOM     22  C   UNL     1      -3.454   1.454   5.545  1.00  0.00     0.416 C 
ATOM     23  F   UNL     1      -3.861   0.797   6.665  1.00  0.00    -0.166 F 
ATOM     24  F   UNL     1      -2.608   2.435   5.972  1.00  0.00    -0.166 F 
ATOM     25  F   UNL     1      -4.553   2.102   5.067  1.00  0.00    -0.166 F 
ENDBRANCH  21  22
ENDBRANCH  15  16
ENDBRANCH  11  15
ENDBRANCH   6   8
ENDBRANCH   5   6
ENDBRANCH   4   5
ENDBRANCH   3   4
ENDBRANCH   2   3
ENDBRANCH   1   2
BRANCH   1  26
ATOM     26  C   UNL     1       2.158   2.433   2.126  1.00  0.00     0.188 C 
BRANCH  26  27
ATOM     27  O   UNL     1       1.931   2.069   3.466  1.00  0.00    -0.376 OA
BRANCH  27  28
ATOM     28  C   UNL     1       3.038   1.767   4.290  1.00  0.00     0.202 C 
BRANCH  28  29
ATOM     29  C   UNL     1       4.262   2.700   4.328  1.00  0.00     0.261 C 
BRANCH  29  30
ATOM     30  O   UNL     1       4.660   3.313   3.094  1.00  0.00    -0.460 OA
BRANCH  30  31
ATOM     31  C   UNL     1       5.356   2.561   2.211  1.00  0.00     0.338 C 
ATOM     32  O   UNL     1       5.689   1.395   2.334  1.00  0.00    -0.246 OA
BRANCH  31  33
ATOM     33  C   UNL     1       5.426   3.336   0.951  1.00  0.00     0.060 A 
ATOM     34  C   UNL     1       4.816   2.831  -0.209  1.00  0.00     0.016 A 
ATOM     35  C   UNL     1       6.046   4.585   0.935  1.00  0.00     0.016 A 
ATOM     36  C   UNL     1       4.827   3.575  -1.391  1.00  0.00     0.010 A 
ATOM     37  C   UNL     1       6.089   5.311  -0.255  1.00  0.00     0.010 A 
ATOM     38  C   UNL     1       5.500   4.802  -1.428  1.00  0.00    -0.014 A 
BRANCH  38  39
ATOM     39  C   UNL     1       5.803   5.471  -2.714  1.00  0.00     0.031 A 
ATOM     40  C   UNL     1       7.157   5.230  -3.317  1.00  0.00     0.074 A 
ATOM     41  C   UNL     1       4.941   6.320  -3.298  1.00  0.00     0.049 A 
ATOM     42  N   UNL     1       7.766   5.863  -4.284  1.00  0.00    -0.248 NA
ATOM     43  C   UNL     1       7.936   4.126  -2.731  1.00  0.00     0.031 C 
ATOM     44  C   UNL     1       3.575   6.582  -2.853  1.00  0.00     0.029 A 
ATOM     45  N   UNL     1       5.109   7.147  -4.382  1.00  0.00    -0.354 N 
ATOM     46  C   UNL     1       9.010   5.257  -4.400  1.00  0.00     0.074 A 
ATOM     47  C   UNL     1       9.073   4.213  -3.402  1.00  0.00     0.031 C 
ATOM     48  C   UNL     1       3.039   7.535  -3.636  1.00  0.00     0.029 A 
ATOM     49  C   UNL     1       4.045   7.988  -4.598  1.00  0.00     0.049 A 
ATOM     50  H   UNL     1       5.915   7.138  -4.948  1.00  0.00     0.167 HD
ATOM     51  C   UNL     1      10.011   5.555  -5.260  1.00  0.00     0.037 A 
ATOM     52  C   UNL     1       3.923   9.034  -5.440  1.00  0.00     0.037 A 
ATOM     53  C   UNL     1       9.938   6.597  -6.246  1.00  0.00     0.049 A 
ATOM     54  C   UNL     1       5.086   9.409  -6.328  1.00  0.00     0.074 A 
ATOM     55  C   UNL     1      10.893   6.978  -7.170  1.00  0.00     0.029 A 
ATOM     56  N   UNL     1       8.845   7.432  -6.429  1.00  0.00    -0.354 N 
ATOM     57  N   UNL     1       6.264   8.842  -6.435  1.00  0.00    -0.248 NA
ATOM     58  C   UNL     1       4.907  10.576  -7.206  1.00  0.00     0.031 C 
ATOM     59  C   UNL     1      10.401   8.080  -7.875  1.00  0.00     0.029 A 
ATOM     60  C   UNL     1       9.112   8.342  -7.437  1.00  0.00     0.049 A 
ATOM     61  H   UNL     1       8.005   7.383  -5.918  1.00  0.00     0.167 HD
ATOM     62  C   UNL     1       6.946   9.552  -7.417  1.00  0.00     0.074 A 
ATOM     63  C   UNL     1       6.053  10.596  -7.872  1.00  0.00     0.031 C 
ATOM     64  C   UNL     1       8.196   9.352  -7.902  1.00  0.00     0.037 A 
BRANCH  51  65
ATOM     65  C   UNL     1      11.285   4.773  -5.138  1.00  0.00     0.064 A 
ATOM     66  C   UNL     1      11.363   3.420  -5.499  1.00  0.00     0.173 A 
ATOM     67  C   UNL     1      12.454   5.397  -4.674  1.00  0.00     0.173 A 
ATOM     68  F   UNL     1      10.270   2.772  -5.930  1.00  0.00    -0.203 F 
ATOM     69  C   UNL     1      12.557   2.714  -5.376  1.00  0.00     0.198 A 
ATOM     70  C   UNL     1      13.653   4.697  -4.583  1.00  0.00     0.198 A 
ATOM     71  F   UNL     1      12.434   6.690  -4.315  1.00  0.00    -0.203 F 
ATOM     72  F   UNL     1      12.595   1.409  -5.677  1.00  0.00    -0.200 F 
ATOM     73  C   UNL     1      13.702   3.355  -4.926  1.00  0.00     0.200 A 
ATOM     74  F   UNL     1      14.761   5.322  -4.161  1.00  0.00    -0.200 F 
ATOM     75  F   UNL     1      14.852   2.676  -4.816  1.00  0.00    -0.200 F 
ENDBRANCH  51  65
BRANCH  52  76
ATOM     76  C   UNL     1       2.667   9.831  -5.465  1.00  0.00     0.064 A 
ATOM     77  C   UNL     1       1.835   9.833  -6.594  1.00  0.00     0.173 A 
ATOM     78  C   UNL     1       2.285  10.629  -4.376  1.00  0.00     0.173 A 
ATOM     79  F   UNL     1       2.172   9.111  -7.673  1.00  0.00    -0.203 F 
ATOM     80  C   UNL     1       0.682  10.615  -6.640  1.00  0.00     0.198 A 
ATOM     81  C   UNL     1       1.115  11.386  -4.411  1.00  0.00     0.198 A 
ATOM     82  F   UNL     1       3.048  10.671  -3.273  1.00  0.00    -0.203 F 
ATOM     83  F   UNL     1      -0.065  10.638  -7.752  1.00  0.00    -0.200 F 
ATOM     84  C   UNL     1       0.320  11.386  -5.546  1.00  0.00     0.200 A 
ATOM     85  F   UNL     1       0.764  12.123  -3.348  1.00  0.00    -0.200 F 
ATOM     86  F   UNL     1      -0.789  12.137  -5.590  1.00  0.00    -0.200 F 
ENDBRANCH  52  76
BRANCH  64  87
ATOM     87  C   UNL     1       8.661  10.221  -9.034  1.00  0.00     0.064 A 
ATOM     88  C   UNL     1       9.025  11.561  -8.843  1.00  0.00     0.173 A 
ATOM     89  C   UNL     1       8.842   9.667 -10.312  1.00  0.00     0.173 A 
ATOM     90  F   UNL     1       8.861  12.140  -7.644  1.00  0.00    -0.203 F 
ATOM     91  C   UNL     1       9.547  12.316  -9.891  1.00  0.00     0.198 A 
ATOM     92  C   UNL     1       9.391  10.415 -11.348  1.00  0.00     0.198 A 
ATOM     93  F   UNL     1       8.518   8.386 -10.544  1.00  0.00    -0.203 F 
ATOM     94  F   UNL     1       9.865  13.603  -9.694  1.00  0.00    -0.200 F 
ATOM     95  C   UNL     1       9.741  11.739 -11.138  1.00  0.00     0.200 A 
ATOM     96  F   UNL     1       9.596   9.849 -12.546  1.00  0.00    -0.200 F 
ATOM     97  F   UNL     1      10.268  12.461 -12.137  1.00  0.00    -0.200 F 
ENDBRANCH  64  87
ENDBRANCH  38  39
ENDBRANCH  31  33
ENDBRANCH  30  31
ENDBRANCH  29  30
ENDBRANCH  28  29
ENDBRANCH  27  28
ENDBRANCH  26  27
ENDBRANCH   1  26
TORSDOF 20
