REMARK SMILES Cn1c(C(=O)N2CCC[C@@H](C(=O)OCCOCCOCCOC(=O)c3ccc(-c4c5nc(c(-c6c(F)c(F)c(F)c(F)c6F)c6ccc([nH]6)c(-c6c(F)c(F)c(F)c(F)c6F)c6nc(c(-c7c(F)c(F)c(F)c(F)c7F)c7ccc4[nH]7)C=C6)C=C5)cc3)C2)cc2sccc21
REMARK SMILES IDX 17 1 16 2 15 3 14 4 13 5 11 6 12 7 10 8 6 9 7 10 88 11 8 12
REMARK SMILES IDX 9 13 4 14 5 15 3 16 1 17 2 18 94 19 89 20 90 21 93 22 91 23
REMARK SMILES IDX 92 24 18 25 19 26 20 27 21 28 22 29 23 30 24 31 25 32 26 33
REMARK SMILES IDX 87 34 27 35 86 36 28 37 29 38 30 39 80 40 31 41 85 42 79 43
REMARK SMILES IDX 81 44 32 45 84 46 78 47 77 48 33 50 65 51 45 52 64 53 46 54
REMARK SMILES IDX 49 55 63 56 82 57 47 58 48 59 62 61 83 62 50 63 34 64 35 65
REMARK SMILES IDX 43 66 36 67 37 68 41 69 44 70 38 71 39 72 42 73 40 74 66 75
REMARK SMILES IDX 67 76 75 77 68 78 69 79 73 80 76 81 70 82 71 83 74 84 72 85
REMARK SMILES IDX 51 86 52 87 60 88 53 89 54 90 58 91 61 92 55 93 56 94 59 95
REMARK SMILES IDX 57 96
REMARK H PARENT 81 49 49 60
REMARK Flexibility Score: inf
ROOT
ATOM      1  C   UNL     1      -1.664   0.096   9.426  1.00  0.00     0.188 C 
ENDROOT
BRANCH   1   2
ATOM      2  O   UNL     1      -1.014  -1.141   9.696  1.00  0.00    -0.376 OA
BRANCH   2   3
ATOM      3  C   UNL     1       0.385  -1.150   9.898  1.00  0.00     0.202 C 
BRANCH   3   4
ATOM      4  C   UNL     1       1.233  -1.077   8.621  1.00  0.00     0.261 C 
BRANCH   4   5
ATOM      5  O   UNL     1       0.692  -0.283   7.547  1.00  0.00    -0.463 OA
BRANCH   5   6
ATOM      6  C   UNL     1      -0.163  -0.921   6.703  1.00  0.00     0.310 C 
ATOM      7  O   UNL     1      -0.497  -2.094   6.809  1.00  0.00    -0.252 OA
BRANCH   6   8
ATOM      8  C   UNL     1      -0.639   0.002   5.586  1.00  0.00     0.119 C 
ATOM      9  N   UNL     1      -1.496  -0.186   3.255  1.00  0.00    -0.337 N 
ATOM     10  C   UNL     1      -2.749   0.475   3.581  1.00  0.00     0.120 C 
ATOM     11  C   UNL     1      -0.836  -0.886   4.353  1.00  0.00     0.135 C 
ATOM     12  C   UNL     1      -2.555   1.456   4.722  1.00  0.00     0.022 C 
ATOM     13  C   UNL     1      -1.927   0.764   5.933  1.00  0.00     0.019 C 
BRANCH   9  14
ATOM     14  C   UNL     1      -1.046  -0.171   1.939  1.00  0.00     0.270 C 
ATOM     15  O   UNL     1      -1.365   0.734   1.170  1.00  0.00    -0.267 OA
BRANCH  14  16
ATOM     16  C   UNL     1      -0.241  -1.303   1.496  1.00  0.00     0.108 A 
ATOM     17  C   UNL     1       1.206  -0.071  -0.185  1.00  0.00     0.150 C 
ATOM     18  N   UNL     1       0.721  -1.240   0.508  1.00  0.00    -0.339 N 
ATOM     19  C   UNL     1       1.157  -2.518   0.228  1.00  0.00     0.059 A 
ATOM     20  C   UNL     1      -0.367  -2.635   1.879  1.00  0.00     0.053 A 
ATOM     21  C   UNL     1       0.531  -3.379   1.075  1.00  0.00     0.053 A 
ATOM     22  C   UNL     1       2.035  -3.166  -0.685  1.00  0.00     0.038 A 
ATOM     23  S   UNL     1       1.018  -5.022   0.841  1.00  0.00    -0.142 S 
ATOM     24  C   UNL     1       2.029  -4.526  -0.457  1.00  0.00     0.068 A 
ENDBRANCH  14  16
ENDBRANCH   9  14
ENDBRANCH   6   8
ENDBRANCH   5   6
ENDBRANCH   4   5
ENDBRANCH   3   4
ENDBRANCH   2   3
ENDBRANCH   1   2
BRANCH   1  25
ATOM     25  C   UNL     1      -0.890   1.427   9.311  1.00  0.00     0.188 C 
BRANCH  25  26
ATOM     26  O   UNL     1       0.030   1.639  10.376  1.00  0.00    -0.376 OA
BRANCH  26  27
ATOM     27  C   UNL     1      -0.094   2.886  11.049  1.00  0.00     0.202 C 
BRANCH  27  28
ATOM     28  C   UNL     1      -1.013   2.738  12.254  1.00  0.00     0.261 C 
BRANCH  28  29
ATOM     29  O   UNL     1      -2.267   2.157  11.909  1.00  0.00    -0.460 OA
BRANCH  29  30
ATOM     30  C   UNL     1      -3.060   2.857  11.085  1.00  0.00     0.338 C 
ATOM     31  O   UNL     1      -2.808   3.934  10.544  1.00  0.00    -0.246 OA
BRANCH  30  32
ATOM     32  C   UNL     1      -4.354   2.176  10.997  1.00  0.00     0.060 A 
ATOM     33  C   UNL     1      -5.349   2.804  10.243  1.00  0.00     0.016 A 
ATOM     34  C   UNL     1      -4.643   1.158  11.918  1.00  0.00     0.016 A 
ATOM     35  C   UNL     1      -6.656   2.639  10.637  1.00  0.00     0.010 A 
ATOM     36  C   UNL     1      -5.940   1.015  12.330  1.00  0.00     0.010 A 
ATOM     37  C   UNL     1      -6.903   1.850  11.761  1.00  0.00    -0.014 A 
BRANCH  37  38
ATOM     38  C   UNL     1      -8.163   2.013  12.454  1.00  0.00     0.031 A 
ATOM     39  C   UNL     1      -9.275   1.168  11.974  1.00  0.00     0.074 A 
ATOM     40  C   UNL     1      -8.191   2.755  13.581  1.00  0.00     0.049 A 
ATOM     41  N   UNL     1     -10.504   1.508  11.768  1.00  0.00    -0.248 NA
ATOM     42  C   UNL     1      -8.967  -0.231  11.629  1.00  0.00     0.031 C 
ATOM     43  C   UNL     1      -7.048   3.381  14.263  1.00  0.00     0.029 A 
ATOM     44  N   UNL     1      -9.222   2.983  14.441  1.00  0.00    -0.354 N 
ATOM     45  C   UNL     1     -11.162   0.333  11.427  1.00  0.00     0.074 A 
ATOM     46  C   UNL     1     -10.159  -0.681  11.246  1.00  0.00     0.031 C 
ATOM     47  C   UNL     1      -7.409   3.712  15.521  1.00  0.00     0.029 A 
ATOM     48  C   UNL     1      -8.817   3.403  15.701  1.00  0.00     0.049 A 
ATOM     49  H   UNL     1     -10.167   2.862  14.192  1.00  0.00     0.167 HD
ATOM     50  C   UNL     1     -12.508   0.214  11.541  1.00  0.00     0.037 A 
ATOM     51  C   UNL     1      -9.560   3.396  16.835  1.00  0.00     0.037 A 
ATOM     52  C   UNL     1     -13.169   1.486  11.480  1.00  0.00     0.049 A 
ATOM     53  C   UNL     1     -10.984   3.258  16.440  1.00  0.00     0.074 A 
ATOM     54  C   UNL     1     -13.212   2.496  10.537  1.00  0.00     0.029 A 
ATOM     55  N   UNL     1     -13.668   2.035  12.634  1.00  0.00    -0.354 N 
ATOM     56  N   UNL     1     -11.684   4.191  15.858  1.00  0.00    -0.248 NA
ATOM     57  C   UNL     1     -11.530   1.912  16.336  1.00  0.00     0.031 C 
ATOM     58  C   UNL     1     -13.292   3.706  11.284  1.00  0.00     0.029 A 
ATOM     59  C   UNL     1     -13.314   3.360  12.635  1.00  0.00     0.049 A 
ATOM     60  H   UNL     1     -14.183   1.566  13.330  1.00  0.00     0.167 HD
ATOM     61  C   UNL     1     -12.514   3.510  14.979  1.00  0.00     0.074 A 
ATOM     62  C   UNL     1     -12.459   2.116  15.399  1.00  0.00     0.031 C 
ATOM     63  C   UNL     1     -12.938   4.093  13.820  1.00  0.00     0.037 A 
BRANCH  50  64
ATOM     64  C   UNL     1     -13.165  -1.045  12.030  1.00  0.00     0.064 A 
ATOM     65  C   UNL     1     -14.554  -1.203  11.893  1.00  0.00     0.173 A 
ATOM     66  C   UNL     1     -12.518  -1.975  12.877  1.00  0.00     0.173 A 
ATOM     67  F   UNL     1     -15.266  -0.348  11.145  1.00  0.00    -0.203 F 
ATOM     68  C   UNL     1     -15.250  -2.192  12.593  1.00  0.00     0.198 A 
ATOM     69  C   UNL     1     -13.207  -2.994  13.526  1.00  0.00     0.198 A 
ATOM     70  F   UNL     1     -11.220  -1.865  13.191  1.00  0.00    -0.203 F 
ATOM     71  F   UNL     1     -16.587  -2.235  12.524  1.00  0.00    -0.200 F 
ATOM     72  C   UNL     1     -14.577  -3.085  13.408  1.00  0.00     0.200 A 
ATOM     73  F   UNL     1     -12.539  -3.835  14.329  1.00  0.00    -0.200 F 
ATOM     74  F   UNL     1     -15.251  -3.998  14.119  1.00  0.00    -0.200 F 
ENDBRANCH  50  64
BRANCH  51  75
ATOM     75  C   UNL     1      -9.102   3.244  18.237  1.00  0.00     0.064 A 
ATOM     76  C   UNL     1      -9.939   3.586  19.312  1.00  0.00     0.173 A 
ATOM     77  C   UNL     1      -7.923   2.546  18.567  1.00  0.00     0.173 A 
ATOM     78  F   UNL     1     -11.108   4.203  19.087  1.00  0.00    -0.203 F 
ATOM     79  C   UNL     1      -9.618   3.246  20.631  1.00  0.00     0.198 A 
ATOM     80  C   UNL     1      -7.593   2.226  19.884  1.00  0.00     0.198 A 
ATOM     81  F   UNL     1      -7.105   2.079  17.613  1.00  0.00    -0.203 F 
ATOM     82  F   UNL     1     -10.472   3.538  21.622  1.00  0.00    -0.200 F 
ATOM     83  C   UNL     1      -8.446   2.565  20.915  1.00  0.00     0.200 A 
ATOM     84  F   UNL     1      -6.471   1.538  20.139  1.00  0.00    -0.200 F 
ATOM     85  F   UNL     1      -8.159   2.202  22.173  1.00  0.00    -0.200 F 
ENDBRANCH  51  75
BRANCH  63  86
ATOM     86  C   UNL     1     -12.727   5.571  13.666  1.00  0.00     0.064 A 
ATOM     87  C   UNL     1     -11.458   6.174  13.626  1.00  0.00     0.173 A 
ATOM     88  C   UNL     1     -13.838   6.386  13.409  1.00  0.00     0.173 A 
ATOM     89  F   UNL     1     -10.344   5.442  13.749  1.00  0.00    -0.203 F 
ATOM     90  C   UNL     1     -11.314   7.540  13.396  1.00  0.00     0.198 A 
ATOM     91  C   UNL     1     -13.688   7.744  13.141  1.00  0.00     0.198 A 
ATOM     92  F   UNL     1     -15.069   5.853  13.370  1.00  0.00    -0.203 F 
ATOM     93  F   UNL     1     -10.093   8.094  13.379  1.00  0.00    -0.200 F 
ATOM     94  C   UNL     1     -12.429   8.323  13.148  1.00  0.00     0.200 A 
ATOM     95  F   UNL     1     -14.764   8.488  12.848  1.00  0.00    -0.200 F 
ATOM     96  F   UNL     1     -12.288   9.630  12.886  1.00  0.00    -0.200 F 
ENDBRANCH  63  86
ENDBRANCH  37  38
ENDBRANCH  30  32
ENDBRANCH  29  30
ENDBRANCH  28  29
ENDBRANCH  27  28
ENDBRANCH  26  27
ENDBRANCH  25  26
ENDBRANCH   1  25
TORSDOF 19
