REMARK SMILES CNC(=O)NC1=[NH+]N=CN[C@@H]1C(=O)OCCOCCOCCOC(=O)c1ccc(-c2c3nc(c(-c4c(F)c(F)c(F)c(F)c4F)c4ccc([nH]4)c(-c4c(F)c(F)c(F)c(F)c4F)c4nc(c(-c5c(F)c(F)c(F)c(F)c5F)c5ccc2[nH]5)C=C4)C=C3)cc1
REMARK SMILES IDX 19 1 18 2 17 3 16 4 15 5 14 6 12 7 13 8 11 9 1 10 2 11 3 12
REMARK SMILES IDX 4 14 5 15 6 16 7 18 8 19 10 21 9 22 20 24 21 25 22 26 23 27
REMARK SMILES IDX 24 28 25 29 26 30 27 31 88 32 28 33 87 34 29 35 30 36 31 37
REMARK SMILES IDX 81 38 32 39 86 40 80 41 82 42 33 43 85 44 79 45 78 46 34 48
REMARK SMILES IDX 66 49 46 50 65 51 47 52 50 53 64 54 83 55 48 56 49 57 63 59
REMARK SMILES IDX 84 60 51 61 35 62 36 63 44 64 37 65 38 66 42 67 45 68 39 69
REMARK SMILES IDX 40 70 43 71 41 72 67 73 68 74 76 75 69 76 70 77 74 78 77 79
REMARK SMILES IDX 71 80 72 81 75 82 73 83 52 84 53 85 61 86 54 87 55 88 59 89
REMARK SMILES IDX 62 90 56 91 57 92 60 93 58 94
REMARK H PARENT 2 13 5 17 7 20 10 23 82 47 50 58
REMARK Flexibility Score: inf
ROOT
ATOM      1  C   UNL     1      -2.035   0.829   3.049  1.00  0.00     0.188 C 
ENDROOT
BRANCH   1   2
ATOM      2  C   UNL     1      -2.959   1.018   1.844  1.00  0.00     0.188 C 
BRANCH   2   3
ATOM      3  O   UNL     1      -4.353   0.950   2.039  1.00  0.00    -0.376 OA
BRANCH   3   4
ATOM      4  C   UNL     1      -4.934  -0.317   2.325  1.00  0.00     0.202 C 
BRANCH   4   5
ATOM      5  C   UNL     1      -4.343  -1.608   1.730  1.00  0.00     0.261 C 
BRANCH   5   6
ATOM      6  O   UNL     1      -2.928  -1.754   1.962  1.00  0.00    -0.461 OA
BRANCH   6   7
ATOM      7  C   UNL     1      -2.189  -2.143   0.879  1.00  0.00     0.341 C 
ATOM      8  O   UNL     1      -2.687  -2.509  -0.180  1.00  0.00    -0.249 OA
BRANCH   7   9
ATOM      9  C   UNL     1      -0.689  -1.861   1.054  1.00  0.00     0.308 C 
ATOM     10  C   UNL     1       1.620   0.026  -0.528  1.00  0.00     0.147 C 
ATOM     11  N   UNL     1       0.517  -0.200  -1.441  1.00  0.00    -0.321 N 
ATOM     12  C   UNL     1       0.011  -1.381  -1.884  1.00  0.00     0.406 C 
ATOM     13  H   UNL     1       0.076   0.610  -1.786  1.00  0.00     0.167 HD
ATOM     14  O   UNL     1      -0.648  -1.403  -2.918  1.00  0.00    -0.221 OA
ATOM     15  N   UNL     1       0.286  -2.514  -1.176  1.00  0.00    -0.191 N 
ATOM     16  C   UNL     1       0.108  -2.801   0.158  1.00  0.00     0.311 C 
ATOM     17  H   UNL     1       0.675  -3.247  -1.706  1.00  0.00     0.317 HD
ATOM     18  N   UNL     1       0.638  -3.910   0.575  1.00  0.00    -0.148 N 
ATOM     19  N   UNL     1       0.631  -4.183   1.960  1.00  0.00    -0.077 NA
ATOM     20  H   UNL     1       1.036  -4.548  -0.061  1.00  0.00     0.342 HD
ATOM     21  N   UNL     1      -0.221  -2.022   2.427  1.00  0.00    -0.350 N 
ATOM     22  C   UNL     1       0.285  -3.235   2.768  1.00  0.00     0.241 C 
ATOM     23  H   UNL     1      -0.270  -1.284   3.077  1.00  0.00     0.163 HD
ENDBRANCH   7   9
ENDBRANCH   6   7
ENDBRANCH   5   6
ENDBRANCH   4   5
ENDBRANCH   3   4
ENDBRANCH   2   3
ENDBRANCH   1   2
BRANCH   1  24
ATOM     24  O   UNL     1      -2.273  -0.107   4.076  1.00  0.00    -0.376 OA
BRANCH  24  25
ATOM     25  C   UNL     1      -3.105   0.207   5.194  1.00  0.00     0.202 C 
BRANCH  25  26
ATOM     26  C   UNL     1      -3.340   1.613   5.805  1.00  0.00     0.261 C 
BRANCH  26  27
ATOM     27  O   UNL     1      -2.925   2.761   5.066  1.00  0.00    -0.460 OA
BRANCH  27  28
ATOM     28  C   UNL     1      -1.637   3.145   5.261  1.00  0.00     0.338 C 
ATOM     29  O   UNL     1      -0.829   2.651   6.031  1.00  0.00    -0.246 OA
BRANCH  28  30
ATOM     30  C   UNL     1      -1.274   4.068   4.160  1.00  0.00     0.060 A 
ATOM     31  C   UNL     1      -0.209   3.715   3.312  1.00  0.00     0.016 A 
ATOM     32  C   UNL     1      -2.017   5.222   3.918  1.00  0.00     0.016 A 
ATOM     33  C   UNL     1       0.134   4.528   2.231  1.00  0.00     0.010 A 
ATOM     34  C   UNL     1      -1.647   6.057   2.863  1.00  0.00     0.010 A 
ATOM     35  C   UNL     1      -0.553   5.730   2.036  1.00  0.00    -0.014 A 
BRANCH  35  36
ATOM     36  C   UNL     1       0.006   6.787   1.162  1.00  0.00     0.031 A 
ATOM     37  C   UNL     1       0.813   7.867   1.823  1.00  0.00     0.074 A 
ATOM     38  C   UNL     1      -0.240   6.837  -0.157  1.00  0.00     0.049 A 
ATOM     39  N   UNL     1       1.215   9.018   1.353  1.00  0.00    -0.248 NA
ATOM     40  C   UNL     1       1.200   7.615   3.221  1.00  0.00     0.031 C 
ATOM     41  C   UNL     1      -0.949   5.821  -0.928  1.00  0.00     0.029 A 
ATOM     42  N   UNL     1       0.056   7.817  -1.074  1.00  0.00    -0.354 N 
ATOM     43  C   UNL     1       1.867   9.642   2.408  1.00  0.00     0.074 A 
ATOM     44  C   UNL     1       1.796   8.751   3.544  1.00  0.00     0.031 C 
ATOM     45  C   UNL     1      -1.070   6.248  -2.197  1.00  0.00     0.029 A 
ATOM     46  C   UNL     1      -0.495   7.590  -2.310  1.00  0.00     0.049 A 
ATOM     47  H   UNL     1       0.608   8.604  -0.864  1.00  0.00     0.167 HD
ATOM     48  C   UNL     1       2.464  10.857   2.428  1.00  0.00     0.037 A 
ATOM     49  C   UNL     1      -0.571   8.396  -3.388  1.00  0.00     0.037 A 
ATOM     50  C   UNL     1       2.523  11.739   1.294  1.00  0.00     0.049 A 
ATOM     51  C   UNL     1       0.029   9.781  -3.326  1.00  0.00     0.074 A 
ATOM     52  C   UNL     1       3.120  12.983   1.201  1.00  0.00     0.029 A 
ATOM     53  N   UNL     1       1.952  11.473   0.058  1.00  0.00    -0.354 N 
ATOM     54  N   UNL     1       0.646  10.373  -2.332  1.00  0.00    -0.248 NA
ATOM     55  C   UNL     1      -0.085  10.612  -4.535  1.00  0.00     0.031 C 
ATOM     56  C   UNL     1       2.850  13.500  -0.070  1.00  0.00     0.029 A 
ATOM     57  C   UNL     1       2.157  12.543  -0.796  1.00  0.00     0.049 A 
ATOM     58  H   UNL     1       1.472  10.646  -0.177  1.00  0.00     0.167 HD
ATOM     59  C   UNL     1       1.032  11.622  -2.806  1.00  0.00     0.074 A 
ATOM     60  C   UNL     1       0.572  11.707  -4.176  1.00  0.00     0.031 C 
ATOM     61  C   UNL     1       1.715  12.604  -2.167  1.00  0.00     0.037 A 
BRANCH  48  62
ATOM     62  C   UNL     1       3.043  11.319   3.733  1.00  0.00     0.064 A 
ATOM     63  C   UNL     1       4.163  10.704   4.312  1.00  0.00     0.173 A 
ATOM     64  C   UNL     1       2.461  12.397   4.418  1.00  0.00     0.173 A 
ATOM     65  F   UNL     1       4.747   9.658   3.708  1.00  0.00    -0.203 F 
ATOM     66  C   UNL     1       4.653  11.124   5.546  1.00  0.00     0.198 A 
ATOM     67  C   UNL     1       2.977  12.839   5.632  1.00  0.00     0.198 A 
ATOM     68  F   UNL     1       1.388  13.022   3.910  1.00  0.00    -0.203 F 
ATOM     69  F   UNL     1       5.681  10.476   6.112  1.00  0.00    -0.200 F 
ATOM     70  C   UNL     1       4.064  12.195   6.201  1.00  0.00     0.200 A 
ATOM     71  F   UNL     1       2.415  13.883   6.257  1.00  0.00    -0.200 F 
ATOM     72  F   UNL     1       4.538  12.599   7.388  1.00  0.00    -0.200 F 
ENDBRANCH  48  62
BRANCH  49  73
ATOM     73  C   UNL     1      -1.267   7.924  -4.615  1.00  0.00     0.064 A 
ATOM     74  C   UNL     1      -0.555   7.662  -5.793  1.00  0.00     0.173 A 
ATOM     75  C   UNL     1      -2.656   7.725  -4.635  1.00  0.00     0.173 A 
ATOM     76  F   UNL     1       0.770   7.865  -5.833  1.00  0.00    -0.203 F 
ATOM     77  C   UNL     1      -1.206   7.227  -6.946  1.00  0.00     0.198 A 
ATOM     78  C   UNL     1      -3.301   7.261  -5.779  1.00  0.00     0.198 A 
ATOM     79  F   UNL     1      -3.385   7.966  -3.536  1.00  0.00    -0.203 F 
ATOM     80  F   UNL     1      -0.505   7.022  -8.070  1.00  0.00    -0.200 F 
ATOM     81  C   UNL     1      -2.576   7.018  -6.936  1.00  0.00     0.200 A 
ATOM     82  F   UNL     1      -4.624   7.049  -5.761  1.00  0.00    -0.200 F 
ATOM     83  F   UNL     1      -3.200   6.589  -8.042  1.00  0.00    -0.200 F 
ENDBRANCH  49  73
BRANCH  61  84
ATOM     84  C   UNL     1       2.084  13.834  -2.949  1.00  0.00     0.064 A 
ATOM     85  C   UNL     1       1.137  14.800  -3.314  1.00  0.00     0.173 A 
ATOM     86  C   UNL     1       3.432  14.089  -3.252  1.00  0.00     0.173 A 
ATOM     87  F   UNL     1      -0.164  14.601  -3.058  1.00  0.00    -0.203 F 
ATOM     88  C   UNL     1       1.524  15.971  -3.963  1.00  0.00     0.198 A 
ATOM     89  C   UNL     1       3.819  15.274  -3.870  1.00  0.00     0.198 A 
ATOM     90  F   UNL     1       4.380  13.201  -2.916  1.00  0.00    -0.203 F 
ATOM     91  F   UNL     1       0.599  16.868  -4.331  1.00  0.00    -0.200 F 
ATOM     92  C   UNL     1       2.864  16.213  -4.229  1.00  0.00     0.200 A 
ATOM     93  F   UNL     1       5.116  15.513  -4.107  1.00  0.00    -0.200 F 
ATOM     94  F   UNL     1       3.236  17.351  -4.831  1.00  0.00    -0.200 F 
ENDBRANCH  61  84
ENDBRANCH  35  36
ENDBRANCH  28  30
ENDBRANCH  27  28
ENDBRANCH  26  27
ENDBRANCH  25  26
ENDBRANCH  24  25
ENDBRANCH   1  24
TORSDOF 17
