REMARK SMILES O=C(C[NH+]1CCN(c2nccc(N3CCCCC3)n2)CC1)OCCOCCOCCOC(=O)c1ccc(-c2c3nc(c(-c4c(F)c(F)c(F)c(F)c4F)c4ccc([nH]4)c(-c4c(F)c(F)c(F)c(F)c4F)c4nc(c(-c5c(F)c(F)c(F)c(F)c5F)c5ccc2[nH]5)C=C4)C=C3)cc1
REMARK SMILES IDX 26 1 25 2 24 3 23 4 22 5 2 6 1 7 3 8 4 9 5 10 21 11 6 13
REMARK SMILES IDX 20 14 7 15 8 16 9 17 19 18 10 19 12 20 11 21 13 22 14 23
REMARK SMILES IDX 18 24 15 25 17 26 16 27 27 28 28 29 29 30 30 31 31 32 32 33
REMARK SMILES IDX 33 34 34 35 35 36 96 37 36 38 95 39 37 40 38 41 39 42 89 43
REMARK SMILES IDX 40 44 94 45 88 46 90 47 41 48 93 49 87 50 86 51 42 53 74 54
REMARK SMILES IDX 54 55 73 56 55 57 58 58 72 59 91 60 56 61 57 62 71 64 92 65
REMARK SMILES IDX 59 66 43 67 44 68 52 69 45 70 46 71 50 72 53 73 47 74 48 75
REMARK SMILES IDX 51 76 49 77 75 78 76 79 84 80 77 81 78 82 82 83 85 84 79 85
REMARK SMILES IDX 80 86 83 87 81 88 60 89 61 90 69 91 62 92 63 93 67 94 70 95
REMARK SMILES IDX 64 96 65 97 68 98 66 99
REMARK H PARENT 4 12 90 52 58 63
REMARK Flexibility Score: inf
ROOT
ATOM      1  C   UNL     1       3.349   1.128  -2.001  1.00  0.00     0.188 C 
ENDROOT
BRANCH   1   2
ATOM      2  O   UNL     1       4.715   0.775  -1.938  1.00  0.00    -0.376 OA
BRANCH   2   3
ATOM      3  C   UNL     1       5.261   0.256  -0.743  1.00  0.00     0.202 C 
BRANCH   3   4
ATOM      4  C   UNL     1       4.662  -1.053  -0.253  1.00  0.00     0.261 C 
BRANCH   4   5
ATOM      5  O   UNL     1       3.251  -1.096   0.043  1.00  0.00    -0.459 OA
BRANCH   5   6
ATOM      6  C   UNL     1       2.457  -0.207   0.662  1.00  0.00     0.361 C 
ATOM      7  O   UNL     1       1.235  -0.333   0.555  1.00  0.00    -0.245 OA
BRANCH   6   8
ATOM      8  C   UNL     1       3.028   0.976   1.424  1.00  0.00     0.386 C 
BRANCH   8   9
ATOM      9  N   UNL     1       3.748   0.736   2.690  1.00  0.00    -0.323 N 
ATOM     10  C   UNL     1       3.138   1.593   3.750  1.00  0.00     0.284 C 
ATOM     11  C   UNL     1       3.721  -0.654   3.191  1.00  0.00     0.284 C 
ATOM     12  H   UNL     1       4.723   0.953   2.485  1.00  0.00     0.348 HD
ATOM     13  C   UNL     1       1.690   1.189   4.151  1.00  0.00     0.181 C 
ATOM     14  C   UNL     1       2.332  -1.190   3.555  1.00  0.00     0.181 C 
ATOM     15  N   UNL     1       1.607  -0.237   4.377  1.00  0.00    -0.329 N 
BRANCH  15  16
ATOM     16  C   UNL     1       1.210  -0.718   5.588  1.00  0.00     0.227 A 
ATOM     17  N   UNL     1      -0.097  -0.730   5.858  1.00  0.00    -0.221 NA
ATOM     18  N   UNL     1       2.133  -1.392   6.283  1.00  0.00    -0.196 NA
ATOM     19  C   UNL     1      -0.486  -1.602   6.797  1.00  0.00     0.119 A 
ATOM     20  C   UNL     1       1.725  -2.271   7.199  1.00  0.00     0.134 A 
ATOM     21  C   UNL     1       0.384  -2.429   7.470  1.00  0.00     0.067 A 
BRANCH  20  22
ATOM     22  N   UNL     1       2.694  -3.025   7.821  1.00  0.00    -0.356 N 
ATOM     23  C   UNL     1       3.944  -2.371   8.197  1.00  0.00     0.118 C 
ATOM     24  C   UNL     1       2.612  -4.477   7.811  1.00  0.00     0.118 C 
ATOM     25  C   UNL     1       5.145  -3.002   7.498  1.00  0.00     0.022 C 
ATOM     26  C   UNL     1       3.831  -5.088   7.114  1.00  0.00     0.022 C 
ATOM     27  C   UNL     1       5.134  -4.517   7.662  1.00  0.00     0.004 C 
ENDBRANCH  20  22
ENDBRANCH  15  16
ENDBRANCH   8   9
ENDBRANCH   6   8
ENDBRANCH   5   6
ENDBRANCH   4   5
ENDBRANCH   3   4
ENDBRANCH   2   3
ENDBRANCH   1   2
BRANCH   1  28
ATOM     28  C   UNL     1       2.464   0.228  -2.881  1.00  0.00     0.188 C 
BRANCH  28  29
ATOM     29  O   UNL     1       3.044  -0.638  -3.845  1.00  0.00    -0.376 OA
BRANCH  29  30
ATOM     30  C   UNL     1       4.280  -0.297  -4.448  1.00  0.00     0.202 C 
BRANCH  30  31
ATOM     31  C   UNL     1       4.360   1.001  -5.269  1.00  0.00     0.261 C 
BRANCH  31  32
ATOM     32  O   UNL     1       3.997   2.215  -4.575  1.00  0.00    -0.460 OA
BRANCH  32  33
ATOM     33  C   UNL     1       2.825   2.790  -4.948  1.00  0.00     0.338 C 
ATOM     34  O   UNL     1       2.074   2.414  -5.830  1.00  0.00    -0.246 OA
BRANCH  33  35
ATOM     35  C   UNL     1       2.450   3.895  -4.024  1.00  0.00     0.060 A 
ATOM     36  C   UNL     1       1.207   3.821  -3.377  1.00  0.00     0.016 A 
ATOM     37  C   UNL     1       3.257   5.021  -3.844  1.00  0.00     0.016 A 
ATOM     38  C   UNL     1       0.743   4.888  -2.600  1.00  0.00     0.010 A 
ATOM     39  C   UNL     1       2.779   6.102  -3.082  1.00  0.00     0.010 A 
ATOM     40  C   UNL     1       1.501   6.060  -2.489  1.00  0.00    -0.014 A 
BRANCH  40  41
ATOM     41  C   UNL     1       0.873   7.296  -1.938  1.00  0.00     0.031 A 
ATOM     42  C   UNL     1       0.304   8.308  -2.903  1.00  0.00     0.074 A 
ATOM     43  C   UNL     1       0.759   7.514  -0.615  1.00  0.00     0.049 A 
ATOM     44  N   UNL     1      -0.257   9.468  -2.664  1.00  0.00    -0.248 NA
ATOM     45  C   UNL     1       0.377   7.960  -4.331  1.00  0.00     0.031 C 
ATOM     46  C   UNL     1       1.212   6.607   0.436  1.00  0.00     0.029 A 
ATOM     47  N   UNL     1       0.227   8.583   0.071  1.00  0.00    -0.354 N 
ATOM     48  C   UNL     1      -0.602   9.985  -3.908  1.00  0.00     0.074 A 
ATOM     49  C   UNL     1      -0.157   9.030  -4.900  1.00  0.00     0.031 C 
ATOM     50  C   UNL     1       0.954   7.163   1.634  1.00  0.00     0.029 A 
ATOM     51  C   UNL     1       0.344   8.479   1.436  1.00  0.00     0.049 A 
ATOM     52  H   UNL     1      -0.199   9.350  -0.375  1.00  0.00     0.167 HD
ATOM     53  C   UNL     1      -1.242  11.143  -4.201  1.00  0.00     0.037 A 
ATOM     54  C   UNL     1       0.019   9.353   2.412  1.00  0.00     0.037 A 
ATOM     55  C   UNL     1      -1.689  12.102  -3.224  1.00  0.00     0.049 A 
ATOM     56  C   UNL     1      -0.614  10.677   2.053  1.00  0.00     0.074 A 
ATOM     57  C   UNL     1      -2.350  13.301  -3.432  1.00  0.00     0.029 A 
ATOM     58  N   UNL     1      -1.516  11.976  -1.855  1.00  0.00    -0.354 N 
ATOM     59  N   UNL     1      -0.953  11.146   0.876  1.00  0.00    -0.248 NA
ATOM     60  C   UNL     1      -0.915  11.593   3.165  1.00  0.00     0.031 C 
ATOM     61  C   UNL     1      -2.531  13.925  -2.194  1.00  0.00     0.029 A 
ATOM     62  C   UNL     1      -2.035  13.087  -1.208  1.00  0.00     0.049 A 
ATOM     63  H   UNL     1      -1.087  11.210  -1.408  1.00  0.00     0.167 HD
ATOM     64  C   UNL     1      -1.532  12.388   1.110  1.00  0.00     0.074 A 
ATOM     65  C   UNL     1      -1.520  12.593   2.542  1.00  0.00     0.031 C 
ATOM     66  C   UNL     1      -2.029  13.281   0.218  1.00  0.00     0.037 A 
BRANCH  53  67
ATOM     67  C   UNL     1      -1.486  11.455  -5.649  1.00  0.00     0.064 A 
ATOM     68  C   UNL     1      -2.444  10.758  -6.400  1.00  0.00     0.173 A 
ATOM     69  C   UNL     1      -0.798  12.505  -6.275  1.00  0.00     0.173 A 
ATOM     70  F   UNL     1      -3.121   9.738  -5.851  1.00  0.00    -0.203 F 
ATOM     71  C   UNL     1      -2.690  11.088  -7.730  1.00  0.00     0.198 A 
ATOM     72  C   UNL     1      -1.067  12.852  -7.596  1.00  0.00     0.198 A 
ATOM     73  F   UNL     1       0.124  13.208  -5.599  1.00  0.00    -0.203 F 
ATOM     74  F   UNL     1      -3.582  10.384  -8.440  1.00  0.00    -0.200 F 
ATOM     75  C   UNL     1      -2.009  12.141  -8.324  1.00  0.00     0.200 A 
ATOM     76  F   UNL     1      -0.419  13.879  -8.163  1.00  0.00    -0.200 F 
ATOM     77  F   UNL     1      -2.258  12.468  -9.600  1.00  0.00    -0.200 F 
ENDBRANCH  53  67
BRANCH  54  78
ATOM     78  C   UNL     1       0.308   9.033   3.838  1.00  0.00     0.064 A 
ATOM     79  C   UNL     1      -0.726   8.866   4.771  1.00  0.00     0.173 A 
ATOM     80  C   UNL     1       1.627   8.956   4.310  1.00  0.00     0.173 A 
ATOM     81  F   UNL     1      -2.005   8.965   4.377  1.00  0.00    -0.203 F 
ATOM     82  C   UNL     1      -0.453   8.667   6.123  1.00  0.00     0.198 A 
ATOM     83  C   UNL     1       1.899   8.722   5.657  1.00  0.00     0.198 A 
ATOM     84  F   UNL     1       2.655   9.116   3.464  1.00  0.00    -0.203 F 
ATOM     85  F   UNL     1      -1.461   8.581   7.003  1.00  0.00    -0.200 F 
ATOM     86  C   UNL     1       0.859   8.590   6.564  1.00  0.00     0.200 A 
ATOM     87  F   UNL     1       3.168   8.640   6.077  1.00  0.00    -0.200 F 
ATOM     88  F   UNL     1       1.122   8.406   7.865  1.00  0.00    -0.200 F 
ENDBRANCH  54  78
BRANCH  66  89
ATOM     89  C   UNL     1      -2.638  14.544   0.763  1.00  0.00     0.064 A 
ATOM     90  C   UNL     1      -1.857  15.546   1.359  1.00  0.00     0.173 A 
ATOM     91  C   UNL     1      -4.021  14.767   0.665  1.00  0.00     0.173 A 
ATOM     92  F   UNL     1      -0.532  15.380   1.490  1.00  0.00    -0.203 F 
ATOM     93  C   UNL     1      -2.440  16.703   1.869  1.00  0.00     0.198 A 
ATOM     94  C   UNL     1      -4.597  15.941   1.145  1.00  0.00     0.198 A 
ATOM     95  F   UNL     1      -4.816  13.849   0.095  1.00  0.00    -0.203 F 
ATOM     96  F   UNL     1      -1.680  17.618   2.488  1.00  0.00    -0.200 F 
ATOM     97  C   UNL     1      -3.808  16.902   1.757  1.00  0.00     0.200 A 
ATOM     98  F   UNL     1      -5.916  16.138   1.020  1.00  0.00    -0.200 F 
ATOM     99  F   UNL     1      -4.367  18.018   2.246  1.00  0.00    -0.200 F 
ENDBRANCH  66  89
ENDBRANCH  40  41
ENDBRANCH  33  35
ENDBRANCH  32  33
ENDBRANCH  31  32
ENDBRANCH  30  31
ENDBRANCH  29  30
ENDBRANCH  28  29
ENDBRANCH   1  28
TORSDOF 20
