REMARK SMILES COc1ccc(-c2noc(C[N@H+]3CCCC[C@@H]3C(=O)OCCOCCOCCOC(=O)c3ccc(-c4c5nc(c(-c6c(F)c(F)c(F)c(F)c6F)c6ccc([nH]6)c(-c6c(F)c(F)c(F)c(F)c6F)c6nc(c(-c7c(F)c(F)c(F)c(F)c7F)c7ccc4[nH]7)C=C6)C=C5)cc3)n2)cc1OC
REMARK SMILES IDX 24 1 23 2 22 3 21 4 20 5 18 6 19 7 17 8 12 9 13 10 14 12
REMARK SMILES IDX 16 13 15 14 11 15 10 16 7 17 8 18 95 19 9 20 6 21 3 22 4 23
REMARK SMILES IDX 97 24 5 25 96 26 2 27 1 28 98 29 99 30 25 31 26 32 27 33
REMARK SMILES IDX 28 34 29 35 30 36 31 37 32 38 33 39 94 40 34 41 93 42 35 43
REMARK SMILES IDX 36 44 37 45 87 46 38 47 92 48 86 49 88 50 39 51 91 52 85 53
REMARK SMILES IDX 84 54 40 56 72 57 52 58 71 59 53 60 56 61 70 62 89 63 54 64
REMARK SMILES IDX 55 65 69 67 90 68 57 69 41 70 42 71 50 72 43 73 44 74 48 75
REMARK SMILES IDX 51 76 45 77 46 78 49 79 47 80 73 81 74 82 82 83 75 84 76 85
REMARK SMILES IDX 80 86 83 87 77 88 78 89 81 90 79 91 58 92 59 93 67 94 60 95
REMARK SMILES IDX 61 96 65 97 68 98 62 99 63 100 66 101 64 102
REMARK H PARENT 12 11 88 55 56 66
REMARK Flexibility Score: inf
ROOT
ATOM      1  C   UNL     1       4.137  10.083  -6.093  1.00  0.00     0.188 C 
ENDROOT
BRANCH   1   2
ATOM      2  O   UNL     1       5.470  10.517  -5.891  1.00  0.00    -0.376 OA
BRANCH   2   3
ATOM      3  C   UNL     1       6.446  10.348  -6.912  1.00  0.00     0.202 C 
BRANCH   3   4
ATOM      4  C   UNL     1       6.665   8.978  -7.587  1.00  0.00     0.261 C 
BRANCH   4   5
ATOM      5  O   UNL     1       5.537   8.390  -8.274  1.00  0.00    -0.459 OA
BRANCH   5   6
ATOM      6  C   UNL     1       4.962   7.339  -7.637  1.00  0.00     0.365 C 
ATOM      7  O   UNL     1       5.329   6.959  -6.526  1.00  0.00    -0.245 OA
BRANCH   6   8
ATOM      8  C   UNL     1       3.745   6.693  -8.363  1.00  0.00     0.295 C 
ATOM      9  N   UNL     1       3.974   5.241  -8.643  1.00  0.00    -0.315 N 
ATOM     10  C   UNL     1       2.771   4.576  -9.181  1.00  0.00     0.263 C 
ATOM     11  H   UNL     1       4.707   5.248  -9.352  1.00  0.00     0.349 HD
ATOM     12  C   UNL     1       2.211   5.268 -10.419  1.00  0.00     0.062 C 
ATOM     13  C   UNL     1       3.261   7.385  -9.653  1.00  0.00     0.078 C 
ATOM     14  C   UNL     1       1.961   6.739 -10.138  1.00  0.00     0.013 C 
BRANCH   9  15
ATOM     15  C   UNL     1       4.492   4.460  -7.490  1.00  0.00     0.364 C 
BRANCH  15  16
ATOM     16  C   UNL     1       3.580   4.294  -6.317  1.00  0.00     0.282 A 
ATOM     17  C   UNL     1       2.341   3.620  -4.774  1.00  0.00     0.202 A 
ATOM     18  N   UNL     1       2.162   4.947  -4.739  1.00  0.00    -0.057 NA
ATOM     19  N   UNL     1       3.192   3.177  -5.754  1.00  0.00    -0.186 NA
ATOM     20  O   UNL     1       3.014   5.402  -5.752  1.00  0.00    -0.333 OA
BRANCH  17  21
ATOM     21  C   UNL     1       1.837   2.692  -3.794  1.00  0.00     0.027 A 
ATOM     22  C   UNL     1       1.048   0.690  -2.017  1.00  0.00     0.160 A 
ATOM     23  C   UNL     1       0.099   1.353  -2.818  1.00  0.00     0.051 A 
ATOM     24  C   UNL     1       2.404   1.014  -2.117  1.00  0.00     0.161 A 
ATOM     25  C   UNL     1       0.488   2.365  -3.699  1.00  0.00     0.016 A 
ATOM     26  C   UNL     1       2.777   2.026  -3.001  1.00  0.00     0.062 A 
BRANCH  22  27
ATOM     27  O   UNL     1       0.599  -0.349  -1.248  1.00  0.00    -0.493 OA
ATOM     28  C   UNL     1      -0.005   0.123  -0.044  1.00  0.00     0.278 C 
ENDBRANCH  22  27
BRANCH  24  29
ATOM     29  O   UNL     1       3.490   0.469  -1.497  1.00  0.00    -0.493 OA
ATOM     30  C   UNL     1       3.315  -0.566  -0.551  1.00  0.00     0.278 C 
ENDBRANCH  24  29
ENDBRANCH  17  21
ENDBRANCH  15  16
ENDBRANCH   9  15
ENDBRANCH   6   8
ENDBRANCH   5   6
ENDBRANCH   4   5
ENDBRANCH   3   4
ENDBRANCH   2   3
ENDBRANCH   1   2
BRANCH   1  31
ATOM     31  C   UNL     1       3.465  10.290  -7.453  1.00  0.00     0.188 C 
BRANCH  31  32
ATOM     32  O   UNL     1       4.283  10.828  -8.459  1.00  0.00    -0.376 OA
BRANCH  32  33
ATOM     33  C   UNL     1       4.073  12.151  -8.926  1.00  0.00     0.202 C 
BRANCH  33  34
ATOM     34  C   UNL     1       3.641  13.304  -7.998  1.00  0.00     0.261 C 
BRANCH  34  35
ATOM     35  O   UNL     1       2.720  12.997  -6.942  1.00  0.00    -0.460 OA
BRANCH  35  36
ATOM     36  C   UNL     1       1.423  12.815  -7.285  1.00  0.00     0.338 C 
ATOM     37  O   UNL     1       0.935  12.925  -8.399  1.00  0.00    -0.246 OA
BRANCH  36  38
ATOM     38  C   UNL     1       0.744  12.187  -6.126  1.00  0.00     0.060 A 
ATOM     39  C   UNL     1       0.157  10.922  -6.293  1.00  0.00     0.016 A 
ATOM     40  C   UNL     1       0.728  12.809  -4.877  1.00  0.00     0.016 A 
ATOM     41  C   UNL     1      -0.470  10.289  -5.219  1.00  0.00     0.010 A 
ATOM     42  C   UNL     1       0.071  12.188  -3.809  1.00  0.00     0.010 A 
ATOM     43  C   UNL     1      -0.559  10.942  -3.983  1.00  0.00    -0.014 A 
BRANCH  43  44
ATOM     44  C   UNL     1      -1.503  10.442  -2.951  1.00  0.00     0.031 A 
ATOM     45  C   UNL     1      -2.862  11.085  -2.872  1.00  0.00     0.074 A 
ATOM     46  C   UNL     1      -1.187   9.435  -2.118  1.00  0.00     0.049 A 
ATOM     47  N   UNL     1      -3.831  10.893  -2.014  1.00  0.00    -0.248 NA
ATOM     48  C   UNL     1      -3.166  12.086  -3.908  1.00  0.00     0.031 C 
ATOM     49  C   UNL     1       0.063   8.681  -2.131  1.00  0.00     0.029 A 
ATOM     50  N   UNL     1      -1.906   8.881  -1.085  1.00  0.00    -0.354 N 
ATOM     51  C   UNL     1      -4.852  11.750  -2.403  1.00  0.00     0.074 A 
ATOM     52  C   UNL     1      -4.374  12.490  -3.550  1.00  0.00     0.031 C 
ATOM     53  C   UNL     1       0.032   7.771  -1.140  1.00  0.00     0.029 A 
ATOM     54  C   UNL     1      -1.224   7.905  -0.402  1.00  0.00     0.049 A 
ATOM     55  H   UNL     1      -2.823   9.159  -0.857  1.00  0.00     0.167 HD
ATOM     56  C   UNL     1      -6.084  11.899  -1.861  1.00  0.00     0.037 A 
ATOM     57  C   UNL     1      -1.568   7.220   0.708  1.00  0.00     0.037 A 
ATOM     58  C   UNL     1      -6.559  11.170  -0.716  1.00  0.00     0.049 A 
ATOM     59  C   UNL     1      -2.905   7.484   1.360  1.00  0.00     0.074 A 
ATOM     60  C   UNL     1      -7.788  11.257  -0.086  1.00  0.00     0.029 A 
ATOM     61  N   UNL     1      -5.821  10.222  -0.023  1.00  0.00    -0.354 N 
ATOM     62  N   UNL     1      -3.870   8.290   0.986  1.00  0.00    -0.248 NA
ATOM     63  C   UNL     1      -3.200   6.736   2.591  1.00  0.00     0.031 C 
ATOM     64  C   UNL     1      -7.774  10.402   1.020  1.00  0.00     0.029 A 
ATOM     65  C   UNL     1      -6.562   9.732   1.041  1.00  0.00     0.049 A 
ATOM     66  H   UNL     1      -4.906   9.938  -0.253  1.00  0.00     0.167 HD
ATOM     67  C   UNL     1      -4.897   8.114   1.907  1.00  0.00     0.074 A 
ATOM     68  C   UNL     1      -4.442   7.117   2.852  1.00  0.00     0.031 C 
ATOM     69  C   UNL     1      -6.108   8.722   1.963  1.00  0.00     0.037 A 
BRANCH  56  70
ATOM     70  C   UNL     1      -6.996  12.913  -2.489  1.00  0.00     0.064 A 
ATOM     71  C   UNL     1      -7.556  12.714  -3.760  1.00  0.00     0.173 A 
ATOM     72  C   UNL     1      -7.339  14.084  -1.797  1.00  0.00     0.173 A 
ATOM     73  F   UNL     1      -7.247  11.619  -4.471  1.00  0.00    -0.203 F 
ATOM     74  C   UNL     1      -8.405  13.662  -4.325  1.00  0.00     0.198 A 
ATOM     75  C   UNL     1      -8.215  15.014  -2.351  1.00  0.00     0.198 A 
ATOM     76  F   UNL     1      -6.833  14.323  -0.578  1.00  0.00    -0.203 F 
ATOM     77  F   UNL     1      -8.887  13.475  -5.562  1.00  0.00    -0.200 F 
ATOM     78  C   UNL     1      -8.740  14.806  -3.617  1.00  0.00     0.200 A 
ATOM     79  F   UNL     1      -8.549  16.112  -1.659  1.00  0.00    -0.200 F 
ATOM     80  F   UNL     1      -9.565  15.713  -4.158  1.00  0.00    -0.200 F 
ENDBRANCH  56  70
BRANCH  57  81
ATOM     81  C   UNL     1      -0.632   6.224   1.297  1.00  0.00     0.064 A 
ATOM     82  C   UNL     1      -0.952   4.859   1.326  1.00  0.00     0.173 A 
ATOM     83  C   UNL     1       0.575   6.621   1.893  1.00  0.00     0.173 A 
ATOM     84  F   UNL     1      -2.110   4.430   0.802  1.00  0.00    -0.203 F 
ATOM     85  C   UNL     1      -0.116   3.935   1.951  1.00  0.00     0.198 A 
ATOM     86  C   UNL     1       1.425   5.692   2.490  1.00  0.00     0.198 A 
ATOM     87  F   UNL     1       0.924   7.916   1.905  1.00  0.00    -0.203 F 
ATOM     88  F   UNL     1      -0.479   2.646   2.021  1.00  0.00    -0.200 F 
ATOM     89  C   UNL     1       1.073   4.351   2.529  1.00  0.00     0.200 A 
ATOM     90  F   UNL     1       2.575   6.098   3.045  1.00  0.00    -0.200 F 
ATOM     91  F   UNL     1       1.869   3.463   3.140  1.00  0.00    -0.200 F 
ENDBRANCH  57  81
BRANCH  69  92
ATOM     92  C   UNL     1      -7.061   8.283   3.042  1.00  0.00     0.064 A 
ATOM     93  C   UNL     1      -6.839   8.576   4.396  1.00  0.00     0.173 A 
ATOM     94  C   UNL     1      -8.236   7.591   2.707  1.00  0.00     0.173 A 
ATOM     95  F   UNL     1      -5.727   9.225   4.773  1.00  0.00    -0.203 F 
ATOM     96  C   UNL     1      -7.740   8.163   5.375  1.00  0.00     0.198 A 
ATOM     97  C   UNL     1      -9.152   7.213   3.684  1.00  0.00     0.198 A 
ATOM     98  F   UNL     1      -8.505   7.295   1.426  1.00  0.00    -0.203 F 
ATOM     99  F   UNL     1      -7.478   8.404   6.667  1.00  0.00    -0.200 F 
ATOM    100  C   UNL     1      -8.899   7.490   5.019  1.00  0.00     0.200 A 
ATOM    101  F   UNL     1     -10.280   6.579   3.335  1.00  0.00    -0.200 F 
ATOM    102  F   UNL     1      -9.767   7.100   5.962  1.00  0.00    -0.200 F 
ENDBRANCH  69  92
ENDBRANCH  43  44
ENDBRANCH  36  38
ENDBRANCH  35  36
ENDBRANCH  34  35
ENDBRANCH  33  34
ENDBRANCH  32  33
ENDBRANCH  31  32
ENDBRANCH   1  31
TORSDOF 22
