REMARK SMILES CCN(C(=O)Cc1c(C(=O)OCCOCCOCCOC(=O)c2ccc(-c3c4nc(c(-c5c(F)c(F)c(F)c(F)c5F)c5ccc([nH]5)c(-c5c(F)c(F)c(F)c(F)c5F)c5nc(c(-c6c(F)c(F)c(F)c(F)c6F)c6ccc3[nH]6)C=C5)C=C4)cc2)[nH]c2ccccc12)c1cccc(C)c1
REMARK SMILES IDX 15 1 14 2 13 3 12 4 11 5 9 6 10 7 8 8 7 9 92 10 86 11 87 12
REMARK SMILES IDX 91 13 88 15 90 16 89 17 6 18 4 19 5 20 3 21 2 22 1 23 93 24
REMARK SMILES IDX 94 25 99 26 95 27 97 28 96 29 98 30 16 31 17 32 18 33 19 34
REMARK SMILES IDX 20 35 21 36 22 37 23 38 24 39 85 40 25 41 84 42 26 43 27 44
REMARK SMILES IDX 28 45 78 46 29 47 83 48 77 49 79 50 30 51 82 52 76 53 75 54
REMARK SMILES IDX 31 56 63 57 43 58 62 59 44 60 47 61 61 62 80 63 45 64 46 65
REMARK SMILES IDX 60 67 81 68 48 69 32 70 33 71 41 72 34 73 35 74 39 75 42 76
REMARK SMILES IDX 36 77 37 78 40 79 38 80 64 81 65 82 73 83 66 84 67 85 71 86
REMARK SMILES IDX 74 87 68 88 69 89 72 90 70 91 49 92 50 93 58 94 51 95 52 96
REMARK SMILES IDX 56 97 59 98 53 99 54 100 57 101 55 102
REMARK H PARENT 86 14 79 55 47 66
REMARK Flexibility Score: inf
ROOT
ATOM      1  C   UNL     1       0.297   0.652  -5.084  1.00  0.00     0.188 C 
ENDROOT
BRANCH   1   2
ATOM      2  O   UNL     1       1.547   0.240  -5.616  1.00  0.00    -0.376 OA
BRANCH   2   3
ATOM      3  C   UNL     1       2.474  -0.251  -4.651  1.00  0.00     0.202 C 
BRANCH   3   4
ATOM      4  C   UNL     1       2.078  -1.566  -3.949  1.00  0.00     0.261 C 
BRANCH   4   5
ATOM      5  O   UNL     1       0.764  -1.563  -3.348  1.00  0.00    -0.459 OA
BRANCH   5   6
ATOM      6  C   UNL     1       0.660  -0.824  -2.214  1.00  0.00     0.355 C 
ATOM      7  O   UNL     1       1.627  -0.406  -1.615  1.00  0.00    -0.244 OA
BRANCH   6   8
ATOM      8  C   UNL     1      -0.730  -0.614  -1.847  1.00  0.00     0.129 A 
ATOM      9  C   UNL     1      -1.458   0.537  -1.509  1.00  0.00     0.002 A 
ATOM     10  C   UNL     1      -2.779   0.096  -1.132  1.00  0.00     0.004 A 
ATOM     11  N   UNL     1      -1.606  -1.678  -1.756  1.00  0.00    -0.349 N 
ATOM     12  C   UNL     1      -2.818  -1.287  -1.247  1.00  0.00     0.046 A 
ATOM     13  C   UNL     1      -3.940   0.770  -0.692  1.00  0.00     0.010 A 
ATOM     14  H   UNL     1      -1.388  -2.600  -2.022  1.00  0.00     0.167 HD
ATOM     15  C   UNL     1      -3.943  -2.042  -0.895  1.00  0.00     0.027 A 
ATOM     16  C   UNL     1      -5.071   0.034  -0.330  1.00  0.00     0.001 A 
ATOM     17  C   UNL     1      -5.065  -1.355  -0.418  1.00  0.00     0.002 A 
BRANCH   9  18
ATOM     18  C   UNL     1      -1.136   2.011  -1.521  1.00  0.00     0.139 C 
BRANCH  18  19
ATOM     19  C   UNL     1       0.294   2.452  -1.719  1.00  0.00     0.231 C 
ATOM     20  O   UNL     1       0.557   2.990  -2.803  1.00  0.00    -0.274 OA
BRANCH  19  21
ATOM     21  N   UNL     1       1.227   2.240  -0.690  1.00  0.00    -0.312 N 
BRANCH  21  22
ATOM     22  C   UNL     1       0.844   1.881   0.691  1.00  0.00     0.122 C 
ATOM     23  C   UNL     1       0.947   0.432   1.161  1.00  0.00     0.028 C 
ENDBRANCH  21  22
BRANCH  21  24
ATOM     24  C   UNL     1       2.627   2.412  -1.007  1.00  0.00     0.044 A 
ATOM     25  C   UNL     1       3.069   3.478  -1.802  1.00  0.00     0.026 A 
ATOM     26  C   UNL     1       3.548   1.399  -0.717  1.00  0.00     0.029 A 
ATOM     27  C   UNL     1       4.361   3.496  -2.339  1.00  0.00     0.002 A 
ATOM     28  C   UNL     1       4.807   1.349  -1.337  1.00  0.00    -0.049 A 
ATOM     29  C   UNL     1       5.220   2.421  -2.127  1.00  0.00     0.003 A 
ATOM     30  C   UNL     1       5.654   0.115  -1.223  1.00  0.00     0.044 C 
ENDBRANCH  21  24
ENDBRANCH  19  21
ENDBRANCH  18  19
ENDBRANCH   9  18
ENDBRANCH   6   8
ENDBRANCH   5   6
ENDBRANCH   4   5
ENDBRANCH   3   4
ENDBRANCH   2   3
ENDBRANCH   1   2
BRANCH   1  31
ATOM     31  C   UNL     1      -0.862  -0.344  -5.318  1.00  0.00     0.188 C 
BRANCH  31  32
ATOM     32  O   UNL     1      -0.627  -1.573  -5.985  1.00  0.00    -0.376 OA
BRANCH  32  33
ATOM     33  C   UNL     1       0.155  -1.552  -7.169  1.00  0.00     0.202 C 
BRANCH  33  34
ATOM     34  C   UNL     1      -0.162  -0.545  -8.293  1.00  0.00     0.261 C 
BRANCH  34  35
ATOM     35  O   UNL     1      -0.486   0.800  -7.890  1.00  0.00    -0.460 OA
BRANCH  35  36
ATOM     36  C   UNL     1      -1.796   1.149  -7.981  1.00  0.00     0.338 C 
ATOM     37  O   UNL     1      -2.713   0.463  -8.399  1.00  0.00    -0.246 OA
BRANCH  36  38
ATOM     38  C   UNL     1      -2.022   2.457  -7.324  1.00  0.00     0.060 A 
ATOM     39  C   UNL     1      -2.806   2.509  -6.159  1.00  0.00     0.016 A 
ATOM     40  C   UNL     1      -1.543   3.634  -7.896  1.00  0.00     0.016 A 
ATOM     41  C   UNL     1      -3.119   3.733  -5.570  1.00  0.00     0.010 A 
ATOM     42  C   UNL     1      -1.889   4.865  -7.324  1.00  0.00     0.010 A 
ATOM     43  C   UNL     1      -2.701   4.922  -6.175  1.00  0.00    -0.014 A 
BRANCH  43  44
ATOM     44  C   UNL     1      -3.257   6.217  -5.708  1.00  0.00     0.031 A 
ATOM     45  C   UNL     1      -4.403   6.829  -6.468  1.00  0.00     0.074 A 
ATOM     46  C   UNL     1      -2.770   6.830  -4.615  1.00  0.00     0.049 A 
ATOM     47  N   UNL     1      -5.005   7.978  -6.288  1.00  0.00    -0.248 NA
ATOM     48  C   UNL     1      -4.941   6.036  -7.584  1.00  0.00     0.031 C 
ATOM     49  C   UNL     1      -1.699   6.319  -3.764  1.00  0.00     0.029 A 
ATOM     50  N   UNL     1      -3.113   8.032  -4.045  1.00  0.00    -0.354 N 
ATOM     51  C   UNL     1      -5.982   8.050  -7.274  1.00  0.00     0.074 A 
ATOM     52  C   UNL     1      -5.874   6.843  -8.065  1.00  0.00     0.031 C 
ATOM     53  C   UNL     1      -1.456   7.213  -2.790  1.00  0.00     0.029 A 
ATOM     54  C   UNL     1      -2.329   8.373  -2.971  1.00  0.00     0.049 A 
ATOM     55  H   UNL     1      -3.850   8.596  -4.375  1.00  0.00     0.167 HD
ATOM     56  C   UNL     1      -6.890   9.031  -7.495  1.00  0.00     0.037 A 
ATOM     57  C   UNL     1      -2.300   9.505  -2.241  1.00  0.00     0.037 A 
ATOM     58  C   UNL     1      -6.991  10.234  -6.710  1.00  0.00     0.049 A 
ATOM     59  C   UNL     1      -3.263  10.622  -2.562  1.00  0.00     0.074 A 
ATOM     60  C   UNL     1      -7.889  11.279  -6.844  1.00  0.00     0.029 A 
ATOM     61  N   UNL     1      -6.157  10.560  -5.651  1.00  0.00    -0.354 N 
ATOM     62  N   UNL     1      -4.202  10.675  -3.477  1.00  0.00    -0.248 NA
ATOM     63  C   UNL     1      -3.164  11.838  -1.742  1.00  0.00     0.031 C 
ATOM     64  C   UNL     1      -7.555  12.266  -5.911  1.00  0.00     0.029 A 
ATOM     65  C   UNL     1      -6.497  11.805  -5.144  1.00  0.00     0.049 A 
ATOM     66  H   UNL     1      -5.430   9.991  -5.309  1.00  0.00     0.167 HD
ATOM     67  C   UNL     1      -4.821  11.910  -3.322  1.00  0.00     0.074 A 
ATOM     68  C   UNL     1      -4.165  12.567  -2.212  1.00  0.00     0.031 C 
ATOM     69  C   UNL     1      -5.841  12.450  -4.035  1.00  0.00     0.037 A 
BRANCH  56  70
ATOM     70  C   UNL     1      -7.826   8.863  -8.659  1.00  0.00     0.064 A 
ATOM     71  C   UNL     1      -8.840   7.893  -8.661  1.00  0.00     0.173 A 
ATOM     72  C   UNL     1      -7.730   9.710  -9.773  1.00  0.00     0.173 A 
ATOM     73  F   UNL     1      -8.970   7.049  -7.625  1.00  0.00    -0.203 F 
ATOM     74  C   UNL     1      -9.702   7.759  -9.747  1.00  0.00     0.198 A 
ATOM     75  C   UNL     1      -8.615   9.596 -10.841  1.00  0.00     0.198 A 
ATOM     76  F   UNL     1      -6.783  10.660  -9.822  1.00  0.00    -0.203 F 
ATOM     77  F   UNL     1     -10.630   6.792  -9.748  1.00  0.00    -0.200 F 
ATOM     78  C   UNL     1      -9.595   8.616 -10.832  1.00  0.00     0.200 A 
ATOM     79  F   UNL     1      -8.520  10.437 -11.881  1.00  0.00    -0.200 F 
ATOM     80  F   UNL     1     -10.432   8.492 -11.871  1.00  0.00    -0.200 F 
ENDBRANCH  56  70
BRANCH  57  81
ATOM     81  C   UNL     1      -1.310   9.658  -1.141  1.00  0.00     0.064 A 
ATOM     82  C   UNL     1      -1.721   9.747   0.196  1.00  0.00     0.173 A 
ATOM     83  C   UNL     1       0.065   9.752  -1.407  1.00  0.00     0.173 A 
ATOM     84  F   UNL     1      -3.026   9.692   0.500  1.00  0.00    -0.203 F 
ATOM     85  C   UNL     1      -0.800   9.948   1.222  1.00  0.00     0.198 A 
ATOM     86  C   UNL     1       0.989   9.919  -0.377  1.00  0.00     0.198 A 
ATOM     87  F   UNL     1       0.513   9.682  -2.669  1.00  0.00    -0.203 F 
ATOM     88  F   UNL     1      -1.227  10.088   2.484  1.00  0.00    -0.200 F 
ATOM     89  C   UNL     1       0.555  10.027   0.936  1.00  0.00     0.200 A 
ATOM     90  F   UNL     1       2.297   9.984  -0.657  1.00  0.00    -0.200 F 
ATOM     91  F   UNL     1       1.440  10.219   1.923  1.00  0.00    -0.200 F 
ENDBRANCH  57  81
BRANCH  69  92
ATOM     92  C   UNL     1      -6.345  13.804  -3.610  1.00  0.00     0.064 A 
ATOM     93  C   UNL     1      -5.575  14.966  -3.768  1.00  0.00     0.173 A 
ATOM     94  C   UNL     1      -7.630  13.943  -3.062  1.00  0.00     0.173 A 
ATOM     95  F   UNL     1      -4.335  14.892  -4.275  1.00  0.00    -0.203 F 
ATOM     96  C   UNL     1      -6.058  16.208  -3.360  1.00  0.00     0.198 A 
ATOM     97  C   UNL     1      -8.124  15.190  -2.691  1.00  0.00     0.198 A 
ATOM     98  F   UNL     1      -8.416  12.867  -2.896  1.00  0.00    -0.203 F 
ATOM     99  F   UNL     1      -5.279  17.294  -3.464  1.00  0.00    -0.200 F 
ATOM    100  C   UNL     1      -7.333  16.320  -2.829  1.00  0.00     0.200 A 
ATOM    101  F   UNL     1      -9.365  15.298  -2.195  1.00  0.00    -0.200 F 
ATOM    102  F   UNL     1      -7.798  17.516  -2.441  1.00  0.00    -0.200 F 
ENDBRANCH  69  92
ENDBRANCH  43  44
ENDBRANCH  36  38
ENDBRANCH  35  36
ENDBRANCH  34  35
ENDBRANCH  33  34
ENDBRANCH  32  33
ENDBRANCH  31  32
ENDBRANCH   1  31
TORSDOF 22
