REMARK SMILES O=C(OCCOCCOCCOC(=O)[C@H]1C[C@H]1c1ccc(C2CC2)cc1)c1ccc(-c2c3nc(c(-c4c(F)c(F)c(F)c(F)c4F)c4ccc([nH]4)c(-c4c(F)c(F)c(F)c(F)c4F)c4nc(c(-c5c(F)c(F)c(F)c(F)c5F)c5ccc2[nH]5)C=C4)C=C3)cc1
REMARK SMILES IDX 7 1 6 2 5 3 4 4 3 5 2 6 1 7 27 8 28 9 89 10 29 11 88 12
REMARK SMILES IDX 30 13 31 14 32 15 82 16 33 17 87 18 81 19 83 20 34 21 86 22
REMARK SMILES IDX 80 23 79 24 35 26 67 27 47 28 66 29 48 30 51 31 65 32 84 33
REMARK SMILES IDX 49 34 50 35 64 37 85 38 52 39 36 40 37 41 45 42 38 43 39 44
REMARK SMILES IDX 43 45 46 46 40 47 41 48 44 49 42 50 68 51 69 52 77 53 70 54
REMARK SMILES IDX 71 55 75 56 78 57 72 58 73 59 76 60 74 61 53 62 54 63 62 64
REMARK SMILES IDX 55 65 56 66 60 67 63 68 57 69 58 70 61 71 59 72 8 73 9 74
REMARK SMILES IDX 10 75 11 76 12 77 13 78 14 79 15 80 16 81 17 82 18 83 19 84
REMARK SMILES IDX 26 85 20 86 25 87 21 88 22 89 23 90 24 91
REMARK H PARENT 83 25 51 36
REMARK Flexibility Score: inf
ROOT
ATOM      1  C   UNL     1       6.396   1.500   2.463  1.00  0.00     0.188 C 
ENDROOT
BRANCH   1   2
ATOM      2  O   UNL     1       5.834   1.405   3.780  1.00  0.00    -0.376 OA
BRANCH   2   3
ATOM      3  C   UNL     1       6.541   0.494   4.631  1.00  0.00     0.202 C 
BRANCH   3   4
ATOM      4  C   UNL     1       6.190  -0.987   4.429  1.00  0.00     0.261 C 
BRANCH   4   5
ATOM      5  O   UNL     1       5.899  -1.305   3.059  1.00  0.00    -0.460 OA
BRANCH   5   6
ATOM      6  C   UNL     1       4.691  -1.367   2.447  1.00  0.00     0.338 C 
ATOM      7  O   UNL     1       4.653  -1.718   1.268  1.00  0.00    -0.246 OA
BRANCH   6   8
ATOM      8  C   UNL     1       3.388  -1.059   3.118  1.00  0.00     0.060 A 
ATOM      9  C   UNL     1       3.223  -0.258   4.250  1.00  0.00     0.016 A 
ATOM     10  C   UNL     1       2.228  -1.583   2.515  1.00  0.00     0.016 A 
ATOM     11  C   UNL     1       1.972  -0.078   4.834  1.00  0.00     0.010 A 
ATOM     12  C   UNL     1       0.961  -1.368   3.066  1.00  0.00     0.010 A 
ATOM     13  C   UNL     1       0.838  -0.648   4.256  1.00  0.00    -0.014 A 
BRANCH  13  14
ATOM     14  C   UNL     1      -0.439  -0.568   4.991  1.00  0.00     0.031 A 
ATOM     15  C   UNL     1      -0.872  -1.751   5.795  1.00  0.00     0.074 A 
ATOM     16  C   UNL     1      -1.127   0.586   5.008  1.00  0.00     0.049 A 
ATOM     17  N   UNL     1      -1.922  -1.890   6.558  1.00  0.00    -0.248 NA
ATOM     18  C   UNL     1      -0.013  -2.944   5.722  1.00  0.00     0.031 C 
ATOM     19  C   UNL     1      -0.757   1.774   4.248  1.00  0.00     0.029 A 
ATOM     20  N   UNL     1      -2.246   0.966   5.699  1.00  0.00    -0.354 N 
ATOM     21  C   UNL     1      -1.879  -3.200   7.013  1.00  0.00     0.074 A 
ATOM     22  C   UNL     1      -0.692  -3.810   6.457  1.00  0.00     0.031 C 
ATOM     23  C   UNL     1      -1.593   2.775   4.561  1.00  0.00     0.029 A 
ATOM     24  C   UNL     1      -2.573   2.291   5.524  1.00  0.00     0.049 A 
ATOM     25  H   UNL     1      -2.766   0.352   6.266  1.00  0.00     0.167 HD
ATOM     26  C   UNL     1      -2.776  -3.833   7.802  1.00  0.00     0.037 A 
ATOM     27  C   UNL     1      -3.552   3.022   6.090  1.00  0.00     0.037 A 
ATOM     28  C   UNL     1      -3.952  -3.193   8.328  1.00  0.00     0.049 A 
ATOM     29  C   UNL     1      -4.500   2.306   7.016  1.00  0.00     0.074 A 
ATOM     30  C   UNL     1      -4.972  -3.736   9.085  1.00  0.00     0.029 A 
ATOM     31  N   UNL     1      -4.258  -1.849   8.144  1.00  0.00    -0.354 N 
ATOM     32  N   UNL     1      -4.476   1.056   7.415  1.00  0.00    -0.248 NA
ATOM     33  C   UNL     1      -5.629   3.084   7.540  1.00  0.00     0.031 C 
ATOM     34  C   UNL     1      -5.915  -2.729   9.326  1.00  0.00     0.029 A 
ATOM     35  C   UNL     1      -5.458  -1.546   8.764  1.00  0.00     0.049 A 
ATOM     36  H   UNL     1      -3.703  -1.207   7.645  1.00  0.00     0.167 HD
ATOM     37  C   UNL     1      -5.595   0.887   8.216  1.00  0.00     0.074 A 
ATOM     38  C   UNL     1      -6.242   2.183   8.296  1.00  0.00     0.031 C 
ATOM     39  C   UNL     1      -6.068  -0.239   8.806  1.00  0.00     0.037 A 
BRANCH  26  40
ATOM     40  C   UNL     1      -2.549  -5.295   8.047  1.00  0.00     0.064 A 
ATOM     41  C   UNL     1      -1.504  -5.762   8.858  1.00  0.00     0.173 A 
ATOM     42  C   UNL     1      -3.358  -6.247   7.408  1.00  0.00     0.173 A 
ATOM     43  F   UNL     1      -0.679  -4.894   9.463  1.00  0.00    -0.203 F 
ATOM     44  C   UNL     1      -1.255  -7.127   8.989  1.00  0.00     0.198 A 
ATOM     45  C   UNL     1      -3.124  -7.610   7.565  1.00  0.00     0.198 A 
ATOM     46  F   UNL     1      -4.365  -5.854   6.613  1.00  0.00    -0.203 F 
ATOM     47  F   UNL     1      -0.207  -7.549   9.712  1.00  0.00    -0.200 F 
ATOM     48  C   UNL     1      -2.066  -8.049   8.345  1.00  0.00     0.200 A 
ATOM     49  F   UNL     1      -3.910  -8.499   6.941  1.00  0.00    -0.200 F 
ATOM     50  F   UNL     1      -1.816  -9.361   8.461  1.00  0.00    -0.200 F 
ENDBRANCH  26  40
BRANCH  27  51
ATOM     51  C   UNL     1      -3.670   4.484   5.817  1.00  0.00     0.064 A 
ATOM     52  C   UNL     1      -3.505   5.424   6.845  1.00  0.00     0.173 A 
ATOM     53  C   UNL     1      -3.932   4.982   4.531  1.00  0.00     0.173 A 
ATOM     54  F   UNL     1      -3.267   5.010   8.099  1.00  0.00    -0.203 F 
ATOM     55  C   UNL     1      -3.607   6.795   6.602  1.00  0.00     0.198 A 
ATOM     56  C   UNL     1      -3.996   6.354   4.281  1.00  0.00     0.198 A 
ATOM     57  F   UNL     1      -4.107   4.135   3.506  1.00  0.00    -0.203 F 
ATOM     58  F   UNL     1      -3.485   7.663   7.616  1.00  0.00    -0.200 F 
ATOM     59  C   UNL     1      -3.842   7.259   5.318  1.00  0.00     0.200 A 
ATOM     60  F   UNL     1      -4.214   6.794   3.034  1.00  0.00    -0.200 F 
ATOM     61  F   UNL     1      -3.936   8.575   5.085  1.00  0.00    -0.200 F 
ENDBRANCH  27  51
BRANCH  39  62
ATOM     62  C   UNL     1      -7.354  -0.107   9.565  1.00  0.00     0.064 A 
ATOM     63  C   UNL     1      -8.578   0.055   8.898  1.00  0.00     0.173 A 
ATOM     64  C   UNL     1      -7.367  -0.185  10.964  1.00  0.00     0.173 A 
ATOM     65  F   UNL     1      -8.611   0.148   7.560  1.00  0.00    -0.203 F 
ATOM     66  C   UNL     1      -9.768   0.162   9.610  1.00  0.00     0.198 A 
ATOM     67  C   UNL     1      -8.562  -0.107  11.670  1.00  0.00     0.198 A 
ATOM     68  F   UNL     1      -6.221  -0.348  11.643  1.00  0.00    -0.203 F 
ATOM     69  F   UNL     1     -10.920   0.364   8.957  1.00  0.00    -0.200 F 
ATOM     70  C   UNL     1      -9.760   0.074  10.994  1.00  0.00     0.200 A 
ATOM     71  F   UNL     1      -8.556  -0.204  13.007  1.00  0.00    -0.200 F 
ATOM     72  F   UNL     1     -10.908   0.172  11.678  1.00  0.00    -0.200 F 
ENDBRANCH  39  62
ENDBRANCH  13  14
ENDBRANCH   6   8
ENDBRANCH   5   6
ENDBRANCH   4   5
ENDBRANCH   3   4
ENDBRANCH   2   3
ENDBRANCH   1   2
BRANCH   1  73
ATOM     73  C   UNL     1       6.391   2.932   1.927  1.00  0.00     0.188 C 
BRANCH  73  74
ATOM     74  O   UNL     1       7.268   3.864   2.559  1.00  0.00    -0.376 OA
BRANCH  74  75
ATOM     75  C   UNL     1       7.137   4.056   3.965  1.00  0.00     0.202 C 
BRANCH  75  76
ATOM     76  C   UNL     1       5.920   4.849   4.458  1.00  0.00     0.261 C 
BRANCH  76  77
ATOM     77  O   UNL     1       4.683   4.384   3.914  1.00  0.00    -0.463 OA
BRANCH  77  78
ATOM     78  C   UNL     1       4.117   5.195   2.976  1.00  0.00     0.309 C 
ATOM     79  O   UNL     1       4.516   6.286   2.617  1.00  0.00    -0.252 OA
BRANCH  78  80
ATOM     80  C   UNL     1       2.986   4.527   2.288  1.00  0.00     0.107 C 
ATOM     81  C   UNL     1       2.139   3.497   2.983  1.00  0.00     0.025 C 
ATOM     82  C   UNL     1       1.543   4.833   2.624  1.00  0.00     0.034 C 
BRANCH  82  83
ATOM     83  C   UNL     1       1.210   5.889   3.647  1.00  0.00    -0.044 A 
ATOM     84  C   UNL     1       0.609   5.603   4.877  1.00  0.00     0.004 A 
ATOM     85  C   UNL     1       1.436   7.240   3.355  1.00  0.00     0.004 A 
ATOM     86  C   UNL     1       0.166   6.623   5.729  1.00  0.00     0.004 A 
ATOM     87  C   UNL     1       1.013   8.257   4.215  1.00  0.00     0.004 A 
ATOM     88  C   UNL     1       0.321   7.979   5.403  1.00  0.00    -0.045 A 
BRANCH  88  89
ATOM     89  C   UNL     1      -0.274   9.054   6.290  1.00  0.00     0.019 C 
ATOM     90  C   UNL     1       0.390  10.394   6.481  1.00  0.00     0.009 C 
ATOM     91  C   UNL     1      -0.868  10.298   5.665  1.00  0.00     0.009 C 
ENDBRANCH  88  89
ENDBRANCH  82  83
ENDBRANCH  78  80
ENDBRANCH  77  78
ENDBRANCH  76  77
ENDBRANCH  75  76
ENDBRANCH  74  75
ENDBRANCH  73  74
ENDBRANCH   1  73
TORSDOF 19
