REMARK SMILES Cc1cc([N+](=O)[O-])ccc1NC(=O)[C@@H]1[C@@H](C(=O)OCCOCCOCCOC(=O)c2ccc(-c3c4nc(c(-c5c(F)c(F)c(F)c(F)c5F)c5ccc([nH]5)c(-c5c(F)c(F)c(F)c(F)c5F)c5nc(c(-c6c(F)c(F)c(F)c(F)c6F)c6ccc3[nH]6)C=C5)C=C4)cc2)[C@H]2C=C[C@@H]1C2
REMARK SMILES IDX 22 1 21 2 20 3 19 4 18 5 16 6 17 7 15 8 14 9 96 10 93 11
REMARK SMILES IDX 95 12 97 13 94 14 12 15 11 16 13 18 10 19 1 20 2 21 3 22
REMARK SMILES IDX 4 23 9 24 8 25 5 26 6 27 7 28 23 29 24 30 25 31 26 32 27 33
REMARK SMILES IDX 28 34 29 35 30 36 31 37 92 38 32 39 91 40 33 41 34 42 35 43
REMARK SMILES IDX 85 44 36 45 90 46 84 47 86 48 37 49 89 50 83 51 82 52 38 54
REMARK SMILES IDX 70 55 50 56 69 57 51 58 54 59 68 60 87 61 52 62 53 63 67 65
REMARK SMILES IDX 88 66 55 67 39 68 40 69 48 70 41 71 42 72 46 73 49 74 43 75
REMARK SMILES IDX 44 76 47 77 45 78 71 79 72 80 80 81 73 82 74 83 78 84 81 85
REMARK SMILES IDX 75 86 76 87 79 88 77 89 56 90 57 91 65 92 58 93 59 94 63 95
REMARK SMILES IDX 66 96 60 97 61 98 64 99 62 100
REMARK H PARENT 11 17 86 53 54 64
REMARK Flexibility Score: inf
ROOT
ATOM      1  C   UNL     1      -0.904   6.627  -5.197  1.00  0.00     0.188 C 
ENDROOT
BRANCH   1   2
ATOM      2  O   UNL     1      -2.156   7.000  -5.716  1.00  0.00    -0.376 OA
BRANCH   2   3
ATOM      3  C   UNL     1      -3.200   6.832  -4.788  1.00  0.00     0.202 C 
BRANCH   3   4
ATOM      4  C   UNL     1      -3.026   6.655  -3.253  1.00  0.00     0.261 C 
BRANCH   4   5
ATOM      5  O   UNL     1      -1.974   6.087  -2.234  1.00  0.00    -0.463 OA
BRANCH   5   6
ATOM      6  C   UNL     1      -1.367   4.886  -1.924  1.00  0.00     0.310 C 
ATOM      7  O   UNL     1      -1.121   4.097  -2.828  1.00  0.00    -0.252 OA
BRANCH   6   8
ATOM      8  C   UNL     1      -1.182   4.429  -0.359  1.00  0.00     0.119 C 
ATOM      9  C   UNL     1      -0.692   2.925  -0.163  1.00  0.00     0.100 C 
ATOM     10  C   UNL     1      -1.204   2.504   1.278  1.00  0.00     0.025 C 
ATOM     11  C   UNL     1      -2.294   4.348   0.785  1.00  0.00     0.027 C 
ATOM     12  C   UNL     1      -2.643   2.098   1.151  1.00  0.00    -0.027 C 
ATOM     13  C   UNL     1      -1.426   3.837   1.952  1.00  0.00     0.017 C 
ATOM     14  C   UNL     1      -3.283   3.195   0.753  1.00  0.00    -0.027 C 
BRANCH   9  15
ATOM     15  C   UNL     1       0.780   2.654  -0.175  1.00  0.00     0.228 C 
ATOM     16  N   UNL     1       1.259   1.366  -0.123  1.00  0.00    -0.326 N 
ATOM     17  H   UNL     1       2.243   1.336  -0.112  1.00  0.00     0.169 HD
ATOM     18  O   UNL     1       1.590   3.583  -0.187  1.00  0.00    -0.274 OA
BRANCH  16  19
ATOM     19  C   UNL     1       0.682   0.063  -0.082  1.00  0.00     0.044 A 
ATOM     20  C   UNL     1       3.013  -1.030   0.038  1.00  0.00     0.047 C 
ATOM     21  C   UNL     1       1.508  -1.075   0.011  1.00  0.00    -0.021 A 
ATOM     22  C   UNL     1       0.930  -2.374   0.054  1.00  0.00     0.091 A 
ATOM     23  C   UNL     1      -0.456  -2.554   0.016  1.00  0.00     0.269 A 
ATOM     24  C   UNL     1      -0.694  -0.182  -0.136  1.00  0.00     0.033 A 
ATOM     25  C   UNL     1      -1.278  -1.449  -0.073  1.00  0.00     0.088 A 
BRANCH  23  26
ATOM     26  N   UNL     1      -1.052  -3.892   0.041  1.00  0.00     0.062 N 
ATOM     27  O   UNL     1      -0.284  -4.862   0.091  1.00  0.00    -0.258 OA
ATOM     28  O   UNL     1      -2.289  -3.974   0.003  1.00  0.00    -0.258 OA
ENDBRANCH  23  26
ENDBRANCH  16  19
ENDBRANCH   9  15
ENDBRANCH   6   8
ENDBRANCH   5   6
ENDBRANCH   4   5
ENDBRANCH   3   4
ENDBRANCH   2   3
ENDBRANCH   1   2
BRANCH   1  29
ATOM     29  C   UNL     1      -0.286   7.778  -4.403  1.00  0.00     0.188 C 
BRANCH  29  30
ATOM     30  O   UNL     1      -1.246   8.500  -3.632  1.00  0.00    -0.376 OA
BRANCH  30  31
ATOM     31  C   UNL     1      -1.611   9.785  -4.133  1.00  0.00     0.202 C 
BRANCH  31  32
ATOM     32  C   UNL     1      -0.569  10.819  -3.700  1.00  0.00     0.261 C 
BRANCH  32  33
ATOM     33  O   UNL     1      -0.625  11.002  -2.268  1.00  0.00    -0.460 OA
BRANCH  33  34
ATOM     34  C   UNL     1      -0.081   9.991  -1.549  1.00  0.00     0.338 C 
ATOM     35  O   UNL     1       1.055   9.545  -1.693  1.00  0.00    -0.246 OA
BRANCH  34  36
ATOM     36  C   UNL     1      -1.145   9.337  -0.735  1.00  0.00     0.060 A 
ATOM     37  C   UNL     1      -0.837   8.205  -0.008  1.00  0.00     0.016 A 
ATOM     38  C   UNL     1      -2.495   9.670  -0.890  1.00  0.00     0.016 A 
ATOM     39  C   UNL     1      -1.872   7.334   0.354  1.00  0.00     0.010 A 
ATOM     40  C   UNL     1      -3.492   8.709  -0.656  1.00  0.00     0.010 A 
ATOM     41  C   UNL     1      -3.171   7.430  -0.190  1.00  0.00    -0.014 A 
BRANCH  41  42
ATOM     42  C   UNL     1      -4.293   6.386  -0.259  1.00  0.00     0.031 A 
ATOM     43  C   UNL     1      -5.084   6.280   1.002  1.00  0.00     0.074 A 
ATOM     44  C   UNL     1      -4.669   5.357  -1.126  1.00  0.00     0.049 A 
ATOM     45  N   UNL     1      -5.856   5.279   1.284  1.00  0.00    -0.248 NA
ATOM     46  C   UNL     1      -4.922   7.201   2.130  1.00  0.00     0.031 C 
ATOM     47  C   UNL     1      -6.090   5.062  -1.417  1.00  0.00     0.029 A 
ATOM     48  N   UNL     1      -4.080   4.476  -2.050  1.00  0.00    -0.354 N 
ATOM     49  C   UNL     1      -6.603   5.675   2.349  1.00  0.00     0.074 A 
ATOM     50  C   UNL     1      -5.792   6.669   2.994  1.00  0.00     0.031 C 
ATOM     51  C   UNL     1      -6.209   4.064  -2.313  1.00  0.00     0.029 A 
ATOM     52  C   UNL     1      -4.897   3.558  -2.664  1.00  0.00     0.049 A 
ATOM     53  H   UNL     1      -3.117   4.514  -2.249  1.00  0.00     0.167 HD
ATOM     54  C   UNL     1      -7.921   5.344   2.355  1.00  0.00     0.037 A 
ATOM     55  C   UNL     1      -4.557   2.340  -3.187  1.00  0.00     0.037 A 
ATOM     56  C   UNL     1      -8.234   4.276   1.385  1.00  0.00     0.049 A 
ATOM     57  C   UNL     1      -5.336   1.309  -2.409  1.00  0.00     0.074 A 
ATOM     58  C   UNL     1      -9.011   4.233   0.238  1.00  0.00     0.029 A 
ATOM     59  N   UNL     1      -7.536   3.062   1.417  1.00  0.00    -0.354 N 
ATOM     60  N   UNL     1      -6.041   1.670  -1.378  1.00  0.00    -0.248 NA
ATOM     61  C   UNL     1      -5.382  -0.134  -2.613  1.00  0.00     0.031 C 
ATOM     62  C   UNL     1      -8.808   2.977  -0.394  1.00  0.00     0.029 A 
ATOM     63  C   UNL     1      -7.926   2.236   0.375  1.00  0.00     0.049 A 
ATOM     64  H   UNL     1      -6.858   2.826   2.090  1.00  0.00     0.167 HD
ATOM     65  C   UNL     1      -6.657   0.609  -0.811  1.00  0.00     0.074 A 
ATOM     66  C   UNL     1      -6.192  -0.517  -1.602  1.00  0.00     0.031 C 
ATOM     67  C   UNL     1      -7.472   0.842   0.258  1.00  0.00     0.037 A 
BRANCH  54  68
ATOM     68  C   UNL     1      -8.985   6.187   3.047  1.00  0.00     0.064 A 
ATOM     69  C   UNL     1     -10.340   5.795   2.995  1.00  0.00     0.173 A 
ATOM     70  C   UNL     1      -8.775   7.436   3.683  1.00  0.00     0.173 A 
ATOM     71  F   UNL     1     -10.711   4.652   2.402  1.00  0.00    -0.203 F 
ATOM     72  C   UNL     1     -11.374   6.574   3.531  1.00  0.00     0.198 A 
ATOM     73  C   UNL     1      -9.799   8.181   4.271  1.00  0.00     0.198 A 
ATOM     74  F   UNL     1      -7.591   8.050   3.718  1.00  0.00    -0.203 F 
ATOM     75  F   UNL     1     -12.645   6.176   3.393  1.00  0.00    -0.200 F 
ATOM     76  C   UNL     1     -11.101   7.756   4.187  1.00  0.00     0.200 A 
ATOM     77  F   UNL     1      -9.501   9.334   4.888  1.00  0.00    -0.200 F 
ATOM     78  F   UNL     1     -12.085   8.495   4.714  1.00  0.00    -0.200 F 
ENDBRANCH  54  68
BRANCH  55  79
ATOM     79  C   UNL     1      -3.230   2.104  -3.844  1.00  0.00     0.064 A 
ATOM     80  C   UNL     1      -2.933   2.729  -5.072  1.00  0.00     0.173 A 
ATOM     81  C   UNL     1      -2.178   1.391  -3.265  1.00  0.00     0.173 A 
ATOM     82  F   UNL     1      -3.916   3.324  -5.765  1.00  0.00    -0.203 F 
ATOM     83  C   UNL     1      -1.635   2.760  -5.605  1.00  0.00     0.198 A 
ATOM     84  C   UNL     1      -0.864   1.447  -3.772  1.00  0.00     0.198 A 
ATOM     85  F   UNL     1      -2.414   0.676  -2.162  1.00  0.00    -0.203 F 
ATOM     86  F   UNL     1      -1.395   3.405  -6.756  1.00  0.00    -0.200 F 
ATOM     87  C   UNL     1      -0.588   2.162  -4.926  1.00  0.00     0.200 A 
ATOM     88  F   UNL     1       0.146   0.882  -3.093  1.00  0.00    -0.200 F 
ATOM     89  F   UNL     1       0.675   2.299  -5.361  1.00  0.00    -0.200 F 
ENDBRANCH  55  79
BRANCH  67  90
ATOM     90  C   UNL     1      -8.051  -0.184   1.193  1.00  0.00     0.064 A 
ATOM     91  C   UNL     1      -7.565  -1.491   1.342  1.00  0.00     0.173 A 
ATOM     92  C   UNL     1      -9.082   0.186   2.094  1.00  0.00     0.173 A 
ATOM     93  F   UNL     1      -6.516  -1.935   0.641  1.00  0.00    -0.203 F 
ATOM     94  C   UNL     1      -8.111  -2.378   2.275  1.00  0.00     0.198 A 
ATOM     95  C   UNL     1      -9.579  -0.678   3.061  1.00  0.00     0.198 A 
ATOM     96  F   UNL     1      -9.625   1.411   2.089  1.00  0.00    -0.203 F 
ATOM     97  F   UNL     1      -7.641  -3.630   2.350  1.00  0.00    -0.200 F 
ATOM     98  C   UNL     1      -9.107  -1.968   3.140  1.00  0.00     0.200 A 
ATOM     99  F   UNL     1     -10.504  -0.240   3.926  1.00  0.00    -0.200 F 
ATOM    100  F   UNL     1      -9.594  -2.806   4.064  1.00  0.00    -0.200 F 
ENDBRANCH  67  90
ENDBRANCH  41  42
ENDBRANCH  34  36
ENDBRANCH  33  34
ENDBRANCH  32  33
ENDBRANCH  31  32
ENDBRANCH  30  31
ENDBRANCH  29  30
ENDBRANCH   1  29
TORSDOF 20
