REMARK SMILES COCC[C@H]([NH3+])C(=O)N1CC(n2cc(C(=O)OCCOCCOCCOC(=O)c3ccc(-c4c5nc(c(-c6c(F)c(F)c(F)c(F)c6F)c6ccc([nH]6)c(-c6c(F)c(F)c(F)c(F)c6F)c6nc(c(-c7c(F)c(F)c(F)c(F)c7F)c7ccc4[nH]7)C=C6)C=C5)cc3)nn2)C1
REMARK SMILES IDX 20 1 19 2 18 3 17 4 15 5 16 6 14 7 12 8 13 9 93 10 92 11
REMARK SMILES IDX 11 12 7 13 8 14 9 15 10 16 94 17 5 18 4 19 3 20 2 21 1 22
REMARK SMILES IDX 6 23 21 27 22 28 23 29 24 30 25 31 26 32 27 33 28 34 29 35
REMARK SMILES IDX 30 36 91 37 31 38 90 39 32 40 33 41 34 42 84 43 35 44 89 45
REMARK SMILES IDX 83 46 85 47 36 48 88 49 82 50 81 51 37 53 69 54 49 55 68 56
REMARK SMILES IDX 50 57 53 58 67 59 86 60 51 61 52 62 66 64 87 65 54 66 38 67
REMARK SMILES IDX 39 68 47 69 40 70 41 71 45 72 48 73 42 74 43 75 46 76 44 77
REMARK SMILES IDX 70 78 71 79 79 80 72 81 73 82 77 83 80 84 74 85 75 86 78 87
REMARK SMILES IDX 76 88 55 89 56 90 64 91 57 92 58 93 62 94 65 95 59 96 60 97
REMARK SMILES IDX 63 98 61 99
REMARK H PARENT 6 24 6 25 6 26 85 52 53 63
REMARK Flexibility Score: inf
ROOT
ATOM      1  O   UNL     1       1.381 -14.182   0.712  1.00  0.00    -0.376 OA
ENDROOT
BRANCH   1   2
ATOM      2  C   UNL     1       1.588 -13.864   2.079  1.00  0.00     0.202 C 
BRANCH   2   3
ATOM      3  C   UNL     1       1.964 -12.477   2.645  1.00  0.00     0.261 C 
BRANCH   3   4
ATOM      4  O   UNL     1       1.707 -11.335   1.824  1.00  0.00    -0.458 OA
BRANCH   4   5
ATOM      5  C   UNL     1       2.817 -10.698   1.331  1.00  0.00     0.360 C 
ATOM      6  O   UNL     1       3.963 -10.993   1.631  1.00  0.00    -0.244 OA
BRANCH   5   7
ATOM      7  C   UNL     1       2.490  -9.712   0.309  1.00  0.00     0.190 A 
ATOM      8  N   UNL     1       1.592  -8.229  -0.995  1.00  0.00    -0.245 N 
ATOM      9  C   UNL     1       1.312  -9.026   0.084  1.00  0.00     0.147 A 
ATOM     10  N   UNL     1       2.826  -8.466  -1.463  1.00  0.00    -0.066 NA
ATOM     11  N   UNL     1       3.392  -9.362  -0.668  1.00  0.00    -0.123 NA
BRANCH   8  12
ATOM     12  C   UNL     1       0.758  -7.146  -1.431  1.00  0.00     0.148 C 
ATOM     13  C   UNL     1       0.573  -3.924  -1.633  1.00  0.00     0.280 C 
ATOM     14  O   UNL     1      -0.551  -3.919  -2.144  1.00  0.00    -0.268 OA
ATOM     15  N   UNL     1       1.262  -5.097  -1.425  1.00  0.00    -0.333 N 
ATOM     16  C   UNL     1       1.361  -6.174  -2.437  1.00  0.00     0.149 C 
ATOM     17  C   UNL     1       0.806  -6.039  -0.391  1.00  0.00     0.149 C 
BRANCH  13  18
ATOM     18  C   UNL     1       1.240  -2.609  -1.142  1.00  0.00     0.273 C 
BRANCH  18  19
ATOM     19  C   UNL     1       2.697  -2.659  -0.656  1.00  0.00     0.104 C 
BRANCH  19  20
ATOM     20  C   UNL     1       2.974  -2.981   0.816  1.00  0.00     0.166 C 
BRANCH  20  21
ATOM     21  O   UNL     1       2.440  -4.231   1.219  1.00  0.00    -0.384 OA
ATOM     22  C   UNL     1       1.498  -4.152   2.279  1.00  0.00     0.194 C 
ENDBRANCH  20  21
ENDBRANCH  19  20
ENDBRANCH  18  19
BRANCH  18  23
ATOM     23  N   UNL     1       0.332  -1.867  -0.239  1.00  0.00    -0.347 N 
ATOM     24  H   UNL     1       0.199  -2.398   0.621  1.00  0.00     0.345 HD
ATOM     25  H   UNL     1      -0.569  -1.732  -0.699  1.00  0.00     0.345 HD
ATOM     26  H   UNL     1       0.740  -0.959  -0.019  1.00  0.00     0.345 HD
ENDBRANCH  18  23
ENDBRANCH  13  18
ENDBRANCH   8  12
ENDBRANCH   5   7
ENDBRANCH   4   5
ENDBRANCH   3   4
ENDBRANCH   2   3
ENDBRANCH   1   2
BRANCH   1  27
ATOM     27  C   UNL     1       1.424 -13.188  -0.282  1.00  0.00     0.188 C 
BRANCH  27  28
ATOM     28  C   UNL     1       0.168 -12.321  -0.492  1.00  0.00     0.188 C 
BRANCH  28  29
ATOM     29  O   UNL     1      -0.759 -12.070   0.548  1.00  0.00    -0.376 OA
BRANCH  29  30
ATOM     30  C   UNL     1      -1.524 -13.093   1.168  1.00  0.00     0.202 C 
BRANCH  30  31
ATOM     31  C   UNL     1      -2.022 -14.355   0.466  1.00  0.00     0.261 C 
BRANCH  31  32
ATOM     32  O   UNL     1      -1.192 -14.849  -0.563  1.00  0.00    -0.460 OA
BRANCH  32  33
ATOM     33  C   UNL     1      -1.593 -14.466  -1.793  1.00  0.00     0.338 C 
ATOM     34  O   UNL     1      -2.430 -13.624  -2.069  1.00  0.00    -0.246 OA
BRANCH  33  35
ATOM     35  C   UNL     1      -0.907 -15.282  -2.793  1.00  0.00     0.060 A 
ATOM     36  C   UNL     1      -1.051 -14.880  -4.121  1.00  0.00     0.016 A 
ATOM     37  C   UNL     1      -0.420 -16.548  -2.438  1.00  0.00     0.016 A 
ATOM     38  C   UNL     1      -0.937 -15.838  -5.099  1.00  0.00     0.010 A 
ATOM     39  C   UNL     1      -0.318 -17.508  -3.416  1.00  0.00     0.010 A 
ATOM     40  C   UNL     1      -0.675 -17.158  -4.715  1.00  0.00    -0.014 A 
BRANCH  40  41
ATOM     41  C   UNL     1      -0.812 -18.175  -5.731  1.00  0.00     0.031 A 
ATOM     42  C   UNL     1       0.305 -18.219  -6.684  1.00  0.00     0.074 A 
ATOM     43  C   UNL     1      -1.867 -19.009  -5.771  1.00  0.00     0.049 A 
ATOM     44  N   UNL     1       0.273 -17.916  -7.937  1.00  0.00    -0.248 NA
ATOM     45  C   UNL     1       1.645 -18.511  -6.157  1.00  0.00     0.031 C 
ATOM     46  C   UNL     1      -2.871 -19.220  -4.723  1.00  0.00     0.029 A 
ATOM     47  N   UNL     1      -2.210 -19.919  -6.727  1.00  0.00    -0.354 N 
ATOM     48  C   UNL     1       1.555 -18.163  -8.406  1.00  0.00     0.074 A 
ATOM     49  C   UNL     1       2.392 -18.369  -7.252  1.00  0.00     0.031 C 
ATOM     50  C   UNL     1      -3.578 -20.336  -5.008  1.00  0.00     0.029 A 
ATOM     51  C   UNL     1      -3.171 -20.827  -6.314  1.00  0.00     0.049 A 
ATOM     52  H   UNL     1      -1.811 -19.930  -7.627  1.00  0.00     0.167 HD
ATOM     53  C   UNL     1       1.761 -18.458  -9.715  1.00  0.00     0.037 A 
ATOM     54  C   UNL     1      -3.569 -21.937  -6.977  1.00  0.00     0.037 A 
ATOM     55  C   UNL     1       0.615 -18.136 -10.522  1.00  0.00     0.049 A 
ATOM     56  C   UNL     1      -3.236 -21.771  -8.411  1.00  0.00     0.074 A 
ATOM     57  C   UNL     1       0.086 -17.007 -11.105  1.00  0.00     0.029 A 
ATOM     58  N   UNL     1      -0.360 -19.096 -10.526  1.00  0.00    -0.354 N 
ATOM     59  N   UNL     1      -3.832 -20.918  -9.197  1.00  0.00    -0.248 NA
ATOM     60  C   UNL     1      -2.000 -22.343  -8.937  1.00  0.00     0.031 C 
ATOM     61  C   UNL     1      -1.294 -17.285 -11.340  1.00  0.00     0.029 A 
ATOM     62  C   UNL     1      -1.571 -18.575 -10.894  1.00  0.00     0.049 A 
ATOM     63  H   UNL     1      -0.210 -20.041 -10.293  1.00  0.00     0.167 HD
ATOM     64  C   UNL     1      -2.851 -20.536 -10.090  1.00  0.00     0.074 A 
ATOM     65  C   UNL     1      -1.828 -21.566 -10.010  1.00  0.00     0.031 C 
ATOM     66  C   UNL     1      -2.798 -19.259 -10.560  1.00  0.00     0.037 A 
BRANCH  53  67
ATOM     67  C   UNL     1       2.780 -19.455 -10.196  1.00  0.00     0.064 A 
ATOM     68  C   UNL     1       3.067 -19.530 -11.572  1.00  0.00     0.173 A 
ATOM     69  C   UNL     1       3.231 -20.540  -9.413  1.00  0.00     0.173 A 
ATOM     70  F   UNL     1       2.651 -18.567 -12.408  1.00  0.00    -0.203 F 
ATOM     71  C   UNL     1       3.709 -20.639 -12.128  1.00  0.00     0.198 A 
ATOM     72  C   UNL     1       3.922 -21.616  -9.963  1.00  0.00     0.198 A 
ATOM     73  F   UNL     1       2.916 -20.660  -8.117  1.00  0.00    -0.203 F 
ATOM     74  F   UNL     1       3.858 -20.724 -13.457  1.00  0.00    -0.200 F 
ATOM     75  C   UNL     1       4.135 -21.680 -11.323  1.00  0.00     0.200 A 
ATOM     76  F   UNL     1       4.302 -22.629  -9.170  1.00  0.00    -0.200 F 
ATOM     77  F   UNL     1       4.704 -22.768 -11.860  1.00  0.00    -0.200 F 
ENDBRANCH  53  67
BRANCH  54  78
ATOM     78  C   UNL     1      -4.050 -23.216  -6.417  1.00  0.00     0.064 A 
ATOM     79  C   UNL     1      -4.800 -24.114  -7.191  1.00  0.00     0.173 A 
ATOM     80  C   UNL     1      -3.554 -23.701  -5.191  1.00  0.00     0.173 A 
ATOM     81  F   UNL     1      -5.273 -23.741  -8.389  1.00  0.00    -0.203 F 
ATOM     82  C   UNL     1      -5.017 -25.430  -6.776  1.00  0.00     0.198 A 
ATOM     83  C   UNL     1      -3.779 -25.011  -4.774  1.00  0.00     0.198 A 
ATOM     84  F   UNL     1      -2.763 -22.939  -4.421  1.00  0.00    -0.203 F 
ATOM     85  F   UNL     1      -5.684 -26.279  -7.570  1.00  0.00    -0.200 F 
ATOM     86  C   UNL     1      -4.498 -25.881  -5.573  1.00  0.00     0.200 A 
ATOM     87  F   UNL     1      -3.243 -25.444  -3.623  1.00  0.00    -0.200 F 
ATOM     88  F   UNL     1      -4.653 -27.159  -5.204  1.00  0.00    -0.200 F 
ENDBRANCH  54  78
BRANCH  66  89
ATOM     89  C   UNL     1      -4.072 -18.478 -10.541  1.00  0.00     0.064 A 
ATOM     90  C   UNL     1      -4.724 -18.064  -9.369  1.00  0.00     0.173 A 
ATOM     91  C   UNL     1      -4.630 -18.095 -11.768  1.00  0.00     0.173 A 
ATOM     92  F   UNL     1      -4.205 -18.328  -8.162  1.00  0.00    -0.203 F 
ATOM     93  C   UNL     1      -5.913 -17.339  -9.430  1.00  0.00     0.198 A 
ATOM     94  C   UNL     1      -5.795 -17.340 -11.825  1.00  0.00     0.198 A 
ATOM     95  F   UNL     1      -4.021 -18.431 -12.917  1.00  0.00    -0.203 F 
ATOM     96  F   UNL     1      -6.538 -16.977  -8.300  1.00  0.00    -0.200 F 
ATOM     97  C   UNL     1      -6.444 -16.974 -10.657  1.00  0.00     0.200 A 
ATOM     98  F   UNL     1      -6.283 -16.956 -13.013  1.00  0.00    -0.200 F 
ATOM     99  F   UNL     1      -7.573 -16.254 -10.715  1.00  0.00    -0.200 F 
ENDBRANCH  66  89
ENDBRANCH  40  41
ENDBRANCH  33  35
ENDBRANCH  32  33
ENDBRANCH  31  32
ENDBRANCH  30  31
ENDBRANCH  29  30
ENDBRANCH  28  29
ENDBRANCH  27  28
ENDBRANCH   1  27
TORSDOF 23
