REMARK SMILES C#CCN(CC(=O)OCCOCCOCCOC(=O)c1ccc(-c2c3nc(c(-c4c(F)c(F)c(F)c(F)c4F)c4ccc([nH]4)c(-c4c(F)c(F)c(F)c(F)c4F)c4nc(c(-c5c(F)c(F)c(F)c(F)c5F)c5ccc2[nH]5)C=C4)C=C3)cc1)C(=O)c1cccnc1C
REMARK SMILES IDX 12 1 11 2 10 3 9 4 8 5 6 6 7 7 5 8 4 9 3 10 2 11 1 12 83 13
REMARK SMILES IDX 84 14 85 15 86 16 90 17 87 18 89 19 91 20 88 21 13 22 14 23
REMARK SMILES IDX 15 24 16 25 17 26 18 27 19 28 20 29 21 30 82 31 22 32 81 33
REMARK SMILES IDX 23 34 24 35 25 36 75 37 26 38 80 39 74 40 76 41 27 42 79 43
REMARK SMILES IDX 73 44 72 45 28 47 60 48 40 49 59 50 41 51 44 52 58 53 77 54
REMARK SMILES IDX 42 55 43 56 57 58 78 59 45 60 29 61 30 62 38 63 31 64 32 65
REMARK SMILES IDX 36 66 39 67 33 68 34 69 37 70 35 71 61 72 62 73 70 74 63 75
REMARK SMILES IDX 64 76 68 77 71 78 65 79 66 80 69 81 67 82 46 83 47 84 55 85
REMARK SMILES IDX 48 86 49 87 53 88 56 89 50 90 51 91 54 92 52 93
REMARK H PARENT 76 46 44 57
REMARK Flexibility Score: inf
ROOT
ATOM      1  C   UNL     1      -6.928   2.209  -3.890  1.00  0.00     0.188 C 
ENDROOT
BRANCH   1   2
ATOM      2  O   UNL     1      -7.907   1.469  -3.167  1.00  0.00    -0.376 OA
BRANCH   2   3
ATOM      3  C   UNL     1      -7.689   1.117  -1.790  1.00  0.00     0.202 C 
BRANCH   3   4
ATOM      4  C   UNL     1      -7.003  -0.257  -1.396  1.00  0.00     0.261 C 
BRANCH   4   5
ATOM      5  O   UNL     1      -5.539  -0.276  -1.143  1.00  0.00    -0.462 OA
BRANCH   5   6
ATOM      6  C   UNL     1      -4.744  -1.278  -1.673  1.00  0.00     0.325 C 
ATOM      7  O   UNL     1      -5.223  -2.305  -2.150  1.00  0.00    -0.250 OA
BRANCH   6   8
ATOM      8  C   UNL     1      -3.116  -0.929  -1.863  1.00  0.00     0.243 C 
BRANCH   8   9
ATOM      9  N   UNL     1      -2.270   0.231  -1.255  1.00  0.00    -0.316 N 
BRANCH   9  10
ATOM     10  C   UNL     1      -1.878  -0.074   0.040  1.00  0.00     0.210 C 
BRANCH  10  11
ATOM     11  C   UNL     1      -0.358  -0.074   0.040  1.00  0.00    -0.085 C 
ATOM     12  C   UNL     1       0.945  -0.074   0.040  1.00  0.00     0.006 C 
ENDBRANCH  10  11
ENDBRANCH   9  10
BRANCH   9  13
ATOM     13  C   UNL     1      -1.708   1.536  -1.554  1.00  0.00     0.257 C 
ATOM     14  O   UNL     1      -1.036   2.220  -0.777  1.00  0.00    -0.269 OA
BRANCH  13  15
ATOM     15  C   UNL     1      -1.896   2.240  -2.785  1.00  0.00     0.061 A 
ATOM     16  C   UNL     1      -0.649   3.164  -3.649  1.00  0.00     0.017 A 
ATOM     17  C   UNL     1      -3.449   1.940  -3.480  1.00  0.00     0.050 A 
ATOM     18  C   UNL     1      -1.048   3.657  -5.341  1.00  0.00     0.021 A 
ATOM     19  N   UNL     1      -3.965   2.292  -5.046  1.00  0.00    -0.261 NA
ATOM     20  C   UNL     1      -4.400   1.273  -2.639  1.00  0.00     0.067 C 
ATOM     21  C   UNL     1      -2.855   3.113  -6.041  1.00  0.00     0.111 A 
ENDBRANCH  13  15
ENDBRANCH   9  13
ENDBRANCH   8   9
ENDBRANCH   6   8
ENDBRANCH   5   6
ENDBRANCH   4   5
ENDBRANCH   3   4
ENDBRANCH   2   3
ENDBRANCH   1   2
BRANCH   1  22
ATOM     22  C   UNL     1      -6.389   3.557  -3.300  1.00  0.00     0.188 C 
BRANCH  22  23
ATOM     23  O   UNL     1      -5.989   3.535  -1.925  1.00  0.00    -0.376 OA
BRANCH  23  24
ATOM     24  C   UNL     1      -5.692   4.772  -1.292  1.00  0.00     0.202 C 
BRANCH  24  25
ATOM     25  C   UNL     1      -4.909   5.820  -2.100  1.00  0.00     0.261 C 
BRANCH  25  26
ATOM     26  O   UNL     1      -4.169   5.303  -3.224  1.00  0.00    -0.460 OA
BRANCH  26  27
ATOM     27  C   UNL     1      -3.072   4.553  -2.948  1.00  0.00     0.338 C 
ATOM     28  O   UNL     1      -2.551   4.531  -1.849  1.00  0.00    -0.246 OA
BRANCH  27  29
ATOM     29  C   UNL     1      -2.622   3.808  -4.303  1.00  0.00     0.060 A 
ATOM     30  C   UNL     1      -1.867   2.020  -4.905  1.00  0.00     0.016 A 
ATOM     31  C   UNL     1      -2.610   5.138  -5.533  1.00  0.00     0.016 A 
ATOM     32  C   UNL     1      -1.179   1.838  -6.509  1.00  0.00     0.010 A 
ATOM     33  C   UNL     1      -1.949   4.792  -7.128  1.00  0.00     0.010 A 
ATOM     34  C   UNL     1      -1.275   3.203  -7.574  1.00  0.00    -0.014 A 
BRANCH  34  35
ATOM     35  C   UNL     1      -0.795   2.892  -8.913  1.00  0.00     0.031 A 
ATOM     36  C   UNL     1       0.379   3.652  -9.388  1.00  0.00     0.074 A 
ATOM     37  C   UNL     1      -1.305   1.808  -9.531  1.00  0.00     0.049 A 
ATOM     38  N   UNL     1       1.068   3.489 -10.476  1.00  0.00    -0.248 NA
ATOM     39  C   UNL     1       0.866   4.731  -8.514  1.00  0.00     0.031 C 
ATOM     40  C   UNL     1      -2.405   0.963  -9.034  1.00  0.00     0.029 A 
ATOM     41  N   UNL     1      -0.927   1.185 -10.687  1.00  0.00    -0.354 N 
ATOM     42  C   UNL     1       2.060   4.450 -10.418  1.00  0.00     0.074 A 
ATOM     43  C   UNL     1       1.881   5.207  -9.207  1.00  0.00     0.031 C 
ATOM     44  C   UNL     1      -2.563  -0.093  -9.845  1.00  0.00     0.029 A 
ATOM     45  C   UNL     1      -1.665   0.061 -10.974  1.00  0.00     0.049 A 
ATOM     46  H   UNL     1      -0.195   1.510 -11.259  1.00  0.00     0.167 HD
ATOM     47  C   UNL     1       3.028   4.674 -11.325  1.00  0.00     0.037 A 
ATOM     48  C   UNL     1      -1.641  -0.720 -12.068  1.00  0.00     0.037 A 
ATOM     49  C   UNL     1       3.127   3.912 -12.534  1.00  0.00     0.049 A 
ATOM     50  C   UNL     1      -0.641  -0.352 -13.127  1.00  0.00     0.074 A 
ATOM     51  C   UNL     1       4.011   4.069 -13.578  1.00  0.00     0.029 A 
ATOM     52  N   UNL     1       2.283   2.855 -12.862  1.00  0.00    -0.354 N 
ATOM     53  N   UNL     1       0.274   0.590 -13.100  1.00  0.00    -0.248 NA
ATOM     54  C   UNL     1      -0.674  -1.130 -14.366  1.00  0.00     0.031 C 
ATOM     55  C   UNL     1       3.646   3.166 -14.578  1.00  0.00     0.029 A 
ATOM     56  C   UNL     1       2.601   2.375 -14.117  1.00  0.00     0.049 A 
ATOM     57  H   UNL     1       1.566   2.503 -12.286  1.00  0.00     0.167 HD
ATOM     58  C   UNL     1       0.944   0.506 -14.308  1.00  0.00     0.074 A 
ATOM     59  C   UNL     1       0.340  -0.599 -15.032  1.00  0.00     0.031 C 
ATOM     60  C   UNL     1       1.962   1.267 -14.783  1.00  0.00     0.037 A 
BRANCH  47  61
ATOM     61  C   UNL     1       3.935   5.836 -11.077  1.00  0.00     0.064 A 
ATOM     62  C   UNL     1       4.846   5.865 -10.010  1.00  0.00     0.173 A 
ATOM     63  C   UNL     1       3.846   6.969 -11.898  1.00  0.00     0.173 A 
ATOM     64  F   UNL     1       4.929   4.829  -9.162  1.00  0.00    -0.203 F 
ATOM     65  C   UNL     1       5.619   6.996  -9.762  1.00  0.00     0.198 A 
ATOM     66  C   UNL     1       4.650   8.080 -11.673  1.00  0.00     0.198 A 
ATOM     67  F   UNL     1       2.963   7.006 -12.907  1.00  0.00    -0.203 F 
ATOM     68  F   UNL     1       6.426   7.033  -8.693  1.00  0.00    -0.200 F 
ATOM     69  C   UNL     1       5.530   8.097 -10.602  1.00  0.00     0.200 A 
ATOM     70  F   UNL     1       4.562   9.142 -12.486  1.00  0.00    -0.200 F 
ATOM     71  F   UNL     1       6.279   9.182 -10.367  1.00  0.00    -0.200 F 
ENDBRANCH  47  61
BRANCH  48  72
ATOM     72  C   UNL     1      -2.616  -1.831 -12.236  1.00  0.00     0.064 A 
ATOM     73  C   UNL     1      -2.198  -3.160 -12.380  1.00  0.00     0.173 A 
ATOM     74  C   UNL     1      -3.999  -1.583 -12.275  1.00  0.00     0.173 A 
ATOM     75  F   UNL     1      -0.891  -3.457 -12.361  1.00  0.00    -0.203 F 
ATOM     76  C   UNL     1      -3.119  -4.189 -12.585  1.00  0.00     0.198 A 
ATOM     77  C   UNL     1      -4.920  -2.616 -12.438  1.00  0.00     0.198 A 
ATOM     78  F   UNL     1      -4.463  -0.331 -12.143  1.00  0.00    -0.203 F 
ATOM     79  F   UNL     1      -2.685  -5.442 -12.780  1.00  0.00    -0.200 F 
ATOM     80  C   UNL     1      -4.478  -3.917 -12.608  1.00  0.00     0.200 A 
ATOM     81  F   UNL     1      -6.233  -2.347 -12.436  1.00  0.00    -0.200 F 
ATOM     82  F   UNL     1      -5.361  -4.906 -12.805  1.00  0.00    -0.200 F 
ENDBRANCH  48  72
BRANCH  60  83
ATOM     83  C   UNL     1       2.510   0.889 -16.123  1.00  0.00     0.064 A 
ATOM     84  C   UNL     1       1.774   1.070 -17.302  1.00  0.00     0.173 A 
ATOM     85  C   UNL     1       3.819   0.395 -16.225  1.00  0.00     0.173 A 
ATOM     86  F   UNL     1       0.515   1.532 -17.249  1.00  0.00    -0.203 F 
ATOM     87  C   UNL     1       2.318   0.733 -18.535  1.00  0.00     0.198 A 
ATOM     88  C   UNL     1       4.378   0.111 -17.464  1.00  0.00     0.198 A 
ATOM     89  F   UNL     1       4.566   0.220 -15.124  1.00  0.00    -0.203 F 
ATOM     90  F   UNL     1       1.576   0.849 -19.644  1.00  0.00    -0.200 F 
ATOM     91  C   UNL     1       3.622   0.267 -18.616  1.00  0.00     0.200 A 
ATOM     92  F   UNL     1       5.648  -0.308 -17.542  1.00  0.00    -0.200 F 
ATOM     93  F   UNL     1       4.151  -0.039 -19.808  1.00  0.00    -0.200 F 
ENDBRANCH  60  83
ENDBRANCH  34  35
ENDBRANCH  27  29
ENDBRANCH  26  27
ENDBRANCH  25  26
ENDBRANCH  24  25
ENDBRANCH  23  24
ENDBRANCH  22  23
ENDBRANCH   1  22
TORSDOF 22
