REMARK SMILES CCN(C(=O)N[C@@H]1CCOC1)[C@H]1COC[C@H]1C(=O)OCCOCCOCCOC(=O)c1ccc(-c2c3nc(c(-c4c(F)c(F)c(F)c(F)c4F)c4ccc([nH]4)c(-c4c(F)c(F)c(F)c(F)c4F)c4nc(c(-c5c(F)c(F)c(F)c(F)c5F)c5ccc2[nH]5)C=C4)C=C3)cc1
REMARK SMILES IDX 23 1 22 2 21 3 20 4 19 5 17 6 18 7 16 8 12 9 13 10 14 11
REMARK SMILES IDX 15 12 3 13 2 14 1 15 4 16 5 17 6 18 7 20 8 21 11 22 9 23
REMARK SMILES IDX 10 24 24 25 25 26 26 27 27 28 28 29 29 30 30 31 31 32 32 33
REMARK SMILES IDX 93 34 33 35 92 36 34 37 35 38 36 39 86 40 37 41 91 42 85 43
REMARK SMILES IDX 87 44 38 45 90 46 84 47 83 48 39 50 71 51 51 52 70 53 52 54
REMARK SMILES IDX 55 55 69 56 88 57 53 58 54 59 68 61 89 62 56 63 40 64 41 65
REMARK SMILES IDX 49 66 42 67 43 68 47 69 50 70 44 71 45 72 48 73 46 74 72 75
REMARK SMILES IDX 73 76 81 77 74 78 75 79 79 80 82 81 76 82 77 83 80 84 78 85
REMARK SMILES IDX 57 86 58 87 66 88 59 89 60 90 64 91 67 92 61 93 62 94 65 95
REMARK SMILES IDX 63 96
REMARK H PARENT 6 19 87 49 55 60
REMARK Flexibility Score: inf
ROOT
ATOM      1  C   UNL     1       1.629   1.746   1.150  1.00  0.00     0.188 C 
ENDROOT
BRANCH   1   2
ATOM      2  O   UNL     1       2.368   2.906   0.793  1.00  0.00    -0.376 OA
BRANCH   2   3
ATOM      3  C   UNL     1       3.706   2.745   0.320  1.00  0.00     0.202 C 
BRANCH   3   4
ATOM      4  C   UNL     1       4.661   1.820   1.092  1.00  0.00     0.261 C 
BRANCH   4   5
ATOM      5  O   UNL     1       4.165   0.476   1.260  1.00  0.00    -0.463 OA
BRANCH   5   6
ATOM      6  C   UNL     1       4.358  -0.093   2.470  1.00  0.00     0.313 C 
ATOM      7  O   UNL     1       4.918   0.481   3.403  1.00  0.00    -0.252 OA
BRANCH   6   8
ATOM      8  C   UNL     1       3.682  -1.437   2.684  1.00  0.00     0.150 C 
ATOM      9  C   UNL     1       3.108  -2.431   1.655  1.00  0.00     0.129 C 
ATOM     10  C   UNL     1       3.377  -3.803   2.295  1.00  0.00     0.186 C 
ATOM     11  O   UNL     1       4.082  -3.618   3.521  1.00  0.00    -0.378 OA
ATOM     12  C   UNL     1       4.618  -2.295   3.517  1.00  0.00     0.177 C 
BRANCH   9  13
ATOM     13  N   UNL     1       3.426  -2.407   0.206  1.00  0.00    -0.319 N 
BRANCH  13  14
ATOM     14  C   UNL     1       2.328  -2.869  -0.667  1.00  0.00     0.118 C 
ATOM     15  C   UNL     1       2.111  -4.379  -0.637  1.00  0.00     0.027 C 
ENDBRANCH  13  14
BRANCH  13  16
ATOM     16  C   UNL     1       4.701  -2.090  -0.169  1.00  0.00     0.318 C 
ATOM     17  O   UNL     1       5.589  -1.911   0.671  1.00  0.00    -0.249 OA
ATOM     18  N   UNL     1       5.108  -1.927  -1.437  1.00  0.00    -0.333 N 
ATOM     19  H   UNL     1       5.996  -1.503  -1.475  1.00  0.00     0.165 HD
BRANCH  18  20
ATOM     20  C   UNL     1       4.596  -2.205  -2.779  1.00  0.00     0.112 C 
ATOM     21  C   UNL     1       4.675  -3.691  -3.058  1.00  0.00     0.056 C 
ATOM     22  C   UNL     1       5.525  -1.671  -3.872  1.00  0.00     0.185 C 
ATOM     23  C   UNL     1       6.137  -3.864  -3.412  1.00  0.00     0.162 C 
ATOM     24  O   UNL     1       6.541  -2.666  -4.088  1.00  0.00    -0.379 OA
ENDBRANCH  18  20
ENDBRANCH  13  16
ENDBRANCH   9  13
ENDBRANCH   6   8
ENDBRANCH   5   6
ENDBRANCH   4   5
ENDBRANCH   3   4
ENDBRANCH   2   3
ENDBRANCH   1   2
BRANCH   1  25
ATOM     25  C   UNL     1       1.623   0.549   0.187  1.00  0.00     0.188 C 
BRANCH  25  26
ATOM     26  O   UNL     1       2.411   0.690  -0.966  1.00  0.00    -0.376 OA
BRANCH  26  27
ATOM     27  C   UNL     1       1.827   0.936  -2.227  1.00  0.00     0.202 C 
BRANCH  27  28
ATOM     28  C   UNL     1       0.519   1.720  -2.432  1.00  0.00     0.261 C 
BRANCH  28  29
ATOM     29  O   UNL     1      -0.427   1.747  -1.359  1.00  0.00    -0.460 OA
BRANCH  29  30
ATOM     30  C   UNL     1      -1.237   0.672  -1.224  1.00  0.00     0.338 C 
ATOM     31  O   UNL     1      -1.235  -0.345  -1.901  1.00  0.00    -0.246 OA
BRANCH  30  32
ATOM     32  C   UNL     1      -1.952   0.831   0.061  1.00  0.00     0.060 A 
ATOM     33  C   UNL     1      -1.802  -0.153   1.050  1.00  0.00     0.016 A 
ATOM     34  C   UNL     1      -2.722   1.969   0.307  1.00  0.00     0.016 A 
ATOM     35  C   UNL     1      -2.441  -0.010   2.282  1.00  0.00     0.010 A 
ATOM     36  C   UNL     1      -3.381   2.099   1.532  1.00  0.00     0.010 A 
ATOM     37  C   UNL     1      -3.266   1.097   2.513  1.00  0.00    -0.014 A 
BRANCH  37  38
ATOM     38  C   UNL     1      -4.168   1.121   3.689  1.00  0.00     0.031 A 
ATOM     39  C   UNL     1      -5.603   0.722   3.486  1.00  0.00     0.074 A 
ATOM     40  C   UNL     1      -3.734   1.493   4.905  1.00  0.00     0.049 A 
ATOM     41  N   UNL     1      -6.606   0.755   4.325  1.00  0.00    -0.248 NA
ATOM     42  C   UNL     1      -5.956   0.223   2.146  1.00  0.00     0.031 C 
ATOM     43  C   UNL     1      -2.361   1.862   5.239  1.00  0.00     0.029 A 
ATOM     44  N   UNL     1      -4.420   1.639   6.087  1.00  0.00    -0.354 N 
ATOM     45  C   UNL     1      -7.707   0.299   3.613  1.00  0.00     0.074 A 
ATOM     46  C   UNL     1      -7.258   0.019   2.267  1.00  0.00     0.031 C 
ATOM     47  C   UNL     1      -2.308   2.213   6.536  1.00  0.00     0.029 A 
ATOM     48  C   UNL     1      -3.650   2.132   7.112  1.00  0.00     0.049 A 
ATOM     49  H   UNL     1      -5.372   1.413   6.188  1.00  0.00     0.167 HD
ATOM     50  C   UNL     1      -8.977   0.124   4.045  1.00  0.00     0.037 A 
ATOM     51  C   UNL     1      -4.001   2.506   8.358  1.00  0.00     0.037 A 
ATOM     52  C   UNL     1      -9.419   0.401   5.386  1.00  0.00     0.049 A 
ATOM     53  C   UNL     1      -5.441   2.371   8.794  1.00  0.00     0.074 A 
ATOM     54  C   UNL     1     -10.680   0.233   5.929  1.00  0.00     0.029 A 
ATOM     55  N   UNL     1      -8.615   0.917   6.391  1.00  0.00    -0.354 N 
ATOM     56  N   UNL     1      -6.472   1.911   8.126  1.00  0.00    -0.248 NA
ATOM     57  C   UNL     1      -5.765   2.807  10.160  1.00  0.00     0.031 C 
ATOM     58  C   UNL     1     -10.655   0.707   7.244  1.00  0.00     0.029 A 
ATOM     59  C   UNL     1      -9.362   1.102   7.543  1.00  0.00     0.049 A 
ATOM     60  H   UNL     1      -7.656   1.121   6.300  1.00  0.00     0.167 HD
ATOM     61  C   UNL     1      -7.552   1.968   9.000  1.00  0.00     0.074 A 
ATOM     62  C   UNL     1      -7.049   2.494  10.250  1.00  0.00     0.031 C 
ATOM     63  C   UNL     1      -8.844   1.614   8.787  1.00  0.00     0.037 A 
BRANCH  50  64
ATOM     64  C   UNL     1      -9.991  -0.362   3.051  1.00  0.00     0.064 A 
ATOM     65  C   UNL     1      -9.970  -1.672   2.550  1.00  0.00     0.173 A 
ATOM     66  C   UNL     1     -11.025   0.486   2.627  1.00  0.00     0.173 A 
ATOM     67  F   UNL     1      -8.992  -2.518   2.909  1.00  0.00    -0.203 F 
ATOM     68  C   UNL     1     -10.935  -2.108   1.646  1.00  0.00     0.198 A 
ATOM     69  C   UNL     1     -12.008   0.037   1.750  1.00  0.00     0.198 A 
ATOM     70  F   UNL     1     -11.091   1.749   3.075  1.00  0.00    -0.203 F 
ATOM     71  F   UNL     1     -10.869  -3.349   1.145  1.00  0.00    -0.200 F 
ATOM     72  C   UNL     1     -11.958  -1.257   1.255  1.00  0.00     0.200 A 
ATOM     73  F   UNL     1     -13.002   0.857   1.383  1.00  0.00    -0.200 F 
ATOM     74  F   UNL     1     -12.894  -1.683   0.395  1.00  0.00    -0.200 F 
ENDBRANCH  50  64
BRANCH  51  75
ATOM     75  C   UNL     1      -2.984   3.070   9.287  1.00  0.00     0.064 A 
ATOM     76  C   UNL     1      -2.619   2.396  10.461  1.00  0.00     0.173 A 
ATOM     77  C   UNL     1      -2.390   4.318   9.044  1.00  0.00     0.173 A 
ATOM     78  F   UNL     1      -3.181   1.213  10.755  1.00  0.00    -0.203 F 
ATOM     79  C   UNL     1      -1.724   2.959  11.369  1.00  0.00     0.198 A 
ATOM     80  C   UNL     1      -1.468   4.865   9.935  1.00  0.00     0.198 A 
ATOM     81  F   UNL     1      -2.707   5.010   7.940  1.00  0.00    -0.203 F 
ATOM     82  F   UNL     1      -1.445   2.321  12.514  1.00  0.00    -0.200 F 
ATOM     83  C   UNL     1      -1.145   4.190  11.102  1.00  0.00     0.200 A 
ATOM     84  F   UNL     1      -0.904   6.050   9.668  1.00  0.00    -0.200 F 
ATOM     85  F   UNL     1      -0.288   4.734  11.977  1.00  0.00    -0.200 F 
ENDBRANCH  51  75
BRANCH  63  86
ATOM     86  C   UNL     1      -9.799   1.732   9.943  1.00  0.00     0.064 A 
ATOM     87  C   UNL     1     -10.211   2.975  10.444  1.00  0.00     0.173 A 
ATOM     88  C   UNL     1     -10.347   0.578  10.527  1.00  0.00     0.173 A 
ATOM     89  F   UNL     1      -9.711   4.109   9.929  1.00  0.00    -0.203 F 
ATOM     90  C   UNL     1     -11.110   3.059  11.504  1.00  0.00     0.198 A 
ATOM     91  C   UNL     1     -11.273   0.666  11.562  1.00  0.00     0.198 A 
ATOM     92  F   UNL     1      -9.997  -0.638  10.080  1.00  0.00    -0.203 F 
ATOM     93  F   UNL     1     -11.447   4.257  12.001  1.00  0.00    -0.200 F 
ATOM     94  C   UNL     1     -11.646   1.905  12.057  1.00  0.00     0.200 A 
ATOM     95  F   UNL     1     -11.805  -0.450  12.080  1.00  0.00    -0.200 F 
ATOM     96  F   UNL     1     -12.520   1.989  13.070  1.00  0.00    -0.200 F 
ENDBRANCH  63  86
ENDBRANCH  37  38
ENDBRANCH  30  32
ENDBRANCH  29  30
ENDBRANCH  28  29
ENDBRANCH  27  28
ENDBRANCH  26  27
ENDBRANCH  25  26
ENDBRANCH   1  25
TORSDOF 21
