REMARK SMILES O=C(OCCOCCOCCOC(=O)[C@H]1CCCCN1S(=O)(=O)c1cc[nH]c1)c1ccc(-c2c3nc(c(-c4c(F)c(F)c(F)c(F)c4F)c4ccc([nH]4)c(-c4c(F)c(F)c(F)c(F)c4F)c4nc(c(-c5c(F)c(F)c(F)c(F)c5F)c5ccc2[nH]5)C=C4)C=C3)cc1
REMARK SMILES IDX 7 1 6 2 5 3 4 4 3 5 2 6 1 7 29 8 30 9 91 10 31 11 90 12
REMARK SMILES IDX 32 13 33 14 34 15 84 16 35 17 89 18 83 19 85 20 36 21 88 22
REMARK SMILES IDX 82 23 81 24 37 26 69 27 49 28 68 29 50 30 53 31 67 32 86 33
REMARK SMILES IDX 51 34 52 35 66 37 87 38 54 39 38 40 39 41 47 42 40 43 41 44
REMARK SMILES IDX 45 45 48 46 42 47 43 48 46 49 44 50 70 51 71 52 79 53 72 54
REMARK SMILES IDX 73 55 77 56 80 57 74 58 75 59 78 60 76 61 55 62 56 63 64 64
REMARK SMILES IDX 57 65 58 66 62 67 65 68 59 69 60 70 63 71 61 72 8 73 9 74
REMARK SMILES IDX 10 75 11 76 12 77 13 78 14 79 15 80 16 81 20 82 17 83 19 84
REMARK SMILES IDX 18 85 21 86 22 87 23 88 24 89 25 90 28 91 26 92 27 93
REMARK H PARENT 85 25 53 36 27 94
REMARK Flexibility Score: inf
ROOT
ATOM      1  C   UNL     1       6.019  -1.420  -4.067  1.00  0.00     0.188 C 
ENDROOT
BRANCH   1   2
ATOM      2  O   UNL     1       4.870  -1.216  -4.889  1.00  0.00    -0.376 OA
BRANCH   2   3
ATOM      3  C   UNL     1       5.088  -0.552  -6.136  1.00  0.00     0.202 C 
BRANCH   3   4
ATOM      4  C   UNL     1       6.018   0.679  -6.259  1.00  0.00     0.261 C 
BRANCH   4   5
ATOM      5  O   UNL     1       6.829   1.065  -5.136  1.00  0.00    -0.460 OA
BRANCH   5   6
ATOM      6  C   UNL     1       6.482   1.380  -3.871  1.00  0.00     0.338 C 
ATOM      7  O   UNL     1       7.282   1.165  -2.962  1.00  0.00    -0.246 OA
BRANCH   6   8
ATOM      8  C   UNL     1       5.220   2.085  -3.549  1.00  0.00     0.060 A 
ATOM      9  C   UNL     1       4.213   2.349  -4.471  1.00  0.00     0.016 A 
ATOM     10  C   UNL     1       5.157   2.667  -2.267  1.00  0.00     0.016 A 
ATOM     11  C   UNL     1       3.338   3.385  -4.237  1.00  0.00     0.010 A 
ATOM     12  C   UNL     1       4.257   3.685  -2.007  1.00  0.00     0.010 A 
ATOM     13  C   UNL     1       3.434   4.105  -3.046  1.00  0.00    -0.014 A 
BRANCH  13  14
ATOM     14  C   UNL     1       2.683   5.364  -3.014  1.00  0.00     0.031 A 
ATOM     15  C   UNL     1       1.195   5.116  -2.853  1.00  0.00     0.074 A 
ATOM     16  C   UNL     1       3.422   6.460  -3.349  1.00  0.00     0.049 A 
ATOM     17  N   UNL     1       0.181   5.632  -3.481  1.00  0.00    -0.248 NA
ATOM     18  C   UNL     1       0.795   4.006  -1.953  1.00  0.00     0.031 C 
ATOM     19  C   UNL     1       4.894   6.483  -3.500  1.00  0.00     0.029 A 
ATOM     20  N   UNL     1       3.094   7.749  -3.686  1.00  0.00    -0.354 N 
ATOM     21  C   UNL     1      -0.972   5.036  -2.938  1.00  0.00     0.074 A 
ATOM     22  C   UNL     1      -0.524   3.939  -2.128  1.00  0.00     0.031 C 
ATOM     23  C   UNL     1       5.311   7.673  -3.973  1.00  0.00     0.029 A 
ATOM     24  C   UNL     1       4.166   8.530  -4.187  1.00  0.00     0.049 A 
ATOM     25  H   UNL     1       2.182   8.105  -3.587  1.00  0.00     0.167 HD
ATOM     26  C   UNL     1      -2.221   5.576  -3.030  1.00  0.00     0.037 A 
ATOM     27  C   UNL     1       4.115   9.742  -4.818  1.00  0.00     0.037 A 
ATOM     28  C   UNL     1      -2.225   6.813  -3.745  1.00  0.00     0.049 A 
ATOM     29  C   UNL     1       2.674  10.036  -4.925  1.00  0.00     0.074 A 
ATOM     30  C   UNL     1      -2.526   7.265  -5.005  1.00  0.00     0.029 A 
ATOM     31  N   UNL     1      -1.797   7.891  -3.017  1.00  0.00    -0.354 N 
ATOM     32  N   UNL     1       1.917  10.411  -3.942  1.00  0.00    -0.248 NA
ATOM     33  C   UNL     1       1.990   9.643  -6.157  1.00  0.00     0.031 C 
ATOM     34  C   UNL     1      -2.085   8.619  -5.055  1.00  0.00     0.029 A 
ATOM     35  C   UNL     1      -1.380   8.867  -3.882  1.00  0.00     0.049 A 
ATOM     36  H   UNL     1      -1.789   7.954  -2.034  1.00  0.00     0.167 HD
ATOM     37  C   UNL     1       0.646  10.054  -4.344  1.00  0.00     0.074 A 
ATOM     38  C   UNL     1       0.726   9.721  -5.754  1.00  0.00     0.031 C 
ATOM     39  C   UNL     1      -0.305   9.711  -3.438  1.00  0.00     0.037 A 
BRANCH  26  40
ATOM     40  C   UNL     1      -3.452   5.278  -2.204  1.00  0.00     0.064 A 
ATOM     41  C   UNL     1      -4.707   5.703  -2.700  1.00  0.00     0.173 A 
ATOM     42  C   UNL     1      -3.410   4.960  -0.836  1.00  0.00     0.173 A 
ATOM     43  F   UNL     1      -4.871   5.979  -4.003  1.00  0.00    -0.203 F 
ATOM     44  C   UNL     1      -5.797   5.931  -1.861  1.00  0.00     0.198 A 
ATOM     45  C   UNL     1      -4.525   5.129  -0.009  1.00  0.00     0.198 A 
ATOM     46  F   UNL     1      -2.272   4.583  -0.240  1.00  0.00    -0.203 F 
ATOM     47  F   UNL     1      -6.918   6.476  -2.355  1.00  0.00    -0.200 F 
ATOM     48  C   UNL     1      -5.700   5.658  -0.511  1.00  0.00     0.200 A 
ATOM     49  F   UNL     1      -4.427   4.850   1.298  1.00  0.00    -0.200 F 
ATOM     50  F   UNL     1      -6.723   5.933   0.310  1.00  0.00    -0.200 F 
ENDBRANCH  26  40
BRANCH  27  51
ATOM     51  C   UNL     1       5.084  10.644  -5.537  1.00  0.00     0.064 A 
ATOM     52  C   UNL     1       6.482  10.591  -5.438  1.00  0.00     0.173 A 
ATOM     53  C   UNL     1       4.600  11.650  -6.418  1.00  0.00     0.173 A 
ATOM     54  F   UNL     1       7.084   9.802  -4.542  1.00  0.00    -0.203 F 
ATOM     55  C   UNL     1       7.321  11.384  -6.241  1.00  0.00     0.198 A 
ATOM     56  C   UNL     1       5.431  12.433  -7.221  1.00  0.00     0.198 A 
ATOM     57  F   UNL     1       3.289  11.905  -6.532  1.00  0.00    -0.203 F 
ATOM     58  F   UNL     1       8.652  11.264  -6.131  1.00  0.00    -0.200 F 
ATOM     59  C   UNL     1       6.796  12.285  -7.149  1.00  0.00     0.200 A 
ATOM     60  F   UNL     1       4.891  13.317  -8.072  1.00  0.00    -0.200 F 
ATOM     61  F   UNL     1       7.598  13.013  -7.938  1.00  0.00    -0.200 F 
ENDBRANCH  27  51
BRANCH  39  62
ATOM     62  C   UNL     1       0.171   9.843  -2.005  1.00  0.00     0.064 A 
ATOM     63  C   UNL     1       0.286  11.087  -1.381  1.00  0.00     0.173 A 
ATOM     64  C   UNL     1       0.683   8.742  -1.290  1.00  0.00     0.173 A 
ATOM     65  F   UNL     1      -0.169  12.188  -1.995  1.00  0.00    -0.203 F 
ATOM     66  C   UNL     1       0.884  11.211  -0.121  1.00  0.00     0.198 A 
ATOM     67  C   UNL     1       1.271   8.857  -0.036  1.00  0.00     0.198 A 
ATOM     68  F   UNL     1       0.600   7.515  -1.801  1.00  0.00    -0.203 F 
ATOM     69  F   UNL     1       0.985  12.418   0.452  1.00  0.00    -0.200 F 
ATOM     70  C   UNL     1       1.378  10.099   0.548  1.00  0.00     0.200 A 
ATOM     71  F   UNL     1       1.720   7.761   0.594  1.00  0.00    -0.200 F 
ATOM     72  F   UNL     1       1.945  10.222   1.756  1.00  0.00    -0.200 F 
ENDBRANCH  39  62
ENDBRANCH  13  14
ENDBRANCH   6   8
ENDBRANCH   5   6
ENDBRANCH   4   5
ENDBRANCH   3   4
ENDBRANCH   2   3
ENDBRANCH   1   2
BRANCH   1  73
ATOM     73  C   UNL     1       6.216  -2.800  -3.472  1.00  0.00     0.188 C 
BRANCH  73  74
ATOM     74  O   UNL     1       6.767  -3.775  -4.347  1.00  0.00    -0.376 OA
BRANCH  74  75
ATOM     75  C   UNL     1       6.090  -4.022  -5.568  1.00  0.00     0.202 C 
BRANCH  75  76
ATOM     76  C   UNL     1       4.820  -4.864  -5.476  1.00  0.00     0.261 C 
BRANCH  76  77
ATOM     77  O   UNL     1       3.755  -4.252  -4.732  1.00  0.00    -0.462 OA
BRANCH  77  78
ATOM     78  C   UNL     1       3.665  -4.665  -3.437  1.00  0.00     0.324 C 
ATOM     79  O   UNL     1       4.520  -5.322  -2.853  1.00  0.00    -0.250 OA
BRANCH  78  80
ATOM     80  C   UNL     1       2.317  -4.330  -2.802  1.00  0.00     0.183 C 
ATOM     81  C   UNL     1       1.836  -2.888  -3.004  1.00  0.00     0.032 C 
ATOM     82  N   UNL     1       1.251  -5.348  -3.149  1.00  0.00    -0.184 NA
ATOM     83  C   UNL     1       1.119  -2.642  -4.325  1.00  0.00     0.004 C 
ATOM     84  C   UNL     1       0.656  -5.112  -4.491  1.00  0.00     0.103 C 
ATOM     85  C   UNL     1       0.064  -3.710  -4.572  1.00  0.00     0.017 C 
BRANCH  82  86
ATOM     86  S   UNL     1       1.876  -6.948  -2.919  1.00  0.00     0.245 S 
ATOM     87  O   UNL     1       2.699  -7.266  -4.078  1.00  0.00    -0.207 OA
ATOM     88  O   UNL     1       2.364  -7.039  -1.569  1.00  0.00    -0.207 OA
BRANCH  86  89
ATOM     89  C   UNL     1       0.628  -8.131  -3.002  1.00  0.00     0.100 A 
ATOM     90  C   UNL     1       0.017  -8.606  -4.190  1.00  0.00     0.041 A 
ATOM     91  C   UNL     1       0.147  -8.892  -1.954  1.00  0.00     0.104 A 
ATOM     92  C   UNL     1      -0.814  -9.643  -3.831  1.00  0.00     0.083 A 
ATOM     93  N   UNL     1      -0.721  -9.815  -2.472  1.00  0.00    -0.366 N 
ATOM     94  H   UNL     1      -1.203 -10.496  -1.951  1.00  0.00     0.165 HD
ENDBRANCH  86  89
ENDBRANCH  82  86
ENDBRANCH  78  80
ENDBRANCH  77  78
ENDBRANCH  76  77
ENDBRANCH  75  76
ENDBRANCH  74  75
ENDBRANCH  73  74
ENDBRANCH   1  73
TORSDOF 19
