REMARK SMILES O=C(OCCOCCOCCOC(=O)c1ncc2ccccc2n1)c1ccc(-c2c3nc(c(-c4c(F)c(F)c(F)c(F)c4F)c4ccc([nH]4)c(-c4c(F)c(F)c(F)c(F)c4F)c4nc(c(-c5c(F)c(F)c(F)c(F)c5F)c5ccc2[nH]5)C=C4)C=C3)cc1
REMARK SMILES IDX 7 1 6 2 5 3 4 4 3 5 2 6 1 7 25 8 26 9 87 10 27 11 86 12
REMARK SMILES IDX 28 13 29 14 30 15 80 16 31 17 85 18 79 19 81 20 32 21 84 22
REMARK SMILES IDX 78 23 77 24 33 26 65 27 45 28 64 29 46 30 49 31 63 32 82 33
REMARK SMILES IDX 47 34 48 35 62 37 83 38 50 39 34 40 35 41 43 42 36 43 37 44
REMARK SMILES IDX 41 45 44 46 38 47 39 48 42 49 40 50 66 51 67 52 75 53 68 54
REMARK SMILES IDX 69 55 73 56 76 57 70 58 71 59 74 60 72 61 51 62 52 63 60 64
REMARK SMILES IDX 53 65 54 66 58 67 61 68 55 69 56 70 59 71 57 72 8 73 9 74
REMARK SMILES IDX 10 75 11 76 12 77 13 78 14 79 15 80 16 81 24 82 17 83 23 84
REMARK SMILES IDX 18 85 22 86 19 87 21 88 20 89
REMARK H PARENT 81 25 49 36
REMARK Flexibility Score: inf
ROOT
ATOM      1  C   UNL     1       2.514  -1.630   1.251  1.00  0.00     0.188 C 
ENDROOT
BRANCH   1   2
ATOM      2  O   UNL     1       3.822  -1.444   0.691  1.00  0.00    -0.376 OA
BRANCH   2   3
ATOM      3  C   UNL     1       4.642  -0.535   1.431  1.00  0.00     0.202 C 
BRANCH   3   4
ATOM      4  C   UNL     1       4.430   0.946   1.088  1.00  0.00     0.261 C 
BRANCH   4   5
ATOM      5  O   UNL     1       3.053   1.252   0.816  1.00  0.00    -0.460 OA
BRANCH   5   6
ATOM      6  C   UNL     1       2.444   1.359  -0.391  1.00  0.00     0.338 C 
ATOM      7  O   UNL     1       1.269   1.723  -0.427  1.00  0.00    -0.246 OA
BRANCH   6   8
ATOM      8  C   UNL     1       3.130   1.106  -1.698  1.00  0.00     0.060 A 
ATOM      9  C   UNL     1       4.238   0.278  -1.879  1.00  0.00     0.016 A 
ATOM     10  C   UNL     1       2.580   1.720  -2.838  1.00  0.00     0.016 A 
ATOM     11  C   UNL     1       4.871   0.173  -3.113  1.00  0.00     0.010 A 
ATOM     12  C   UNL     1       3.170   1.566  -4.098  1.00  0.00     0.010 A 
ATOM     13  C   UNL     1       4.352   0.828  -4.228  1.00  0.00    -0.014 A 
BRANCH  13  14
ATOM     14  C   UNL     1       5.139   0.829  -5.478  1.00  0.00     0.031 A 
ATOM     15  C   UNL     1       5.852   2.087  -5.878  1.00  0.00     0.074 A 
ATOM     16  C   UNL     1       5.309  -0.309  -6.174  1.00  0.00     0.049 A 
ATOM     17  N   UNL     1       6.574   2.330  -6.940  1.00  0.00    -0.248 NA
ATOM     18  C   UNL     1       5.750   3.221  -4.945  1.00  0.00     0.031 C 
ATOM     19  C   UNL     1       4.755  -1.613  -5.810  1.00  0.00     0.029 A 
ATOM     20  N   UNL     1       6.017  -0.557  -7.319  1.00  0.00    -0.354 N 
ATOM     21  C   UNL     1       6.998   3.646  -6.810  1.00  0.00     0.074 A 
ATOM     22  C   UNL     1       6.440   4.157  -5.579  1.00  0.00     0.031 C 
ATOM     23  C   UNL     1       5.142  -2.526  -6.715  1.00  0.00     0.029 A 
ATOM     24  C   UNL     1       5.938  -1.862  -7.739  1.00  0.00     0.049 A 
ATOM     25  H   UNL     1       6.533   0.133  -7.796  1.00  0.00     0.167 HD
ATOM     26  C   UNL     1       7.789   4.358  -7.646  1.00  0.00     0.037 A 
ATOM     27  C   UNL     1       6.436  -2.443  -8.843  1.00  0.00     0.037 A 
ATOM     28  C   UNL     1       8.341   3.833  -8.865  1.00  0.00     0.049 A 
ATOM     29  C   UNL     1       7.229  -1.607  -9.803  1.00  0.00     0.074 A 
ATOM     30  C   UNL     1       9.119   4.473  -9.812  1.00  0.00     0.029 A 
ATOM     31  N   UNL     1       8.167   2.527  -9.302  1.00  0.00    -0.354 N 
ATOM     32  N   UNL     1       7.561  -0.343  -9.716  1.00  0.00    -0.248 NA
ATOM     33  C   UNL     1       7.706  -2.279 -11.018  1.00  0.00     0.031 C 
ATOM     34  C   UNL     1       9.383   3.563 -10.843  1.00  0.00     0.029 A 
ATOM     35  C   UNL     1       8.807   2.345 -10.516  1.00  0.00     0.049 A 
ATOM     36  H   UNL     1       7.663   1.832  -8.820  1.00  0.00     0.167 HD
ATOM     37  C   UNL     1       8.287  -0.063 -10.862  1.00  0.00     0.074 A 
ATOM     38  C   UNL     1       8.362  -1.297 -11.620  1.00  0.00     0.031 C 
ATOM     39  C   UNL     1       8.843   1.109 -11.254  1.00  0.00     0.037 A 
BRANCH  26  40
ATOM     40  C   UNL     1       8.042   5.791  -7.285  1.00  0.00     0.064 A 
ATOM     41  C   UNL     1       8.879   6.152  -6.219  1.00  0.00     0.173 A 
ATOM     42  C   UNL     1       7.407   6.819  -7.998  1.00  0.00     0.173 A 
ATOM     43  F   UNL     1       9.487   5.205  -5.488  1.00  0.00    -0.203 F 
ATOM     44  C   UNL     1       9.046   7.488  -5.860  1.00  0.00     0.198 A 
ATOM     45  C   UNL     1       7.596   8.154  -7.653  1.00  0.00     0.198 A 
ATOM     46  F   UNL     1       6.590   6.527  -9.022  1.00  0.00    -0.203 F 
ATOM     47  F   UNL     1       9.802   7.806  -4.800  1.00  0.00    -0.200 F 
ATOM     48  C   UNL     1       8.407   8.487  -6.579  1.00  0.00     0.200 A 
ATOM     49  F   UNL     1       6.978   9.118  -8.350  1.00  0.00    -0.200 F 
ATOM     50  F   UNL     1       8.559   9.771  -6.226  1.00  0.00    -0.200 F 
ENDBRANCH  26  40
BRANCH  27  51
ATOM     51  C   UNL     1       6.144  -3.865  -9.139  1.00  0.00     0.064 A 
ATOM     52  C   UNL     1       7.110  -4.863  -8.961  1.00  0.00     0.173 A 
ATOM     53  C   UNL     1       4.896  -4.241  -9.653  1.00  0.00     0.173 A 
ATOM     54  F   UNL     1       8.327  -4.541  -8.499  1.00  0.00    -0.203 F 
ATOM     55  C   UNL     1       6.841  -6.188  -9.299  1.00  0.00     0.198 A 
ATOM     56  C   UNL     1       4.627  -5.566  -9.984  1.00  0.00     0.198 A 
ATOM     57  F   UNL     1       3.943  -3.318  -9.847  1.00  0.00    -0.203 F 
ATOM     58  F   UNL     1       7.792  -7.121  -9.155  1.00  0.00    -0.200 F 
ATOM     59  C   UNL     1       5.599  -6.538  -9.809  1.00  0.00     0.200 A 
ATOM     60  F   UNL     1       3.427  -5.900 -10.480  1.00  0.00    -0.200 F 
ATOM     61  F   UNL     1       5.343  -7.810 -10.146  1.00  0.00    -0.200 F 
ENDBRANCH  27  51
BRANCH  39  62
ATOM     62  C   UNL     1       9.579   1.097 -12.557  1.00  0.00     0.064 A 
ATOM     63  C   UNL     1       8.896   1.065 -13.781  1.00  0.00     0.173 A 
ATOM     64  C   UNL     1      10.980   1.139 -12.578  1.00  0.00     0.173 A 
ATOM     65  F   UNL     1       7.556   1.001 -13.805  1.00  0.00    -0.203 F 
ATOM     66  C   UNL     1       9.594   1.055 -14.984  1.00  0.00     0.198 A 
ATOM     67  C   UNL     1      11.673   1.154 -13.784  1.00  0.00     0.198 A 
ATOM     68  F   UNL     1      11.673   1.170 -11.430  1.00  0.00    -0.203 F 
ATOM     69  F   UNL     1       8.926   0.979 -16.143  1.00  0.00    -0.200 F 
ATOM     70  C   UNL     1      10.980   1.106 -14.985  1.00  0.00     0.200 A 
ATOM     71  F   UNL     1      13.012   1.210 -13.783  1.00  0.00    -0.200 F 
ATOM     72  F   UNL     1      11.651   1.098 -16.145  1.00  0.00    -0.200 F 
ENDBRANCH  39  62
ENDBRANCH  13  14
ENDBRANCH   6   8
ENDBRANCH   5   6
ENDBRANCH   4   5
ENDBRANCH   3   4
ENDBRANCH   2   3
ENDBRANCH   1   2
BRANCH   1  73
ATOM     73  C   UNL     1       2.003  -3.056   1.026  1.00  0.00     0.188 C 
BRANCH  73  74
ATOM     74  O   UNL     1       2.640  -4.066   1.813  1.00  0.00    -0.376 OA
BRANCH  74  75
ATOM     75  C   UNL     1       4.051  -4.204   1.669  1.00  0.00     0.202 C 
BRANCH  75  76
ATOM     76  C   UNL     1       4.542  -4.859   0.375  1.00  0.00     0.261 C 
BRANCH  76  77
ATOM     77  O   UNL     1       4.016  -4.263  -0.822  1.00  0.00    -0.457 OA
BRANCH  77  78
ATOM     78  C   UNL     1       3.289  -5.108  -1.602  1.00  0.00     0.376 C 
ATOM     79  O   UNL     1       3.055  -6.291  -1.359  1.00  0.00    -0.242 OA
BRANCH  78  80
ATOM     80  C   UNL     1       2.845  -4.451  -2.867  1.00  0.00     0.239 A 
ATOM     81  N   UNL     1       2.193  -3.270  -2.796  1.00  0.00    -0.230 NA
ATOM     82  N   UNL     1       3.003  -5.200  -3.978  1.00  0.00    -0.222 NA
ATOM     83  C   UNL     1       1.620  -2.865  -3.950  1.00  0.00     0.124 A 
ATOM     84  C   UNL     1       2.430  -4.760  -5.095  1.00  0.00     0.075 A 
ATOM     85  C   UNL     1       1.693  -3.571  -5.148  1.00  0.00     0.019 A 
ATOM     86  C   UNL     1       2.558  -5.518  -6.248  1.00  0.00     0.029 A 
ATOM     87  C   UNL     1       1.090  -3.162  -6.355  1.00  0.00     0.012 A 
ATOM     88  C   UNL     1       1.957  -5.127  -7.445  1.00  0.00     0.002 A 
ATOM     89  C   UNL     1       1.226  -3.945  -7.501  1.00  0.00     0.001 A 
ENDBRANCH  78  80
ENDBRANCH  77  78
ENDBRANCH  76  77
ENDBRANCH  75  76
ENDBRANCH  74  75
ENDBRANCH  73  74
ENDBRANCH   1  73
TORSDOF 17
