REMARK SMILES COc1cc(Cl)c2c(c1)C=C(C(=O)OCCOCCOCCOC(=O)c1ccc(-c3c4nc(c(-c5c(F)c(F)c(F)c(F)c5F)c5ccc([nH]5)c(-c5c(F)c(F)c(F)c(F)c5F)c5nc(c(-c6c(F)c(F)c(F)c(F)c6F)c6ccc3[nH]6)C=C5)C=C4)cc1)[C@@H](C(F)(F)F)O2
REMARK SMILES IDX 19 1 18 2 17 3 16 4 15 5 14 6 12 7 13 8 11 9 3 10 4 11 9 12
REMARK SMILES IDX 5 13 8 14 6 15 7 16 10 17 94 18 89 19 2 20 1 21 90 22 91 23
REMARK SMILES IDX 92 24 93 25 20 26 21 27 22 28 23 29 24 30 25 31 26 32 27 33
REMARK SMILES IDX 88 34 28 35 87 36 29 37 30 38 31 39 81 40 32 41 86 42 80 43
REMARK SMILES IDX 82 44 33 45 85 46 79 47 78 48 34 50 66 51 46 52 65 53 47 54
REMARK SMILES IDX 50 55 64 56 83 57 48 58 49 59 63 61 84 62 51 63 35 64 36 65
REMARK SMILES IDX 44 66 37 67 38 68 42 69 45 70 39 71 40 72 43 73 41 74 67 75
REMARK SMILES IDX 68 76 76 77 69 78 70 79 74 80 77 81 71 82 72 83 75 84 73 85
REMARK SMILES IDX 52 86 53 87 61 88 54 89 55 90 59 91 62 92 56 93 57 94 60 95
REMARK SMILES IDX 58 96
REMARK H PARENT 82 49 50 60
REMARK Flexibility Score: inf
ROOT
ATOM      1  C   UNL     1      -1.119  -0.313  -8.934  1.00  0.00     0.188 C 
ENDROOT
BRANCH   1   2
ATOM      2  C   UNL     1      -2.584   0.090  -8.654  1.00  0.00     0.188 C 
BRANCH   2   3
ATOM      3  O   UNL     1      -3.362   0.596  -9.711  1.00  0.00    -0.376 OA
BRANCH   3   4
ATOM      4  C   UNL     1      -3.156   1.902 -10.220  1.00  0.00     0.202 C 
BRANCH   4   5
ATOM      5  C   UNL     1      -2.331   3.005  -9.534  1.00  0.00     0.261 C 
BRANCH   5   6
ATOM      6  O   UNL     1      -1.287   2.588  -8.651  1.00  0.00    -0.460 OA
BRANCH   6   7
ATOM      7  C   UNL     1      -1.508   2.833  -7.336  1.00  0.00     0.338 C 
ATOM      8  O   UNL     1      -2.496   3.353  -6.846  1.00  0.00    -0.246 OA
BRANCH   7   9
ATOM      9  C   UNL     1      -0.427   2.225  -6.533  1.00  0.00     0.087 C 
ATOM     10  C   UNL     1       0.905  -0.010  -2.491  1.00  0.00     0.121 A 
ATOM     11  C   UNL     1       2.246   0.192  -2.807  1.00  0.00     0.070 A 
ATOM     12  C   UNL     1      -0.093   0.364  -3.391  1.00  0.00     0.058 A 
ATOM     13  C   UNL     1       2.584   0.788  -4.024  1.00  0.00     0.087 A 
ATOM     14  C   UNL     1       0.244   1.005  -4.589  1.00  0.00     0.022 A 
ATOM     15  Cl  UNL     1       4.259   1.031  -4.375  1.00  0.00    -0.080 Cl
ATOM     16  C   UNL     1       1.588   1.199  -4.921  1.00  0.00     0.146 A 
ATOM     17  C   UNL     1      -0.801   1.529  -5.452  1.00  0.00     0.027 C 
ATOM     18  O   UNL     1       1.983   1.767  -6.101  1.00  0.00    -0.474 OA
ATOM     19  C   UNL     1       1.004   2.412  -6.956  1.00  0.00     0.316 C 
BRANCH  10  20
ATOM     20  O   UNL     1       0.497  -0.618  -1.337  1.00  0.00    -0.497 OA
ATOM     21  C   UNL     1       1.002   0.026  -0.167  1.00  0.00     0.278 C 
ENDBRANCH  10  20
BRANCH  19  22
ATOM     22  C   UNL     1       1.376   3.893  -7.097  1.00  0.00     0.430 C 
ATOM     23  F   UNL     1       2.680   4.049  -7.425  1.00  0.00    -0.167 F 
ATOM     24  F   UNL     1       0.655   4.499  -8.071  1.00  0.00    -0.167 F 
ATOM     25  F   UNL     1       1.158   4.576  -5.950  1.00  0.00    -0.167 F 
ENDBRANCH  19  22
ENDBRANCH   7   9
ENDBRANCH   6   7
ENDBRANCH   5   6
ENDBRANCH   4   5
ENDBRANCH   3   4
ENDBRANCH   2   3
ENDBRANCH   1   2
BRANCH   1  26
ATOM     26  O   UNL     1      -0.545  -0.072 -10.200  1.00  0.00    -0.376 OA
BRANCH  26  27
ATOM     27  C   UNL     1      -1.140  -0.664 -11.346  1.00  0.00     0.202 C 
BRANCH  27  28
ATOM     28  C   UNL     1      -1.714  -2.094 -11.337  1.00  0.00     0.261 C 
BRANCH  28  29
ATOM     29  O   UNL     1      -2.503  -2.455 -10.193  1.00  0.00    -0.460 OA
BRANCH  29  30
ATOM     30  C   UNL     1      -1.983  -3.429  -9.399  1.00  0.00     0.338 C 
ATOM     31  O   UNL     1      -0.940  -4.034  -9.547  1.00  0.00    -0.246 OA
BRANCH  30  32
ATOM     32  C   UNL     1      -2.812  -3.535  -8.181  1.00  0.00     0.060 A 
ATOM     33  C   UNL     1      -2.323  -3.015  -6.973  1.00  0.00     0.016 A 
ATOM     34  C   UNL     1      -4.054  -4.166  -8.231  1.00  0.00     0.016 A 
ATOM     35  C   UNL     1      -3.092  -3.096  -5.814  1.00  0.00     0.010 A 
ATOM     36  C   UNL     1      -4.802  -4.292  -7.058  1.00  0.00     0.010 A 
ATOM     37  C   UNL     1      -4.319  -3.771  -5.844  1.00  0.00    -0.014 A 
BRANCH  37  38
ATOM     38  C   UNL     1      -4.978  -4.126  -4.567  1.00  0.00     0.031 A 
ATOM     39  C   UNL     1      -4.604  -5.430  -3.922  1.00  0.00     0.074 A 
ATOM     40  C   UNL     1      -5.866  -3.306  -3.978  1.00  0.00     0.049 A 
ATOM     41  N   UNL     1      -5.047  -5.968  -2.816  1.00  0.00    -0.248 NA
ATOM     42  C   UNL     1      -3.588  -6.235  -4.621  1.00  0.00     0.031 C 
ATOM     43  C   UNL     1      -6.272  -1.997  -4.481  1.00  0.00     0.029 A 
ATOM     44  N   UNL     1      -6.590  -3.464  -2.822  1.00  0.00    -0.354 N 
ATOM     45  C   UNL     1      -4.355  -7.163  -2.681  1.00  0.00     0.074 A 
ATOM     46  C   UNL     1      -3.495  -7.296  -3.835  1.00  0.00     0.031 C 
ATOM     47  C   UNL     1      -7.183  -1.473  -3.641  1.00  0.00     0.029 A 
ATOM     48  C   UNL     1      -7.442  -2.421  -2.557  1.00  0.00     0.049 A 
ATOM     49  H   UNL     1      -6.506  -4.252  -2.237  1.00  0.00     0.167 HD
ATOM     50  C   UNL     1      -4.421  -8.063  -1.674  1.00  0.00     0.037 A 
ATOM     51  C   UNL     1      -8.336  -2.261  -1.560  1.00  0.00     0.037 A 
ATOM     52  C   UNL     1      -5.291  -7.940  -0.537  1.00  0.00     0.049 A 
ATOM     53  C   UNL     1      -8.474  -3.336  -0.508  1.00  0.00     0.074 A 
ATOM     54  C   UNL     1      -5.425  -8.799   0.538  1.00  0.00     0.029 A 
ATOM     55  N   UNL     1      -6.184  -6.899  -0.336  1.00  0.00    -0.354 N 
ATOM     56  N   UNL     1      -7.790  -4.445  -0.362  1.00  0.00    -0.248 NA
ATOM     57  C   UNL     1      -9.511  -3.139   0.517  1.00  0.00     0.031 C 
ATOM     58  C   UNL     1      -6.443  -8.309   1.360  1.00  0.00     0.029 A 
ATOM     59  C   UNL     1      -6.900  -7.113   0.830  1.00  0.00     0.049 A 
ATOM     60  H   UNL     1      -6.292  -6.123  -0.932  1.00  0.00     0.167 HD
ATOM     61  C   UNL     1      -8.291  -5.061   0.778  1.00  0.00     0.074 A 
ATOM     62  C   UNL     1      -9.330  -4.197   1.296  1.00  0.00     0.031 C 
ATOM     63  C   UNL     1      -7.925  -6.239   1.341  1.00  0.00     0.037 A 
BRANCH  50  64
ATOM     64  C   UNL     1      -3.535  -9.270  -1.760  1.00  0.00     0.064 A 
ATOM     65  C   UNL     1      -2.147  -9.171  -1.584  1.00  0.00     0.173 A 
ATOM     66  C   UNL     1      -4.084 -10.544  -1.961  1.00  0.00     0.173 A 
ATOM     67  F   UNL     1      -1.572  -7.971  -1.405  1.00  0.00    -0.203 F 
ATOM     68  C   UNL     1      -1.339 -10.303  -1.619  1.00  0.00     0.198 A 
ATOM     69  C   UNL     1      -3.277 -11.678  -1.964  1.00  0.00     0.198 A 
ATOM     70  F   UNL     1      -5.406 -10.692  -2.134  1.00  0.00    -0.203 F 
ATOM     71  F   UNL     1      -0.011 -10.182  -1.484  1.00  0.00    -0.200 F 
ATOM     72  C   UNL     1      -1.905 -11.557  -1.798  1.00  0.00     0.200 A 
ATOM     73  F   UNL     1      -3.827 -12.890  -2.123  1.00  0.00    -0.200 F 
ATOM     74  F   UNL     1      -1.129 -12.649  -1.811  1.00  0.00    -0.200 F 
ENDBRANCH  50  64
BRANCH  51  75
ATOM     75  C   UNL     1      -9.171  -1.032  -1.501  1.00  0.00     0.064 A 
ATOM     76  C   UNL     1      -9.003  -0.096  -0.471  1.00  0.00     0.173 A 
ATOM     77  C   UNL     1     -10.156  -0.768  -2.465  1.00  0.00     0.173 A 
ATOM     78  F   UNL     1      -8.096  -0.316   0.492  1.00  0.00    -0.203 F 
ATOM     79  C   UNL     1      -9.791   1.052  -0.403  1.00  0.00     0.198 A 
ATOM     80  C   UNL     1     -10.925   0.394  -2.412  1.00  0.00     0.198 A 
ATOM     81  F   UNL     1     -10.366  -1.635  -3.467  1.00  0.00    -0.203 F 
ATOM     82  F   UNL     1      -9.636   1.909   0.615  1.00  0.00    -0.200 F 
ATOM     83  C   UNL     1     -10.745   1.300  -1.378  1.00  0.00     0.200 A 
ATOM     84  F   UNL     1     -11.839   0.634  -3.362  1.00  0.00    -0.200 F 
ATOM     85  F   UNL     1     -11.497   2.408  -1.317  1.00  0.00    -0.200 F 
ENDBRANCH  51  75
BRANCH  63  86
ATOM     86  C   UNL     1      -8.631  -6.678   2.593  1.00  0.00     0.064 A 
ATOM     87  C   UNL     1      -9.950  -7.151   2.560  1.00  0.00     0.173 A 
ATOM     88  C   UNL     1      -7.940  -6.742   3.814  1.00  0.00     0.173 A 
ATOM     89  F   UNL     1     -10.657  -7.102   1.420  1.00  0.00    -0.203 F 
ATOM     90  C   UNL     1     -10.553  -7.672   3.702  1.00  0.00     0.198 A 
ATOM     91  C   UNL     1      -8.535  -7.293   4.946  1.00  0.00     0.198 A 
ATOM     92  F   UNL     1      -6.672  -6.313   3.897  1.00  0.00    -0.203 F 
ATOM     93  F   UNL     1     -11.821  -8.100   3.652  1.00  0.00    -0.200 F 
ATOM     94  C   UNL     1      -9.840  -7.756   4.890  1.00  0.00     0.200 A 
ATOM     95  F   UNL     1      -7.837  -7.394   6.086  1.00  0.00    -0.200 F 
ATOM     96  F   UNL     1     -10.411  -8.288   5.979  1.00  0.00    -0.200 F 
ENDBRANCH  63  86
ENDBRANCH  37  38
ENDBRANCH  30  32
ENDBRANCH  29  30
ENDBRANCH  28  29
ENDBRANCH  27  28
ENDBRANCH  26  27
ENDBRANCH   1  26
TORSDOF 19
