REMARK SMILES C[C@@H](C(=O)OCCOCCOCCOC(=O)c1ccc(-c2c3nc(c(-c4c(F)c(F)c(F)c(F)c4F)c4ccc([nH]4)c(-c4c(F)c(F)c(F)c(F)c4F)c4nc(c(-c5c(F)c(F)c(F)c(F)c5F)c5ccc2[nH]5)C=C4)C=C3)cc1)c1cc(/C=C/S(C)(=O)=O)cc(C(=O)c2ccccc2)c1
REMARK SMILES IDX 9 1 8 2 7 3 6 4 5 5 3 6 4 7 2 8 1 9 80 10 81 11 99 12 82 13
REMARK SMILES IDX 90 14 89 15 83 16 84 17 85 18 86 19 87 20 88 21 91 22 92 23
REMARK SMILES IDX 93 24 94 25 98 26 95 27 97 28 96 29 10 30 11 31 12 32 13 33
REMARK SMILES IDX 14 34 15 35 16 36 17 37 18 38 79 39 19 40 78 41 20 42 21 43
REMARK SMILES IDX 22 44 72 45 23 46 77 47 71 48 73 49 24 50 76 51 70 52 69 53
REMARK SMILES IDX 25 55 57 56 37 57 56 58 38 59 41 60 55 61 74 62 39 63 40 64
REMARK SMILES IDX 54 66 75 67 42 68 26 69 27 70 35 71 28 72 29 73 33 74 36 75
REMARK SMILES IDX 30 76 31 77 34 78 32 79 58 80 59 81 67 82 60 83 61 84 65 85
REMARK SMILES IDX 68 86 62 87 63 88 66 89 64 90 43 91 44 92 52 93 45 94 46 95
REMARK SMILES IDX 50 96 53 97 47 98 48 99 51 100 49 101
REMARK H PARENT 73 54 41 65
REMARK Flexibility Score: inf
ROOT
ATOM      1  C   UNL     1       0.644   0.755   3.785  1.00  0.00     0.188 C 
ENDROOT
BRANCH   1   2
ATOM      2  O   UNL     1       1.458   0.632   4.930  1.00  0.00    -0.376 OA
BRANCH   2   3
ATOM      3  C   UNL     1       2.688  -0.067   4.799  1.00  0.00     0.202 C 
BRANCH   3   4
ATOM      4  C   UNL     1       2.785  -1.292   3.877  1.00  0.00     0.261 C 
BRANCH   4   5
ATOM      5  O   UNL     1       2.434  -1.035   2.495  1.00  0.00    -0.463 OA
BRANCH   5   6
ATOM      6  C   UNL     1       1.527  -1.889   1.944  1.00  0.00     0.313 C 
ATOM      7  O   UNL     1       1.050  -2.848   2.549  1.00  0.00    -0.252 OA
BRANCH   6   8
ATOM      8  C   UNL     1       1.069  -1.519   0.513  1.00  0.00     0.126 C 
ATOM      9  C   UNL     1       2.006  -0.608  -0.275  1.00  0.00     0.025 C 
BRANCH   8  10
ATOM     10  C   UNL     1      -0.422  -1.144   0.474  1.00  0.00    -0.033 A 
ATOM     11  C   UNL     1      -0.946   0.128   0.175  1.00  0.00     0.012 A 
ATOM     12  C   UNL     1      -1.330  -2.164   0.787  1.00  0.00     0.016 A 
ATOM     13  C   UNL     1      -2.323   0.412   0.279  1.00  0.00    -0.024 A 
ATOM     14  C   UNL     1      -2.704  -1.937   0.892  1.00  0.00     0.023 A 
ATOM     15  C   UNL     1      -3.194  -0.640   0.644  1.00  0.00     0.020 A 
BRANCH  13  16
ATOM     16  C   UNL     1      -2.873   1.769  -0.002  1.00  0.00     0.020 C 
ATOM     17  C   UNL     1      -2.203   2.942   0.049  1.00  0.00     0.106 C 
BRANCH  17  18
ATOM     18  S   UNL     1      -3.054   4.447  -0.234  1.00  0.00     0.168 S 
ATOM     19  C   UNL     1      -2.446   5.563   1.003  1.00  0.00     0.163 C 
ATOM     20  O   UNL     1      -2.603   4.980  -1.512  1.00  0.00    -0.225 OA
ATOM     21  O   UNL     1      -4.461   4.263   0.033  1.00  0.00    -0.225 OA
ENDBRANCH  17  18
ENDBRANCH  13  16
BRANCH  14  22
ATOM     22  C   UNL     1      -3.628  -3.072   1.238  1.00  0.00     0.193 C 
ATOM     23  O   UNL     1      -4.837  -2.890   1.334  1.00  0.00    -0.289 OA
BRANCH  22  24
ATOM     24  C   UNL     1      -3.092  -4.452   1.413  1.00  0.00     0.022 A 
ATOM     25  C   UNL     1      -3.414  -5.429   0.465  1.00  0.00     0.012 A 
ATOM     26  C   UNL     1      -2.205  -4.755   2.456  1.00  0.00     0.012 A 
ATOM     27  C   UNL     1      -2.802  -6.685   0.525  1.00  0.00     0.001 A 
ATOM     28  C   UNL     1      -1.586  -6.008   2.502  1.00  0.00     0.001 A 
ATOM     29  C   UNL     1      -1.877  -6.967   1.532  1.00  0.00     0.000 A 
ENDBRANCH  22  24
ENDBRANCH  14  22
ENDBRANCH   8  10
ENDBRANCH   6   8
ENDBRANCH   5   6
ENDBRANCH   4   5
ENDBRANCH   3   4
ENDBRANCH   2   3
ENDBRANCH   1   2
BRANCH   1  30
ATOM     30  C   UNL     1       1.158   1.590   2.595  1.00  0.00     0.188 C 
BRANCH  30  31
ATOM     31  O   UNL     1       2.522   1.929   2.502  1.00  0.00    -0.376 OA
BRANCH  31  32
ATOM     32  C   UNL     1       3.012   2.979   3.324  1.00  0.00     0.202 C 
BRANCH  32  33
ATOM     33  C   UNL     1       2.096   4.117   3.799  1.00  0.00     0.261 C 
BRANCH  33  34
ATOM     34  O   UNL     1       0.823   3.706   4.354  1.00  0.00    -0.460 OA
BRANCH  34  35
ATOM     35  C   UNL     1      -0.237   4.371   3.830  1.00  0.00     0.338 C 
ATOM     36  O   UNL     1      -0.179   5.268   2.999  1.00  0.00    -0.246 OA
BRANCH  35  37
ATOM     37  C   UNL     1      -1.570   3.827   4.175  1.00  0.00     0.060 A 
ATOM     38  C   UNL     1      -2.109   2.862   3.325  1.00  0.00     0.016 A 
ATOM     39  C   UNL     1      -2.438   4.587   4.963  1.00  0.00     0.016 A 
ATOM     40  C   UNL     1      -3.487   2.743   3.171  1.00  0.00     0.010 A 
ATOM     41  C   UNL     1      -3.836   4.439   4.826  1.00  0.00     0.010 A 
ATOM     42  C   UNL     1      -4.375   3.558   3.877  1.00  0.00    -0.014 A 
BRANCH  42  43
ATOM     43  C   UNL     1      -5.826   3.465   3.537  1.00  0.00     0.031 A 
ATOM     44  C   UNL     1      -6.567   4.590   2.844  1.00  0.00     0.074 A 
ATOM     45  C   UNL     1      -6.450   2.278   3.673  1.00  0.00     0.049 A 
ATOM     46  N   UNL     1      -7.823   4.651   2.464  1.00  0.00    -0.248 NA
ATOM     47  C   UNL     1      -5.788   5.781   2.478  1.00  0.00     0.031 C 
ATOM     48  C   UNL     1      -5.822   1.038   4.139  1.00  0.00     0.029 A 
ATOM     49  N   UNL     1      -7.750   1.916   3.421  1.00  0.00    -0.354 N 
ATOM     50  C   UNL     1      -7.959   5.842   1.756  1.00  0.00     0.074 A 
ATOM     51  C   UNL     1      -6.663   6.484   1.769  1.00  0.00     0.031 C 
ATOM     52  C   UNL     1      -6.738   0.061   4.151  1.00  0.00     0.029 A 
ATOM     53  C   UNL     1      -8.037   0.641   3.836  1.00  0.00     0.049 A 
ATOM     54  H   UNL     1      -8.407   2.509   2.989  1.00  0.00     0.167 HD
ATOM     55  C   UNL     1      -9.069   6.369   1.180  1.00  0.00     0.037 A 
ATOM     56  C   UNL     1      -9.218   0.038   4.061  1.00  0.00     0.037 A 
ATOM     57  C   UNL     1     -10.387   5.796   1.303  1.00  0.00     0.049 A 
ATOM     58  C   UNL     1     -10.482   0.777   3.740  1.00  0.00     0.074 A 
ATOM     59  C   UNL     1     -11.607   6.327   0.917  1.00  0.00     0.029 A 
ATOM     60  N   UNL     1     -10.659   4.577   1.905  1.00  0.00    -0.354 N 
ATOM     61  N   UNL     1     -10.630   1.944   3.163  1.00  0.00    -0.248 NA
ATOM     62  C   UNL     1     -11.742   0.126   4.116  1.00  0.00     0.031 C 
ATOM     63  C   UNL     1     -12.619   5.479   1.381  1.00  0.00     0.029 A 
ATOM     64  C   UNL     1     -12.028   4.374   1.971  1.00  0.00     0.049 A 
ATOM     65  H   UNL     1      -9.978   3.947   2.236  1.00  0.00     0.167 HD
ATOM     66  C   UNL     1     -11.997   2.158   3.081  1.00  0.00     0.074 A 
ATOM     67  C   UNL     1     -12.635   0.995   3.664  1.00  0.00     0.031 C 
ATOM     68  C   UNL     1     -12.659   3.220   2.561  1.00  0.00     0.037 A 
BRANCH  55  69
ATOM     69  C   UNL     1      -8.947   7.698   0.484  1.00  0.00     0.064 A 
ATOM     70  C   UNL     1      -8.409   7.826  -0.805  1.00  0.00     0.173 A 
ATOM     71  C   UNL     1      -9.443   8.858   1.102  1.00  0.00     0.173 A 
ATOM     72  F   UNL     1      -7.928   6.752  -1.448  1.00  0.00    -0.203 F 
ATOM     73  C   UNL     1      -8.357   9.068  -1.440  1.00  0.00     0.198 A 
ATOM     74  C   UNL     1      -9.408  10.092   0.457  1.00  0.00     0.198 A 
ATOM     75  F   UNL     1      -9.982   8.791   2.328  1.00  0.00    -0.203 F 
ATOM     76  F   UNL     1      -7.819   9.176  -2.664  1.00  0.00    -0.200 F 
ATOM     77  C   UNL     1      -8.860  10.198  -0.811  1.00  0.00     0.200 A 
ATOM     78  F   UNL     1      -9.912  11.177   1.062  1.00  0.00    -0.200 F 
ATOM     79  F   UNL     1      -8.815  11.389  -1.424  1.00  0.00    -0.200 F 
ENDBRANCH  55  69
BRANCH  56  80
ATOM     80  C   UNL     1      -9.227  -1.264   4.776  1.00  0.00     0.064 A 
ATOM     81  C   UNL     1      -9.697  -2.438   4.178  1.00  0.00     0.173 A 
ATOM     82  C   UNL     1      -8.725  -1.354   6.088  1.00  0.00     0.173 A 
ATOM     83  F   UNL     1     -10.226  -2.397   2.947  1.00  0.00    -0.203 F 
ATOM     84  C   UNL     1      -9.654  -3.653   4.860  1.00  0.00     0.198 A 
ATOM     85  C   UNL     1      -8.645  -2.574   6.751  1.00  0.00     0.198 A 
ATOM     86  F   UNL     1      -8.280  -0.255   6.717  1.00  0.00    -0.203 F 
ATOM     87  F   UNL     1     -10.147  -4.758   4.285  1.00  0.00    -0.200 F 
ATOM     88  C   UNL     1      -9.114  -3.723   6.137  1.00  0.00     0.200 A 
ATOM     89  F   UNL     1      -8.108  -2.634   7.977  1.00  0.00    -0.200 F 
ATOM     90  F   UNL     1      -9.056  -4.896   6.782  1.00  0.00    -0.200 F 
ENDBRANCH  56  80
BRANCH  68  91
ATOM     91  C   UNL     1     -14.158   3.159   2.561  1.00  0.00     0.064 A 
ATOM     92  C   UNL     1     -14.903   3.259   3.745  1.00  0.00     0.173 A 
ATOM     93  C   UNL     1     -14.858   3.016   1.353  1.00  0.00     0.173 A 
ATOM     94  F   UNL     1     -14.280   3.381   4.927  1.00  0.00    -0.203 F 
ATOM     95  C   UNL     1     -16.293   3.183   3.723  1.00  0.00     0.198 A 
ATOM     96  C   UNL     1     -16.249   2.976   1.331  1.00  0.00     0.198 A 
ATOM     97  F   UNL     1     -14.193   2.924   0.192  1.00  0.00    -0.203 F 
ATOM     98  F   UNL     1     -16.982   3.220   4.871  1.00  0.00    -0.200 F 
ATOM     99  C   UNL     1     -16.964   3.048   2.516  1.00  0.00     0.200 A 
ATOM    100  F   UNL     1     -16.896   2.862   0.163  1.00  0.00    -0.200 F 
ATOM    101  F   UNL     1     -18.302   2.978   2.497  1.00  0.00    -0.200 F 
ENDBRANCH  68  91
ENDBRANCH  42  43
ENDBRANCH  35  37
ENDBRANCH  34  35
ENDBRANCH  33  34
ENDBRANCH  32  33
ENDBRANCH  31  32
ENDBRANCH  30  31
ENDBRANCH   1  30
TORSDOF 22
