REMARK SMILES CC(C)n1ccc(C[C@@H](C(=O)OCCOCCOCCOC(=O)c2ccc(-c3c4nc(c(-c5c(F)c(F)c(F)c(F)c5F)c5ccc([nH]5)c(-c5c(F)c(F)c(F)c(F)c5F)c5nc(c(-c6c(F)c(F)c(F)c(F)c6F)c6ccc3[nH]6)C=C5)C=C4)cc2)c2cccc(Cl)c2)n1
REMARK SMILES IDX 16 1 15 2 14 3 13 4 12 5 10 6 11 7 9 8 8 9 7 10 4 11 5 12
REMARK SMILES IDX 94 13 6 14 2 15 1 16 3 17 87 18 88 19 93 20 89 21 91 22
REMARK SMILES IDX 90 23 92 24 17 25 18 26 19 27 20 28 21 29 22 30 23 31 24 32
REMARK SMILES IDX 25 33 86 34 26 35 85 36 27 37 28 38 29 39 79 40 30 41 84 42
REMARK SMILES IDX 78 43 80 44 31 45 83 46 77 47 76 48 32 50 64 51 44 52 63 53
REMARK SMILES IDX 45 54 48 55 62 56 81 57 46 58 47 59 61 61 82 62 49 63 33 64
REMARK SMILES IDX 34 65 42 66 35 67 36 68 40 69 43 70 37 71 38 72 41 73 39 74
REMARK SMILES IDX 65 75 66 76 74 77 67 78 68 79 72 80 75 81 69 82 70 83 73 84
REMARK SMILES IDX 71 85 50 86 51 87 59 88 52 89 53 90 57 91 60 92 54 93 55 94
REMARK SMILES IDX 58 95 56 96
REMARK H PARENT 80 49 48 60
REMARK Flexibility Score: inf
ROOT
ATOM      1  C   UNL     1      -7.289  -0.054  -0.283  1.00  0.00     0.188 C 
ENDROOT
BRANCH   1   2
ATOM      2  O   UNL     1      -7.065  -1.416  -0.573  1.00  0.00    -0.376 OA
BRANCH   2   3
ATOM      3  C   UNL     1      -6.305  -1.753  -1.735  1.00  0.00     0.202 C 
BRANCH   3   4
ATOM      4  C   UNL     1      -5.998  -0.715  -2.824  1.00  0.00     0.261 C 
BRANCH   4   5
ATOM      5  O   UNL     1      -5.441   0.505  -2.303  1.00  0.00    -0.463 OA
BRANCH   5   6
ATOM      6  C   UNL     1      -5.193   1.460  -3.240  1.00  0.00     0.313 C 
ATOM      7  O   UNL     1      -5.401   1.292  -4.438  1.00  0.00    -0.252 OA
BRANCH   6   8
ATOM      8  C   UNL     1      -4.802   2.815  -2.649  1.00  0.00     0.135 C 
BRANCH   8   9
ATOM      9  C   UNL     1      -3.871   2.793  -1.418  1.00  0.00     0.078 C 
BRANCH   9  10
ATOM     10  C   UNL     1      -2.694   1.867  -1.401  1.00  0.00     0.064 A 
ATOM     11  N   UNL     1      -0.673   1.288  -1.066  1.00  0.00    -0.270 N 
ATOM     12  C   UNL     1      -1.372   0.122  -1.024  1.00  0.00     0.109 A 
ATOM     13  N   UNL     1      -1.448   2.361  -1.342  1.00  0.00    -0.178 NA
ATOM     14  C   UNL     1      -2.677   0.464  -1.254  1.00  0.00     0.045 A 
BRANCH  11  15
ATOM     15  C   UNL     1       0.764   1.464  -0.887  1.00  0.00     0.101 C 
ATOM     16  C   UNL     1       1.411   0.376  -0.022  1.00  0.00     0.033 C 
ATOM     17  C   UNL     1       1.441   1.540  -2.253  1.00  0.00     0.033 C 
ENDBRANCH  11  15
ENDBRANCH   9  10
ENDBRANCH   8   9
BRANCH   8  18
ATOM     18  C   UNL     1      -6.025   3.720  -2.367  1.00  0.00    -0.032 A 
ATOM     19  C   UNL     1      -5.825   5.087  -2.091  1.00  0.00     0.005 A 
ATOM     20  C   UNL     1      -7.347   3.241  -2.327  1.00  0.00     0.025 A 
ATOM     21  C   UNL     1      -6.892   5.926  -1.746  1.00  0.00     0.002 A 
ATOM     22  C   UNL     1      -8.409   4.080  -1.968  1.00  0.00     0.041 A 
ATOM     23  C   UNL     1      -8.186   5.419  -1.672  1.00  0.00     0.020 A 
ATOM     24  Cl  UNL     1     -10.005   3.439  -1.869  1.00  0.00    -0.084 Cl
ENDBRANCH   8  18
ENDBRANCH   6   8
ENDBRANCH   5   6
ENDBRANCH   4   5
ENDBRANCH   3   4
ENDBRANCH   2   3
ENDBRANCH   1   2
BRANCH   1  25
ATOM     25  C   UNL     1      -6.263   0.687   0.587  1.00  0.00     0.188 C 
BRANCH  25  26
ATOM     26  O   UNL     1      -4.923   0.254   0.765  1.00  0.00    -0.376 OA
BRANCH  26  27
ATOM     27  C   UNL     1      -4.585  -1.070   1.160  1.00  0.00     0.202 C 
BRANCH  27  28
ATOM     28  C   UNL     1      -4.892  -1.574   2.561  1.00  0.00     0.261 C 
BRANCH  28  29
ATOM     29  O   UNL     1      -6.133  -1.099   3.022  1.00  0.00    -0.460 OA
BRANCH  29  30
ATOM     30  C   UNL     1      -6.043   0.099   3.640  1.00  0.00     0.338 C 
ATOM     31  O   UNL     1      -5.041   0.734   3.905  1.00  0.00    -0.246 OA
BRANCH  30  32
ATOM     32  C   UNL     1      -7.411   0.524   3.953  1.00  0.00     0.060 A 
ATOM     33  C   UNL     1      -7.551   1.742   4.618  1.00  0.00     0.016 A 
ATOM     34  C   UNL     1      -8.497  -0.340   3.729  1.00  0.00     0.016 A 
ATOM     35  C   UNL     1      -8.722   1.972   5.297  1.00  0.00     0.010 A 
ATOM     36  C   UNL     1      -9.661  -0.119   4.417  1.00  0.00     0.010 A 
ATOM     37  C   UNL     1      -9.699   0.973   5.277  1.00  0.00    -0.014 A 
BRANCH  37  38
ATOM     38  C   UNL     1     -10.668   0.988   6.345  1.00  0.00     0.031 A 
ATOM     39  C   UNL     1     -11.880   1.782   6.107  1.00  0.00     0.074 A 
ATOM     40  C   UNL     1     -10.452   0.239   7.443  1.00  0.00     0.049 A 
ATOM     41  N   UNL     1     -12.311   2.786   6.794  1.00  0.00    -0.248 NA
ATOM     42  C   UNL     1     -12.674   1.468   4.912  1.00  0.00     0.031 C 
ATOM     43  C   UNL     1      -9.431  -0.800   7.629  1.00  0.00     0.029 A 
ATOM     44  N   UNL     1     -11.177   0.174   8.590  1.00  0.00    -0.354 N 
ATOM     45  C   UNL     1     -13.528   3.127   6.222  1.00  0.00     0.074 A 
ATOM     46  C   UNL     1     -13.638   2.384   4.992  1.00  0.00     0.031 C 
ATOM     47  C   UNL     1      -9.734  -1.525   8.727  1.00  0.00     0.029 A 
ATOM     48  C   UNL     1     -10.893  -0.932   9.373  1.00  0.00     0.049 A 
ATOM     49  H   UNL     1     -11.844   0.853   8.842  1.00  0.00     0.167 HD
ATOM     50  C   UNL     1     -14.467   3.808   6.926  1.00  0.00     0.037 A 
ATOM     51  C   UNL     1     -11.618  -1.374  10.426  1.00  0.00     0.037 A 
ATOM     52  C   UNL     1     -13.900   4.508   8.046  1.00  0.00     0.049 A 
ATOM     53  C   UNL     1     -12.486  -0.258  10.879  1.00  0.00     0.074 A 
ATOM     54  C   UNL     1     -12.946   5.498   8.185  1.00  0.00     0.029 A 
ATOM     55  N   UNL     1     -14.075   3.978   9.299  1.00  0.00    -0.354 N 
ATOM     56  N   UNL     1     -12.056   0.812  11.486  1.00  0.00    -0.248 NA
ATOM     57  C   UNL     1     -13.822  -0.154  10.309  1.00  0.00     0.031 C 
ATOM     58  C   UNL     1     -12.288   5.223   9.418  1.00  0.00     0.029 A 
ATOM     59  C   UNL     1     -12.885   4.090   9.972  1.00  0.00     0.049 A 
ATOM     60  H   UNL     1     -14.906   3.587   9.653  1.00  0.00     0.167 HD
ATOM     61  C   UNL     1     -12.869   1.834  11.018  1.00  0.00     0.074 A 
ATOM     62  C   UNL     1     -14.010   1.164  10.409  1.00  0.00     0.031 C 
ATOM     63  C   UNL     1     -12.399   3.111  10.916  1.00  0.00     0.037 A 
BRANCH  50  64
ATOM     64  C   UNL     1     -15.938   3.541   6.785  1.00  0.00     0.064 A 
ATOM     65  C   UNL     1     -16.862   4.445   7.335  1.00  0.00     0.173 A 
ATOM     66  C   UNL     1     -16.463   2.295   6.375  1.00  0.00     0.173 A 
ATOM     67  F   UNL     1     -16.456   5.638   7.795  1.00  0.00    -0.203 F 
ATOM     68  C   UNL     1     -18.206   4.106   7.504  1.00  0.00     0.198 A 
ATOM     69  C   UNL     1     -17.815   1.984   6.489  1.00  0.00     0.198 A 
ATOM     70  F   UNL     1     -15.676   1.295   5.957  1.00  0.00    -0.203 F 
ATOM     71  F   UNL     1     -19.029   4.951   8.140  1.00  0.00    -0.200 F 
ATOM     72  C   UNL     1     -18.682   2.878   7.080  1.00  0.00     0.200 A 
ATOM     73  F   UNL     1     -18.250   0.779   6.093  1.00  0.00    -0.200 F 
ATOM     74  F   UNL     1     -19.959   2.533   7.287  1.00  0.00    -0.200 F 
ENDBRANCH  50  64
BRANCH  51  75
ATOM     75  C   UNL     1     -11.797  -2.766  10.894  1.00  0.00     0.064 A 
ATOM     76  C   UNL     1     -12.286  -3.035  12.181  1.00  0.00     0.173 A 
ATOM     77  C   UNL     1     -11.732  -3.858  10.006  1.00  0.00     0.173 A 
ATOM     78  F   UNL     1     -12.423  -2.043  13.073  1.00  0.00    -0.203 F 
ATOM     79  C   UNL     1     -12.704  -4.317  12.551  1.00  0.00     0.198 A 
ATOM     80  C   UNL     1     -12.132  -5.139  10.382  1.00  0.00     0.198 A 
ATOM     81  F   UNL     1     -11.365  -3.689   8.728  1.00  0.00    -0.203 F 
ATOM     82  F   UNL     1     -13.226  -4.523  13.768  1.00  0.00    -0.200 F 
ATOM     83  C   UNL     1     -12.632  -5.366  11.650  1.00  0.00     0.200 A 
ATOM     84  F   UNL     1     -12.088  -6.138   9.488  1.00  0.00    -0.200 F 
ATOM     85  F   UNL     1     -13.083  -6.582  11.987  1.00  0.00    -0.200 F 
ENDBRANCH  51  75
BRANCH  63  86
ATOM     86  C   UNL     1     -11.124   3.433  11.642  1.00  0.00     0.064 A 
ATOM     87  C   UNL     1      -9.883   2.846  11.339  1.00  0.00     0.173 A 
ATOM     88  C   UNL     1     -11.142   4.450  12.605  1.00  0.00     0.173 A 
ATOM     89  F   UNL     1      -9.770   1.944  10.355  1.00  0.00    -0.203 F 
ATOM     90  C   UNL     1      -8.725   3.219  12.018  1.00  0.00     0.198 A 
ATOM     91  C   UNL     1      -9.976   4.849  13.254  1.00  0.00     0.198 A 
ATOM     92  F   UNL     1     -12.288   5.088  12.889  1.00  0.00    -0.203 F 
ATOM     93  F   UNL     1      -7.557   2.627  11.731  1.00  0.00    -0.200 F 
ATOM     94  C   UNL     1      -8.772   4.223  12.972  1.00  0.00     0.200 A 
ATOM     95  F   UNL     1     -10.017   5.854  14.139  1.00  0.00    -0.200 F 
ATOM     96  F   UNL     1      -7.653   4.606  13.602  1.00  0.00    -0.200 F 
ENDBRANCH  63  86
ENDBRANCH  37  38
ENDBRANCH  30  32
ENDBRANCH  29  30
ENDBRANCH  28  29
ENDBRANCH  27  28
ENDBRANCH  26  27
ENDBRANCH  25  26
ENDBRANCH   1  25
TORSDOF 21
