REMARK SMILES CC(C)N(CCC#N)C(=O)c1ccncc1/C=C/C(=O)OCCOCCOCCOC(=O)c1ccc(-c2c3nc(c(-c4c(F)c(F)c(F)c(F)c4F)c4ccc([nH]4)c(-c4c(F)c(F)c(F)c(F)c4F)c4nc(c(-c5c(F)c(F)c(F)c(F)c5F)c5ccc2[nH]5)C=C4)C=C3)cc1
REMARK SMILES IDX 23 1 22 2 21 3 19 4 20 5 18 6 17 7 16 8 11 9 12 10 13 11
REMARK SMILES IDX 15 12 14 13 9 14 10 15 4 16 2 17 1 18 3 19 5 20 6 21 7 22
REMARK SMILES IDX 8 23 24 24 25 25 26 26 27 27 28 28 29 29 30 30 31 31 32 32
REMARK SMILES IDX 33 33 34 34 95 35 35 36 94 37 36 38 37 39 38 40 88 41 39 42
REMARK SMILES IDX 93 43 87 44 89 45 40 46 92 47 86 48 85 49 41 51 73 52 53 53
REMARK SMILES IDX 72 54 54 55 57 56 71 57 90 58 55 59 56 60 70 62 91 63 58 64
REMARK SMILES IDX 42 65 43 66 51 67 44 68 45 69 49 70 52 71 46 72 47 73 50 74
REMARK SMILES IDX 48 75 74 76 75 77 83 78 76 79 77 80 81 81 84 82 78 83 79 84
REMARK SMILES IDX 82 85 80 86 59 87 60 88 68 89 61 90 62 91 66 92 69 93 63 94
REMARK SMILES IDX 64 95 67 96 65 97
REMARK H PARENT 89 50 57 61
REMARK Flexibility Score: inf
ROOT
ATOM      1  C   UNL     1      -1.636   7.093  -0.523  1.00  0.00     0.202 C 
ENDROOT
BRANCH   1   2
ATOM      2  C   UNL     1      -1.331   6.432   0.836  1.00  0.00     0.261 C 
BRANCH   2   3
ATOM      3  O   UNL     1      -1.957   5.174   1.085  1.00  0.00    -0.460 OA
BRANCH   3   4
ATOM      4  C   UNL     1      -2.895   5.130   2.066  1.00  0.00     0.330 C 
ATOM      5  O   UNL     1      -3.249   6.056   2.779  1.00  0.00    -0.247 OA
BRANCH   4   6
ATOM      6  C   UNL     1      -3.648   3.849   1.986  1.00  0.00     0.094 C 
ATOM      7  C   UNL     1      -3.082   2.740   1.477  1.00  0.00     0.018 C 
BRANCH   7   8
ATOM      8  C   UNL     1      -3.770   1.562   0.879  1.00  0.00     0.006 A 
ATOM      9  C   UNL     1      -3.093   0.496   0.213  1.00  0.00     0.050 A 
ATOM     10  C   UNL     1      -3.813  -0.212  -0.757  1.00  0.00     0.034 A 
ATOM     11  C   UNL     1      -5.185  -0.039  -0.863  1.00  0.00     0.112 A 
ATOM     12  C   UNL     1      -5.160   1.622   0.703  1.00  0.00     0.119 A 
ATOM     13  N   UNL     1      -5.881   0.841  -0.133  1.00  0.00    -0.264 NA
BRANCH   9  14
ATOM     14  C   UNL     1      -1.667   0.109   0.573  1.00  0.00     0.254 C 
ATOM     15  O   UNL     1      -1.002   0.954   1.174  1.00  0.00    -0.269 OA
BRANCH  14  16
ATOM     16  N   UNL     1      -1.056  -1.159   0.322  1.00  0.00    -0.335 N 
BRANCH  16  17
ATOM     17  C   UNL     1       0.416  -1.243   0.577  1.00  0.00     0.079 C 
ATOM     18  C   UNL     1       1.233  -0.128  -0.099  1.00  0.00     0.031 C 
ATOM     19  C   UNL     1       0.756  -1.361   2.065  1.00  0.00     0.031 C 
ENDBRANCH  16  17
BRANCH  16  20
ATOM     20  C   UNL     1      -1.709  -2.448  -0.041  1.00  0.00     0.135 C 
BRANCH  20  21
ATOM     21  C   UNL     1      -2.562  -3.158   1.026  1.00  0.00     0.141 C 
BRANCH  21  22
ATOM     22  C   UNL     1      -3.550  -2.188   1.653  1.00  0.00     0.064 C 
ATOM     23  N   UNL     1      -4.370  -1.383   2.174  1.00  0.00    -0.198 NA
ENDBRANCH  21  22
ENDBRANCH  20  21
ENDBRANCH  16  20
ENDBRANCH  14  16
ENDBRANCH   9  14
ENDBRANCH   7   8
ENDBRANCH   4   6
ENDBRANCH   3   4
ENDBRANCH   2   3
ENDBRANCH   1   2
BRANCH   1  24
ATOM     24  O   UNL     1      -2.834   6.905  -1.263  1.00  0.00    -0.376 OA
BRANCH  24  25
ATOM     25  C   UNL     1      -3.542   5.684  -1.207  1.00  0.00     0.188 C 
BRANCH  25  26
ATOM     26  C   UNL     1      -2.879   4.384  -1.697  1.00  0.00     0.188 C 
BRANCH  26  27
ATOM     27  O   UNL     1      -1.485   4.392  -1.869  1.00  0.00    -0.376 OA
BRANCH  27  28
ATOM     28  C   UNL     1      -0.914   4.893  -3.064  1.00  0.00     0.202 C 
BRANCH  28  29
ATOM     29  C   UNL     1      -1.682   5.423  -4.295  1.00  0.00     0.261 C 
BRANCH  29  30
ATOM     30  O   UNL     1      -3.082   5.685  -4.170  1.00  0.00    -0.460 OA
BRANCH  30  31
ATOM     31  C   UNL     1      -3.903   4.794  -4.780  1.00  0.00     0.338 C 
ATOM     32  O   UNL     1      -3.589   3.784  -5.381  1.00  0.00    -0.246 OA
BRANCH  31  33
ATOM     33  C   UNL     1      -5.301   5.147  -4.471  1.00  0.00     0.060 A 
ATOM     34  C   UNL     1      -6.049   4.289  -3.653  1.00  0.00     0.016 A 
ATOM     35  C   UNL     1      -5.884   6.286  -5.027  1.00  0.00     0.016 A 
ATOM     36  C   UNL     1      -7.394   4.562  -3.402  1.00  0.00     0.010 A 
ATOM     37  C   UNL     1      -7.237   6.548  -4.788  1.00  0.00     0.010 A 
ATOM     38  C   UNL     1      -8.005   5.674  -3.997  1.00  0.00    -0.014 A 
BRANCH  38  39
ATOM     39  C   UNL     1      -9.478   5.844  -3.920  1.00  0.00     0.031 A 
ATOM     40  C   UNL     1     -10.317   5.423  -5.095  1.00  0.00     0.074 A 
ATOM     41  C   UNL     1     -10.062   6.362  -2.826  1.00  0.00     0.049 A 
ATOM     42  N   UNL     1     -11.608   5.539  -5.282  1.00  0.00    -0.248 NA
ATOM     43  C   UNL     1      -9.602   4.787  -6.213  1.00  0.00     0.031 C 
ATOM     44  C   UNL     1      -9.366   6.770  -1.608  1.00  0.00     0.029 A 
ATOM     45  N   UNL     1     -11.383   6.644  -2.571  1.00  0.00    -0.354 N 
ATOM     46  C   UNL     1     -11.856   5.004  -6.540  1.00  0.00     0.074 A 
ATOM     47  C   UNL     1     -10.581   4.586  -7.082  1.00  0.00     0.031 C 
ATOM     48  C   UNL     1     -10.265   7.261  -0.736  1.00  0.00     0.029 A 
ATOM     49  C   UNL     1     -11.592   7.237  -1.349  1.00  0.00     0.049 A 
ATOM     50  H   UNL     1     -12.109   6.441  -3.203  1.00  0.00     0.167 HD
ATOM     51  C   UNL     1     -13.041   4.870  -7.181  1.00  0.00     0.037 A 
ATOM     52  C   UNL     1     -12.723   7.727  -0.804  1.00  0.00     0.037 A 
ATOM     53  C   UNL     1     -14.309   5.282  -6.637  1.00  0.00     0.049 A 
ATOM     54  C   UNL     1     -14.018   7.635  -1.575  1.00  0.00     0.074 A 
ATOM     55  C   UNL     1     -15.568   5.158  -7.197  1.00  0.00     0.029 A 
ATOM     56  N   UNL     1     -14.477   5.907  -5.410  1.00  0.00    -0.354 N 
ATOM     57  N   UNL     1     -14.252   7.097  -2.747  1.00  0.00    -0.248 NA
ATOM     58  C   UNL     1     -15.209   8.221  -0.941  1.00  0.00     0.031 C 
ATOM     59  C   UNL     1     -16.490   5.766  -6.341  1.00  0.00     0.029 A 
ATOM     60  C   UNL     1     -15.816   6.206  -5.213  1.00  0.00     0.049 A 
ATOM     61  H   UNL     1     -13.753   6.108  -4.774  1.00  0.00     0.167 HD
ATOM     62  C   UNL     1     -15.616   7.243  -2.972  1.00  0.00     0.074 A 
ATOM     63  C   UNL     1     -16.160   7.911  -1.810  1.00  0.00     0.031 C 
ATOM     64  C   UNL     1     -16.351   6.856  -4.044  1.00  0.00     0.037 A 
BRANCH  51  65
ATOM     65  C   UNL     1     -13.026   4.282  -8.562  1.00  0.00     0.064 A 
ATOM     66  C   UNL     1     -12.754   2.924  -8.786  1.00  0.00     0.173 A 
ATOM     67  C   UNL     1     -13.339   5.080  -9.673  1.00  0.00     0.173 A 
ATOM     68  F   UNL     1     -12.436   2.120  -7.760  1.00  0.00    -0.203 F 
ATOM     69  C   UNL     1     -12.775   2.392 -10.073  1.00  0.00     0.198 A 
ATOM     70  C   UNL     1     -13.391   4.538 -10.954  1.00  0.00     0.198 A 
ATOM     71  F   UNL     1     -13.612   6.384  -9.514  1.00  0.00    -0.203 F 
ATOM     72  F   UNL     1     -12.470   1.102 -10.269  1.00  0.00    -0.200 F 
ATOM     73  C   UNL     1     -13.103   3.197 -11.154  1.00  0.00     0.200 A 
ATOM     74  F   UNL     1     -13.723   5.315 -11.995  1.00  0.00    -0.200 F 
ATOM     75  F   UNL     1     -13.137   2.681 -12.390  1.00  0.00    -0.200 F 
ENDBRANCH  51  65
BRANCH  52  76
ATOM     76  C   UNL     1     -12.694   8.366   0.540  1.00  0.00     0.064 A 
ATOM     77  C   UNL     1     -13.370   7.793   1.627  1.00  0.00     0.173 A 
ATOM     78  C   UNL     1     -12.034   9.585   0.754  1.00  0.00     0.173 A 
ATOM     79  F   UNL     1     -14.043   6.644   1.467  1.00  0.00    -0.203 F 
ATOM     80  C   UNL     1     -13.410   8.429   2.867  1.00  0.00     0.198 A 
ATOM     81  C   UNL     1     -12.047  10.203   2.003  1.00  0.00     0.198 A 
ATOM     82  F   UNL     1     -11.379  10.181  -0.254  1.00  0.00    -0.203 F 
ATOM     83  F   UNL     1     -14.119   7.892   3.869  1.00  0.00    -0.200 F 
ATOM     84  C   UNL     1     -12.745   9.631   3.055  1.00  0.00     0.200 A 
ATOM     85  F   UNL     1     -11.396  11.361   2.182  1.00  0.00    -0.200 F 
ATOM     86  F   UNL     1     -12.790  10.245   4.245  1.00  0.00    -0.200 F 
ENDBRANCH  52  76
BRANCH  64  87
ATOM     87  C   UNL     1     -17.835   7.093  -3.993  1.00  0.00     0.064 A 
ATOM     88  C   UNL     1     -18.385   8.381  -4.072  1.00  0.00     0.173 A 
ATOM     89  C   UNL     1     -18.721   6.008  -3.908  1.00  0.00     0.173 A 
ATOM     90  F   UNL     1     -17.583   9.455  -4.142  1.00  0.00    -0.203 F 
ATOM     91  C   UNL     1     -19.764   8.575  -4.038  1.00  0.00     0.198 A 
ATOM     92  C   UNL     1     -20.100   6.203  -3.910  1.00  0.00     0.198 A 
ATOM     93  F   UNL     1     -18.251   4.753  -3.840  1.00  0.00    -0.203 F 
ATOM     94  F   UNL     1     -20.264   9.818  -4.062  1.00  0.00    -0.200 F 
ATOM     95  C   UNL     1     -20.620   7.486  -3.966  1.00  0.00     0.200 A 
ATOM     96  F   UNL     1     -20.925   5.147  -3.860  1.00  0.00    -0.200 F 
ATOM     97  F   UNL     1     -21.947   7.675  -3.944  1.00  0.00    -0.200 F 
ENDBRANCH  64  87
ENDBRANCH  38  39
ENDBRANCH  31  33
ENDBRANCH  30  31
ENDBRANCH  29  30
ENDBRANCH  28  29
ENDBRANCH  27  28
ENDBRANCH  26  27
ENDBRANCH  25  26
ENDBRANCH  24  25
ENDBRANCH   1  24
TORSDOF 24
