REMARK SMILES CSCc1ccc(C(=O)Nc2cc(C)c(C(=O)OCCOCCOCCOC(=O)c3ccc(-c4c5nc(c(-c6c(F)c(F)c(F)c(F)c6F)c6ccc([nH]6)c(-c6c(F)c(F)c(F)c(F)c6F)c6nc(c(-c7c(F)c(F)c(F)c(F)c7F)c7ccc4[nH]7)C=C6)C=C5)cc3)s2)cc1
REMARK SMILES IDX 22 1 21 2 20 3 19 4 18 5 16 6 17 7 15 8 11 9 12 10 93 11
REMARK SMILES IDX 13 12 14 13 10 14 8 15 9 16 7 18 4 19 5 20 95 21 6 22 94 23
REMARK SMILES IDX 3 24 2 25 1 26 23 27 24 28 25 29 26 30 27 31 28 32 29 33
REMARK SMILES IDX 30 34 31 35 92 36 32 37 91 38 33 39 34 40 35 41 85 42 36 43
REMARK SMILES IDX 90 44 84 45 86 46 37 47 89 48 83 49 82 50 38 52 70 53 50 54
REMARK SMILES IDX 69 55 51 56 54 57 68 58 87 59 52 60 53 61 67 63 88 64 55 65
REMARK SMILES IDX 39 66 40 67 48 68 41 69 42 70 46 71 49 72 43 73 44 74 47 75
REMARK SMILES IDX 45 76 71 77 72 78 80 79 73 80 74 81 78 82 81 83 75 84 76 85
REMARK SMILES IDX 79 86 77 87 56 88 57 89 65 90 58 91 59 92 63 93 66 94 60 95
REMARK SMILES IDX 61 96 64 97 62 98
REMARK H PARENT 10 17 86 51 54 62
REMARK Flexibility Score: inf
ROOT
ATOM      1  C   UNL     1       2.866  -2.757  -0.452  1.00  0.00     0.188 C 
ENDROOT
BRANCH   1   2
ATOM      2  O   UNL     1       3.892  -2.947  -1.416  1.00  0.00    -0.376 OA
BRANCH   2   3
ATOM      3  C   UNL     1       3.913  -4.161  -2.162  1.00  0.00     0.202 C 
BRANCH   3   4
ATOM      4  C   UNL     1       3.992  -5.475  -1.377  1.00  0.00     0.261 C 
BRANCH   4   5
ATOM      5  O   UNL     1       2.881  -5.657  -0.480  1.00  0.00    -0.459 OA
BRANCH   5   6
ATOM      6  C   UNL     1       3.201  -5.856   0.833  1.00  0.00     0.348 C 
ATOM      7  O   UNL     1       4.346  -6.008   1.246  1.00  0.00    -0.245 OA
BRANCH   6   8
ATOM      8  C   UNL     1       2.018  -5.737   1.673  1.00  0.00     0.117 A 
ATOM      9  C   UNL     1       0.607  -5.213   3.623  1.00  0.00     0.096 A 
ATOM     10  C   UNL     1      -0.087  -5.896   2.661  1.00  0.00     0.042 A 
ATOM     11  S   UNL     1       2.230  -4.980   3.215  1.00  0.00    -0.111 S 
ATOM     12  C   UNL     1       0.685  -6.088   1.462  1.00  0.00    -0.023 A 
ATOM     13  C   UNL     1       0.089  -6.657   0.214  1.00  0.00     0.046 C 
BRANCH   9  14
ATOM     14  N   UNL     1       0.183  -4.864   4.876  1.00  0.00    -0.314 N 
ATOM     15  C   UNL     1       0.239  -3.636   5.500  1.00  0.00     0.256 C 
ATOM     16  O   UNL     1       0.212  -3.621   6.734  1.00  0.00    -0.269 OA
ATOM     17  H   UNL     1      -0.218  -5.591   5.406  1.00  0.00     0.171 HD
BRANCH  15  18
ATOM     18  C   UNL     1       0.107  -2.329   4.763  1.00  0.00     0.040 A 
ATOM     19  C   UNL     1      -0.533   0.190   3.581  1.00  0.00    -0.038 A 
ATOM     20  C   UNL     1      -0.333   0.073   4.962  1.00  0.00     0.005 A 
ATOM     21  C   UNL     1      -0.344  -0.955   2.801  1.00  0.00     0.005 A 
ATOM     22  C   UNL     1      -0.017  -1.165   5.541  1.00  0.00     0.014 A 
ATOM     23  C   UNL     1      -0.056  -2.197   3.383  1.00  0.00     0.014 A 
BRANCH  19  24
ATOM     24  C   UNL     1      -0.894   1.527   2.979  1.00  0.00     0.104 C 
BRANCH  24  25
ATOM     25  S   UNL     1      -2.406   1.548   1.964  1.00  0.00    -0.161 SA
ATOM     26  C   UNL     1      -1.747   1.015   0.362  1.00  0.00     0.085 C 
ENDBRANCH  24  25
ENDBRANCH  19  24
ENDBRANCH  15  18
ENDBRANCH   9  14
ENDBRANCH   6   8
ENDBRANCH   5   6
ENDBRANCH   4   5
ENDBRANCH   3   4
ENDBRANCH   2   3
ENDBRANCH   1   2
BRANCH   1  27
ATOM     27  C   UNL     1       1.389  -2.887  -0.882  1.00  0.00     0.188 C 
BRANCH  27  28
ATOM     28  O   UNL     1       1.214  -3.275  -2.235  1.00  0.00    -0.376 OA
BRANCH  28  29
ATOM     29  C   UNL     1       0.648  -2.299  -3.103  1.00  0.00     0.202 C 
BRANCH  29  30
ATOM     30  C   UNL     1       1.454  -1.008  -3.308  1.00  0.00     0.261 C 
BRANCH  30  31
ATOM     31  O   UNL     1       1.717  -0.347  -2.057  1.00  0.00    -0.460 OA
BRANCH  31  32
ATOM     32  C   UNL     1       1.799   1.002  -2.079  1.00  0.00     0.338 C 
ATOM     33  O   UNL     1       1.548   1.726  -3.027  1.00  0.00    -0.246 OA
BRANCH  32  34
ATOM     34  C   UNL     1       2.253   1.512  -0.755  1.00  0.00     0.060 A 
ATOM     35  C   UNL     1       2.085   0.774   0.420  1.00  0.00     0.016 A 
ATOM     36  C   UNL     1       2.796   2.797  -0.670  1.00  0.00     0.016 A 
ATOM     37  C   UNL     1       2.400   1.324   1.662  1.00  0.00     0.010 A 
ATOM     38  C   UNL     1       3.113   3.352   0.579  1.00  0.00     0.010 A 
ATOM     39  C   UNL     1       2.860   2.641   1.763  1.00  0.00    -0.014 A 
BRANCH  39  40
ATOM     40  C   UNL     1       2.878   3.313   3.095  1.00  0.00     0.031 A 
ATOM     41  C   UNL     1       1.910   4.441   3.368  1.00  0.00     0.074 A 
ATOM     42  C   UNL     1       3.641   2.858   4.108  1.00  0.00     0.049 A 
ATOM     43  N   UNL     1       1.800   5.207   4.426  1.00  0.00    -0.248 NA
ATOM     44  C   UNL     1       0.913   4.725   2.322  1.00  0.00     0.031 C 
ATOM     45  C   UNL     1       4.529   1.698   4.046  1.00  0.00     0.029 A 
ATOM     46  N   UNL     1       3.771   3.309   5.400  1.00  0.00    -0.354 N 
ATOM     47  C   UNL     1       0.746   6.073   4.162  1.00  0.00     0.074 A 
ATOM     48  C   UNL     1       0.246   5.743   2.845  1.00  0.00     0.031 C 
ATOM     49  C   UNL     1       5.088   1.511   5.253  1.00  0.00     0.029 A 
ATOM     50  C   UNL     1       4.665   2.584   6.150  1.00  0.00     0.049 A 
ATOM     51  H   UNL     1       3.270   4.079   5.755  1.00  0.00     0.167 HD
ATOM     52  C   UNL     1       0.235   7.055   4.942  1.00  0.00     0.037 A 
ATOM     53  C   UNL     1       5.130   2.786   7.399  1.00  0.00     0.037 A 
ATOM     54  C   UNL     1       0.711   7.391   6.257  1.00  0.00     0.049 A 
ATOM     55  C   UNL     1       4.655   3.978   8.188  1.00  0.00     0.074 A 
ATOM     56  C   UNL     1       0.283   8.404   7.098  1.00  0.00     0.029 A 
ATOM     57  N   UNL     1       1.716   6.714   6.928  1.00  0.00    -0.354 N 
ATOM     58  N   UNL     1       3.728   4.855   7.890  1.00  0.00    -0.248 NA
ATOM     59  C   UNL     1       5.318   4.223   9.478  1.00  0.00     0.031 C 
ATOM     60  C   UNL     1       1.058   8.366   8.262  1.00  0.00     0.029 A 
ATOM     61  C   UNL     1       1.938   7.301   8.163  1.00  0.00     0.049 A 
ATOM     62  H   UNL     1       2.201   5.931   6.578  1.00  0.00     0.167 HD
ATOM     63  C   UNL     1       3.690   5.746   8.955  1.00  0.00     0.074 A 
ATOM     64  C   UNL     1       4.668   5.291   9.919  1.00  0.00     0.031 C 
ATOM     65  C   UNL     1       2.918   6.849   9.115  1.00  0.00     0.037 A 
BRANCH  52  66
ATOM     66  C   UNL     1      -0.879   7.879   4.371  1.00  0.00     0.064 A 
ATOM     67  C   UNL     1      -2.191   7.392   4.293  1.00  0.00     0.173 A 
ATOM     68  C   UNL     1      -0.634   9.190   3.935  1.00  0.00     0.173 A 
ATOM     69  F   UNL     1      -2.469   6.138   4.679  1.00  0.00    -0.203 F 
ATOM     70  C   UNL     1      -3.218   8.186   3.788  1.00  0.00     0.198 A 
ATOM     71  C   UNL     1      -1.666   9.988   3.452  1.00  0.00     0.198 A 
ATOM     72  F   UNL     1       0.606   9.699   3.989  1.00  0.00    -0.203 F 
ATOM     73  F   UNL     1      -4.460   7.693   3.693  1.00  0.00    -0.200 F 
ATOM     74  C   UNL     1      -2.956   9.485   3.376  1.00  0.00     0.200 A 
ATOM     75  F   UNL     1      -1.412  11.245   3.061  1.00  0.00    -0.200 F 
ATOM     76  F   UNL     1      -3.947  10.251   2.898  1.00  0.00    -0.200 F 
ENDBRANCH  52  66
BRANCH  53  77
ATOM     77  C   UNL     1       6.163   1.879   7.966  1.00  0.00     0.064 A 
ATOM     78  C   UNL     1       5.891   1.075   9.082  1.00  0.00     0.173 A 
ATOM     79  C   UNL     1       7.459   1.833   7.430  1.00  0.00     0.173 A 
ATOM     80  F   UNL     1       4.680   1.115   9.657  1.00  0.00    -0.203 F 
ATOM     81  C   UNL     1       6.879   0.269   9.645  1.00  0.00     0.198 A 
ATOM     82  C   UNL     1       8.435   1.003   7.973  1.00  0.00     0.198 A 
ATOM     83  F   UNL     1       7.776   2.597   6.374  1.00  0.00    -0.203 F 
ATOM     84  F   UNL     1       6.610  -0.448  10.744  1.00  0.00    -0.200 F 
ATOM     85  C   UNL     1       8.148   0.227   9.085  1.00  0.00     0.200 A 
ATOM     86  F   UNL     1       9.657   0.964   7.424  1.00  0.00    -0.200 F 
ATOM     87  F   UNL     1       9.098  -0.547   9.627  1.00  0.00    -0.200 F 
ENDBRANCH  53  77
BRANCH  65  88
ATOM     88  C   UNL     1       3.091   7.633  10.383  1.00  0.00     0.064 A 
ATOM     89  C   UNL     1       4.231   8.418  10.608  1.00  0.00     0.173 A 
ATOM     90  C   UNL     1       2.098   7.617  11.374  1.00  0.00     0.173 A 
ATOM     91  F   UNL     1       5.215   8.455   9.696  1.00  0.00    -0.203 F 
ATOM     92  C   UNL     1       4.385   9.134  11.792  1.00  0.00     0.198 A 
ATOM     93  C   UNL     1       2.243   8.356  12.545  1.00  0.00     0.198 A 
ATOM     94  F   UNL     1       0.985   6.889  11.205  1.00  0.00    -0.203 F 
ATOM     95  F   UNL     1       5.506   9.838  12.007  1.00  0.00    -0.200 F 
ATOM     96  C   UNL     1       3.390   9.107  12.757  1.00  0.00     0.200 A 
ATOM     97  F   UNL     1       1.275   8.338  13.472  1.00  0.00    -0.200 F 
ATOM     98  F   UNL     1       3.540   9.797  13.896  1.00  0.00    -0.200 F 
ENDBRANCH  65  88
ENDBRANCH  39  40
ENDBRANCH  32  34
ENDBRANCH  31  32
ENDBRANCH  30  31
ENDBRANCH  29  30
ENDBRANCH  28  29
ENDBRANCH  27  28
ENDBRANCH   1  27
TORSDOF 21
