REMARK SMILES CCOc1ccc(NC(=O)N2CC[C@@H](C(=O)OCCOCCOCCOC(=O)c3ccc(-c4c5nc(c(-c6c(F)c(F)c(F)c(F)c6F)c6ccc([nH]6)c(-c6c(F)c(F)c(F)c(F)c6F)c6nc(c(-c7c(F)c(F)c(F)c(F)c7F)c7ccc4[nH]7)C=C6)C=C5)cc3)[C@@H]2C)cc1
REMARK SMILES IDX 21 1 20 2 19 3 18 4 17 5 15 6 16 7 14 8 11 9 12 10 92 11
REMARK SMILES IDX 13 12 93 13 9 14 8 15 10 17 7 18 4 19 5 20 95 21 6 22 94 23
REMARK SMILES IDX 3 24 2 25 1 26 22 27 23 28 24 29 25 30 26 31 27 32 28 33
REMARK SMILES IDX 29 34 30 35 91 36 31 37 90 38 32 39 33 40 34 41 84 42 35 43
REMARK SMILES IDX 89 44 83 45 85 46 36 47 88 48 82 49 81 50 37 52 69 53 49 54
REMARK SMILES IDX 68 55 50 56 53 57 67 58 86 59 51 60 52 61 66 63 87 64 54 65
REMARK SMILES IDX 38 66 39 67 47 68 40 69 41 70 45 71 48 72 42 73 43 74 46 75
REMARK SMILES IDX 44 76 70 77 71 78 79 79 72 80 73 81 77 82 80 83 74 84 75 85
REMARK SMILES IDX 78 86 76 87 55 88 56 89 64 90 57 91 58 92 62 93 65 94 59 95
REMARK SMILES IDX 60 96 63 97 61 98
REMARK H PARENT 8 16 85 51 53 62
REMARK Flexibility Score: inf
ROOT
ATOM      1  C   UNL     1       1.219   6.897   0.568  1.00  0.00     0.188 C 
ENDROOT
BRANCH   1   2
ATOM      2  O   UNL     1       0.137   6.730  -0.330  1.00  0.00    -0.376 OA
BRANCH   2   3
ATOM      3  C   UNL     1       0.397   5.981  -1.518  1.00  0.00     0.202 C 
BRANCH   3   4
ATOM      4  C   UNL     1       1.420   6.589  -2.479  1.00  0.00     0.261 C 
BRANCH   4   5
ATOM      5  O   UNL     1       2.767   6.471  -1.969  1.00  0.00    -0.463 OA
BRANCH   5   6
ATOM      6  C   UNL     1       3.454   7.630  -1.822  1.00  0.00     0.311 C 
ATOM      7  O   UNL     1       3.011   8.741  -2.098  1.00  0.00    -0.252 OA
BRANCH   6   8
ATOM      8  C   UNL     1       4.858   7.463  -1.282  1.00  0.00     0.123 C 
ATOM      9  N   UNL     1       6.365   5.648  -1.605  1.00  0.00    -0.321 N 
ATOM     10  C   UNL     1       6.976   6.802  -2.225  1.00  0.00     0.122 C 
ATOM     11  C   UNL     1       5.279   6.087  -0.716  1.00  0.00     0.098 C 
ATOM     12  C   UNL     1       5.823   7.751  -2.438  1.00  0.00     0.039 C 
ATOM     13  C   UNL     1       5.813   6.240   0.720  1.00  0.00     0.032 C 
BRANCH   9  14
ATOM     14  C   UNL     1       7.058   4.475  -1.608  1.00  0.00     0.322 C 
ATOM     15  N   UNL     1       6.493   3.292  -1.289  1.00  0.00    -0.308 N 
ATOM     16  H   UNL     1       7.136   2.657  -0.897  1.00  0.00     0.171 HD
ATOM     17  O   UNL     1       8.268   4.460  -1.861  1.00  0.00    -0.248 OA
BRANCH  15  18
ATOM     18  C   UNL     1       5.200   2.760  -1.390  1.00  0.00     0.043 A 
ATOM     19  C   UNL     1       2.658   1.574  -1.388  1.00  0.00     0.119 A 
ATOM     20  C   UNL     1       2.864   2.792  -2.028  1.00  0.00     0.048 A 
ATOM     21  C   UNL     1       3.743   0.891  -0.849  1.00  0.00     0.048 A 
ATOM     22  C   UNL     1       4.138   3.372  -2.050  1.00  0.00     0.030 A 
ATOM     23  C   UNL     1       5.005   1.486  -0.845  1.00  0.00     0.030 A 
BRANCH  19  24
ATOM     24  O   UNL     1       1.387   1.072  -1.390  1.00  0.00    -0.494 OA
BRANCH  24  25
ATOM     25  C   UNL     1       0.944   0.601  -0.111  1.00  0.00     0.226 C 
ATOM     26  C   UNL     1       0.859  -0.914  -0.099  1.00  0.00     0.049 C 
ENDBRANCH  24  25
ENDBRANCH  19  24
ENDBRANCH  15  18
ENDBRANCH   9  14
ENDBRANCH   6   8
ENDBRANCH   5   6
ENDBRANCH   4   5
ENDBRANCH   3   4
ENDBRANCH   2   3
ENDBRANCH   1   2
BRANCH   1  27
ATOM     27  C   UNL     1       1.756   5.656   1.283  1.00  0.00     0.188 C 
BRANCH  27  28
ATOM     28  O   UNL     1       1.345   4.379   0.823  1.00  0.00    -0.376 OA
BRANCH  28  29
ATOM     29  C   UNL     1       0.073   3.957   1.324  1.00  0.00     0.202 C 
BRANCH  29  30
ATOM     30  C   UNL     1       0.193   3.168   2.635  1.00  0.00     0.261 C 
BRANCH  30  31
ATOM     31  O   UNL     1       0.521   4.056   3.718  1.00  0.00    -0.460 OA
BRANCH  31  32
ATOM     32  C   UNL     1       1.829   4.067   4.089  1.00  0.00     0.338 C 
ATOM     33  O   UNL     1       2.687   3.264   3.797  1.00  0.00    -0.246 OA
BRANCH  32  34
ATOM     34  C   UNL     1       2.115   5.382   4.717  1.00  0.00     0.060 A 
ATOM     35  C   UNL     1       3.345   5.988   4.417  1.00  0.00     0.016 A 
ATOM     36  C   UNL     1       1.177   6.046   5.513  1.00  0.00     0.016 A 
ATOM     37  C   UNL     1       3.671   7.222   4.973  1.00  0.00     0.010 A 
ATOM     38  C   UNL     1       1.504   7.281   6.076  1.00  0.00     0.010 A 
ATOM     39  C   UNL     1       2.775   7.841   5.854  1.00  0.00    -0.014 A 
BRANCH  39  40
ATOM     40  C   UNL     1       3.282   8.892   6.765  1.00  0.00     0.031 A 
ATOM     41  C   UNL     1       3.700   8.462   8.146  1.00  0.00     0.074 A 
ATOM     42  C   UNL     1       3.415  10.169   6.373  1.00  0.00     0.049 A 
ATOM     43  N   UNL     1       4.165   9.171   9.141  1.00  0.00    -0.248 NA
ATOM     44  C   UNL     1       3.566   7.026   8.445  1.00  0.00     0.031 C 
ATOM     45  C   UNL     1       3.089  10.688   5.047  1.00  0.00     0.029 A 
ATOM     46  N   UNL     1       3.871  11.264   7.063  1.00  0.00    -0.354 N 
ATOM     47  C   UNL     1       4.357   8.272  10.183  1.00  0.00     0.074 A 
ATOM     48  C   UNL     1       3.926   6.975   9.716  1.00  0.00     0.031 C 
ATOM     49  C   UNL     1       3.364  12.004   5.016  1.00  0.00     0.029 A 
ATOM     50  C   UNL     1       3.854  12.423   6.328  1.00  0.00     0.049 A 
ATOM     51  H   UNL     1       4.180  11.222   7.996  1.00  0.00     0.167 HD
ATOM     52  C   UNL     1       4.859   8.505  11.418  1.00  0.00     0.037 A 
ATOM     53  C   UNL     1       4.193  13.676   6.688  1.00  0.00     0.037 A 
ATOM     54  C   UNL     1       5.294   9.799  11.869  1.00  0.00     0.049 A 
ATOM     55  C   UNL     1       4.698  13.922   8.089  1.00  0.00     0.074 A 
ATOM     56  C   UNL     1       5.833  10.152  13.092  1.00  0.00     0.029 A 
ATOM     57  N   UNL     1       5.229  10.958  11.108  1.00  0.00    -0.354 N 
ATOM     58  N   UNL     1       4.896  13.067   9.065  1.00  0.00    -0.248 NA
ATOM     59  C   UNL     1       5.037  15.309   8.432  1.00  0.00     0.031 C 
ATOM     60  C   UNL     1       6.038  11.537  13.092  1.00  0.00     0.029 A 
ATOM     61  C   UNL     1       5.697  12.034  11.844  1.00  0.00     0.049 A 
ATOM     62  H   UNL     1       4.900  11.008  10.181  1.00  0.00     0.167 HD
ATOM     63  C   UNL     1       5.421  13.804  10.120  1.00  0.00     0.074 A 
ATOM     64  C   UNL     1       5.520  15.173   9.658  1.00  0.00     0.031 C 
ATOM     65  C   UNL     1       5.796  13.387  11.357  1.00  0.00     0.037 A 
BRANCH  52  66
ATOM     66  C   UNL     1       4.910   7.344  12.371  1.00  0.00     0.064 A 
ATOM     67  C   UNL     1       5.769   6.251  12.173  1.00  0.00     0.173 A 
ATOM     68  C   UNL     1       4.069   7.318  13.493  1.00  0.00     0.173 A 
ATOM     69  F   UNL     1       6.578   6.213  11.103  1.00  0.00    -0.203 F 
ATOM     70  C   UNL     1       5.753   5.160  13.038  1.00  0.00     0.198 A 
ATOM     71  C   UNL     1       4.082   6.242  14.377  1.00  0.00     0.198 A 
ATOM     72  F   UNL     1       3.225   8.334  13.731  1.00  0.00    -0.203 F 
ATOM     73  F   UNL     1       6.529   4.096  12.787  1.00  0.00    -0.200 F 
ATOM     74  C   UNL     1       4.914   5.159  14.142  1.00  0.00     0.200 A 
ATOM     75  F   UNL     1       3.278   6.249  15.449  1.00  0.00    -0.200 F 
ATOM     76  F   UNL     1       4.897   4.107  14.973  1.00  0.00    -0.200 F 
ENDBRANCH  52  66
BRANCH  53  77
ATOM     77  C   UNL     1       4.090  14.791   5.709  1.00  0.00     0.064 A 
ATOM     78  C   UNL     1       5.237  15.441   5.232  1.00  0.00     0.173 A 
ATOM     79  C   UNL     1       2.846  15.245   5.245  1.00  0.00     0.173 A 
ATOM     80  F   UNL     1       6.449  15.063   5.665  1.00  0.00    -0.203 F 
ATOM     81  C   UNL     1       5.145  16.512   4.345  1.00  0.00     0.198 A 
ATOM     82  C   UNL     1       2.756  16.297   4.334  1.00  0.00     0.198 A 
ATOM     83  F   UNL     1       1.717  14.662   5.672  1.00  0.00    -0.203 F 
ATOM     84  F   UNL     1       6.256  17.146   3.945  1.00  0.00    -0.200 F 
ATOM     85  C   UNL     1       3.905  16.935   3.891  1.00  0.00     0.200 A 
ATOM     86  F   UNL     1       1.556  16.695   3.891  1.00  0.00    -0.200 F 
ATOM     87  F   UNL     1       3.816  17.962   3.036  1.00  0.00    -0.200 F 
ENDBRANCH  53  77
BRANCH  65  88
ATOM     88  C   UNL     1       6.410  14.412  12.270  1.00  0.00     0.064 A 
ATOM     89  C   UNL     1       5.664  15.468  12.815  1.00  0.00     0.173 A 
ATOM     90  C   UNL     1       7.768  14.323  12.615  1.00  0.00     0.173 A 
ATOM     91  F   UNL     1       4.364  15.604  12.511  1.00  0.00    -0.203 F 
ATOM     92  C   UNL     1       6.266  16.422  13.631  1.00  0.00     0.198 A 
ATOM     93  C   UNL     1       8.356  15.256  13.463  1.00  0.00     0.198 A 
ATOM     94  F   UNL     1       8.525  13.326  12.133  1.00  0.00    -0.203 F 
ATOM     95  F   UNL     1       5.550  17.462  14.082  1.00  0.00    -0.200 F 
ATOM     96  C   UNL     1       7.609  16.313  13.959  1.00  0.00     0.200 A 
ATOM     97  F   UNL     1       9.649  15.136  13.795  1.00  0.00    -0.200 F 
ATOM     98  F   UNL     1       8.186  17.233  14.744  1.00  0.00    -0.200 F 
ENDBRANCH  65  88
ENDBRANCH  39  40
ENDBRANCH  32  34
ENDBRANCH  31  32
ENDBRANCH  30  31
ENDBRANCH  29  30
ENDBRANCH  28  29
ENDBRANCH  27  28
ENDBRANCH   1  27
TORSDOF 21
