REMARK SMILES O=C(Cn1c(-c2nc(-c3ccc(C(F)(F)F)cc3)no2)cc2ccccc21)OCCOCCOCCOC(=O)c1ccc(-c2c3nc(c(-c4c(F)c(F)c(F)c(F)c4F)c4ccc([nH]4)c(-c4c(F)c(F)c(F)c(F)c4F)c4nc(c(-c5c(F)c(F)c(F)c(F)c5F)c5ccc2[nH]5)C=C4)C=C3)cc1
REMARK SMILES IDX 32 1 31 2 30 3 29 4 28 5 2 6 1 7 3 8 4 9 5 10 27 11 21 12
REMARK SMILES IDX 22 13 26 14 23 15 25 16 24 17 6 18 7 19 20 20 8 21 19 22
REMARK SMILES IDX 9 23 10 24 18 25 11 26 17 27 12 28 13 29 14 30 15 31 16 32
REMARK SMILES IDX 33 33 34 34 35 35 36 36 37 37 38 38 39 39 40 40 41 41 102 42
REMARK SMILES IDX 42 43 101 44 43 45 44 46 45 47 95 48 46 49 100 50 94 51
REMARK SMILES IDX 96 52 47 53 99 54 93 55 92 56 48 58 80 59 60 60 79 61 61 62
REMARK SMILES IDX 64 63 78 64 97 65 62 66 63 67 77 69 98 70 65 71 49 72 50 73
REMARK SMILES IDX 58 74 51 75 52 76 56 77 59 78 53 79 54 80 57 81 55 82 81 83
REMARK SMILES IDX 82 84 90 85 83 86 84 87 88 88 91 89 85 90 86 91 89 92 87 93
REMARK SMILES IDX 66 94 67 95 75 96 68 97 69 98 73 99 76 100 70 101 71 102
REMARK SMILES IDX 74 103 72 104
REMARK H PARENT 96 57 64 68
REMARK Flexibility Score: inf
ROOT
ATOM      1  C   UNL     1       3.149  -2.271   0.707  1.00  0.00     0.188 C 
ENDROOT
BRANCH   1   2
ATOM      2  O   UNL     1       4.494  -2.134   0.231  1.00  0.00    -0.376 OA
BRANCH   2   3
ATOM      3  C   UNL     1       5.392  -1.193   0.837  1.00  0.00     0.202 C 
BRANCH   3   4
ATOM      4  C   UNL     1       4.936   0.113   1.528  1.00  0.00     0.261 C 
BRANCH   4   5
ATOM      5  O   UNL     1       3.554   0.398   1.709  1.00  0.00    -0.462 OA
BRANCH   5   6
ATOM      6  C   UNL     1       2.668   0.140   0.743  1.00  0.00     0.326 C 
ATOM      7  O   UNL     1       1.497  -0.127   1.028  1.00  0.00    -0.250 OA
BRANCH   6   8
ATOM      8  C   UNL     1       3.155   0.106  -0.687  1.00  0.00     0.245 C 
BRANCH   8   9
ATOM      9  N   UNL     1       3.526   1.393  -1.097  1.00  0.00    -0.325 N 
ATOM     10  C   UNL     1       2.728   2.364  -0.512  1.00  0.00     0.109 A 
ATOM     11  C   UNL     1       4.846   1.661  -1.421  1.00  0.00     0.049 A 
ATOM     12  C   UNL     1       3.818   3.285  -0.230  1.00  0.00     0.042 A 
ATOM     13  C   UNL     1       5.095   2.904  -0.886  1.00  0.00     0.000 A 
ATOM     14  C   UNL     1       5.877   0.839  -1.959  1.00  0.00     0.027 A 
ATOM     15  C   UNL     1       6.436   3.401  -1.004  1.00  0.00     0.010 A 
ATOM     16  C   UNL     1       7.203   1.283  -1.926  1.00  0.00     0.002 A 
ATOM     17  C   UNL     1       7.479   2.567  -1.485  1.00  0.00     0.001 A 
BRANCH  10  18
ATOM     18  C   UNL     1       0.994   2.091  -0.309  1.00  0.00     0.274 A 
ATOM     19  N   UNL     1       0.125   1.668  -1.287  1.00  0.00    -0.185 NA
ATOM     20  O   UNL     1       0.120   2.597   0.662  1.00  0.00    -0.332 OA
ATOM     21  C   UNL     1      -1.116   2.446  -1.294  1.00  0.00     0.202 A 
ATOM     22  N   UNL     1      -1.248   2.646   0.075  1.00  0.00    -0.057 NA
BRANCH  21  23
ATOM     23  C   UNL     1      -2.175   3.413  -2.517  1.00  0.00     0.023 A 
ATOM     24  C   UNL     1      -3.592   3.246  -1.435  1.00  0.00     0.013 A 
ATOM     25  C   UNL     1      -2.847   4.497  -4.187  1.00  0.00     0.013 A 
ATOM     26  C   UNL     1      -5.008   4.005  -1.821  1.00  0.00     0.014 A 
ATOM     27  C   UNL     1      -4.351   5.119  -4.310  1.00  0.00     0.014 A 
ATOM     28  C   UNL     1      -5.316   4.905  -3.150  1.00  0.00     0.056 A 
BRANCH  28  29
ATOM     29  C   UNL     1      -6.580   5.744  -3.272  1.00  0.00     0.416 C 
ATOM     30  F   UNL     1      -7.511   5.471  -2.328  1.00  0.00    -0.166 F 
ATOM     31  F   UNL     1      -6.296   7.072  -3.162  1.00  0.00    -0.166 F 
ATOM     32  F   UNL     1      -7.183   5.594  -4.482  1.00  0.00    -0.166 F 
ENDBRANCH  28  29
ENDBRANCH  21  23
ENDBRANCH  10  18
ENDBRANCH   8   9
ENDBRANCH   6   8
ENDBRANCH   5   6
ENDBRANCH   4   5
ENDBRANCH   3   4
ENDBRANCH   2   3
ENDBRANCH   1   2
BRANCH   1  33
ATOM     33  C   UNL     1       2.306  -3.508   0.927  1.00  0.00     0.188 C 
BRANCH  33  34
ATOM     34  O   UNL     1       2.981  -4.409   1.756  1.00  0.00    -0.376 OA
BRANCH  34  35
ATOM     35  C   UNL     1       4.311  -4.574   1.263  1.00  0.00     0.202 C 
BRANCH  35  36
ATOM     36  C   UNL     1       4.434  -4.880  -0.306  1.00  0.00     0.261 C 
BRANCH  36  37
ATOM     37  O   UNL     1       3.928  -3.870  -1.348  1.00  0.00    -0.460 OA
BRANCH  37  38
ATOM     38  C   UNL     1       2.816  -3.993  -2.165  1.00  0.00     0.338 C 
ATOM     39  O   UNL     1       2.167  -5.024  -2.260  1.00  0.00    -0.246 OA
BRANCH  38  40
ATOM     40  C   UNL     1       2.284  -2.601  -2.688  1.00  0.00     0.060 A 
ATOM     41  C   UNL     1       2.947  -1.718  -3.564  1.00  0.00     0.016 A 
ATOM     42  C   UNL     1       1.057  -2.101  -2.233  1.00  0.00     0.016 A 
ATOM     43  C   UNL     1       2.551  -0.296  -3.769  1.00  0.00     0.010 A 
ATOM     44  C   UNL     1       0.687  -0.693  -2.407  1.00  0.00     0.010 A 
ATOM     45  C   UNL     1       1.513   0.355  -3.045  1.00  0.00    -0.014 A 
BRANCH  45  46
ATOM     46  C   UNL     1       0.989   2.059  -3.268  1.00  0.00     0.031 A 
ATOM     47  C   UNL     1       0.211   1.413  -4.645  1.00  0.00     0.074 A 
ATOM     48  C   UNL     1       0.901   3.491  -2.416  1.00  0.00     0.049 A 
ATOM     49  N   UNL     1       0.691   1.483  -5.861  1.00  0.00    -0.248 NA
ATOM     50  C   UNL     1      -0.792   0.243  -4.672  1.00  0.00     0.031 C 
ATOM     51  C   UNL     1       1.354   4.411  -1.075  1.00  0.00     0.029 A 
ATOM     52  N   UNL     1      -0.143   4.454  -2.271  1.00  0.00    -0.354 N 
ATOM     53  C   UNL     1      -0.254   0.923  -6.740  1.00  0.00     0.074 A 
ATOM     54  C   UNL     1      -0.897  -0.086  -5.971  1.00  0.00     0.031 C 
ATOM     55  C   UNL     1       0.410   5.121  -0.340  1.00  0.00     0.029 A 
ATOM     56  C   UNL     1      -0.789   5.091  -1.083  1.00  0.00     0.049 A 
ATOM     57  H   UNL     1      -0.513   4.762  -3.130  1.00  0.00     0.167 HD
ATOM     58  C   UNL     1      -0.699   1.659  -7.817  1.00  0.00     0.037 A 
ATOM     59  C   UNL     1      -2.177   5.419  -1.014  1.00  0.00     0.037 A 
ATOM     60  C   UNL     1       0.164   2.811  -7.950  1.00  0.00     0.049 A 
ATOM     61  C   UNL     1      -2.930   4.972  -2.562  1.00  0.00     0.074 A 
ATOM     62  C   UNL     1       1.532   2.991  -8.102  1.00  0.00     0.029 A 
ATOM     63  N   UNL     1      -0.280   3.893  -7.222  1.00  0.00    -0.354 N 
ATOM     64  N   UNL     1      -1.542   5.514  -3.357  1.00  0.00    -0.248 NA
ATOM     65  C   UNL     1      -3.514   3.068  -3.550  1.00  0.00     0.031 C 
ATOM     66  C   UNL     1       1.906   3.813  -6.986  1.00  0.00     0.029 A 
ATOM     67  C   UNL     1       0.725   4.138  -6.331  1.00  0.00     0.049 A 
ATOM     68  H   UNL     1      -1.130   4.380  -7.321  1.00  0.00     0.167 HD
ATOM     69  C   UNL     1      -0.845   4.236  -4.406  1.00  0.00     0.074 A 
ATOM     70  C   UNL     1      -2.110   2.773  -4.497  1.00  0.00     0.031 C 
ATOM     71  C   UNL     1       0.374   4.659  -5.064  1.00  0.00     0.037 A 
BRANCH  58  72
ATOM     72  C   UNL     1      -2.113   1.742  -8.411  1.00  0.00     0.064 A 
ATOM     73  C   UNL     1      -2.372   2.749  -9.383  1.00  0.00     0.173 A 
ATOM     74  C   UNL     1      -3.267   1.098  -7.925  1.00  0.00     0.173 A 
ATOM     75  F   UNL     1      -1.372   3.464  -9.921  1.00  0.00    -0.203 F 
ATOM     76  C   UNL     1      -3.663   3.123  -9.771  1.00  0.00     0.198 A 
ATOM     77  C   UNL     1      -4.559   1.449  -8.346  1.00  0.00     0.198 A 
ATOM     78  F   UNL     1      -3.212   0.169  -6.967  1.00  0.00    -0.203 F 
ATOM     79  F   UNL     1      -3.834   4.159 -10.604  1.00  0.00    -0.200 F 
ATOM     80  C   UNL     1      -4.759   2.470  -9.253  1.00  0.00     0.200 A 
ATOM     81  F   UNL     1      -5.620   0.825  -7.812  1.00  0.00    -0.200 F 
ATOM     82  F   UNL     1      -5.998   2.842  -9.599  1.00  0.00    -0.200 F 
ENDBRANCH  58  72
BRANCH  59  83
ATOM     83  C   UNL     1      -3.267   5.896   0.018  1.00  0.00     0.064 A 
ATOM     84  C   UNL     1      -4.179   6.943  -0.286  1.00  0.00     0.173 A 
ATOM     85  C   UNL     1      -3.757   5.005   1.004  1.00  0.00     0.173 A 
ATOM     86  F   UNL     1      -3.825   7.910  -1.143  1.00  0.00    -0.203 F 
ATOM     87  C   UNL     1      -5.508   6.987   0.220  1.00  0.00     0.198 A 
ATOM     88  C   UNL     1      -5.107   4.993   1.431  1.00  0.00     0.198 A 
ATOM     89  F   UNL     1      -2.990   4.007   1.451  1.00  0.00    -0.203 F 
ATOM     90  F   UNL     1      -6.349   7.966  -0.151  1.00  0.00    -0.200 F 
ATOM     91  C   UNL     1      -5.992   5.965   1.013  1.00  0.00     0.200 A 
ATOM     92  F   UNL     1      -5.578   3.942   2.124  1.00  0.00    -0.200 F 
ATOM     93  F   UNL     1      -7.301   5.874   1.305  1.00  0.00    -0.200 F 
ENDBRANCH  59  83
BRANCH  71  94
ATOM     94  C   UNL     1       1.496   5.726  -4.557  1.00  0.00     0.064 A 
ATOM     95  C   UNL     1       2.464   5.488  -3.542  1.00  0.00     0.173 A 
ATOM     96  C   UNL     1       1.890   6.828  -5.326  1.00  0.00     0.173 A 
ATOM     97  F   UNL     1       2.860   4.236  -3.269  1.00  0.00    -0.203 F 
ATOM     98  C   UNL     1       3.325   6.448  -2.991  1.00  0.00     0.198 A 
ATOM     99  C   UNL     1       2.966   7.681  -4.954  1.00  0.00     0.198 A 
ATOM    100  F   UNL     1       1.337   7.026  -6.530  1.00  0.00    -0.203 F 
ATOM    101  F   UNL     1       3.990   6.206  -1.849  1.00  0.00    -0.200 F 
ATOM    102  C   UNL     1       3.610   7.551  -3.735  1.00  0.00     0.200 A 
ATOM    103  F   UNL     1       3.427   8.592  -5.821  1.00  0.00    -0.200 F 
ATOM    104  F   UNL     1       4.593   8.381  -3.358  1.00  0.00    -0.200 F 
ENDBRANCH  71  94
ENDBRANCH  45  46
ENDBRANCH  38  40
ENDBRANCH  37  38
ENDBRANCH  36  37
ENDBRANCH  35  36
ENDBRANCH  34  35
ENDBRANCH  33  34
ENDBRANCH   1  33
TORSDOF 21
