REMARK SMILES C[C@@H](C(=O)OCCOCCOCCOC(=O)c1ccc(-c2c3nc(c(-c4c(F)c(F)c(F)c(F)c4F)c4ccc([nH]4)c(-c4c(F)c(F)c(F)c(F)c4F)c4nc(c(-c5c(F)c(F)c(F)c(F)c5F)c5ccc2[nH]5)C=C4)C=C3)cc1)c1ccc(-c2cccc(OC(=O)NCCCc3ccccc3)c2)c(F)c1
REMARK SMILES IDX 6 1 5 2 3 3 4 4 2 5 1 6 80 7 81 8 105 9 82 10 103 11 83 12
REMARK SMILES IDX 104 13 84 14 85 15 102 16 86 17 88 18 87 19 89 20 90 21
REMARK SMILES IDX 91 22 92 23 93 25 94 26 95 27 96 28 97 29 101 30 98 31
REMARK SMILES IDX 100 32 99 33 7 34 8 35 9 36 10 37 11 38 12 39 13 40 14 41
REMARK SMILES IDX 15 42 16 43 17 44 18 45 79 46 19 47 78 48 20 49 21 50 22 51
REMARK SMILES IDX 72 52 23 53 77 54 71 55 73 56 24 57 76 58 70 59 69 60 25 62
REMARK SMILES IDX 57 63 37 64 56 65 38 66 41 67 55 68 74 69 39 70 40 71 54 73
REMARK SMILES IDX 75 74 42 75 26 76 27 77 35 78 28 79 29 80 33 81 36 82 30 83
REMARK SMILES IDX 31 84 34 85 32 86 58 87 59 88 67 89 60 90 61 91 65 92 68 93
REMARK SMILES IDX 62 94 63 95 66 96 64 97 43 98 44 99 52 100 45 101 46 102
REMARK SMILES IDX 50 103 53 104 47 105 48 106 51 107 49 108
REMARK H PARENT 92 24 73 61 41 72
REMARK Flexibility Score: inf
ROOT
ATOM      1  C   UNL     1       2.527   0.464   4.250  1.00  0.00     0.261 C 
ENDROOT
BRANCH   1   2
ATOM      2  O   UNL     1       2.134   0.010   2.936  1.00  0.00    -0.463 OA
BRANCH   2   3
ATOM      3  C   UNL     1       1.153  -0.932   2.897  1.00  0.00     0.313 C 
ATOM      4  O   UNL     1       0.617  -1.398   3.898  1.00  0.00    -0.252 OA
BRANCH   3   5
ATOM      5  C   UNL     1       0.775  -1.393   1.479  1.00  0.00     0.126 C 
ATOM      6  C   UNL     1       1.546  -0.811   0.294  1.00  0.00     0.025 C 
BRANCH   5   7
ATOM      7  C   UNL     1      -0.731  -1.296   1.261  1.00  0.00    -0.031 A 
ATOM      8  C   UNL     1      -1.394  -0.062   1.181  1.00  0.00     0.005 A 
ATOM      9  C   UNL     1      -1.502  -2.462   1.222  1.00  0.00     0.044 A 
ATOM     10  C   UNL     1      -2.793   0.006   1.147  1.00  0.00     0.012 A 
ATOM     11  C   UNL     1      -2.893  -2.386   1.170  1.00  0.00     0.131 A 
ATOM     12  C   UNL     1      -3.572  -1.158   1.173  1.00  0.00     0.018 A 
ATOM     13  F   UNL     1      -3.580  -3.539   1.163  1.00  0.00    -0.206 F 
BRANCH  12  14
ATOM     14  C   UNL     1      -5.035  -1.089   1.327  1.00  0.00    -0.012 A 
ATOM     15  C   UNL     1      -5.852  -0.301   0.504  1.00  0.00     0.009 A 
ATOM     16  C   UNL     1      -5.643  -1.799   2.377  1.00  0.00     0.056 A 
ATOM     17  C   UNL     1      -7.234  -0.240   0.719  1.00  0.00     0.004 A 
ATOM     18  C   UNL     1      -7.012  -1.711   2.617  1.00  0.00     0.133 A 
ATOM     19  C   UNL     1      -7.816  -0.948   1.774  1.00  0.00     0.047 A 
BRANCH  18  20
ATOM     20  O   UNL     1      -7.663  -2.413   3.663  1.00  0.00    -0.410 OA
BRANCH  20  21
ATOM     21  C   UNL     1      -6.987  -2.942   4.766  1.00  0.00     0.412 C 
ATOM     22  O   UNL     1      -5.816  -2.742   5.064  1.00  0.00    -0.224 OA
ATOM     23  N   UNL     1      -7.766  -3.725   5.575  1.00  0.00    -0.321 N 
ATOM     24  H   UNL     1      -7.312  -4.390   6.141  1.00  0.00     0.167 HD
BRANCH  23  25
ATOM     25  C   UNL     1      -9.200  -3.647   5.658  1.00  0.00     0.120 C 
BRANCH  25  26
ATOM     26  C   UNL     1      -9.916  -4.916   6.105  1.00  0.00     0.026 C 
BRANCH  26  27
ATOM     27  C   UNL     1      -9.486  -5.510   7.453  1.00  0.00     0.037 C 
BRANCH  27  28
ATOM     28  C   UNL     1      -9.753  -4.771   8.747  1.00  0.00    -0.048 A 
ATOM     29  C   UNL     1     -10.361  -3.516   8.845  1.00  0.00     0.004 A 
ATOM     30  C   UNL     1      -9.355  -5.397   9.942  1.00  0.00     0.004 A 
ATOM     31  C   UNL     1     -10.496  -2.874  10.081  1.00  0.00     0.000 A 
ATOM     32  C   UNL     1      -9.518  -4.772  11.181  1.00  0.00     0.000 A 
ATOM     33  C   UNL     1     -10.071  -3.498  11.249  1.00  0.00     0.000 A 
ENDBRANCH  27  28
ENDBRANCH  26  27
ENDBRANCH  25  26
ENDBRANCH  23  25
ENDBRANCH  20  21
ENDBRANCH  18  20
ENDBRANCH  12  14
ENDBRANCH   5   7
ENDBRANCH   3   5
ENDBRANCH   2   3
ENDBRANCH   1   2
BRANCH   1  34
ATOM     34  C   UNL     1       2.628   1.988   4.370  1.00  0.00     0.202 C 
BRANCH  34  35
ATOM     35  O   UNL     1       1.419   2.726   4.230  1.00  0.00    -0.376 OA
BRANCH  35  36
ATOM     36  C   UNL     1       0.699   2.626   3.007  1.00  0.00     0.188 C 
BRANCH  36  37
ATOM     37  C   UNL     1       1.490   2.636   1.689  1.00  0.00     0.188 C 
BRANCH  37  38
ATOM     38  O   UNL     1       2.757   3.260   1.800  1.00  0.00    -0.376 OA
BRANCH  38  39
ATOM     39  C   UNL     1       2.974   4.389   0.971  1.00  0.00     0.202 C 
BRANCH  39  40
ATOM     40  C   UNL     1       2.244   5.635   1.479  1.00  0.00     0.261 C 
BRANCH  40  41
ATOM     41  O   UNL     1       0.808   5.531   1.465  1.00  0.00    -0.460 OA
BRANCH  41  42
ATOM     42  C   UNL     1       0.219   5.392   0.251  1.00  0.00     0.338 C 
ATOM     43  O   UNL     1       0.759   5.367  -0.828  1.00  0.00    -0.246 OA
BRANCH  42  44
ATOM     44  C   UNL     1      -1.213   5.082   0.477  1.00  0.00     0.060 A 
ATOM     45  C   UNL     1      -1.788   4.011  -0.218  1.00  0.00     0.016 A 
ATOM     46  C   UNL     1      -1.983   5.848   1.355  1.00  0.00     0.016 A 
ATOM     47  C   UNL     1      -3.146   3.722  -0.053  1.00  0.00     0.010 A 
ATOM     48  C   UNL     1      -3.342   5.566   1.509  1.00  0.00     0.010 A 
ATOM     49  C   UNL     1      -3.937   4.515   0.790  1.00  0.00    -0.014 A 
BRANCH  49  50
ATOM     50  C   UNL     1      -5.411   4.353   0.809  1.00  0.00     0.031 A 
ATOM     51  C   UNL     1      -6.241   5.122  -0.178  1.00  0.00     0.074 A 
ATOM     52  C   UNL     1      -6.021   3.570   1.715  1.00  0.00     0.049 A 
ATOM     53  N   UNL     1      -7.541   5.151  -0.328  1.00  0.00    -0.248 NA
ATOM     54  C   UNL     1      -5.502   5.976  -1.119  1.00  0.00     0.031 C 
ATOM     55  C   UNL     1      -5.346   2.768   2.729  1.00  0.00     0.029 A 
ATOM     56  N   UNL     1      -7.359   3.347   1.936  1.00  0.00    -0.354 N 
ATOM     57  C   UNL     1      -7.777   6.020  -1.383  1.00  0.00     0.074 A 
ATOM     58  C   UNL     1      -6.488   6.515  -1.821  1.00  0.00     0.031 C 
ATOM     59  C   UNL     1      -6.275   2.161   3.487  1.00  0.00     0.029 A 
ATOM     60  C   UNL     1      -7.608   2.567   3.038  1.00  0.00     0.049 A 
ATOM     61  H   UNL     1      -8.070   3.712   1.361  1.00  0.00     0.167 HD
ATOM     62  C   UNL     1      -8.957   6.376  -1.942  1.00  0.00     0.037 A 
ATOM     63  C   UNL     1      -8.776   2.248   3.632  1.00  0.00     0.037 A 
ATOM     64  C   UNL     1     -10.249   5.921  -1.506  1.00  0.00     0.049 A 
ATOM     65  C   UNL     1     -10.084   2.709   3.014  1.00  0.00     0.074 A 
ATOM     66  C   UNL     1     -11.494   6.226  -2.031  1.00  0.00     0.029 A 
ATOM     67  N   UNL     1     -10.466   5.082  -0.426  1.00  0.00    -0.354 N 
ATOM     68  N   UNL     1     -10.292   3.372   1.902  1.00  0.00    -0.248 NA
ATOM     69  C   UNL     1     -11.327   2.351   3.719  1.00  0.00     0.031 C 
ATOM     70  C   UNL     1     -12.468   5.612  -1.237  1.00  0.00     0.029 A 
ATOM     71  C   UNL     1     -11.826   4.889  -0.246  1.00  0.00     0.049 A 
ATOM     72  H   UNL     1      -9.759   4.684   0.131  1.00  0.00     0.167 HD
ATOM     73  C   UNL     1     -11.675   3.455   1.756  1.00  0.00     0.074 A 
ATOM     74  C   UNL     1     -12.258   2.733   2.860  1.00  0.00     0.031 C 
ATOM     75  C   UNL     1     -12.401   4.099   0.810  1.00  0.00     0.037 A 
BRANCH  62  76
ATOM     76  C   UNL     1      -8.901   7.341  -3.085  1.00  0.00     0.064 A 
ATOM     77  C   UNL     1      -8.455   6.944  -4.354  1.00  0.00     0.173 A 
ATOM     78  C   UNL     1      -9.317   8.668  -2.913  1.00  0.00     0.173 A 
ATOM     79  F   UNL     1      -8.031   5.688  -4.558  1.00  0.00    -0.203 F 
ATOM     80  C   UNL     1      -8.404   7.853  -5.406  1.00  0.00     0.198 A 
ATOM     81  C   UNL     1      -9.288   9.567  -3.974  1.00  0.00     0.198 A 
ATOM     82  F   UNL     1      -9.752   9.091  -1.716  1.00  0.00    -0.203 F 
ATOM     83  F   UNL     1      -7.931   7.467  -6.599  1.00  0.00    -0.200 F 
ATOM     84  C   UNL     1      -8.826   9.161  -5.217  1.00  0.00     0.200 A 
ATOM     85  F   UNL     1      -9.704  10.828  -3.792  1.00  0.00    -0.200 F 
ATOM     86  F   UNL     1      -8.777  10.034  -6.232  1.00  0.00    -0.200 F 
ENDBRANCH  62  76
BRANCH  63  87
ATOM     87  C   UNL     1      -8.785   1.481   4.911  1.00  0.00     0.064 A 
ATOM     88  C   UNL     1      -9.547   0.316   5.046  1.00  0.00     0.173 A 
ATOM     89  C   UNL     1      -8.150   1.970   6.067  1.00  0.00     0.173 A 
ATOM     90  F   UNL     1     -10.180  -0.210   3.986  1.00  0.00    -0.203 F 
ATOM     91  C   UNL     1      -9.776  -0.245   6.295  1.00  0.00     0.198 A 
ATOM     92  C   UNL     1      -8.274   1.321   7.293  1.00  0.00     0.198 A 
ATOM     93  F   UNL     1      -7.436   3.103   6.018  1.00  0.00    -0.203 F 
ATOM     94  F   UNL     1     -10.712  -1.196   6.419  1.00  0.00    -0.200 F 
ATOM     95  C   UNL     1      -9.112   0.228   7.412  1.00  0.00     0.200 A 
ATOM     96  F   UNL     1      -7.634   1.795   8.370  1.00  0.00    -0.200 F 
ATOM     97  F   UNL     1      -9.315  -0.340   8.607  1.00  0.00    -0.200 F 
ENDBRANCH  63  87
BRANCH  75  98
ATOM     98  C   UNL     1     -13.901   3.988   0.878  1.00  0.00     0.064 A 
ATOM     99  C   UNL     1     -14.643   4.592   1.905  1.00  0.00     0.173 A 
ATOM    100  C   UNL     1     -14.609   3.290  -0.113  1.00  0.00     0.173 A 
ATOM    101  F   UNL     1     -14.018   5.261   2.886  1.00  0.00    -0.203 F 
ATOM    102  C   UNL     1     -16.030   4.471   1.958  1.00  0.00     0.198 A 
ATOM    103  C   UNL     1     -15.999   3.200  -0.076  1.00  0.00     0.198 A 
ATOM    104  F   UNL     1     -13.954   2.700  -1.124  1.00  0.00    -0.203 F 
ATOM    105  F   UNL     1     -16.709   5.005   2.983  1.00  0.00    -0.200 F 
ATOM    106  C   UNL     1     -16.707   3.781   0.964  1.00  0.00     0.200 A 
ATOM    107  F   UNL     1     -16.653   2.547  -1.047  1.00  0.00    -0.200 F 
ATOM    108  F   UNL     1     -18.042   3.670   1.014  1.00  0.00    -0.200 F 
ENDBRANCH  75  98
ENDBRANCH  49  50
ENDBRANCH  42  44
ENDBRANCH  41  42
ENDBRANCH  40  41
ENDBRANCH  39  40
ENDBRANCH  38  39
ENDBRANCH  37  38
ENDBRANCH  36  37
ENDBRANCH  35  36
ENDBRANCH  34  35
ENDBRANCH   1  34
TORSDOF 25
