REMARK SMILES Cc1ncc(CC(=O)N2CCc3c(c(C(=O)OCCOCCOCCOC(=O)c4ccc(-c5c6nc(c(-c7c(F)c(F)c(F)c(F)c7F)c7ccc([nH]7)c(-c7c(F)c(F)c(F)c(F)c7F)c7nc(c(-c8c(F)c(F)c(F)c(F)c8F)c8ccc5[nH]8)C=C7)C=C6)cc4)nn3CC3CC3)C2)c(=O)[nH]1
REMARK SMILES IDX 21 1 20 2 19 3 18 4 17 5 15 6 16 7 14 8 9 9 10 10 98 11
REMARK SMILES IDX 11 12 13 13 12 14 93 15 92 16 7 17 8 18 6 19 5 20 1 21 2 22
REMARK SMILES IDX 3 23 101 24 4 25 99 26 100 28 94 29 95 30 96 31 97 32 22 33
REMARK SMILES IDX 23 34 24 35 25 36 26 37 27 38 28 39 29 40 30 41 91 42 31 43
REMARK SMILES IDX 90 44 32 45 33 46 34 47 84 48 35 49 89 50 83 51 85 52 36 53
REMARK SMILES IDX 88 54 82 55 81 56 37 58 69 59 49 60 68 61 50 62 53 63 67 64
REMARK SMILES IDX 86 65 51 66 52 67 66 69 87 70 54 71 38 72 39 73 47 74 40 75
REMARK SMILES IDX 41 76 45 77 48 78 42 79 43 80 46 81 44 82 70 83 71 84 79 85
REMARK SMILES IDX 72 86 73 87 77 88 80 89 74 90 75 91 78 92 76 93 55 94 56 95
REMARK SMILES IDX 64 96 57 97 58 98 62 99 65 100 59 101 60 102 63 103 61 104
REMARK H PARENT 101 27 85 57 53 68
REMARK Flexibility Score: inf
ROOT
ATOM      1  C   UNL     1       4.251   4.029   7.527  1.00  0.00     0.188 C 
ENDROOT
BRANCH   1   2
ATOM      2  O   UNL     1       5.325   4.887   7.875  1.00  0.00    -0.376 OA
BRANCH   2   3
ATOM      3  C   UNL     1       5.135   6.288   8.003  1.00  0.00     0.202 C 
BRANCH   3   4
ATOM      4  C   UNL     1       4.307   7.125   7.006  1.00  0.00     0.261 C 
BRANCH   4   5
ATOM      5  O   UNL     1       3.083   6.556   6.538  1.00  0.00    -0.458 OA
BRANCH   5   6
ATOM      6  C   UNL     1       3.113   6.034   5.272  1.00  0.00     0.359 C 
ATOM      7  O   UNL     1       4.090   6.048   4.547  1.00  0.00    -0.244 OA
BRANCH   6   8
ATOM      8  C   UNL     1       1.889   5.283   4.942  1.00  0.00     0.175 A 
ATOM      9  N   UNL     1       2.333   2.267   2.736  1.00  0.00    -0.338 N 
ATOM     10  C   UNL     1       1.117   1.562   3.188  1.00  0.00     0.126 C 
ATOM     11  C   UNL     1       2.942   3.176   3.718  1.00  0.00     0.159 C 
ATOM     12  C   UNL     1      -0.046   2.537   3.467  1.00  0.00     0.078 C 
ATOM     13  C   UNL     1       1.846   4.040   4.255  1.00  0.00     0.028 A 
ATOM     14  C   UNL     1       0.505   3.722   4.175  1.00  0.00     0.046 A 
ATOM     15  N   UNL     1      -0.175   4.721   4.801  1.00  0.00    -0.268 N 
ATOM     16  N   UNL     1       0.646   5.677   5.293  1.00  0.00    -0.165 NA
BRANCH   9  17
ATOM     17  C   UNL     1       3.035   2.033   1.567  1.00  0.00     0.227 C 
ATOM     18  O   UNL     1       4.269   2.097   1.555  1.00  0.00    -0.275 OA
BRANCH  17  19
ATOM     19  C   UNL     1       2.279   2.040   0.232  1.00  0.00     0.143 C 
BRANCH  19  20
ATOM     20  C   UNL     1       1.066   1.192   0.083  1.00  0.00     0.045 A 
ATOM     21  C   UNL     1      -2.345  -1.298  -0.097  1.00  0.00     0.087 C 
ATOM     22  C   UNL     1      -1.162  -0.377  -0.073  1.00  0.00     0.105 A 
ATOM     23  N   UNL     1      -1.318   0.907  -0.102  1.00  0.00    -0.243 NA
ATOM     24  N   UNL     1       0.060  -0.983  -0.002  1.00  0.00    -0.311 N 
ATOM     25  C   UNL     1      -0.181   1.667  -0.048  1.00  0.00     0.123 A 
ATOM     26  C   UNL     1       1.224  -0.276   0.075  1.00  0.00     0.254 A 
ATOM     27  H   UNL     1       0.102  -1.967  -0.006  1.00  0.00     0.171 HD
ATOM     28  O   UNL     1       2.316  -0.822   0.162  1.00  0.00    -0.269 OA
ENDBRANCH  19  20
ENDBRANCH  17  19
ENDBRANCH   9  17
BRANCH  15  29
ATOM     29  C   UNL     1      -1.623   4.892   4.871  1.00  0.00     0.148 C 
BRANCH  29  30
ATOM     30  C   UNL     1      -2.297   4.283   6.070  1.00  0.00     0.011 C 
ATOM     31  C   UNL     1      -1.586   3.705   7.274  1.00  0.00     0.006 C 
ATOM     32  C   UNL     1      -2.274   5.035   7.381  1.00  0.00     0.006 C 
ENDBRANCH  29  30
ENDBRANCH  15  29
ENDBRANCH   6   8
ENDBRANCH   5   6
ENDBRANCH   4   5
ENDBRANCH   3   4
ENDBRANCH   2   3
ENDBRANCH   1   2
BRANCH   1  33
ATOM     33  C   UNL     1       2.878   4.156   8.218  1.00  0.00     0.188 C 
BRANCH  33  34
ATOM     34  O   UNL     1       2.721   5.294   9.032  1.00  0.00    -0.376 OA
BRANCH  34  35
ATOM     35  C   UNL     1       2.931   5.264  10.430  1.00  0.00     0.202 C 
BRANCH  35  36
ATOM     36  C   UNL     1       3.857   4.292  11.159  1.00  0.00     0.261 C 
BRANCH  36  37
ATOM     37  O   UNL     1       4.372   3.210  10.413  1.00  0.00    -0.460 OA
BRANCH  37  38
ATOM     38  C   UNL     1       3.595   2.110  10.439  1.00  0.00     0.338 C 
ATOM     39  O   UNL     1       2.423   2.032  10.764  1.00  0.00    -0.246 OA
BRANCH  38  40
ATOM     40  C   UNL     1       4.422   0.959  10.090  1.00  0.00     0.060 A 
ATOM     41  C   UNL     1       3.772  -0.184   9.622  1.00  0.00     0.016 A 
ATOM     42  C   UNL     1       5.759   0.949  10.512  1.00  0.00     0.016 A 
ATOM     43  C   UNL     1       4.412  -1.395   9.758  1.00  0.00     0.010 A 
ATOM     44  C   UNL     1       6.386  -0.261  10.670  1.00  0.00     0.010 A 
ATOM     45  C   UNL     1       5.670  -1.417  10.368  1.00  0.00    -0.014 A 
BRANCH  45  46
ATOM     46  C   UNL     1       6.234  -2.705  10.703  1.00  0.00     0.031 A 
ATOM     47  C   UNL     1       6.861  -3.405   9.563  1.00  0.00     0.074 A 
ATOM     48  C   UNL     1       6.267  -3.134  11.978  1.00  0.00     0.049 A 
ATOM     49  N   UNL     1       6.554  -4.558   9.071  1.00  0.00    -0.248 NA
ATOM     50  C   UNL     1       7.886  -2.673   8.802  1.00  0.00     0.031 C 
ATOM     51  C   UNL     1       5.943  -2.372  13.189  1.00  0.00     0.029 A 
ATOM     52  N   UNL     1       6.714  -4.320  12.470  1.00  0.00    -0.354 N 
ATOM     53  C   UNL     1       7.468  -4.778   8.046  1.00  0.00     0.074 A 
ATOM     54  C   UNL     1       8.143  -3.530   7.815  1.00  0.00     0.031 C 
ATOM     55  C   UNL     1       6.417  -3.034  14.268  1.00  0.00     0.029 A 
ATOM     56  C   UNL     1       6.966  -4.308  13.833  1.00  0.00     0.049 A 
ATOM     57  H   UNL     1       6.848  -5.116  11.907  1.00  0.00     0.167 HD
ATOM     58  C   UNL     1       7.784  -6.039   7.652  1.00  0.00     0.037 A 
ATOM     59  C   UNL     1       7.660  -5.244  14.526  1.00  0.00     0.037 A 
ATOM     60  C   UNL     1       6.758  -6.977   8.025  1.00  0.00     0.049 A 
ATOM     61  C   UNL     1       7.720  -6.469  13.688  1.00  0.00     0.074 A 
ATOM     62  C   UNL     1       5.415  -7.114   7.730  1.00  0.00     0.029 A 
ATOM     63  N   UNL     1       6.985  -7.782   9.113  1.00  0.00    -0.354 N 
ATOM     64  N   UNL     1       6.696  -7.229  13.422  1.00  0.00    -0.248 NA
ATOM     65  C   UNL     1       8.858  -6.624  12.793  1.00  0.00     0.031 C 
ATOM     66  C   UNL     1       4.820  -7.627   8.920  1.00  0.00     0.029 A 
ATOM     67  C   UNL     1       5.836  -7.811   9.858  1.00  0.00     0.049 A 
ATOM     68  H   UNL     1       7.824  -8.254   9.321  1.00  0.00     0.167 HD
ATOM     69  C   UNL     1       6.885  -7.629  12.107  1.00  0.00     0.074 A 
ATOM     70  C   UNL     1       8.281  -7.323  11.813  1.00  0.00     0.031 C 
ATOM     71  C   UNL     1       5.819  -7.900  11.299  1.00  0.00     0.037 A 
BRANCH  58  72
ATOM     72  C   UNL     1       9.187  -6.466   7.293  1.00  0.00     0.064 A 
ATOM     73  C   UNL     1       9.395  -7.766   6.794  1.00  0.00     0.173 A 
ATOM     74  C   UNL     1      10.353  -5.778   7.702  1.00  0.00     0.173 A 
ATOM     75  F   UNL     1       8.358  -8.519   6.396  1.00  0.00    -0.203 F 
ATOM     76  C   UNL     1      10.659  -8.360   6.790  1.00  0.00     0.198 A 
ATOM     77  C   UNL     1      11.619  -6.354   7.641  1.00  0.00     0.198 A 
ATOM     78  F   UNL     1      10.311  -4.575   8.286  1.00  0.00    -0.203 F 
ATOM     79  F   UNL     1      10.786  -9.647   6.438  1.00  0.00    -0.200 F 
ATOM     80  C   UNL     1      11.769  -7.656   7.220  1.00  0.00     0.200 A 
ATOM     81  F   UNL     1      12.679  -5.660   8.081  1.00  0.00    -0.200 F 
ATOM     82  F   UNL     1      12.969  -8.246   7.281  1.00  0.00    -0.200 F 
ENDBRANCH  58  72
BRANCH  59  83
ATOM     83  C   UNL     1       8.530  -5.054  15.709  1.00  0.00     0.064 A 
ATOM     84  C   UNL     1       8.926  -6.148  16.496  1.00  0.00     0.173 A 
ATOM     85  C   UNL     1       9.211  -3.842  15.937  1.00  0.00     0.173 A 
ATOM     86  F   UNL     1       8.361  -7.350  16.313  1.00  0.00    -0.203 F 
ATOM     87  C   UNL     1       9.958  -6.041  17.435  1.00  0.00     0.198 A 
ATOM     88  C   UNL     1      10.232  -3.733  16.882  1.00  0.00     0.198 A 
ATOM     89  F   UNL     1       8.968  -2.762  15.181  1.00  0.00    -0.203 F 
ATOM     90  F   UNL     1      10.352  -7.124  18.120  1.00  0.00    -0.200 F 
ATOM     91  C   UNL     1      10.615  -4.836  17.620  1.00  0.00     0.200 A 
ATOM     92  F   UNL     1      10.882  -2.570  17.025  1.00  0.00    -0.200 F 
ATOM     93  F   UNL     1      11.643  -4.748  18.475  1.00  0.00    -0.200 F 
ENDBRANCH  59  83
BRANCH  71  94
ATOM     94  C   UNL     1       4.477  -8.061  11.954  1.00  0.00     0.064 A 
ATOM     95  C   UNL     1       3.813  -7.036  12.651  1.00  0.00     0.173 A 
ATOM     96  C   UNL     1       3.782  -9.262  11.757  1.00  0.00     0.173 A 
ATOM     97  F   UNL     1       4.368  -5.825  12.790  1.00  0.00    -0.203 F 
ATOM     98  C   UNL     1       2.534  -7.228  13.170  1.00  0.00     0.198 A 
ATOM     99  C   UNL     1       2.490  -9.436  12.241  1.00  0.00     0.198 A 
ATOM    100  F   UNL     1       4.344 -10.255  11.049  1.00  0.00    -0.203 F 
ATOM    101  F   UNL     1       1.928  -6.241  13.847  1.00  0.00    -0.200 F 
ATOM    102  C   UNL     1       1.871  -8.425  12.958  1.00  0.00     0.200 A 
ATOM    103  F   UNL     1       1.832 -10.577  11.989  1.00  0.00    -0.200 F 
ATOM    104  F   UNL     1       0.625  -8.595  13.421  1.00  0.00    -0.200 F 
ENDBRANCH  71  94
ENDBRANCH  45  46
ENDBRANCH  38  40
ENDBRANCH  37  38
ENDBRANCH  36  37
ENDBRANCH  35  36
ENDBRANCH  34  35
ENDBRANCH  33  34
ENDBRANCH   1  33
TORSDOF 22
