REMARK SMILES CCc1ccc(S(=O)(=O)CC(=O)OCCOCCOCCOC(=O)c2ccc(-c3c4nc(c(-c5c(F)c(F)c(F)c(F)c5F)c5ccc([nH]5)c(-c5c(F)c(F)c(F)c(F)c5F)c5nc(c(-c6c(F)c(F)c(F)c(F)c6F)c6ccc3[nH]6)C=C5)C=C4)cc2)cc1
REMARK SMILES IDX 17 1 16 2 15 3 14 4 13 5 11 6 12 7 10 8 7 9 8 10 9 11 6 12
REMARK SMILES IDX 3 13 4 14 89 15 5 16 88 17 2 18 1 19 18 20 19 21 20 22 21 23
REMARK SMILES IDX 22 24 23 25 24 26 25 27 26 28 87 29 27 30 86 31 28 32 29 33
REMARK SMILES IDX 30 34 80 35 31 36 85 37 79 38 81 39 32 40 84 41 78 42 77 43
REMARK SMILES IDX 33 45 65 46 45 47 64 48 46 49 49 50 63 51 82 52 47 53 48 54
REMARK SMILES IDX 62 56 83 57 50 58 34 59 35 60 43 61 36 62 37 63 41 64 44 65
REMARK SMILES IDX 38 66 39 67 42 68 40 69 66 70 67 71 75 72 68 73 69 74 73 75
REMARK SMILES IDX 76 76 70 77 71 78 74 79 72 80 51 81 52 82 60 83 53 84 54 85
REMARK SMILES IDX 58 86 61 87 55 88 56 89 59 90 57 91
REMARK H PARENT 81 44 49 55
REMARK Flexibility Score: inf
ROOT
ATOM      1  C   UNL     1       3.172   4.166   3.066  1.00  0.00     0.188 C 
ENDROOT
BRANCH   1   2
ATOM      2  O   UNL     1       4.207   5.144   3.121  1.00  0.00    -0.376 OA
BRANCH   2   3
ATOM      3  C   UNL     1       5.188   5.034   4.152  1.00  0.00     0.202 C 
BRANCH   3   4
ATOM      4  C   UNL     1       4.643   5.197   5.574  1.00  0.00     0.261 C 
BRANCH   4   5
ATOM      5  O   UNL     1       3.730   4.124   5.870  1.00  0.00    -0.462 OA
BRANCH   5   6
ATOM      6  C   UNL     1       2.718   4.368   6.736  1.00  0.00     0.321 C 
ATOM      7  O   UNL     1       2.639   5.369   7.436  1.00  0.00    -0.251 OA
BRANCH   6   8
ATOM      8  C   UNL     1       1.582   3.415   6.532  1.00  0.00     0.264 C 
BRANCH   8   9
ATOM      9  S   UNL     1       1.945   1.745   6.972  1.00  0.00     0.189 S 
ATOM     10  O   UNL     1       1.091   1.386   8.087  1.00  0.00    -0.223 OA
ATOM     11  O   UNL     1       3.381   1.558   7.051  1.00  0.00    -0.223 OA
BRANCH   9  12
ATOM     12  C   UNL     1       1.377   0.720   5.604  1.00  0.00     0.067 A 
ATOM     13  C   UNL     1       0.456  -1.012   3.570  1.00  0.00    -0.048 A 
ATOM     14  C   UNL     1       1.709  -1.209   4.165  1.00  0.00     0.005 A 
ATOM     15  C   UNL     1      -0.314   0.085   3.988  1.00  0.00     0.005 A 
ATOM     16  C   UNL     1       2.167  -0.355   5.179  1.00  0.00     0.020 A 
ATOM     17  C   UNL     1       0.136   0.947   5.003  1.00  0.00     0.020 A 
BRANCH  13  18
ATOM     18  C   UNL     1      -0.098  -2.009   2.572  1.00  0.00     0.032 C 
ATOM     19  C   UNL     1       0.212  -1.719   1.114  1.00  0.00     0.009 C 
ENDBRANCH  13  18
ENDBRANCH   9  12
ENDBRANCH   8   9
ENDBRANCH   6   8
ENDBRANCH   5   6
ENDBRANCH   4   5
ENDBRANCH   3   4
ENDBRANCH   2   3
ENDBRANCH   1   2
BRANCH   1  20
ATOM     20  C   UNL     1       3.528   2.698   3.364  1.00  0.00     0.188 C 
BRANCH  20  21
ATOM     21  O   UNL     1       4.826   2.339   2.921  1.00  0.00    -0.376 OA
BRANCH  21  22
ATOM     22  C   UNL     1       4.840   1.296   1.958  1.00  0.00     0.202 C 
BRANCH  22  23
ATOM     23  C   UNL     1       4.513   1.847   0.567  1.00  0.00     0.261 C 
BRANCH  23  24
ATOM     24  O   UNL     1       3.169   2.373   0.459  1.00  0.00    -0.460 OA
BRANCH  24  25
ATOM     25  C   UNL     1       2.205   1.428   0.460  1.00  0.00     0.338 C 
ATOM     26  O   UNL     1       2.384   0.228   0.521  1.00  0.00    -0.246 OA
BRANCH  25  27
ATOM     27  C   UNL     1       0.862   2.037   0.407  1.00  0.00     0.060 A 
ATOM     28  C   UNL     1       0.200   2.409   1.581  1.00  0.00     0.016 A 
ATOM     29  C   UNL     1       0.181   2.047  -0.808  1.00  0.00     0.016 A 
ATOM     30  C   UNL     1      -1.158   2.737   1.552  1.00  0.00     0.010 A 
ATOM     31  C   UNL     1      -1.170   2.411  -0.842  1.00  0.00     0.010 A 
ATOM     32  C   UNL     1      -1.860   2.732   0.340  1.00  0.00    -0.014 A 
BRANCH  32  33
ATOM     33  C   UNL     1      -3.314   3.041   0.293  1.00  0.00     0.031 A 
ATOM     34  C   UNL     1      -4.306   1.977  -0.088  1.00  0.00     0.074 A 
ATOM     35  C   UNL     1      -3.747   4.286   0.570  1.00  0.00     0.049 A 
ATOM     36  N   UNL     1      -5.569   2.098  -0.413  1.00  0.00    -0.248 NA
ATOM     37  C   UNL     1      -3.813   0.591  -0.097  1.00  0.00     0.031 C 
ATOM     38  C   UNL     1      -2.906   5.389   1.031  1.00  0.00     0.029 A 
ATOM     39  N   UNL     1      -5.002   4.837   0.476  1.00  0.00    -0.354 N 
ATOM     40  C   UNL     1      -6.013   0.814  -0.704  1.00  0.00     0.074 A 
ATOM     41  C   UNL     1      -4.888  -0.075  -0.502  1.00  0.00     0.031 C 
ATOM     42  C   UNL     1      -3.661   6.490   1.161  1.00  0.00     0.029 A 
ATOM     43  C   UNL     1      -5.017   6.191   0.711  1.00  0.00     0.049 A 
ATOM     44  H   UNL     1      -5.809   4.315   0.263  1.00  0.00     0.167 HD
ATOM     45  C   UNL     1      -7.244   0.424  -1.113  1.00  0.00     0.037 A 
ATOM     46  C   UNL     1      -5.987   7.104   0.515  1.00  0.00     0.037 A 
ATOM     47  C   UNL     1      -8.364   1.314  -1.288  1.00  0.00     0.049 A 
ATOM     48  C   UNL     1      -7.316   6.662  -0.033  1.00  0.00     0.074 A 
ATOM     49  C   UNL     1      -9.657   1.010  -1.681  1.00  0.00     0.029 A 
ATOM     50  N   UNL     1      -8.324   2.685  -1.082  1.00  0.00    -0.354 N 
ATOM     51  N   UNL     1      -7.717   5.457  -0.353  1.00  0.00    -0.248 NA
ATOM     52  C   UNL     1      -8.319   7.711  -0.263  1.00  0.00     0.031 C 
ATOM     53  C   UNL     1     -10.384   2.203  -1.761  1.00  0.00     0.029 A 
ATOM     54  C   UNL     1      -9.560   3.244  -1.369  1.00  0.00     0.049 A 
ATOM     55  H   UNL     1      -7.534   3.187  -0.777  1.00  0.00     0.167 HD
ATOM     56  C   UNL     1      -9.021   5.598  -0.808  1.00  0.00     0.074 A 
ATOM     57  C   UNL     1      -9.349   7.005  -0.708  1.00  0.00     0.031 C 
ATOM     58  C   UNL     1      -9.869   4.647  -1.270  1.00  0.00     0.037 A 
BRANCH  45  59
ATOM     59  C   UNL     1      -7.449  -1.024  -1.454  1.00  0.00     0.064 A 
ATOM     60  C   UNL     1      -7.561  -2.013  -0.468  1.00  0.00     0.173 A 
ATOM     61  C   UNL     1      -7.614  -1.411  -2.794  1.00  0.00     0.173 A 
ATOM     62  F   UNL     1      -7.400  -1.697   0.826  1.00  0.00    -0.203 F 
ATOM     63  C   UNL     1      -7.823  -3.339  -0.810  1.00  0.00     0.198 A 
ATOM     64  C   UNL     1      -7.899  -2.732  -3.131  1.00  0.00     0.198 A 
ATOM     65  F   UNL     1      -7.522  -0.502  -3.776  1.00  0.00    -0.203 F 
ATOM     66  F   UNL     1      -7.902  -4.274   0.147  1.00  0.00    -0.200 F 
ATOM     67  C   UNL     1      -8.001  -3.695  -2.139  1.00  0.00     0.200 A 
ATOM     68  F   UNL     1      -8.082  -3.070  -4.415  1.00  0.00    -0.200 F 
ATOM     69  F   UNL     1      -8.267  -4.967  -2.465  1.00  0.00    -0.200 F 
ENDBRANCH  45  59
BRANCH  46  70
ATOM     70  C   UNL     1      -5.703   8.541   0.766  1.00  0.00     0.064 A 
ATOM     71  C   UNL     1      -6.318   9.230   1.818  1.00  0.00     0.173 A 
ATOM     72  C   UNL     1      -4.795   9.249  -0.038  1.00  0.00     0.173 A 
ATOM     73  F   UNL     1      -7.214   8.604   2.595  1.00  0.00    -0.203 F 
ATOM     74  C   UNL     1      -6.040  10.575   2.054  1.00  0.00     0.198 A 
ATOM     75  C   UNL     1      -4.494  10.583   0.219  1.00  0.00     0.198 A 
ATOM     76  F   UNL     1      -4.183   8.635  -1.061  1.00  0.00    -0.203 F 
ATOM     77  F   UNL     1      -6.669  11.223   3.045  1.00  0.00    -0.200 F 
ATOM     78  C   UNL     1      -5.120  11.247   1.262  1.00  0.00     0.200 A 
ATOM     79  F   UNL     1      -3.593  11.222  -0.539  1.00  0.00    -0.200 F 
ATOM     80  F   UNL     1      -4.841  12.536   1.501  1.00  0.00    -0.200 F 
ENDBRANCH  46  70
BRANCH  58  81
ATOM     81  C   UNL     1     -11.242   5.097  -1.674  1.00  0.00     0.064 A 
ATOM     82  C   UNL     1     -11.459   5.819  -2.857  1.00  0.00     0.173 A 
ATOM     83  C   UNL     1     -12.354   4.790  -0.876  1.00  0.00     0.173 A 
ATOM     84  F   UNL     1     -10.425   6.152  -3.643  1.00  0.00    -0.203 F 
ATOM     85  C   UNL     1     -12.738   6.240  -3.212  1.00  0.00     0.198 A 
ATOM     86  C   UNL     1     -13.634   5.191  -1.248  1.00  0.00     0.198 A 
ATOM     87  F   UNL     1     -12.199   4.098   0.263  1.00  0.00    -0.203 F 
ATOM     88  F   UNL     1     -12.916   6.971  -4.321  1.00  0.00    -0.200 F 
ATOM     89  C   UNL     1     -13.824   5.922  -2.410  1.00  0.00     0.200 A 
ATOM     90  F   UNL     1     -14.684   4.874  -0.477  1.00  0.00    -0.200 F 
ATOM     91  F   UNL     1     -15.054   6.329  -2.753  1.00  0.00    -0.200 F 
ENDBRANCH  58  81
ENDBRANCH  32  33
ENDBRANCH  25  27
ENDBRANCH  24  25
ENDBRANCH  23  24
ENDBRANCH  22  23
ENDBRANCH  21  22
ENDBRANCH  20  21
ENDBRANCH   1  20
TORSDOF 20
