REMARK SMILES Cc1cc(F)cc(/C=C/C(=O)OCCOCCOCCOC(=O)c2ccc(-c3c4nc(c(-c5c(F)c(F)c(F)c(F)c5F)c5ccc([nH]5)c(-c5c(F)c(F)c(F)c(F)c5F)c5nc(c(-c6c(F)c(F)c(F)c(F)c6F)c6ccc3[nH]6)C=C5)C=C4)cc2)c1
REMARK SMILES IDX 17 1 16 2 15 3 14 4 13 5 12 6 10 7 11 8 9 9 8 10 7 11 1 12
REMARK SMILES IDX 2 13 3 14 87 15 4 16 5 17 6 18 18 19 19 20 20 21 21 22 22 23
REMARK SMILES IDX 23 24 24 25 25 26 86 27 26 28 85 29 27 30 28 31 29 32 79 33
REMARK SMILES IDX 30 34 84 35 78 36 80 37 31 38 83 39 77 40 76 41 32 43 64 44
REMARK SMILES IDX 44 45 63 46 45 47 48 48 62 49 81 50 46 51 47 52 61 54 82 55
REMARK SMILES IDX 49 56 33 57 34 58 42 59 35 60 36 61 40 62 43 63 37 64 38 65
REMARK SMILES IDX 41 66 39 67 65 68 66 69 74 70 67 71 68 72 72 73 75 74 69 75
REMARK SMILES IDX 70 76 73 77 71 78 50 79 51 80 59 81 52 82 53 83 57 84 60 85
REMARK SMILES IDX 54 86 55 87 58 88 56 89
REMARK H PARENT 80 42 48 53
REMARK Flexibility Score: inf
ROOT
ATOM      1  C   UNL     1       0.011  -5.822   1.914  1.00  0.00     0.188 C 
ENDROOT
BRANCH   1   2
ATOM      2  C   UNL     1      -1.255  -6.364   1.206  1.00  0.00     0.188 C 
BRANCH   2   3
ATOM      3  O   UNL     1      -1.334  -7.719   0.790  1.00  0.00    -0.376 OA
BRANCH   3   4
ATOM      4  C   UNL     1      -0.220  -8.286   0.115  1.00  0.00     0.202 C 
BRANCH   4   5
ATOM      5  C   UNL     1       0.352  -7.573  -1.125  1.00  0.00     0.261 C 
BRANCH   5   6
ATOM      6  O   UNL     1       0.464  -6.141  -1.017  1.00  0.00    -0.460 OA
BRANCH   6   7
ATOM      7  C   UNL     1      -0.362  -5.428  -1.821  1.00  0.00     0.330 C 
ATOM      8  O   UNL     1      -1.116  -5.883  -2.672  1.00  0.00    -0.247 OA
BRANCH   7   9
ATOM      9  C   UNL     1      -0.397  -3.987  -1.478  1.00  0.00     0.094 C 
ATOM     10  C   UNL     1       0.479  -3.317  -0.712  1.00  0.00     0.016 C 
BRANCH  10  11
ATOM     11  C   UNL     1       0.330  -1.885  -0.391  1.00  0.00    -0.022 A 
ATOM     12  C   UNL     1       2.610   1.154   0.066  1.00  0.00     0.044 C 
ATOM     13  C   UNL     1       1.384   0.291  -0.000  1.00  0.00    -0.048 A 
ATOM     14  C   UNL     1       0.121   0.867   0.165  1.00  0.00     0.042 A 
ATOM     15  C   UNL     1       1.478  -1.086  -0.271  1.00  0.00     0.011 A 
ATOM     16  C   UNL     1      -1.014   0.070   0.090  1.00  0.00     0.124 A 
ATOM     17  F   UNL     1      -2.220   0.626   0.264  1.00  0.00    -0.207 F 
ATOM     18  C   UNL     1      -0.922  -1.294  -0.173  1.00  0.00     0.047 A 
ENDBRANCH  10  11
ENDBRANCH   7   9
ENDBRANCH   6   7
ENDBRANCH   5   6
ENDBRANCH   4   5
ENDBRANCH   3   4
ENDBRANCH   2   3
ENDBRANCH   1   2
BRANCH   1  19
ATOM     19  O   UNL     1       1.171  -6.649   1.864  1.00  0.00    -0.376 OA
BRANCH  19  20
ATOM     20  C   UNL     1       1.718  -7.009   3.136  1.00  0.00     0.202 C 
BRANCH  20  21
ATOM     21  C   UNL     1       1.049  -8.248   3.750  1.00  0.00     0.261 C 
BRANCH  21  22
ATOM     22  O   UNL     1      -0.373  -8.138   3.785  1.00  0.00    -0.460 OA
BRANCH  22  23
ATOM     23  C   UNL     1      -0.798  -7.157   4.596  1.00  0.00     0.338 C 
ATOM     24  O   UNL     1      -0.138  -6.461   5.352  1.00  0.00    -0.246 OA
BRANCH  23  25
ATOM     25  C   UNL     1      -2.238  -6.984   4.446  1.00  0.00     0.060 A 
ATOM     26  C   UNL     1      -2.702  -5.658   4.515  1.00  0.00     0.016 A 
ATOM     27  C   UNL     1      -2.992  -8.083   4.835  1.00  0.00     0.016 A 
ATOM     28  C   UNL     1      -3.789  -5.394   5.309  1.00  0.00     0.010 A 
ATOM     29  C   UNL     1      -4.047  -7.817   5.661  1.00  0.00     0.010 A 
ATOM     30  C   UNL     1      -4.324  -6.478   5.990  1.00  0.00    -0.014 A 
BRANCH  30  31
ATOM     31  C   UNL     1      -4.957  -6.310   7.276  1.00  0.00     0.031 A 
ATOM     32  C   UNL     1      -6.408  -6.403   7.360  1.00  0.00     0.074 A 
ATOM     33  C   UNL     1      -4.141  -6.295   8.352  1.00  0.00     0.049 A 
ATOM     34  N   UNL     1      -7.093  -6.066   8.391  1.00  0.00    -0.248 NA
ATOM     35  C   UNL     1      -7.214  -6.858   6.234  1.00  0.00     0.031 C 
ATOM     36  C   UNL     1      -4.479  -6.577   9.739  1.00  0.00     0.029 A 
ATOM     37  N   UNL     1      -2.811  -5.835   8.400  1.00  0.00    -0.354 N 
ATOM     38  C   UNL     1      -8.363  -6.547   8.196  1.00  0.00     0.074 A 
ATOM     39  C   UNL     1      -8.415  -6.948   6.809  1.00  0.00     0.031 C 
ATOM     40  C   UNL     1      -3.526  -6.053  10.529  1.00  0.00     0.029 A 
ATOM     41  C   UNL     1      -2.655  -5.255   9.679  1.00  0.00     0.049 A 
ATOM     42  H   UNL     1      -2.132  -5.904   7.691  1.00  0.00     0.167 HD
ATOM     43  C   UNL     1      -9.168  -6.705   9.283  1.00  0.00     0.037 A 
ATOM     44  C   UNL     1      -2.506  -3.900   9.787  1.00  0.00     0.037 A 
ATOM     45  C   UNL     1      -8.528  -6.187  10.492  1.00  0.00     0.049 A 
ATOM     46  C   UNL     1      -3.664  -3.199  10.477  1.00  0.00     0.074 A 
ATOM     47  C   UNL     1      -7.795  -6.761  11.520  1.00  0.00     0.029 A 
ATOM     48  N   UNL     1      -8.265  -4.829  10.560  1.00  0.00    -0.354 N 
ATOM     49  N   UNL     1      -4.801  -3.768  10.771  1.00  0.00    -0.248 NA
ATOM     50  C   UNL     1      -3.655  -1.776  10.818  1.00  0.00     0.031 C 
ATOM     51  C   UNL     1      -7.065  -5.729  12.180  1.00  0.00     0.029 A 
ATOM     52  C   UNL     1      -7.360  -4.529  11.559  1.00  0.00     0.049 A 
ATOM     53  H   UNL     1      -8.674  -4.159   9.967  1.00  0.00     0.167 HD
ATOM     54  C   UNL     1      -5.651  -2.846  11.314  1.00  0.00     0.074 A 
ATOM     55  C   UNL     1      -4.896  -1.606  11.308  1.00  0.00     0.031 C 
ATOM     56  C   UNL     1      -6.917  -3.154  11.715  1.00  0.00     0.037 A 
BRANCH  43  57
ATOM     57  C   UNL     1     -10.371  -7.606   9.255  1.00  0.00     0.064 A 
ATOM     58  C   UNL     1     -10.704  -8.389  10.376  1.00  0.00     0.173 A 
ATOM     59  C   UNL     1     -11.186  -7.801   8.124  1.00  0.00     0.173 A 
ATOM     60  F   UNL     1     -10.079  -8.234  11.550  1.00  0.00    -0.203 F 
ATOM     61  C   UNL     1     -11.689  -9.377  10.327  1.00  0.00     0.198 A 
ATOM     62  C   UNL     1     -12.127  -8.831   8.053  1.00  0.00     0.198 A 
ATOM     63  F   UNL     1     -11.120  -6.974   7.072  1.00  0.00    -0.203 F 
ATOM     64  F   UNL     1     -11.958 -10.100  11.424  1.00  0.00    -0.200 F 
ATOM     65  C   UNL     1     -12.370  -9.628   9.153  1.00  0.00     0.200 A 
ATOM     66  F   UNL     1     -12.791  -9.050   6.909  1.00  0.00    -0.200 F 
ATOM     67  F   UNL     1     -13.273 -10.615   9.091  1.00  0.00    -0.200 F 
ENDBRANCH  43  57
BRANCH  44  68
ATOM     68  C   UNL     1      -1.705  -3.315   8.675  1.00  0.00     0.064 A 
ATOM     69  C   UNL     1      -0.356  -3.700   8.531  1.00  0.00     0.173 A 
ATOM     70  C   UNL     1      -2.317  -2.694   7.580  1.00  0.00     0.173 A 
ATOM     71  F   UNL     1       0.283  -4.293   9.553  1.00  0.00    -0.203 F 
ATOM     72  C   UNL     1       0.316  -3.561   7.317  1.00  0.00     0.198 A 
ATOM     73  C   UNL     1      -1.640  -2.554   6.367  1.00  0.00     0.198 A 
ATOM     74  F   UNL     1      -3.599  -2.310   7.647  1.00  0.00    -0.203 F 
ATOM     75  F   UNL     1       1.575  -4.003   7.191  1.00  0.00    -0.200 F 
ATOM     76  C   UNL     1      -0.339  -3.014   6.226  1.00  0.00     0.200 A 
ATOM     77  F   UNL     1      -2.279  -2.043   5.304  1.00  0.00    -0.200 F 
ATOM     78  F   UNL     1       0.269  -2.954   5.032  1.00  0.00    -0.200 F 
ENDBRANCH  44  68
BRANCH  56  79
ATOM     79  C   UNL     1      -7.852  -2.162  12.334  1.00  0.00     0.064 A 
ATOM     80  C   UNL     1      -7.465  -1.337  13.399  1.00  0.00     0.173 A 
ATOM     81  C   UNL     1      -9.214  -2.121  11.968  1.00  0.00     0.173 A 
ATOM     82  F   UNL     1      -6.200  -1.341  13.844  1.00  0.00    -0.203 F 
ATOM     83  C   UNL     1      -8.382  -0.505  14.043  1.00  0.00     0.198 A 
ATOM     84  C   UNL     1     -10.137  -1.336  12.652  1.00  0.00     0.198 A 
ATOM     85  F   UNL     1      -9.679  -2.826  10.926  1.00  0.00    -0.203 F 
ATOM     86  F   UNL     1      -7.966   0.306  15.026  1.00  0.00    -0.200 F 
ATOM     87  C   UNL     1      -9.719  -0.519  13.683  1.00  0.00     0.200 A 
ATOM     88  F   UNL     1     -11.431  -1.378  12.304  1.00  0.00    -0.200 F 
ATOM     89  F   UNL     1     -10.603   0.256  14.325  1.00  0.00    -0.200 F 
ENDBRANCH  56  79
ENDBRANCH  30  31
ENDBRANCH  23  25
ENDBRANCH  22  23
ENDBRANCH  21  22
ENDBRANCH  20  21
ENDBRANCH  19  20
ENDBRANCH   1  19
TORSDOF 18
