REMARK SMILES COCCNC(=O)c1cccc(NC(=O)[C@@H]2CCCC[C@H]2C(=O)OCCOCCOCCOC(=O)c2ccc(-c3c4nc(c(-c5c(F)c(F)c(F)c(F)c5F)c5ccc([nH]5)c(-c5c(F)c(F)c(F)c(F)c5F)c5nc(c(-c6c(F)c(F)c(F)c(F)c6F)c6ccc3[nH]6)C=C5)C=C4)cc2)c1
REMARK SMILES IDX 26 1 25 2 24 3 22 4 23 5 21 6 16 7 17 8 18 9 20 10 19 11
REMARK SMILES IDX 14 12 13 13 15 15 12 16 8 17 9 18 99 19 10 20 11 21 6 22
REMARK SMILES IDX 5 23 7 25 4 26 3 27 2 28 1 29 27 30 28 31 29 32 30 33 31 34
REMARK SMILES IDX 32 35 33 36 34 37 35 38 36 39 37 40 98 41 38 42 97 43 39 44
REMARK SMILES IDX 40 45 41 46 91 47 42 48 96 49 90 50 92 51 43 52 95 53 89 54
REMARK SMILES IDX 88 55 44 57 76 58 56 59 75 60 57 61 60 62 74 63 93 64 58 65
REMARK SMILES IDX 59 66 73 68 94 69 61 70 45 71 46 72 54 73 47 74 48 75 52 76
REMARK SMILES IDX 55 77 49 78 50 79 53 80 51 81 77 82 78 83 86 84 79 85 80 86
REMARK SMILES IDX 84 87 87 88 81 89 82 90 85 91 83 92 62 93 63 94 71 95 64 96
REMARK SMILES IDX 65 97 69 98 72 99 66 100 67 101 70 102 68 103
REMARK H PARENT 13 14 5 24 92 56 60 67
REMARK Flexibility Score: inf
ROOT
ATOM      1  C   UNL     1       3.174   5.180   8.390  1.00  0.00     0.202 C 
ENDROOT
BRANCH   1   2
ATOM      2  C   UNL     1       4.027   4.342   9.346  1.00  0.00     0.261 C 
BRANCH   2   3
ATOM      3  O   UNL     1       3.589   2.981   9.551  1.00  0.00    -0.463 OA
BRANCH   3   4
ATOM      4  C   UNL     1       2.821   2.769  10.655  1.00  0.00     0.309 C 
ATOM      5  O   UNL     1       2.390   3.659  11.379  1.00  0.00    -0.252 OA
BRANCH   4   6
ATOM      6  C   UNL     1       2.711   1.299  11.038  1.00  0.00     0.111 C 
ATOM      7  C   UNL     1       2.612   0.258   9.891  1.00  0.00     0.093 C 
ATOM      8  C   UNL     1       2.657  -1.168  10.486  1.00  0.00     0.014 C 
ATOM      9  C   UNL     1       3.878  -1.410  11.358  1.00  0.00     0.001 C 
ATOM     10  C   UNL     1       3.946   1.029  11.917  1.00  0.00     0.016 C 
ATOM     11  C   UNL     1       3.958  -0.384  12.477  1.00  0.00     0.001 C 
BRANCH   7  12
ATOM     12  C   UNL     1       1.299   0.319   9.124  1.00  0.00     0.228 C 
ATOM     13  N   UNL     1       1.135  -0.167   7.853  1.00  0.00    -0.326 N 
ATOM     14  H   UNL     1       0.194  -0.145   7.566  1.00  0.00     0.169 HD
ATOM     15  O   UNL     1       0.299   0.799   9.670  1.00  0.00    -0.274 OA
BRANCH  13  16
ATOM     16  C   UNL     1       1.987  -0.691   6.853  1.00  0.00     0.041 A 
ATOM     17  C   UNL     1       2.196  -1.358   4.502  1.00  0.00     0.041 A 
ATOM     18  C   UNL     1       3.554  -1.614   4.694  1.00  0.00     0.014 A 
ATOM     19  C   UNL     1       1.413  -0.912   5.581  1.00  0.00     0.040 A 
ATOM     20  C   UNL     1       4.119  -1.440   5.952  1.00  0.00     0.003 A 
ATOM     21  C   UNL     1       3.336  -0.996   7.021  1.00  0.00     0.026 A 
BRANCH  17  22
ATOM     22  C   UNL     1       1.617  -1.754   3.195  1.00  0.00     0.251 C 
ATOM     23  N   UNL     1       0.713  -0.982   2.521  1.00  0.00    -0.350 N 
ATOM     24  H   UNL     1       0.208  -1.461   1.825  1.00  0.00     0.163 HD
ATOM     25  O   UNL     1       1.965  -2.824   2.697  1.00  0.00    -0.269 OA
BRANCH  23  26
ATOM     26  C   UNL     1       0.370   0.423   2.653  1.00  0.00     0.144 C 
BRANCH  26  27
ATOM     27  C   UNL     1       1.100   1.315   1.640  1.00  0.00     0.181 C 
BRANCH  27  28
ATOM     28  O   UNL     1       0.547   1.246   0.323  1.00  0.00    -0.383 OA
ATOM     29  C   UNL     1       1.044   0.171  -0.462  1.00  0.00     0.194 C 
ENDBRANCH  27  28
ENDBRANCH  26  27
ENDBRANCH  23  26
ENDBRANCH  17  22
ENDBRANCH  13  16
ENDBRANCH   7  12
ENDBRANCH   4   6
ENDBRANCH   3   4
ENDBRANCH   2   3
ENDBRANCH   1   2
BRANCH   1  30
ATOM     30  O   UNL     1       1.840   5.420   8.810  1.00  0.00    -0.376 OA
BRANCH  30  31
ATOM     31  C   UNL     1       0.844   4.427   8.572  1.00  0.00     0.188 C 
BRANCH  31  32
ATOM     32  C   UNL     1       1.160   3.266   7.632  1.00  0.00     0.188 C 
BRANCH  32  33
ATOM     33  O   UNL     1       1.563   3.736   6.349  1.00  0.00    -0.376 OA
BRANCH  33  34
ATOM     34  C   UNL     1       0.961   3.042   5.270  1.00  0.00     0.202 C 
BRANCH  34  35
ATOM     35  C   UNL     1      -0.311   3.775   4.838  1.00  0.00     0.261 C 
BRANCH  35  36
ATOM     36  O   UNL     1      -1.336   3.815   5.851  1.00  0.00    -0.460 OA
BRANCH  36  37
ATOM     37  C   UNL     1      -1.861   2.631   6.232  1.00  0.00     0.338 C 
ATOM     38  O   UNL     1      -1.574   1.525   5.788  1.00  0.00    -0.246 OA
BRANCH  37  39
ATOM     39  C   UNL     1      -2.699   2.851   7.428  1.00  0.00     0.060 A 
ATOM     40  C   UNL     1      -2.489   2.034   8.544  1.00  0.00     0.016 A 
ATOM     41  C   UNL     1      -3.687   3.836   7.459  1.00  0.00     0.016 A 
ATOM     42  C   UNL     1      -3.267   2.186   9.691  1.00  0.00     0.010 A 
ATOM     43  C   UNL     1      -4.487   3.972   8.599  1.00  0.00     0.010 A 
ATOM     44  C   UNL     1      -4.297   3.132   9.713  1.00  0.00    -0.014 A 
BRANCH  44  45
ATOM     45  C   UNL     1      -5.284   3.130  10.820  1.00  0.00     0.031 A 
ATOM     46  C   UNL     1      -6.610   2.459  10.595  1.00  0.00     0.074 A 
ATOM     47  C   UNL     1      -5.012   3.699  12.008  1.00  0.00     0.049 A 
ATOM     48  N   UNL     1      -7.676   2.442  11.353  1.00  0.00    -0.248 NA
ATOM     49  C   UNL     1      -6.752   1.706   9.338  1.00  0.00     0.031 C 
ATOM     50  C   UNL     1      -3.744   4.321  12.380  1.00  0.00     0.029 A 
ATOM     51  N   UNL     1      -5.805   3.857  13.120  1.00  0.00    -0.354 N 
ATOM     52  C   UNL     1      -8.622   1.705  10.654  1.00  0.00     0.074 A 
ATOM     53  C   UNL     1      -8.009   1.295   9.409  1.00  0.00     0.031 C 
ATOM     54  C   UNL     1      -3.852   4.816  13.626  1.00  0.00     0.029 A 
ATOM     55  C   UNL     1      -5.208   4.583  14.121  1.00  0.00     0.049 A 
ATOM     56  H   UNL     1      -6.714   3.484  13.191  1.00  0.00     0.167 HD
ATOM     57  C   UNL     1      -9.889   1.400  11.018  1.00  0.00     0.037 A 
ATOM     58  C   UNL     1      -5.714   5.039  15.284  1.00  0.00     0.037 A 
ATOM     59  C   UNL     1     -10.490   1.784  12.267  1.00  0.00     0.049 A 
ATOM     60  C   UNL     1      -7.148   4.734  15.641  1.00  0.00     0.074 A 
ATOM     61  C   UNL     1     -11.762   1.501  12.735  1.00  0.00     0.029 A 
ATOM     62  N   UNL     1      -9.859   2.533  13.248  1.00  0.00    -0.354 N 
ATOM     63  N   UNL     1      -8.041   4.041  14.975  1.00  0.00    -0.248 NA
ATOM     64  C   UNL     1      -7.648   5.280  16.912  1.00  0.00     0.031 C 
ATOM     65  C   UNL     1     -11.916   2.119  13.980  1.00  0.00     0.029 A 
ATOM     66  C   UNL     1     -10.724   2.742  14.310  1.00  0.00     0.049 A 
ATOM     67  H   UNL     1      -8.934   2.866  13.198  1.00  0.00     0.167 HD
ATOM     68  C   UNL     1      -9.191   4.046  15.755  1.00  0.00     0.074 A 
ATOM     69  C   UNL     1      -8.882   4.799  16.951  1.00  0.00     0.031 C 
ATOM     70  C   UNL     1     -10.396   3.480  15.502  1.00  0.00     0.037 A 
BRANCH  57  71
ATOM     71  C   UNL     1     -10.731   0.641  10.037  1.00  0.00     0.064 A 
ATOM     72  C   UNL     1     -10.530  -0.724   9.789  1.00  0.00     0.173 A 
ATOM     73  C   UNL     1     -11.786   1.284   9.373  1.00  0.00     0.173 A 
ATOM     74  F   UNL     1      -9.523  -1.379  10.386  1.00  0.00    -0.203 F 
ATOM     75  C   UNL     1     -11.348  -1.415   8.898  1.00  0.00     0.198 A 
ATOM     76  C   UNL     1     -12.617   0.585   8.503  1.00  0.00     0.198 A 
ATOM     77  F   UNL     1     -12.019   2.590   9.578  1.00  0.00    -0.203 F 
ATOM     78  F   UNL     1     -11.117  -2.711   8.646  1.00  0.00    -0.200 F 
ATOM     79  C   UNL     1     -12.395  -0.762   8.263  1.00  0.00     0.200 A 
ATOM     80  F   UNL     1     -13.635   1.215   7.899  1.00  0.00    -0.200 F 
ATOM     81  F   UNL     1     -13.188  -1.432   7.415  1.00  0.00    -0.200 F 
ENDBRANCH  57  71
BRANCH  58  82
ATOM     82  C   UNL     1      -4.879   5.878  16.185  1.00  0.00     0.064 A 
ATOM     83  C   UNL     1      -4.489   5.420  17.451  1.00  0.00     0.173 A 
ATOM     84  C   UNL     1      -4.498   7.177  15.817  1.00  0.00     0.173 A 
ATOM     85  F   UNL     1      -4.859   4.199  17.865  1.00  0.00    -0.203 F 
ATOM     86  C   UNL     1      -3.771   6.237  18.323  1.00  0.00     0.198 A 
ATOM     87  C   UNL     1      -3.753   7.981  16.677  1.00  0.00     0.198 A 
ATOM     88  F   UNL     1      -4.856   7.669  14.622  1.00  0.00    -0.203 F 
ATOM     89  F   UNL     1      -3.465   5.796  19.551  1.00  0.00    -0.200 F 
ATOM     90  C   UNL     1      -3.399   7.515  17.933  1.00  0.00     0.200 A 
ATOM     91  F   UNL     1      -3.394   9.214  16.294  1.00  0.00    -0.200 F 
ATOM     92  F   UNL     1      -2.716   8.302  18.774  1.00  0.00    -0.200 F 
ENDBRANCH  58  82
BRANCH  70  93
ATOM     93  C   UNL     1     -11.461   3.614  16.552  1.00  0.00     0.064 A 
ATOM     94  C   UNL     1     -12.118   4.830  16.784  1.00  0.00     0.173 A 
ATOM     95  C   UNL     1     -11.864   2.495  17.299  1.00  0.00     0.173 A 
ATOM     96  F   UNL     1     -11.762   5.931  16.105  1.00  0.00    -0.203 F 
ATOM     97  C   UNL     1     -13.125   4.928  17.742  1.00  0.00     0.198 A 
ATOM     98  C   UNL     1     -12.889   2.590  18.235  1.00  0.00     0.198 A 
ATOM     99  F   UNL     1     -11.273   1.306  17.108  1.00  0.00    -0.203 F 
ATOM    100  F   UNL     1     -13.711   6.110  17.977  1.00  0.00    -0.200 F 
ATOM    101  C   UNL     1     -13.514   3.807  18.460  1.00  0.00     0.200 A 
ATOM    102  F   UNL     1     -13.275   1.503  18.917  1.00  0.00    -0.200 F 
ATOM    103  F   UNL     1     -14.490   3.901  19.375  1.00  0.00    -0.200 F 
ENDBRANCH  70  93
ENDBRANCH  44  45
ENDBRANCH  37  39
ENDBRANCH  36  37
ENDBRANCH  35  36
ENDBRANCH  34  35
ENDBRANCH  33  34
ENDBRANCH  32  33
ENDBRANCH  31  32
ENDBRANCH  30  31
ENDBRANCH   1  30
TORSDOF 23
