REMARK SMILES O=C(CC1(CC(=O)OCCOCCOCCOC(=O)c2ccc(-c3c4nc(c(-c5c(F)c(F)c(F)c(F)c5F)c5ccc([nH]5)c(-c5c(F)c(F)c(F)c(F)c5F)c5nc(c(-c6c(F)c(F)c(F)c(F)c6F)c6ccc3[nH]6)C=C5)C=C4)cc2)CCCCC1)Nc1ccc2ccccc2n1
REMARK SMILES IDX 12 1 11 2 10 3 9 4 8 5 6 6 7 7 5 8 4 9 83 10 87 11 84 12
REMARK SMILES IDX 86 13 85 14 3 15 2 16 1 17 88 18 89 20 90 21 98 22 91 23
REMARK SMILES IDX 97 24 92 25 96 26 93 27 95 28 94 29 13 30 14 31 15 32 16 33
REMARK SMILES IDX 17 34 18 35 19 36 20 37 21 38 82 39 22 40 81 41 23 42 24 43
REMARK SMILES IDX 25 44 75 45 26 46 80 47 74 48 76 49 27 50 79 51 73 52 72 53
REMARK SMILES IDX 28 55 60 56 40 57 59 58 41 59 44 60 58 61 77 62 42 63 43 64
REMARK SMILES IDX 57 66 78 67 45 68 29 69 30 70 38 71 31 72 32 73 36 74 39 75
REMARK SMILES IDX 33 76 34 77 37 78 35 79 61 80 62 81 70 82 63 83 64 84 68 85
REMARK SMILES IDX 71 86 65 87 66 88 69 89 67 90 46 91 47 92 55 93 48 94 49 95
REMARK SMILES IDX 53 96 56 97 50 98 51 99 54 100 52 101
REMARK H PARENT 88 19 76 54 44 65
REMARK Flexibility Score: inf
ROOT
ATOM      1  C   UNL     1       5.219  -2.179  -3.971  1.00  0.00     0.188 C 
ENDROOT
BRANCH   1   2
ATOM      2  O   UNL     1       6.559  -2.570  -4.253  1.00  0.00    -0.376 OA
BRANCH   2   3
ATOM      3  C   UNL     1       7.523  -2.320  -3.227  1.00  0.00     0.202 C 
BRANCH   3   4
ATOM      4  C   UNL     1       7.738  -0.845  -2.843  1.00  0.00     0.261 C 
BRANCH   4   5
ATOM      5  O   UNL     1       6.538  -0.184  -2.382  1.00  0.00    -0.463 OA
BRANCH   5   6
ATOM      6  C   UNL     1       6.356   1.079  -2.849  1.00  0.00     0.306 C 
ATOM      7  O   UNL     1       7.183   1.705  -3.503  1.00  0.00    -0.252 OA
BRANCH   6   8
ATOM      8  C   UNL     1       4.950   1.604  -2.623  1.00  0.00     0.130 C 
BRANCH   8   9
ATOM      9  C   UNL     1       4.352   1.767  -1.183  1.00  0.00    -0.010 C 
ATOM     10  C   UNL     1       3.619   3.145  -1.119  1.00  0.00     0.008 C 
ATOM     11  C   UNL     1       5.406   1.718  -0.052  1.00  0.00     0.008 C 
ATOM     12  C   UNL     1       4.562   4.347  -1.090  1.00  0.00     0.001 C 
ATOM     13  C   UNL     1       6.349   2.915  -0.043  1.00  0.00     0.001 C 
ATOM     14  C   UNL     1       5.575   4.224   0.042  1.00  0.00     0.000 C 
BRANCH   9  15
ATOM     15  C   UNL     1       3.343   0.610  -0.945  1.00  0.00     0.108 C 
BRANCH  15  16
ATOM     16  C   UNL     1       2.118   0.946  -0.104  1.00  0.00     0.226 C 
ATOM     17  O   UNL     1       1.111   1.365  -0.673  1.00  0.00    -0.275 OA
ATOM     18  N   UNL     1       2.240   0.617   1.240  1.00  0.00    -0.311 N 
ATOM     19  H   UNL     1       3.112   0.633   1.695  1.00  0.00     0.171 HD
BRANCH  18  20
ATOM     20  C   UNL     1       1.060   0.260   1.924  1.00  0.00     0.133 A 
ATOM     21  C   UNL     1       0.964  -1.097   2.176  1.00  0.00     0.048 A 
ATOM     22  N   UNL     1      -0.013   1.070   1.868  1.00  0.00    -0.231 NA
ATOM     23  C   UNL     1      -0.259  -1.692   1.906  1.00  0.00     0.014 A 
ATOM     24  C   UNL     1      -1.214   0.499   1.692  1.00  0.00     0.073 A 
ATOM     25  C   UNL     1      -1.354  -0.895   1.564  1.00  0.00     0.000 A 
ATOM     26  C   UNL     1      -2.349   1.284   1.540  1.00  0.00     0.029 A 
ATOM     27  C   UNL     1      -2.547  -1.444   1.070  1.00  0.00     0.010 A 
ATOM     28  C   UNL     1      -3.562   0.735   1.115  1.00  0.00     0.002 A 
ATOM     29  C   UNL     1      -3.642  -0.623   0.821  1.00  0.00     0.001 A 
ENDBRANCH  18  20
ENDBRANCH  15  16
ENDBRANCH   9  15
ENDBRANCH   8   9
ENDBRANCH   6   8
ENDBRANCH   5   6
ENDBRANCH   4   5
ENDBRANCH   3   4
ENDBRANCH   2   3
ENDBRANCH   1   2
BRANCH   1  30
ATOM     30  C   UNL     1       4.584  -2.813  -2.727  1.00  0.00     0.188 C 
BRANCH  30  31
ATOM     31  O   UNL     1       5.336  -2.610  -1.538  1.00  0.00    -0.376 OA
BRANCH  31  32
ATOM     32  C   UNL     1       4.834  -3.132  -0.311  1.00  0.00     0.202 C 
BRANCH  32  33
ATOM     33  C   UNL     1       4.083  -4.474  -0.344  1.00  0.00     0.261 C 
BRANCH  33  34
ATOM     34  O   UNL     1       2.907  -4.490  -1.177  1.00  0.00    -0.460 OA
BRANCH  34  35
ATOM     35  C   UNL     1       1.993  -3.516  -0.968  1.00  0.00     0.338 C 
ATOM     36  O   UNL     1       1.970  -2.750  -0.021  1.00  0.00    -0.246 OA
BRANCH  35  37
ATOM     37  C   UNL     1       1.176  -3.352  -2.194  1.00  0.00     0.060 A 
ATOM     38  C   UNL     1       0.748  -2.063  -2.542  1.00  0.00     0.016 A 
ATOM     39  C   UNL     1       0.910  -4.430  -3.045  1.00  0.00     0.016 A 
ATOM     40  C   UNL     1       0.049  -1.851  -3.731  1.00  0.00     0.010 A 
ATOM     41  C   UNL     1       0.199  -4.221  -4.228  1.00  0.00     0.010 A 
ATOM     42  C   UNL     1      -0.255  -2.935  -4.565  1.00  0.00    -0.014 A 
BRANCH  42  43
ATOM     43  C   UNL     1      -1.219  -2.761  -5.676  1.00  0.00     0.031 A 
ATOM     44  C   UNL     1      -2.658  -3.109  -5.422  1.00  0.00     0.074 A 
ATOM     45  C   UNL     1      -0.840  -2.294  -6.878  1.00  0.00     0.049 A 
ATOM     46  N   UNL     1      -3.679  -3.089  -6.239  1.00  0.00    -0.248 NA
ATOM     47  C   UNL     1      -2.987  -3.543  -4.054  1.00  0.00     0.031 C 
ATOM     48  C   UNL     1       0.514  -1.883  -7.240  1.00  0.00     0.029 A 
ATOM     49  N   UNL     1      -1.572  -2.093  -8.023  1.00  0.00    -0.354 N 
ATOM     50  C   UNL     1      -4.767  -3.509  -5.487  1.00  0.00     0.074 A 
ATOM     51  C   UNL     1      -4.279  -3.811  -4.160  1.00  0.00     0.031 C 
ATOM     52  C   UNL     1       0.517  -1.483  -8.524  1.00  0.00     0.029 A 
ATOM     53  C   UNL     1      -0.826  -1.641  -9.082  1.00  0.00     0.049 A 
ATOM     54  H   UNL     1      -2.541  -2.257  -8.078  1.00  0.00     0.167 HD
ATOM     55  C   UNL     1      -6.061  -3.623  -5.866  1.00  0.00     0.037 A 
ATOM     56  C   UNL     1      -1.186  -1.402 -10.359  1.00  0.00     0.037 A 
ATOM     57  C   UNL     1      -6.549  -3.323  -7.185  1.00  0.00     0.049 A 
ATOM     58  C   UNL     1      -2.621  -1.610 -10.778  1.00  0.00     0.074 A 
ATOM     59  C   UNL     1      -7.846  -3.393  -7.661  1.00  0.00     0.029 A 
ATOM     60  N   UNL     1      -5.756  -2.904  -8.242  1.00  0.00    -0.354 N 
ATOM     61  N   UNL     1      -3.650  -1.987 -10.059  1.00  0.00    -0.248 NA
ATOM     62  C   UNL     1      -2.943  -1.358 -12.191  1.00  0.00     0.031 C 
ATOM     63  C   UNL     1      -7.830  -3.070  -9.021  1.00  0.00     0.029 A 
ATOM     64  C   UNL     1      -6.532  -2.741  -9.379  1.00  0.00     0.049 A 
ATOM     65  H   UNL     1      -4.785  -2.745  -8.193  1.00  0.00     0.167 HD
ATOM     66  C   UNL     1      -4.741  -1.990 -10.920  1.00  0.00     0.074 A 
ATOM     67  C   UNL     1      -4.252  -1.566 -12.215  1.00  0.00     0.031 C 
ATOM     68  C   UNL     1      -6.033  -2.312 -10.661  1.00  0.00     0.037 A 
BRANCH  55  69
ATOM     69  C   UNL     1      -7.032  -4.130  -4.842  1.00  0.00     0.064 A 
ATOM     70  C   UNL     1      -7.414  -3.355  -3.737  1.00  0.00     0.173 A 
ATOM     71  C   UNL     1      -7.593  -5.409  -4.974  1.00  0.00     0.173 A 
ATOM     72  F   UNL     1      -6.888  -2.135  -3.553  1.00  0.00    -0.203 F 
ATOM     73  C   UNL     1      -8.299  -3.854  -2.785  1.00  0.00     0.198 A 
ATOM     74  C   UNL     1      -8.501  -5.893  -4.037  1.00  0.00     0.198 A 
ATOM     75  F   UNL     1      -7.258  -6.191  -6.011  1.00  0.00    -0.203 F 
ATOM     76  F   UNL     1      -8.604  -3.120  -1.706  1.00  0.00    -0.200 F 
ATOM     77  C   UNL     1      -8.847  -5.119  -2.939  1.00  0.00     0.200 A 
ATOM     78  F   UNL     1      -9.035  -7.112  -4.192  1.00  0.00    -0.200 F 
ATOM     79  F   UNL     1      -9.698  -5.598  -2.022  1.00  0.00    -0.200 F 
ENDBRANCH  55  69
BRANCH  56  80
ATOM     80  C   UNL     1      -0.169  -0.955 -11.347  1.00  0.00     0.064 A 
ATOM     81  C   UNL     1      -0.211   0.333 -11.901  1.00  0.00     0.173 A 
ATOM     82  C   UNL     1       0.849  -1.817 -11.780  1.00  0.00     0.173 A 
ATOM     83  F   UNL     1      -1.185   1.183 -11.544  1.00  0.00    -0.203 F 
ATOM     84  C   UNL     1       0.717   0.735 -12.860  1.00  0.00     0.198 A 
ATOM     85  C   UNL     1       1.793  -1.405 -12.718  1.00  0.00     0.198 A 
ATOM     86  F   UNL     1       0.928  -3.062 -11.288  1.00  0.00    -0.203 F 
ATOM     87  F   UNL     1       0.624   1.953 -13.410  1.00  0.00    -0.200 F 
ATOM     88  C   UNL     1       1.722  -0.132 -13.263  1.00  0.00     0.200 A 
ATOM     89  F   UNL     1       2.766  -2.244 -13.099  1.00  0.00    -0.200 F 
ATOM     90  F   UNL     1       2.614   0.255 -14.185  1.00  0.00    -0.200 F 
ENDBRANCH  56  80
BRANCH  68  91
ATOM     91  C   UNL     1      -7.021  -2.188 -11.786  1.00  0.00     0.064 A 
ATOM     92  C   UNL     1      -7.031  -3.088 -12.862  1.00  0.00     0.173 A 
ATOM     93  C   UNL     1      -8.006  -1.189 -11.758  1.00  0.00     0.173 A 
ATOM     94  F   UNL     1      -6.104  -4.054 -12.943  1.00  0.00    -0.203 F 
ATOM     95  C   UNL     1      -7.976  -2.976 -13.880  1.00  0.00     0.198 A 
ATOM     96  C   UNL     1      -8.968  -1.099 -12.761  1.00  0.00     0.198 A 
ATOM     97  F   UNL     1      -8.048  -0.309 -10.746  1.00  0.00    -0.203 F 
ATOM     98  F   UNL     1      -7.939  -3.820 -14.920  1.00  0.00    -0.200 F 
ATOM     99  C   UNL     1      -8.948  -1.989 -13.824  1.00  0.00     0.200 A 
ATOM    100  F   UNL     1      -9.916  -0.155 -12.696  1.00  0.00    -0.200 F 
ATOM    101  F   UNL     1      -9.863  -1.891 -14.799  1.00  0.00    -0.200 F 
ENDBRANCH  68  91
ENDBRANCH  42  43
ENDBRANCH  35  37
ENDBRANCH  34  35
ENDBRANCH  33  34
ENDBRANCH  32  33
ENDBRANCH  31  32
ENDBRANCH  30  31
ENDBRANCH   1  30
TORSDOF 21
