REMARK SMILES Cc1ccc(S(=O)(=O)n2cc(C(=O)C(=O)NCC(=O)NCC(=O)OCCOCCOCCOC(=O)c3ccc(-c4c5nc(c(-c6c(F)c(F)c(F)c(F)c6F)c6ccc([nH]6)c(-c6c(F)c(F)c(F)c(F)c6F)c6nc(c(-c7c(F)c(F)c(F)c(F)c7F)c7ccc4[nH]7)C=C6)C=C5)cc3)c3ccccc32)cc1
REMARK SMILES IDX 26 1 25 2 24 3 22 4 23 5 21 6 20 7 18 8 19 9 17 11 16 12
REMARK SMILES IDX 14 13 15 14 12 16 13 17 11 18 9 19 10 20 104 21 99 22 103 23
REMARK SMILES IDX 100 24 102 25 101 26 6 27 7 28 8 29 5 30 1 31 2 32 3 33
REMARK SMILES IDX 106 34 4 35 105 36 27 37 28 38 29 39 30 40 31 41 32 42 33 43
REMARK SMILES IDX 34 44 35 45 36 46 37 47 98 48 38 49 97 50 39 51 40 52 41 53
REMARK SMILES IDX 91 54 42 55 96 56 90 57 92 58 43 59 95 60 89 61 88 62 44 64
REMARK SMILES IDX 76 65 56 66 75 67 57 68 60 69 74 70 93 71 58 72 59 73 73 75
REMARK SMILES IDX 94 76 61 77 45 78 46 79 54 80 47 81 48 82 52 83 55 84 49 85
REMARK SMILES IDX 50 86 53 87 51 88 77 89 78 90 86 91 79 92 80 93 84 94 87 95
REMARK SMILES IDX 81 96 82 97 85 98 83 99 62 100 63 101 71 102 64 103 65 104
REMARK SMILES IDX 69 105 72 106 66 107 67 108 70 109 68 110
REMARK H PARENT 20 10 16 15 92 63 60 74
REMARK Flexibility Score: inf
ROOT
ATOM      1  C   UNL     1     -12.620   0.304   2.155  1.00  0.00     0.202 C 
ENDROOT
BRANCH   1   2
ATOM      2  C   UNL     1     -11.554   1.390   2.320  1.00  0.00     0.261 C 
BRANCH   2   3
ATOM      3  O   UNL     1     -11.335   2.526   0.988  1.00  0.00    -0.462 OA
BRANCH   3   4
ATOM      4  C   UNL     1     -10.620   3.419   0.021  1.00  0.00     0.325 C 
ATOM      5  O   UNL     1     -11.366   3.873  -0.850  1.00  0.00    -0.250 OA
BRANCH   4   6
ATOM      6  C   UNL     1      -8.919   4.069   0.012  1.00  0.00     0.238 C 
BRANCH   6   7
ATOM      7  N   UNL     1      -8.556   5.635   0.021  1.00  0.00    -0.344 N 
ATOM      8  C   UNL     1      -8.349   6.624   0.979  1.00  0.00     0.239 C 
ATOM      9  O   UNL     1      -9.081   7.623   0.943  1.00  0.00    -0.273 OA
ATOM     10  H   UNL     1      -8.453   5.988  -0.893  1.00  0.00     0.164 HD
BRANCH   8  11
ATOM     11  C   UNL     1      -7.137   6.679   1.906  1.00  0.00     0.216 C 
BRANCH  11  12
ATOM     12  N   UNL     1      -6.757   5.353   2.263  1.00  0.00    -0.340 N 
ATOM     13  C   UNL     1      -5.721   4.550   1.936  1.00  0.00     0.292 C 
ATOM     14  O   UNL     1      -5.580   3.503   2.552  1.00  0.00    -0.265 OA
ATOM     15  H   UNL     1      -7.390   4.927   2.885  1.00  0.00     0.164 HD
BRANCH  13  16
ATOM     16  C   UNL     1      -4.864   4.859   0.727  1.00  0.00     0.252 C 
ATOM     17  O   UNL     1      -4.865   6.022   0.332  1.00  0.00    -0.283 OA
BRANCH  16  18
ATOM     18  C   UNL     1      -4.159   3.775   0.013  1.00  0.00     0.054 A 
ATOM     19  N   UNL     1      -3.089   1.516  -0.545  1.00  0.00    -0.240 N 
ATOM     20  C   UNL     1      -3.733   2.578   0.529  1.00  0.00     0.117 A 
ATOM     21  C   UNL     1      -3.163   2.633  -1.787  1.00  0.00     0.065 A 
ATOM     22  C   UNL     1      -3.788   3.831  -1.336  1.00  0.00     0.012 A 
ATOM     23  C   UNL     1      -2.653   2.685  -3.120  1.00  0.00     0.028 A 
ATOM     24  C   UNL     1      -3.963   4.933  -2.216  1.00  0.00     0.011 A 
ATOM     25  C   UNL     1      -2.746   3.841  -3.910  1.00  0.00     0.002 A 
ATOM     26  C   UNL     1      -3.408   4.959  -3.473  1.00  0.00     0.001 A 
BRANCH  19  27
ATOM     27  S   UNL     1      -3.174  -0.986  -0.477  1.00  0.00     0.268 S 
ATOM     28  O   UNL     1      -3.095  -1.740  -1.725  1.00  0.00    -0.201 OA
ATOM     29  O   UNL     1      -3.613  -1.646   0.752  1.00  0.00    -0.201 OA
BRANCH  27  30
ATOM     30  C   UNL     1      -1.801  -0.463  -0.175  1.00  0.00     0.088 A 
ATOM     31  C   UNL     1       2.930   0.293   0.415  1.00  0.00     0.044 C 
ATOM     32  C   UNL     1       1.435   0.257   0.594  1.00  0.00    -0.051 A 
ATOM     33  C   UNL     1       0.814  -1.347   0.634  1.00  0.00     0.005 A 
ATOM     34  C   UNL     1       0.548   1.667   0.250  1.00  0.00     0.005 A 
ATOM     35  C   UNL     1      -0.716  -1.764   0.272  1.00  0.00     0.022 A 
ATOM     36  C   UNL     1      -1.135   1.483  -0.167  1.00  0.00     0.022 A 
ENDBRANCH  27  30
ENDBRANCH  19  27
ENDBRANCH  16  18
ENDBRANCH  13  16
ENDBRANCH  11  12
ENDBRANCH   8  11
ENDBRANCH   6   7
ENDBRANCH   4   6
ENDBRANCH   3   4
ENDBRANCH   2   3
ENDBRANCH   1   2
BRANCH   1  37
ATOM     37  O   UNL     1     -13.530   0.358   1.087  1.00  0.00    -0.376 OA
BRANCH  37  38
ATOM     38  C   UNL     1     -13.680   1.588   0.419  1.00  0.00     0.188 C 
BRANCH  38  39
ATOM     39  C   UNL     1     -13.831   2.866   1.237  1.00  0.00     0.188 C 
BRANCH  39  40
ATOM     40  O   UNL     1     -13.382   2.842   2.584  1.00  0.00    -0.376 OA
BRANCH  40  41
ATOM     41  C   UNL     1     -14.225   2.746   3.703  1.00  0.00     0.202 C 
BRANCH  41  42
ATOM     42  C   UNL     1     -15.511   3.423   3.393  1.00  0.00     0.261 C 
BRANCH  42  43
ATOM     43  O   UNL     1     -15.387   4.872   3.144  1.00  0.00    -0.460 OA
BRANCH  43  44
ATOM     44  C   UNL     1     -14.489   5.584   2.394  1.00  0.00     0.338 C 
ATOM     45  O   UNL     1     -14.889   6.262   1.449  1.00  0.00    -0.246 OA
BRANCH  44  46
ATOM     46  C   UNL     1     -13.006   5.558   2.683  1.00  0.00     0.060 A 
ATOM     47  C   UNL     1     -12.159   5.793   1.639  1.00  0.00     0.016 A 
ATOM     48  C   UNL     1     -12.373   5.105   3.830  1.00  0.00     0.016 A 
ATOM     49  C   UNL     1     -10.883   5.190   1.653  1.00  0.00     0.010 A 
ATOM     50  C   UNL     1     -11.152   4.347   3.740  1.00  0.00     0.010 A 
ATOM     51  C   UNL     1     -10.430   4.171   2.542  1.00  0.00    -0.014 A 
BRANCH  51  52
ATOM     52  C   UNL     1      -9.359   2.716   2.361  1.00  0.00     0.031 A 
ATOM     53  C   UNL     1      -8.646   2.704   3.657  1.00  0.00     0.074 A 
ATOM     54  C   UNL     1      -9.218   1.510   1.389  1.00  0.00     0.049 A 
ATOM     55  N   UNL     1      -8.232   1.688   4.305  1.00  0.00    -0.248 NA
ATOM     56  C   UNL     1      -8.353   3.979   4.345  1.00  0.00     0.031 C 
ATOM     57  C   UNL     1      -8.937   0.008   1.584  1.00  0.00     0.029 A 
ATOM     58  N   UNL     1      -9.864   1.262   0.084  1.00  0.00    -0.354 N 
ATOM     59  C   UNL     1      -7.250   2.205   5.128  1.00  0.00     0.074 A 
ATOM     60  C   UNL     1      -7.472   3.615   5.261  1.00  0.00     0.031 C 
ATOM     61  C   UNL     1      -9.189  -0.764   0.474  1.00  0.00     0.029 A 
ATOM     62  C   UNL     1      -9.725   0.059  -0.586  1.00  0.00     0.049 A 
ATOM     63  H   UNL     1     -10.409   1.974  -0.321  1.00  0.00     0.167 HD
ATOM     64  C   UNL     1      -6.066   1.558   5.207  1.00  0.00     0.037 A 
ATOM     65  C   UNL     1      -9.530   0.082  -1.942  1.00  0.00     0.037 A 
ATOM     66  C   UNL     1      -6.018   0.519   4.178  1.00  0.00     0.049 A 
ATOM     67  C   UNL     1      -8.039   0.178  -1.980  1.00  0.00     0.074 A 
ATOM     68  C   UNL     1      -6.595  -0.730   4.051  1.00  0.00     0.029 A 
ATOM     69  N   UNL     1      -5.730   0.918   2.882  1.00  0.00    -0.354 N 
ATOM     70  N   UNL     1      -7.372   0.865  -1.083  1.00  0.00    -0.248 NA
ATOM     71  C   UNL     1      -7.295  -0.911  -2.579  1.00  0.00     0.031 C 
ATOM     72  C   UNL     1      -6.505  -1.118   2.673  1.00  0.00     0.029 A 
ATOM     73  C   UNL     1      -6.031  -0.042   1.925  1.00  0.00     0.049 A 
ATOM     74  H   UNL     1      -5.348   1.798   2.661  1.00  0.00     0.167 HD
ATOM     75  C   UNL     1      -6.527  -0.082  -0.535  1.00  0.00     0.074 A 
ATOM     76  C   UNL     1      -6.382  -1.073  -1.612  1.00  0.00     0.031 C 
ATOM     77  C   UNL     1      -5.749   0.249   0.523  1.00  0.00     0.037 A 
BRANCH  64  78
ATOM     78  C   UNL     1      -5.112   1.756   6.347  1.00  0.00     0.064 A 
ATOM     79  C   UNL     1      -4.346   0.637   6.703  1.00  0.00     0.173 A 
ATOM     80  C   UNL     1      -5.062   2.835   7.260  1.00  0.00     0.173 A 
ATOM     81  F   UNL     1      -4.214  -0.402   5.869  1.00  0.00    -0.203 F 
ATOM     82  C   UNL     1      -3.758   0.521   7.958  1.00  0.00     0.198 A 
ATOM     83  C   UNL     1      -4.459   2.724   8.511  1.00  0.00     0.198 A 
ATOM     84  F   UNL     1      -5.585   4.037   7.012  1.00  0.00    -0.203 F 
ATOM     85  F   UNL     1      -3.159  -0.627   8.295  1.00  0.00    -0.200 F 
ATOM     86  C   UNL     1      -3.848   1.548   8.877  1.00  0.00     0.200 A 
ATOM     87  F   UNL     1      -4.525   3.750   9.373  1.00  0.00    -0.200 F 
ATOM     88  F   UNL     1      -3.353   1.402  10.111  1.00  0.00    -0.200 F 
ENDBRANCH  64  78
BRANCH  65  89
ATOM     89  C   UNL     1     -10.457   0.974  -2.720  1.00  0.00     0.064 A 
ATOM     90  C   UNL     1     -11.823   0.625  -2.761  1.00  0.00     0.173 A 
ATOM     91  C   UNL     1     -10.126   2.274  -3.116  1.00  0.00     0.173 A 
ATOM     92  F   UNL     1     -12.202  -0.636  -2.500  1.00  0.00    -0.203 F 
ATOM     93  C   UNL     1     -12.817   1.595  -2.917  1.00  0.00     0.198 A 
ATOM     94  C   UNL     1     -11.122   3.240  -3.317  1.00  0.00     0.198 A 
ATOM     95  F   UNL     1      -8.847   2.670  -3.126  1.00  0.00    -0.203 F 
ATOM     96  F   UNL     1     -14.099   1.278  -2.680  1.00  0.00    -0.200 F 
ATOM     97  C   UNL     1     -12.462   2.915  -3.123  1.00  0.00     0.200 A 
ATOM     98  F   UNL     1     -10.764   4.531  -3.419  1.00  0.00    -0.200 F 
ATOM     99  F   UNL     1     -13.377   3.882  -2.944  1.00  0.00    -0.200 F 
ENDBRANCH  65  89
BRANCH  77 100
ATOM    100  C   UNL     1      -4.366   0.449   0.109  1.00  0.00     0.064 A 
ATOM    101  C   UNL     1      -3.787   0.391  -1.794  1.00  0.00     0.173 A 
ATOM    102  C   UNL     1      -2.837   0.446   1.369  1.00  0.00     0.173 A 
ATOM    103  F   UNL     1      -4.634   0.364  -2.829  1.00  0.00    -0.203 F 
ATOM    104  C   UNL     1      -1.867   0.235  -2.111  1.00  0.00     0.198 A 
ATOM    105  C   UNL     1      -0.911   0.237   1.117  1.00  0.00     0.198 A 
ATOM    106  F   UNL     1      -3.163   0.543   2.676  1.00  0.00    -0.203 F 
ATOM    107  F   UNL     1      -1.551  -0.078  -3.389  1.00  0.00    -0.200 F 
ATOM    108  C   UNL     1      -0.347   0.057  -0.913  1.00  0.00     0.200 A 
ATOM    109  F   UNL     1      -0.194   0.249   2.262  1.00  0.00    -0.200 F 
ATOM    110  F   UNL     1       0.817  -0.215  -1.541  1.00  0.00    -0.200 F 
ENDBRANCH  77 100
ENDBRANCH  51  52
ENDBRANCH  44  46
ENDBRANCH  43  44
ENDBRANCH  42  43
ENDBRANCH  41  42
ENDBRANCH  40  41
ENDBRANCH  39  40
ENDBRANCH  38  39
ENDBRANCH  37  38
ENDBRANCH   1  37
TORSDOF 24
