REMARK SMILES CC[C@@H]1SC[C@H](C(=O)OCCOCCOCCOC(=O)c2ccc(-c3c4nc(c(-c5c(F)c(F)c(F)c(F)c5F)c5ccc([nH]5)c(-c5c(F)c(F)c(F)c(F)c5F)c5nc(c(-c6c(F)c(F)c(F)c(F)c6F)c6ccc3[nH]6)C=C5)C=C4)cc2)N1C(=O)c1ccc(C)cc1F
REMARK SMILES IDX 13 1 12 2 11 3 10 4 9 5 7 6 8 7 6 8 3 9 4 10 84 11 5 12 2 13
REMARK SMILES IDX 1 14 85 15 86 16 87 17 88 18 93 19 89 20 92 21 94 22 90 23
REMARK SMILES IDX 91 24 14 25 15 26 16 27 17 28 18 29 19 30 20 31 21 32 22 33
REMARK SMILES IDX 83 34 23 35 82 36 24 37 25 38 26 39 76 40 27 41 81 42 75 43
REMARK SMILES IDX 77 44 28 45 80 46 74 47 73 48 29 50 61 51 41 52 60 53 42 54
REMARK SMILES IDX 45 55 59 56 78 57 43 58 44 59 58 61 79 62 46 63 30 64 31 65
REMARK SMILES IDX 39 66 32 67 33 68 37 69 40 70 34 71 35 72 38 73 36 74 62 75
REMARK SMILES IDX 63 76 71 77 64 78 65 79 69 80 72 81 66 82 67 83 70 84 68 85
REMARK SMILES IDX 47 86 48 87 56 88 49 89 50 90 54 91 57 92 51 93 52 94 55 95
REMARK SMILES IDX 53 96
REMARK H PARENT 77 49 45 60
REMARK Flexibility Score: inf
ROOT
ATOM      1  C   UNL     1       3.650   6.712  -1.035  1.00  0.00     0.188 C 
ENDROOT
BRANCH   1   2
ATOM      2  O   UNL     1       5.055   6.869  -1.164  1.00  0.00    -0.376 OA
BRANCH   2   3
ATOM      3  C   UNL     1       5.805   5.945  -1.931  1.00  0.00     0.202 C 
BRANCH   3   4
ATOM      4  C   UNL     1       5.723   4.450  -1.612  1.00  0.00     0.261 C 
BRANCH   4   5
ATOM      5  O   UNL     1       4.415   3.910  -1.393  1.00  0.00    -0.462 OA
BRANCH   5   6
ATOM      6  C   UNL     1       4.080   3.701  -0.089  1.00  0.00     0.329 C 
ATOM      7  O   UNL     1       4.639   4.225   0.871  1.00  0.00    -0.250 OA
BRANCH   6   8
ATOM      8  C   UNL     1       2.831   2.823   0.075  1.00  0.00     0.206 C 
ATOM      9  C   UNL     1       1.072   1.537  -1.000  1.00  0.00     0.144 C 
ATOM     10  S   UNL     1       0.210   3.060  -0.482  1.00  0.00    -0.134 SA
ATOM     11  N   UNL     1       2.490   1.913  -1.036  1.00  0.00    -0.312 N 
ATOM     12  C   UNL     1       1.632   3.709   0.420  1.00  0.00     0.109 C 
BRANCH   9  13
ATOM     13  C   UNL     1       0.351   0.927  -2.207  1.00  0.00     0.033 C 
ATOM     14  C   UNL     1      -0.944   0.213  -1.817  1.00  0.00     0.007 C 
ENDBRANCH   9  13
BRANCH  11  15
ATOM     15  C   UNL     1       3.554   1.077  -1.404  1.00  0.00     0.258 C 
ATOM     16  O   UNL     1       4.651   1.118  -0.844  1.00  0.00    -0.269 OA
BRANCH  15  17
ATOM     17  C   UNL     1       3.411   0.056  -2.435  1.00  0.00     0.075 A 
ATOM     18  C   UNL     1       3.644  -1.268  -2.058  1.00  0.00     0.017 A 
ATOM     19  C   UNL     1       3.067   0.368  -3.746  1.00  0.00     0.136 A 
ATOM     20  C   UNL     1       3.389  -2.292  -2.964  1.00  0.00     0.004 A 
ATOM     21  C   UNL     1       2.795  -0.656  -4.651  1.00  0.00     0.043 A 
ATOM     22  F   UNL     1       2.883   1.639  -4.128  1.00  0.00    -0.206 F 
ATOM     23  C   UNL     1       2.905  -1.995  -4.246  1.00  0.00    -0.048 A 
ATOM     24  C   UNL     1       2.503  -3.116  -5.156  1.00  0.00     0.044 C 
ENDBRANCH  15  17
ENDBRANCH  11  15
ENDBRANCH   6   8
ENDBRANCH   5   6
ENDBRANCH   4   5
ENDBRANCH   3   4
ENDBRANCH   2   3
ENDBRANCH   1   2
BRANCH   1  25
ATOM     25  C   UNL     1       2.780   6.253  -2.227  1.00  0.00     0.188 C 
BRANCH  25  26
ATOM     26  O   UNL     1       3.474   6.168  -3.445  1.00  0.00    -0.376 OA
BRANCH  26  27
ATOM     27  C   UNL     1       3.451   7.244  -4.359  1.00  0.00     0.202 C 
BRANCH  27  28
ATOM     28  C   UNL     1       3.281   8.728  -3.974  1.00  0.00     0.261 C 
BRANCH  28  29
ATOM     29  O   UNL     1       2.960   9.060  -2.620  1.00  0.00    -0.460 OA
BRANCH  29  30
ATOM     30  C   UNL     1       1.663   9.319  -2.340  1.00  0.00     0.338 C 
ATOM     31  O   UNL     1       0.710   9.232  -3.102  1.00  0.00    -0.246 OA
BRANCH  30  32
ATOM     32  C   UNL     1       1.530   9.592  -0.893  1.00  0.00     0.060 A 
ATOM     33  C   UNL     1       0.807   8.697  -0.090  1.00  0.00     0.016 A 
ATOM     34  C   UNL     1       2.110  10.731  -0.332  1.00  0.00     0.016 A 
ATOM     35  C   UNL     1       0.641   8.956   1.275  1.00  0.00     0.010 A 
ATOM     36  C   UNL     1       1.922  11.000   1.028  1.00  0.00     0.010 A 
ATOM     37  C   UNL     1       1.163  10.130   1.835  1.00  0.00    -0.014 A 
BRANCH  37  38
ATOM     38  C   UNL     1       0.759  10.568   3.197  1.00  0.00     0.031 A 
ATOM     39  C   UNL     1      -0.339  11.593   3.315  1.00  0.00     0.074 A 
ATOM     40  C   UNL     1       1.347  10.088   4.308  1.00  0.00     0.049 A 
ATOM     41  N   UNL     1      -0.775  12.234   4.369  1.00  0.00    -0.248 NA
ATOM     42  C   UNL     1      -1.036  11.943   2.067  1.00  0.00     0.031 C 
ATOM     43  C   UNL     1       2.379   9.055   4.343  1.00  0.00     0.029 A 
ATOM     44  N   UNL     1       1.168  10.429   5.628  1.00  0.00    -0.354 N 
ATOM     45  C   UNL     1      -1.793  13.062   3.911  1.00  0.00     0.074 A 
ATOM     46  C   UNL     1      -1.884  12.872   2.480  1.00  0.00     0.031 C 
ATOM     47  C   UNL     1       2.759   8.862   5.620  1.00  0.00     0.029 A 
ATOM     48  C   UNL     1       2.028   9.787   6.486  1.00  0.00     0.049 A 
ATOM     49  H   UNL     1       0.487  11.073   5.930  1.00  0.00     0.167 HD
ATOM     50  C   UNL     1      -2.589  13.897   4.620  1.00  0.00     0.037 A 
ATOM     51  C   UNL     1       2.224   9.956   7.810  1.00  0.00     0.037 A 
ATOM     52  C   UNL     1      -2.491  14.100   6.041  1.00  0.00     0.049 A 
ATOM     53  C   UNL     1       1.402  10.982   8.558  1.00  0.00     0.074 A 
ATOM     54  C   UNL     1      -3.234  14.946   6.846  1.00  0.00     0.029 A 
ATOM     55  N   UNL     1      -1.590  13.448   6.869  1.00  0.00    -0.354 N 
ATOM     56  N   UNL     1       0.441  11.759   8.121  1.00  0.00    -0.248 NA
ATOM     57  C   UNL     1       1.696  11.153   9.990  1.00  0.00     0.031 C 
ATOM     58  C   UNL     1      -2.752  14.840   8.154  1.00  0.00     0.029 A 
ATOM     59  C   UNL     1      -1.752  13.882   8.175  1.00  0.00     0.049 A 
ATOM     60  H   UNL     1      -0.933  12.777   6.574  1.00  0.00     0.167 HD
ATOM     61  C   UNL     1      -0.015  12.467   9.228  1.00  0.00     0.074 A 
ATOM     62  C   UNL     1       0.769  12.024  10.360  1.00  0.00     0.031 C 
ATOM     63  C   UNL     1      -0.995  13.402   9.301  1.00  0.00     0.037 A 
BRANCH  50  64
ATOM     64  C   UNL     1      -3.634  14.666   3.867  1.00  0.00     0.064 A 
ATOM     65  C   UNL     1      -4.764  14.031   3.329  1.00  0.00     0.173 A 
ATOM     66  C   UNL     1      -3.535  16.059   3.725  1.00  0.00     0.173 A 
ATOM     67  F   UNL     1      -4.900  12.700   3.425  1.00  0.00    -0.203 F 
ATOM     68  C   UNL     1      -5.745  14.759   2.661  1.00  0.00     0.198 A 
ATOM     69  C   UNL     1      -4.533  16.787   3.085  1.00  0.00     0.198 A 
ATOM     70  F   UNL     1      -2.477  16.716   4.225  1.00  0.00    -0.203 F 
ATOM     71  F   UNL     1      -6.795  14.126   2.120  1.00  0.00    -0.200 F 
ATOM     72  C   UNL     1      -5.634  16.137   2.549  1.00  0.00     0.200 A 
ATOM     73  F   UNL     1      -4.432  18.120   2.991  1.00  0.00    -0.200 F 
ATOM     74  F   UNL     1      -6.587  16.838   1.919  1.00  0.00    -0.200 F 
ENDBRANCH  50  64
BRANCH  51  75
ATOM     75  C   UNL     1       3.261   9.167   8.535  1.00  0.00     0.064 A 
ATOM     76  C   UNL     1       2.908   8.278   9.561  1.00  0.00     0.173 A 
ATOM     77  C   UNL     1       4.629   9.350   8.280  1.00  0.00     0.173 A 
ATOM     78  F   UNL     1       1.615   8.090   9.867  1.00  0.00    -0.203 F 
ATOM     79  C   UNL     1       3.878   7.636  10.329  1.00  0.00     0.198 A 
ATOM     80  C   UNL     1       5.598   8.679   9.023  1.00  0.00     0.198 A 
ATOM     81  F   UNL     1       5.027  10.195   7.317  1.00  0.00    -0.203 F 
ATOM     82  F   UNL     1       3.510   6.858  11.355  1.00  0.00    -0.200 F 
ATOM     83  C   UNL     1       5.223   7.836  10.058  1.00  0.00     0.200 A 
ATOM     84  F   UNL     1       6.897   8.869   8.753  1.00  0.00    -0.200 F 
ATOM     85  F   UNL     1       6.156   7.232  10.806  1.00  0.00    -0.200 F 
ENDBRANCH  51  75
BRANCH  63  86
ATOM     86  C   UNL     1      -1.340  13.952  10.657  1.00  0.00     0.064 A 
ATOM     87  C   UNL     1      -0.480  14.813  11.354  1.00  0.00     0.173 A 
ATOM     88  C   UNL     1      -2.583  13.654  11.240  1.00  0.00     0.173 A 
ATOM     89  F   UNL     1       0.723  15.121  10.848  1.00  0.00    -0.203 F 
ATOM     90  C   UNL     1      -0.839  15.332  12.596  1.00  0.00     0.198 A 
ATOM     91  C   UNL     1      -2.953  14.203  12.465  1.00  0.00     0.198 A 
ATOM     92  F   UNL     1      -3.449  12.845  10.612  1.00  0.00    -0.203 F 
ATOM     93  F   UNL     1       0.019  16.113  13.267  1.00  0.00    -0.200 F 
ATOM     94  C   UNL     1      -2.078  15.035  13.146  1.00  0.00     0.200 A 
ATOM     95  F   UNL     1      -4.157  13.929  12.984  1.00  0.00    -0.200 F 
ATOM     96  F   UNL     1      -2.426  15.546  14.334  1.00  0.00    -0.200 F 
ENDBRANCH  63  86
ENDBRANCH  37  38
ENDBRANCH  30  32
ENDBRANCH  29  30
ENDBRANCH  28  29
ENDBRANCH  27  28
ENDBRANCH  26  27
ENDBRANCH  25  26
ENDBRANCH   1  25
TORSDOF 20
