REMARK SMILES CC1(C)CCSC[C@@]1(Nc1ccccc1Br)C(=O)OCCOCCOCCOC(=O)c1ccc(-c2c3nc(c(-c4c(F)c(F)c(F)c(F)c4F)c4ccc([nH]4)c(-c4c(F)c(F)c(F)c(F)c4F)c4nc(c(-c5c(F)c(F)c(F)c(F)c5F)c5ccc2[nH]5)C=C4)C=C3)cc1
REMARK SMILES IDX 23 1 22 2 21 3 20 4 19 5 17 6 18 7 8 8 1 9 2 10 3 11 4 12
REMARK SMILES IDX 5 13 7 14 6 15 9 16 10 18 11 19 15 20 12 21 14 22 16 23
REMARK SMILES IDX 13 24 24 25 25 26 26 27 27 28 28 29 29 30 30 31 31 32 32 33
REMARK SMILES IDX 93 34 33 35 92 36 34 37 35 38 36 39 86 40 37 41 91 42 85 43
REMARK SMILES IDX 87 44 38 45 90 46 84 47 83 48 39 50 71 51 51 52 70 53 52 54
REMARK SMILES IDX 55 55 69 56 88 57 53 58 54 59 68 61 89 62 56 63 40 64 41 65
REMARK SMILES IDX 49 66 42 67 43 68 47 69 50 70 44 71 45 72 48 73 46 74 72 75
REMARK SMILES IDX 73 76 81 77 74 78 75 79 79 80 82 81 76 82 77 83 80 84 78 85
REMARK SMILES IDX 57 86 58 87 66 88 59 89 60 90 64 91 67 92 61 93 62 94 65 95
REMARK SMILES IDX 63 96
REMARK H PARENT 9 17 87 49 55 60
REMARK Flexibility Score: inf
ROOT
ATOM      1  C   UNL     1       4.647  -0.036  -0.787  1.00  0.00     0.188 C 
ENDROOT
BRANCH   1   2
ATOM      2  O   UNL     1       5.392  -0.713  -1.784  1.00  0.00    -0.376 OA
BRANCH   2   3
ATOM      3  C   UNL     1       5.527  -0.068  -3.044  1.00  0.00     0.202 C 
BRANCH   3   4
ATOM      4  C   UNL     1       4.263   0.459  -3.742  1.00  0.00     0.261 C 
BRANCH   4   5
ATOM      5  O   UNL     1       3.361   1.310  -2.978  1.00  0.00    -0.461 OA
BRANCH   5   6
ATOM      6  C   UNL     1       2.104   0.801  -2.779  1.00  0.00     0.333 C 
ATOM      7  O   UNL     1       1.835  -0.364  -3.061  1.00  0.00    -0.249 OA
BRANCH   6   8
ATOM      8  C   UNL     1       1.044   1.815  -2.160  1.00  0.00     0.150 C 
ATOM      9  C   UNL     1       0.501  -0.049  -0.379  1.00  0.00     0.014 C 
ATOM     10  C   UNL     1      -0.112   0.937  -1.432  1.00  0.00     0.000 C 
ATOM     11  C   UNL     1      -0.930   0.086  -2.442  1.00  0.00     0.014 C 
ATOM     12  C   UNL     1      -1.169   1.819  -0.692  1.00  0.00     0.020 C 
ATOM     13  C   UNL     1      -0.650   2.737   0.406  1.00  0.00     0.070 C 
ATOM     14  C   UNL     1       1.678   2.728  -1.069  1.00  0.00     0.110 C 
ATOM     15  S   UNL     1       0.555   3.909  -0.226  1.00  0.00    -0.159 SA
BRANCH   8  16
ATOM     16  N   UNL     1       0.436   2.675  -3.261  1.00  0.00    -0.368 N 
ATOM     17  H   UNL     1      -0.514   2.583  -3.499  1.00  0.00     0.161 HD
BRANCH  16  18
ATOM     18  C   UNL     1       1.257   3.607  -3.933  1.00  0.00     0.049 A 
ATOM     19  C   UNL     1       1.327   4.925  -3.444  1.00  0.00     0.027 A 
ATOM     20  C   UNL     1       2.122   3.280  -4.991  1.00  0.00     0.041 A 
ATOM     21  C   UNL     1       2.316   5.819  -3.863  1.00  0.00     0.002 A 
ATOM     22  C   UNL     1       3.132   4.164  -5.400  1.00  0.00     0.018 A 
ATOM     23  Br  UNL     1       1.862   1.711  -6.037  1.00  0.00    -0.049 Br
ATOM     24  C   UNL     1       3.248   5.422  -4.813  1.00  0.00     0.001 A 
ENDBRANCH  16  18
ENDBRANCH   8  16
ENDBRANCH   6   8
ENDBRANCH   5   6
ENDBRANCH   4   5
ENDBRANCH   3   4
ENDBRANCH   2   3
ENDBRANCH   1   2
BRANCH   1  25
ATOM     25  C   UNL     1       4.913   1.459  -0.582  1.00  0.00     0.188 C 
BRANCH  25  26
ATOM     26  O   UNL     1       5.985   1.963  -1.343  1.00  0.00    -0.376 OA
BRANCH  26  27
ATOM     27  C   UNL     1       6.783   2.968  -0.750  1.00  0.00     0.202 C 
BRANCH  27  28
ATOM     28  C   UNL     1       7.720   2.426   0.343  1.00  0.00     0.261 C 
BRANCH  28  29
ATOM     29  O   UNL     1       7.088   1.663   1.396  1.00  0.00    -0.460 OA
BRANCH  29  30
ATOM     30  C   UNL     1       6.259   2.341   2.233  1.00  0.00     0.338 C 
ATOM     31  O   UNL     1       6.086   3.539   2.256  1.00  0.00    -0.246 OA
BRANCH  30  32
ATOM     32  C   UNL     1       5.370   1.357   2.928  1.00  0.00     0.060 A 
ATOM     33  C   UNL     1       3.991   1.626   2.970  1.00  0.00     0.016 A 
ATOM     34  C   UNL     1       5.859   0.182   3.503  1.00  0.00     0.016 A 
ATOM     35  C   UNL     1       3.119   0.777   3.663  1.00  0.00     0.010 A 
ATOM     36  C   UNL     1       4.987  -0.661   4.213  1.00  0.00     0.010 A 
ATOM     37  C   UNL     1       3.623  -0.335   4.351  1.00  0.00    -0.014 A 
BRANCH  37  38
ATOM     38  C   UNL     1       2.806  -0.953   5.436  1.00  0.00     0.031 A 
ATOM     39  C   UNL     1       3.058  -0.487   6.852  1.00  0.00     0.074 A 
ATOM     40  C   UNL     1       1.831  -1.852   5.206  1.00  0.00     0.049 A 
ATOM     41  N   UNL     1       2.493  -0.859   7.973  1.00  0.00    -0.248 NA
ATOM     42  C   UNL     1       4.096   0.543   7.019  1.00  0.00     0.031 C 
ATOM     43  C   UNL     1       1.439  -2.368   3.899  1.00  0.00     0.029 A 
ATOM     44  N   UNL     1       0.991  -2.495   6.088  1.00  0.00    -0.354 N 
ATOM     45  C   UNL     1       3.112  -0.116   8.972  1.00  0.00     0.074 A 
ATOM     46  C   UNL     1       4.122   0.696   8.332  1.00  0.00     0.031 C 
ATOM     47  C   UNL     1       0.440  -3.256   4.063  1.00  0.00     0.029 A 
ATOM     48  C   UNL     1       0.137  -3.390   5.489  1.00  0.00     0.049 A 
ATOM     49  H   UNL     1       1.001  -2.329   7.058  1.00  0.00     0.167 HD
ATOM     50  C   UNL     1       2.857  -0.093  10.303  1.00  0.00     0.037 A 
ATOM     51  C   UNL     1      -0.772  -4.228   6.030  1.00  0.00     0.037 A 
ATOM     52  C   UNL     1       1.858  -0.895  10.956  1.00  0.00     0.049 A 
ATOM     53  C   UNL     1      -0.990  -4.239   7.527  1.00  0.00     0.074 A 
ATOM     54  C   UNL     1       1.523  -0.932  12.298  1.00  0.00     0.029 A 
ATOM     55  N   UNL     1       1.038  -1.811  10.315  1.00  0.00    -0.354 N 
ATOM     56  N   UNL     1      -0.421  -3.512   8.458  1.00  0.00    -0.248 NA
ATOM     57  C   UNL     1      -1.992  -5.185   8.044  1.00  0.00     0.031 C 
ATOM     58  C   UNL     1       0.542  -1.913  12.479  1.00  0.00     0.029 A 
ATOM     59  C   UNL     1       0.213  -2.435  11.239  1.00  0.00     0.049 A 
ATOM     60  H   UNL     1       1.040  -1.991   9.347  1.00  0.00     0.167 HD
ATOM     61  C   UNL     1      -1.022  -3.882   9.658  1.00  0.00     0.074 A 
ATOM     62  C   UNL     1      -2.011  -4.888   9.335  1.00  0.00     0.031 C 
ATOM     63  C   UNL     1      -0.779  -3.427  10.913  1.00  0.00     0.037 A 
BRANCH  50  64
ATOM     64  C   UNL     1       3.703   0.816  11.149  1.00  0.00     0.064 A 
ATOM     65  C   UNL     1       3.596   2.213  11.072  1.00  0.00     0.173 A 
ATOM     66  C   UNL     1       4.623   0.280  12.063  1.00  0.00     0.173 A 
ATOM     67  F   UNL     1       2.745   2.778  10.202  1.00  0.00    -0.203 F 
ATOM     68  C   UNL     1       4.401   3.038  11.853  1.00  0.00     0.198 A 
ATOM     69  C   UNL     1       5.401   1.107  12.868  1.00  0.00     0.198 A 
ATOM     70  F   UNL     1       4.765  -1.049  12.180  1.00  0.00    -0.203 F 
ATOM     71  F   UNL     1       4.323   4.370  11.719  1.00  0.00    -0.200 F 
ATOM     72  C   UNL     1       5.296   2.485  12.756  1.00  0.00     0.200 A 
ATOM     73  F   UNL     1       6.255   0.570  13.750  1.00  0.00    -0.200 F 
ATOM     74  F   UNL     1       6.067   3.280  13.511  1.00  0.00    -0.200 F 
ENDBRANCH  50  64
BRANCH  51  75
ATOM     75  C   UNL     1      -1.560  -5.145   5.160  1.00  0.00     0.064 A 
ATOM     76  C   UNL     1      -2.949  -5.002   5.019  1.00  0.00     0.173 A 
ATOM     77  C   UNL     1      -0.949  -6.218   4.494  1.00  0.00     0.173 A 
ATOM     78  F   UNL     1      -3.588  -4.014   5.663  1.00  0.00    -0.203 F 
ATOM     79  C   UNL     1      -3.697  -5.907   4.268  1.00  0.00     0.198 A 
ATOM     80  C   UNL     1      -1.693  -7.104   3.716  1.00  0.00     0.198 A 
ATOM     81  F   UNL     1       0.374  -6.409   4.602  1.00  0.00    -0.203 F 
ATOM     82  F   UNL     1      -5.029  -5.781   4.203  1.00  0.00    -0.200 F 
ATOM     83  C   UNL     1      -3.067  -6.954   3.612  1.00  0.00     0.200 A 
ATOM     84  F   UNL     1      -1.079  -8.109   3.078  1.00  0.00    -0.200 F 
ATOM     85  F   UNL     1      -3.786  -7.825   2.892  1.00  0.00    -0.200 F 
ENDBRANCH  51  75
BRANCH  63  86
ATOM     86  C   UNL     1      -1.637  -3.962  12.029  1.00  0.00     0.064 A 
ATOM     87  C   UNL     1      -1.557  -5.296  12.458  1.00  0.00     0.173 A 
ATOM     88  C   UNL     1      -2.541  -3.117  12.693  1.00  0.00     0.173 A 
ATOM     89  F   UNL     1      -0.716  -6.150  11.856  1.00  0.00    -0.203 F 
ATOM     90  C   UNL     1      -2.381  -5.773  13.476  1.00  0.00     0.198 A 
ATOM     91  C   UNL     1      -3.335  -3.588  13.736  1.00  0.00     0.198 A 
ATOM     92  F   UNL     1      -2.651  -1.829  12.336  1.00  0.00    -0.203 F 
ATOM     93  F   UNL     1      -2.335  -7.068  13.821  1.00  0.00    -0.200 F 
ATOM     94  C   UNL     1      -3.265  -4.919  14.117  1.00  0.00     0.200 A 
ATOM     95  F   UNL     1      -4.174  -2.755  14.366  1.00  0.00    -0.200 F 
ATOM     96  F   UNL     1      -4.057  -5.380  15.095  1.00  0.00    -0.200 F 
ENDBRANCH  63  86
ENDBRANCH  37  38
ENDBRANCH  30  32
ENDBRANCH  29  30
ENDBRANCH  28  29
ENDBRANCH  27  28
ENDBRANCH  26  27
ENDBRANCH  25  26
ENDBRANCH   1  25
TORSDOF 19
