REMARK SMILES O=C(OCCOCCOCCOC(=O)c1ccccc1/N=C/c1coc2ccccc2c1=O)c1ccc(-c2c3nc(c(-c4c(F)c(F)c(F)c(F)c4F)c4ccc([nH]4)c(-c4c(F)c(F)c(F)c(F)c4F)c4nc(c(-c5c(F)c(F)c(F)c(F)c5F)c5ccc2[nH]5)C=C4)C=C3)cc1
REMARK SMILES IDX 7 1 6 2 5 3 4 4 3 5 2 6 1 7 34 8 35 9 96 10 36 11 95 12
REMARK SMILES IDX 37 13 38 14 39 15 89 16 40 17 94 18 88 19 90 20 41 21 93 22
REMARK SMILES IDX 87 23 86 24 42 26 74 27 54 28 73 29 55 30 58 31 72 32 91 33
REMARK SMILES IDX 56 34 57 35 71 37 92 38 59 39 43 40 44 41 52 42 45 43 46 44
REMARK SMILES IDX 50 45 53 46 47 47 48 48 51 49 49 50 75 51 76 52 84 53 77 54
REMARK SMILES IDX 78 55 82 56 85 57 79 58 80 59 83 60 81 61 60 62 61 63 69 64
REMARK SMILES IDX 62 65 63 66 67 67 70 68 64 69 65 70 68 71 66 72 8 73 9 74
REMARK SMILES IDX 10 75 11 76 12 77 13 78 14 79 15 80 16 81 20 82 17 83 19 84
REMARK SMILES IDX 18 85 21 86 22 87 23 88 24 89 32 90 25 91 31 92 33 93 26 94
REMARK SMILES IDX 30 95 27 96 29 97 28 98
REMARK H PARENT 90 25 58 36
REMARK Flexibility Score: inf
ROOT
ATOM      1  C   UNL     1       2.483   0.810  -1.994  1.00  0.00     0.188 C 
ENDROOT
BRANCH   1   2
ATOM      2  O   UNL     1       3.644   0.790  -1.143  1.00  0.00    -0.376 OA
BRANCH   2   3
ATOM      3  C   UNL     1       4.622  -0.167  -1.553  1.00  0.00     0.202 C 
BRANCH   3   4
ATOM      4  C   UNL     1       4.482  -1.523  -0.855  1.00  0.00     0.261 C 
BRANCH   4   5
ATOM      5  O   UNL     1       3.113  -1.820  -0.535  1.00  0.00    -0.460 OA
BRANCH   5   6
ATOM      6  C   UNL     1       2.449  -1.469   0.597  1.00  0.00     0.338 C 
ATOM      7  O   UNL     1       1.225  -1.564   0.637  1.00  0.00    -0.246 OA
BRANCH   6   8
ATOM      8  C   UNL     1       3.166  -1.131   1.859  1.00  0.00     0.060 A 
ATOM      9  C   UNL     1       4.259  -0.267   1.952  1.00  0.00     0.016 A 
ATOM     10  C   UNL     1       2.652  -1.689   3.042  1.00  0.00     0.016 A 
ATOM     11  C   UNL     1       4.927  -0.096   3.169  1.00  0.00     0.010 A 
ATOM     12  C   UNL     1       3.275  -1.461   4.273  1.00  0.00     0.010 A 
ATOM     13  C   UNL     1       4.454  -0.708   4.337  1.00  0.00    -0.014 A 
BRANCH  13  14
ATOM     14  C   UNL     1       5.231  -0.615   5.598  1.00  0.00     0.031 A 
ATOM     15  C   UNL     1       5.939  -1.822   6.137  1.00  0.00     0.074 A 
ATOM     16  C   UNL     1       5.359   0.555   6.247  1.00  0.00     0.049 A 
ATOM     17  N   UNL     1       6.664  -1.937   7.221  1.00  0.00    -0.248 NA
ATOM     18  C   UNL     1       5.822  -3.059   5.353  1.00  0.00     0.031 C 
ATOM     19  C   UNL     1       4.753   1.811   5.824  1.00  0.00     0.029 A 
ATOM     20  N   UNL     1       6.054   0.879   7.388  1.00  0.00    -0.354 N 
ATOM     21  C   UNL     1       7.084  -3.256   7.254  1.00  0.00     0.074 A 
ATOM     22  C   UNL     1       6.512  -3.911   6.095  1.00  0.00     0.031 C 
ATOM     23  C   UNL     1       5.134   2.769   6.679  1.00  0.00     0.029 A 
ATOM     24  C   UNL     1       5.971   2.206   7.720  1.00  0.00     0.049 A 
ATOM     25  H   UNL     1       6.563   0.221   7.916  1.00  0.00     0.167 HD
ATOM     26  C   UNL     1       7.883  -3.866   8.161  1.00  0.00     0.037 A 
ATOM     27  C   UNL     1       6.489   2.917   8.737  1.00  0.00     0.037 A 
ATOM     28  C   UNL     1       8.455  -3.230   9.316  1.00  0.00     0.049 A 
ATOM     29  C   UNL     1       7.330   2.217   9.752  1.00  0.00     0.074 A 
ATOM     30  C   UNL     1       9.246  -3.785  10.308  1.00  0.00     0.029 A 
ATOM     31  N   UNL     1       8.299  -1.889   9.636  1.00  0.00    -0.354 N 
ATOM     32  N   UNL     1       7.686   0.959   9.790  1.00  0.00    -0.248 NA
ATOM     33  C   UNL     1       7.829   3.027  10.871  1.00  0.00     0.031 C 
ATOM     34  C   UNL     1       9.551  -2.784  11.240  1.00  0.00     0.029 A 
ATOM     35  C   UNL     1       8.970  -1.601  10.815  1.00  0.00     0.049 A 
ATOM     36  H   UNL     1       7.787  -1.238   9.104  1.00  0.00     0.167 HD
ATOM     37  C   UNL     1       8.447   0.819  10.936  1.00  0.00     0.074 A 
ATOM     38  C   UNL     1       8.524   2.128  11.554  1.00  0.00     0.031 C 
ATOM     39  C   UNL     1       9.022  -0.302  11.432  1.00  0.00     0.037 A 
BRANCH  26  40
ATOM     40  C   UNL     1       8.148  -5.321   7.931  1.00  0.00     0.064 A 
ATOM     41  C   UNL     1       9.053  -5.750   6.949  1.00  0.00     0.173 A 
ATOM     42  C   UNL     1       7.453  -6.292   8.664  1.00  0.00     0.173 A 
ATOM     43  F   UNL     1       9.716  -4.853   6.203  1.00  0.00    -0.203 F 
ATOM     44  C   UNL     1       9.233  -7.106   6.691  1.00  0.00     0.198 A 
ATOM     45  C   UNL     1       7.649  -7.647   8.415  1.00  0.00     0.198 A 
ATOM     46  F   UNL     1       6.569  -5.926   9.603  1.00  0.00    -0.203 F 
ATOM     47  F   UNL     1      10.061  -7.496   5.712  1.00  0.00    -0.200 F 
ATOM     48  C   UNL     1       8.531  -8.052   7.424  1.00  0.00     0.200 A 
ATOM     49  F   UNL     1       6.967  -8.561   9.118  1.00  0.00    -0.200 F 
ATOM     50  F   UNL     1       8.692  -9.357   7.162  1.00  0.00    -0.200 F 
ENDBRANCH  26  40
BRANCH  27  51
ATOM     51  C   UNL     1       6.215   4.374   8.843  1.00  0.00     0.064 A 
ATOM     52  C   UNL     1       7.201   5.320   8.533  1.00  0.00     0.173 A 
ATOM     53  C   UNL     1       4.950   4.846   9.224  1.00  0.00     0.173 A 
ATOM     54  F   UNL     1       8.430   4.915   8.184  1.00  0.00    -0.203 F 
ATOM     55  C   UNL     1       6.931   6.686   8.600  1.00  0.00     0.198 A 
ATOM     56  C   UNL     1       4.679   6.210   9.276  1.00  0.00     0.198 A 
ATOM     57  F   UNL     1       3.969   3.979   9.514  1.00  0.00    -0.203 F 
ATOM     58  F   UNL     1       7.893   7.574   8.312  1.00  0.00    -0.200 F 
ATOM     59  C   UNL     1       5.669   7.130   8.966  1.00  0.00     0.200 A 
ATOM     60  F   UNL     1       3.448   6.635   9.594  1.00  0.00    -0.200 F 
ATOM     61  F   UNL     1       5.401   8.442   9.001  1.00  0.00    -0.200 F 
ENDBRANCH  27  51
BRANCH  39  62
ATOM     62  C   UNL     1       9.775  -0.145  12.713  1.00  0.00     0.064 A 
ATOM     63  C   UNL     1       9.103  -0.035  13.939  1.00  0.00     0.173 A 
ATOM     64  C   UNL     1      11.175  -0.079  12.714  1.00  0.00     0.173 A 
ATOM     65  F   UNL     1       7.762  -0.064  13.977  1.00  0.00    -0.203 F 
ATOM     66  C   UNL     1       9.808   0.158  15.122  1.00  0.00     0.198 A 
ATOM     67  C   UNL     1      11.877   0.097  13.902  1.00  0.00     0.198 A 
ATOM     68  F   UNL     1      11.857  -0.169  11.563  1.00  0.00    -0.203 F 
ATOM     69  F   UNL     1       9.146   0.307  16.278  1.00  0.00    -0.200 F 
ATOM     70  C   UNL     1      11.193   0.221  15.103  1.00  0.00     0.200 A 
ATOM     71  F   UNL     1      13.215   0.163  13.884  1.00  0.00    -0.200 F 
ATOM     72  F   UNL     1      11.870   0.419  16.243  1.00  0.00    -0.200 F 
ENDBRANCH  39  62
ENDBRANCH  13  14
ENDBRANCH   6   8
ENDBRANCH   5   6
ENDBRANCH   4   5
ENDBRANCH   3   4
ENDBRANCH   2   3
ENDBRANCH   1   2
BRANCH   1  73
ATOM     73  C   UNL     1       1.835   2.194  -1.949  1.00  0.00     0.188 C 
BRANCH  73  74
ATOM     74  O   UNL     1       2.483   3.176  -2.765  1.00  0.00    -0.376 OA
BRANCH  74  75
ATOM     75  C   UNL     1       3.851   3.439  -2.479  1.00  0.00     0.202 C 
BRANCH  75  76
ATOM     76  C   UNL     1       4.149   4.355  -1.290  1.00  0.00     0.261 C 
BRANCH  76  77
ATOM     77  O   UNL     1       3.300   4.201  -0.145  1.00  0.00    -0.460 OA
BRANCH  77  78
ATOM     78  C   UNL     1       2.223   5.024  -0.149  1.00  0.00     0.340 C 
ATOM     79  O   UNL     1       1.831   5.732  -1.064  1.00  0.00    -0.246 OA
BRANCH  78  80
ATOM     80  C   UNL     1       1.649   5.099   1.193  1.00  0.00     0.085 A 
ATOM     81  C   UNL     1       0.843   4.034   1.632  1.00  0.00     0.018 A 
ATOM     82  C   UNL     1       1.864   6.232   1.995  1.00  0.00     0.077 A 
ATOM     83  C   UNL     1       0.213   4.098   2.874  1.00  0.00     0.001 A 
ATOM     84  C   UNL     1       1.162   6.289   3.214  1.00  0.00     0.029 A 
ATOM     85  C   UNL     1       0.350   5.239   3.654  1.00  0.00     0.002 A 
BRANCH  82  86
ATOM     86  N   UNL     1       2.958   7.114   1.940  1.00  0.00    -0.255 NA
ATOM     87  C   UNL     1       3.768   7.303   0.948  1.00  0.00     0.127 C 
BRANCH  87  88
ATOM     88  C   UNL     1       5.205   7.429   1.343  1.00  0.00     0.076 A 
ATOM     89  C   UNL     1       5.487   8.543   2.044  1.00  0.00     0.209 A 
ATOM     90  C   UNL     1       5.774   6.189   1.961  1.00  0.00     0.201 A 
ATOM     91  O   UNL     1       6.076   8.490   3.312  1.00  0.00    -0.463 OA
ATOM     92  C   UNL     1       5.491   6.166   3.406  1.00  0.00     0.065 A 
ATOM     93  O   UNL     1       6.220   5.246   1.328  1.00  0.00    -0.288 OA
ATOM     94  C   UNL     1       5.596   7.410   4.041  1.00  0.00     0.137 A 
ATOM     95  C   UNL     1       4.704   5.148   3.934  1.00  0.00     0.016 A 
ATOM     96  C   UNL     1       4.953   7.640   5.250  1.00  0.00     0.048 A 
ATOM     97  C   UNL     1       3.959   5.429   5.078  1.00  0.00     0.001 A 
ATOM     98  C   UNL     1       4.100   6.652   5.747  1.00  0.00     0.004 A 
ENDBRANCH  87  88
ENDBRANCH  82  86
ENDBRANCH  78  80
ENDBRANCH  77  78
ENDBRANCH  76  77
ENDBRANCH  75  76
ENDBRANCH  74  75
ENDBRANCH  73  74
ENDBRANCH   1  73
TORSDOF 19
