REMARK SMILES Cc1nsc(N(C)C(=O)c2ccc(=O)n(C)n2)c1C(=O)OCCOCCOCCOC(=O)c1ccc(-c2c3nc(c(-c4c(F)c(F)c(F)c(F)c4F)c4ccc([nH]4)c(-c4c(F)c(F)c(F)c(F)c4F)c4nc(c(-c5c(F)c(F)c(F)c(F)c5F)c5ccc2[nH]5)C=C4)C=C3)cc1
REMARK SMILES IDX 25 1 24 2 23 3 22 4 21 5 19 6 20 7 18 8 1 9 2 10 3 11 4 12
REMARK SMILES IDX 5 13 6 14 7 15 8 16 9 17 10 18 11 19 17 20 12 21 15 22 13 23
REMARK SMILES IDX 16 24 14 25 26 26 27 27 28 28 29 29 30 30 31 31 32 32 33 33
REMARK SMILES IDX 34 34 95 35 35 36 94 37 36 38 37 39 38 40 88 41 39 42 93 43
REMARK SMILES IDX 87 44 89 45 40 46 92 47 86 48 85 49 41 51 73 52 53 53 72 54
REMARK SMILES IDX 54 55 57 56 71 57 90 58 55 59 56 60 70 62 91 63 58 64 42 65
REMARK SMILES IDX 43 66 51 67 44 68 45 69 49 70 52 71 46 72 47 73 50 74 48 75
REMARK SMILES IDX 74 76 75 77 83 78 76 79 77 80 81 81 84 82 78 83 79 84 82 85
REMARK SMILES IDX 80 86 59 87 60 88 68 89 61 90 62 91 66 92 69 93 63 94 64 95
REMARK SMILES IDX 67 96 65 97
REMARK H PARENT 89 50 57 61
REMARK Flexibility Score: inf
ROOT
ATOM      1  C   UNL     1      -2.321   1.693   2.479  1.00  0.00     0.188 C 
ENDROOT
BRANCH   1   2
ATOM      2  O   UNL     1      -2.271   3.111   2.464  1.00  0.00    -0.376 OA
BRANCH   2   3
ATOM      3  C   UNL     1      -1.079   3.699   2.991  1.00  0.00     0.202 C 
BRANCH   3   4
ATOM      4  C   UNL     1       0.193   3.417   2.181  1.00  0.00     0.261 C 
BRANCH   4   5
ATOM      5  O   UNL     1       0.370   2.006   2.004  1.00  0.00    -0.460 OA
BRANCH   5   6
ATOM      6  C   UNL     1       1.251   1.327   2.784  1.00  0.00     0.343 C 
ATOM      7  O   UNL     1       2.162   1.820   3.421  1.00  0.00    -0.246 OA
BRANCH   6   8
ATOM      8  C   UNL     1       0.975  -0.101   2.694  1.00  0.00     0.117 A 
ATOM      9  C   UNL     1       1.528  -0.242   0.117  1.00  0.00     0.069 C 
ATOM     10  C   UNL     1       1.141  -0.822   1.440  1.00  0.00     0.068 A 
ATOM     11  N   UNL     1       0.890  -2.125   1.476  1.00  0.00    -0.195 NA
ATOM     12  S   UNL     1       0.398  -2.529   2.980  1.00  0.00    -0.017 S 
ATOM     13  C   UNL     1       0.409  -0.941   3.666  1.00  0.00     0.133 A 
BRANCH  13  14
ATOM     14  N   UNL     1      -0.176  -0.803   4.961  1.00  0.00    -0.299 N 
ATOM     15  C   UNL     1      -0.707  -1.931   5.741  1.00  0.00     0.154 C 
BRANCH  14  16
ATOM     16  C   UNL     1      -0.361   0.484   5.502  1.00  0.00     0.279 C 
ATOM     17  O   UNL     1       0.015   1.553   5.044  1.00  0.00    -0.267 OA
BRANCH  16  18
ATOM     18  C   UNL     1      -1.247   0.618   6.730  1.00  0.00     0.149 A 
ATOM     19  C   UNL     1      -2.599   1.161   6.482  1.00  0.00     0.042 A 
ATOM     20  N   UNL     1      -0.776   0.289   7.891  1.00  0.00    -0.165 NA
ATOM     21  C   UNL     1      -3.388   1.308   7.546  1.00  0.00     0.076 A 
ATOM     22  N   UNL     1      -1.616   0.449   8.975  1.00  0.00    -0.232 N 
ATOM     23  C   UNL     1      -2.913   0.944   8.899  1.00  0.00     0.266 A 
ATOM     24  C   UNL     1      -1.062   0.127  10.274  1.00  0.00     0.178 C 
ATOM     25  O   UNL     1      -3.669   1.096   9.855  1.00  0.00    -0.268 OA
ENDBRANCH  16  18
ENDBRANCH  14  16
ENDBRANCH  13  14
ENDBRANCH   6   8
ENDBRANCH   5   6
ENDBRANCH   4   5
ENDBRANCH   3   4
ENDBRANCH   2   3
ENDBRANCH   1   2
BRANCH   1  26
ATOM     26  C   UNL     1      -2.232   0.983   1.110  1.00  0.00     0.188 C 
BRANCH  26  27
ATOM     27  O   UNL     1      -2.191   1.688  -0.123  1.00  0.00    -0.376 OA
BRANCH  27  28
ATOM     28  C   UNL     1      -2.840   2.938  -0.290  1.00  0.00     0.202 C 
BRANCH  28  29
ATOM     29  C   UNL     1      -4.361   2.991  -0.181  1.00  0.00     0.261 C 
BRANCH  29  30
ATOM     30  O   UNL     1      -4.843   2.477   1.054  1.00  0.00    -0.460 OA
BRANCH  30  31
ATOM     31  C   UNL     1      -5.236   1.191   0.985  1.00  0.00     0.338 C 
ATOM     32  O   UNL     1      -5.218   0.455   0.013  1.00  0.00    -0.246 OA
BRANCH  31  33
ATOM     33  C   UNL     1      -5.742   0.758   2.292  1.00  0.00     0.060 A 
ATOM     34  C   UNL     1      -5.887  -0.621   2.470  1.00  0.00     0.016 A 
ATOM     35  C   UNL     1      -6.365   1.695   3.124  1.00  0.00     0.016 A 
ATOM     36  C   UNL     1      -6.919  -1.058   3.264  1.00  0.00     0.010 A 
ATOM     37  C   UNL     1      -7.413   1.260   3.899  1.00  0.00     0.010 A 
ATOM     38  C   UNL     1      -7.751  -0.093   3.837  1.00  0.00    -0.014 A 
BRANCH  38  39
ATOM     39  C   UNL     1      -9.120  -0.495   4.085  1.00  0.00     0.031 A 
ATOM     40  C   UNL     1      -9.451  -0.961   5.440  1.00  0.00     0.074 A 
ATOM     41  C   UNL     1     -10.049  -0.345   3.119  1.00  0.00     0.049 A 
ATOM     42  N   UNL     1      -9.910  -2.115   5.795  1.00  0.00    -0.248 NA
ATOM     43  C   UNL     1      -9.182  -0.037   6.548  1.00  0.00     0.031 C 
ATOM     44  C   UNL     1      -9.940   0.402   1.859  1.00  0.00     0.029 A 
ATOM     45  N   UNL     1     -11.344  -0.751   3.128  1.00  0.00    -0.354 N 
ATOM     46  C   UNL     1     -10.112  -2.028   7.165  1.00  0.00     0.074 A 
ATOM     47  C   UNL     1      -9.540  -0.776   7.596  1.00  0.00     0.031 C 
ATOM     48  C   UNL     1     -11.178   0.573   1.342  1.00  0.00     0.029 A 
ATOM     49  C   UNL     1     -12.134  -0.148   2.165  1.00  0.00     0.049 A 
ATOM     50  H   UNL     1     -11.691  -1.418   3.764  1.00  0.00     0.167 HD
ATOM     51  C   UNL     1     -10.892  -2.907   7.846  1.00  0.00     0.037 A 
ATOM     52  C   UNL     1     -13.487  -0.160   2.136  1.00  0.00     0.037 A 
ATOM     53  C   UNL     1     -11.151  -4.108   7.106  1.00  0.00     0.049 A 
ATOM     54  C   UNL     1     -13.948  -1.283   2.995  1.00  0.00     0.074 A 
ATOM     55  C   UNL     1     -10.356  -5.124   6.612  1.00  0.00     0.029 A 
ATOM     56  N   UNL     1     -12.359  -4.243   6.468  1.00  0.00    -0.354 N 
ATOM     57  N   UNL     1     -13.789  -2.546   2.711  1.00  0.00    -0.248 NA
ATOM     58  C   UNL     1     -14.230  -0.992   4.394  1.00  0.00     0.031 C 
ATOM     59  C   UNL     1     -10.960  -5.511   5.380  1.00  0.00     0.029 A 
ATOM     60  C   UNL     1     -12.093  -4.715   5.206  1.00  0.00     0.049 A 
ATOM     61  H   UNL     1     -13.246  -4.041   6.843  1.00  0.00     0.167 HD
ATOM     62  C   UNL     1     -13.553  -3.161   3.933  1.00  0.00     0.074 A 
ATOM     63  C   UNL     1     -13.936  -2.175   4.937  1.00  0.00     0.031 C 
ATOM     64  C   UNL     1     -12.809  -4.303   4.021  1.00  0.00     0.037 A 
BRANCH  51  65
ATOM     65  C   UNL     1     -11.609  -2.545   9.109  1.00  0.00     0.064 A 
ATOM     66  C   UNL     1     -12.028  -3.543  10.002  1.00  0.00     0.173 A 
ATOM     67  C   UNL     1     -12.087  -1.241   9.363  1.00  0.00     0.173 A 
ATOM     68  F   UNL     1     -11.675  -4.822   9.809  1.00  0.00    -0.203 F 
ATOM     69  C   UNL     1     -12.866  -3.251  11.081  1.00  0.00     0.198 A 
ATOM     70  C   UNL     1     -12.871  -0.942  10.472  1.00  0.00     0.198 A 
ATOM     71  F   UNL     1     -11.881  -0.239   8.496  1.00  0.00    -0.203 F 
ATOM     72  F   UNL     1     -13.312  -4.242  11.864  1.00  0.00    -0.200 F 
ATOM     73  C   UNL     1     -13.276  -1.950  11.322  1.00  0.00     0.200 A 
ATOM     74  F   UNL     1     -13.277   0.320  10.674  1.00  0.00    -0.200 F 
ATOM     75  F   UNL     1     -14.098  -1.675  12.343  1.00  0.00    -0.200 F 
ENDBRANCH  51  65
BRANCH  52  76
ATOM     76  C   UNL     1     -14.380   0.949   1.724  1.00  0.00     0.064 A 
ATOM     77  C   UNL     1     -15.740   0.718   1.465  1.00  0.00     0.173 A 
ATOM     78  C   UNL     1     -13.983   2.297   1.836  1.00  0.00     0.173 A 
ATOM     79  F   UNL     1     -16.209  -0.536   1.394  1.00  0.00    -0.203 F 
ATOM     80  C   UNL     1     -16.651   1.773   1.346  1.00  0.00     0.198 A 
ATOM     81  C   UNL     1     -14.890   3.348   1.702  1.00  0.00     0.198 A 
ATOM     82  F   UNL     1     -12.728   2.624   2.174  1.00  0.00    -0.203 F 
ATOM     83  F   UNL     1     -17.953   1.513   1.165  1.00  0.00    -0.200 F 
ATOM     84  C   UNL     1     -16.226   3.086   1.472  1.00  0.00     0.200 A 
ATOM     85  F   UNL     1     -14.470   4.611   1.862  1.00  0.00    -0.200 F 
ATOM     86  F   UNL     1     -17.108   4.093   1.415  1.00  0.00    -0.200 F 
ENDBRANCH  52  76
BRANCH  64  87
ATOM     87  C   UNL     1     -12.476  -5.017   2.741  1.00  0.00     0.064 A 
ATOM     88  C   UNL     1     -11.681  -4.455   1.727  1.00  0.00     0.173 A 
ATOM     89  C   UNL     1     -12.844  -6.362   2.599  1.00  0.00     0.173 A 
ATOM     90  F   UNL     1     -11.193  -3.214   1.845  1.00  0.00    -0.203 F 
ATOM     91  C   UNL     1     -11.320  -5.188   0.598  1.00  0.00     0.198 A 
ATOM     92  C   UNL     1     -12.450  -7.105   1.488  1.00  0.00     0.198 A 
ATOM     93  F   UNL     1     -13.546  -6.973   3.566  1.00  0.00    -0.203 F 
ATOM     94  F   UNL     1     -10.572  -4.622  -0.360  1.00  0.00    -0.200 F 
ATOM     95  C   UNL     1     -11.700  -6.515   0.483  1.00  0.00     0.200 A 
ATOM     96  F   UNL     1     -12.773  -8.403   1.405  1.00  0.00    -0.200 F 
ATOM     97  F   UNL     1     -11.316  -7.234  -0.581  1.00  0.00    -0.200 F 
ENDBRANCH  64  87
ENDBRANCH  38  39
ENDBRANCH  31  33
ENDBRANCH  30  31
ENDBRANCH  29  30
ENDBRANCH  28  29
ENDBRANCH  27  28
ENDBRANCH  26  27
ENDBRANCH   1  26
TORSDOF 20
