REMARK SMILES CC(C)(C)OC(=O)N1CC[C@@H]([NH2+]Cc2cccc(Br)c2)[C@@H](C(=O)OCCOCCOCCOC(=O)c2ccc(-c3c4nc(c(-c5c(F)c(F)c(F)c(F)c5F)c5ccc([nH]5)c(-c5c(F)c(F)c(F)c(F)c5F)c5nc(c(-c6c(F)c(F)c(F)c(F)c6F)c6ccc3[nH]6)C=C5)C=C4)cc2)C1
REMARK SMILES IDX 28 1 27 2 26 3 25 4 24 5 22 6 23 7 21 8 8 9 9 10 99 11 10 12
REMARK SMILES IDX 11 13 6 14 7 15 5 16 2 17 1 18 3 19 4 20 12 21 13 24 14 25
REMARK SMILES IDX 15 26 20 27 16 28 18 29 17 30 19 31 29 32 30 33 31 34 32 35
REMARK SMILES IDX 33 36 34 37 35 38 36 39 37 40 98 41 38 42 97 43 39 44 40 45
REMARK SMILES IDX 41 46 91 47 42 48 96 49 90 50 92 51 43 52 95 53 89 54 88 55
REMARK SMILES IDX 44 57 76 58 56 59 75 60 57 61 60 62 74 63 93 64 58 65 59 66
REMARK SMILES IDX 73 68 94 69 61 70 45 71 46 72 54 73 47 74 48 75 52 76 55 77
REMARK SMILES IDX 49 78 50 79 53 80 51 81 77 82 78 83 86 84 79 85 80 86 84 87
REMARK SMILES IDX 87 88 81 89 82 90 85 91 83 92 62 93 63 94 71 95 64 96 65 97
REMARK SMILES IDX 69 98 72 99 66 100 67 101 70 102 68 103
REMARK H PARENT 12 22 12 23 92 56 60 67
REMARK Flexibility Score: inf
ROOT
ATOM      1  C   UNL     1       6.302   6.065  -2.457  1.00  0.00     0.188 C 
ENDROOT
BRANCH   1   2
ATOM      2  O   UNL     1       7.446   6.061  -1.625  1.00  0.00    -0.376 OA
BRANCH   2   3
ATOM      3  C   UNL     1       7.310   6.612  -0.324  1.00  0.00     0.202 C 
BRANCH   3   4
ATOM      4  C   UNL     1       6.296   5.963   0.634  1.00  0.00     0.261 C 
BRANCH   4   5
ATOM      5  O   UNL     1       4.984   5.711   0.098  1.00  0.00    -0.463 OA
BRANCH   5   6
ATOM      6  C   UNL     1       4.181   6.785  -0.092  1.00  0.00     0.316 C 
ATOM      7  O   UNL     1       4.526   7.934   0.155  1.00  0.00    -0.252 OA
BRANCH   6   8
ATOM      8  C   UNL     1       2.880   6.397  -0.793  1.00  0.00     0.177 C 
ATOM      9  N   UNL     1       0.943   4.859  -0.903  1.00  0.00    -0.307 N 
ATOM     10  C   UNL     1      -0.005   5.963  -0.960  1.00  0.00     0.129 C 
ATOM     11  C   UNL     1       2.218   5.124  -0.227  1.00  0.00     0.144 C 
ATOM     12  C   UNL     1       0.625   7.194  -1.589  1.00  0.00     0.087 C 
ATOM     13  C   UNL     1       1.910   7.604  -0.857  1.00  0.00     0.200 C 
BRANCH   9  14
ATOM     14  C   UNL     1       0.523   3.626  -1.389  1.00  0.00     0.410 C 
ATOM     15  O   UNL     1      -0.369   3.513  -2.205  1.00  0.00    -0.224 OA
BRANCH  14  16
ATOM     16  O   UNL     1       1.161   2.577  -0.795  1.00  0.00    -0.444 OA
BRANCH  16  17
ATOM     17  C   UNL     1       0.685   1.220  -1.044  1.00  0.00     0.106 C 
ATOM     18  C   UNL     1       1.363   0.348   0.026  1.00  0.00     0.056 C 
ATOM     19  C   UNL     1       1.132   0.747  -2.430  1.00  0.00     0.056 C 
ATOM     20  C   UNL     1      -0.837   1.065  -0.863  1.00  0.00     0.056 C 
ENDBRANCH  16  17
ENDBRANCH  14  16
ENDBRANCH   9  14
BRANCH  13  21
ATOM     21  N   UNL     1       1.566   8.119   0.481  1.00  0.00    -0.339 N 
ATOM     22  H   UNL     1       2.136   7.637   1.176  1.00  0.00     0.346 HD
ATOM     23  H   UNL     1       0.572   7.951   0.636  1.00  0.00     0.346 HD
BRANCH  21  24
ATOM     24  C   UNL     1       1.804   9.569   0.595  1.00  0.00     0.297 C 
BRANCH  24  25
ATOM     25  C   UNL     1       2.113   9.967   2.025  1.00  0.00     0.007 A 
ATOM     26  C   UNL     1       3.041  10.989   2.278  1.00  0.00     0.009 A 
ATOM     27  C   UNL     1       1.502   9.327   3.116  1.00  0.00     0.025 A 
ATOM     28  C   UNL     1       3.380  11.336   3.587  1.00  0.00     0.002 A 
ATOM     29  C   UNL     1       1.862   9.662   4.420  1.00  0.00     0.018 A 
ATOM     30  C   UNL     1       2.799  10.664   4.661  1.00  0.00     0.016 A 
ATOM     31  Br  UNL     1       1.092   8.725   5.870  1.00  0.00    -0.051 Br
ENDBRANCH  24  25
ENDBRANCH  21  24
ENDBRANCH  13  21
ENDBRANCH   6   8
ENDBRANCH   5   6
ENDBRANCH   4   5
ENDBRANCH   3   4
ENDBRANCH   2   3
ENDBRANCH   1   2
BRANCH   1  32
ATOM     32  C   UNL     1       5.635   4.679  -2.601  1.00  0.00     0.188 C 
BRANCH  32  33
ATOM     33  O   UNL     1       6.247   3.543  -2.010  1.00  0.00    -0.376 OA
BRANCH  33  34
ATOM     34  C   UNL     1       7.639   3.332  -2.211  1.00  0.00     0.202 C 
BRANCH  34  35
ATOM     35  C   UNL     1       8.169   3.274  -3.651  1.00  0.00     0.261 C 
BRANCH  35  36
ATOM     36  O   UNL     1       7.854   4.428  -4.453  1.00  0.00    -0.460 OA
BRANCH  36  37
ATOM     37  C   UNL     1       7.063   4.190  -5.529  1.00  0.00     0.338 C 
ATOM     38  O   UNL     1       6.630   3.115  -5.908  1.00  0.00    -0.246 OA
BRANCH  37  39
ATOM     39  C   UNL     1       6.618   5.466  -6.127  1.00  0.00     0.060 A 
ATOM     40  C   UNL     1       5.242   5.733  -6.175  1.00  0.00     0.016 A 
ATOM     41  C   UNL     1       7.529   6.345  -6.714  1.00  0.00     0.016 A 
ATOM     42  C   UNL     1       4.768   6.863  -6.841  1.00  0.00     0.010 A 
ATOM     43  C   UNL     1       7.050   7.464  -7.406  1.00  0.00     0.010 A 
ATOM     44  C   UNL     1       5.667   7.709  -7.501  1.00  0.00    -0.014 A 
BRANCH  44  45
ATOM     45  C   UNL     1       5.158   8.732  -8.448  1.00  0.00     0.031 A 
ATOM     46  C   UNL     1       5.057   8.374  -9.906  1.00  0.00     0.074 A 
ATOM     47  C   UNL     1       4.787   9.954  -8.029  1.00  0.00     0.049 A 
ATOM     48  N   UNL     1       4.716   9.120 -10.925  1.00  0.00    -0.248 NA
ATOM     49  C   UNL     1       5.390   6.984 -10.260  1.00  0.00     0.031 C 
ATOM     50  C   UNL     1       4.795  10.410  -6.642  1.00  0.00     0.029 A 
ATOM     51  N   UNL     1       4.345  11.041  -8.741  1.00  0.00    -0.354 N 
ATOM     52  C   UNL     1       4.802   8.296 -12.040  1.00  0.00     0.074 A 
ATOM     53  C   UNL     1       5.246   6.999 -11.576  1.00  0.00     0.031 C 
ATOM     54  C   UNL     1       4.400  11.695  -6.605  1.00  0.00     0.029 A 
ATOM     55  C   UNL     1       4.141  12.157  -7.969  1.00  0.00     0.049 A 
ATOM     56  H   UNL     1       4.189  11.022  -9.713  1.00  0.00     0.167 HD
ATOM     57  C   UNL     1       4.533   8.592 -13.333  1.00  0.00     0.037 A 
ATOM     58  C   UNL     1       3.811  13.414  -8.328  1.00  0.00     0.037 A 
ATOM     59  C   UNL     1       4.093   9.881 -13.797  1.00  0.00     0.049 A 
ATOM     60  C   UNL     1       3.580  13.738  -9.782  1.00  0.00     0.074 A 
ATOM     61  C   UNL     1       3.777  10.272 -15.086  1.00  0.00     0.029 A 
ATOM     62  N   UNL     1       3.916  10.992 -12.986  1.00  0.00    -0.354 N 
ATOM     63  N   UNL     1       3.643  12.949 -10.828  1.00  0.00    -0.248 NA
ATOM     64  C   UNL     1       3.232  15.130 -10.106  1.00  0.00     0.031 C 
ATOM     65  C   UNL     1       3.455  11.633 -15.063  1.00  0.00     0.029 A 
ATOM     66  C   UNL     1       3.519  12.076 -13.752  1.00  0.00     0.049 A 
ATOM     67  H   UNL     1       4.053  11.008 -12.011  1.00  0.00     0.167 HD
ATOM     68  C   UNL     1       3.316  13.738 -11.924  1.00  0.00     0.074 A 
ATOM     69  C   UNL     1       3.045  15.066 -11.417  1.00  0.00     0.031 C 
ATOM     70  C   UNL     1       3.245  13.392 -13.233  1.00  0.00     0.037 A 
BRANCH  57  71
ATOM     71  C   UNL     1       4.736   7.507 -14.348  1.00  0.00     0.064 A 
ATOM     72  C   UNL     1       3.861   6.415 -14.444  1.00  0.00     0.173 A 
ATOM     73  C   UNL     1       5.802   7.580 -15.257  1.00  0.00     0.173 A 
ATOM     74  F   UNL     1       2.837   6.293 -13.587  1.00  0.00    -0.203 F 
ATOM     75  C   UNL     1       4.059   5.424 -15.403  1.00  0.00     0.198 A 
ATOM     76  C   UNL     1       5.980   6.601 -16.231  1.00  0.00     0.198 A 
ATOM     77  F   UNL     1       6.665   8.605 -15.207  1.00  0.00    -0.203 F 
ATOM     78  F   UNL     1       3.235   4.368 -15.451  1.00  0.00    -0.200 F 
ATOM     79  C   UNL     1       5.113   5.522 -16.299  1.00  0.00     0.200 A 
ATOM     80  F   UNL     1       6.993   6.703 -17.103  1.00  0.00    -0.200 F 
ATOM     81  F   UNL     1       5.296   4.571 -17.226  1.00  0.00    -0.200 F 
ENDBRANCH  57  71
BRANCH  58  82
ATOM     82  C   UNL     1       3.699  14.475  -7.293  1.00  0.00     0.064 A 
ATOM     83  C   UNL     1       2.459  15.041  -6.967  1.00  0.00     0.173 A 
ATOM     84  C   UNL     1       4.833  14.961  -6.626  1.00  0.00     0.173 A 
ATOM     85  F   UNL     1       1.349  14.630  -7.598  1.00  0.00    -0.203 F 
ATOM     86  C   UNL     1       2.360  16.063  -6.026  1.00  0.00     0.198 A 
ATOM     87  C   UNL     1       4.730  15.964  -5.666  1.00  0.00     0.198 A 
ATOM     88  F   UNL     1       6.044  14.456  -6.906  1.00  0.00    -0.203 F 
ATOM     89  F   UNL     1       1.168  16.618  -5.766  1.00  0.00    -0.200 F 
ATOM     90  C   UNL     1       3.494  16.520  -5.371  1.00  0.00     0.200 A 
ATOM     91  F   UNL     1       5.827  16.395  -5.029  1.00  0.00    -0.200 F 
ATOM     92  F   UNL     1       3.398  17.501  -4.464  1.00  0.00    -0.200 F 
ENDBRANCH  58  82
BRANCH  70  93
ATOM     93  C   UNL     1       2.824  14.451 -14.210  1.00  0.00     0.064 A 
ATOM     94  C   UNL     1       3.676  15.505 -14.568  1.00  0.00     0.173 A 
ATOM     95  C   UNL     1       1.569  14.380 -14.836  1.00  0.00     0.173 A 
ATOM     96  F   UNL     1       4.880  15.626 -13.989  1.00  0.00    -0.203 F 
ATOM     97  C   UNL     1       3.280  16.461 -15.500  1.00  0.00     0.198 A 
ATOM     98  C   UNL     1       1.188  15.321 -15.789  1.00  0.00     0.198 A 
ATOM     99  F   UNL     1       0.719  13.387 -14.536  1.00  0.00    -0.203 F 
ATOM    100  F   UNL     1       4.095  17.484 -15.796  1.00  0.00    -0.200 F 
ATOM    101  C   UNL     1       2.041  16.364 -16.115  1.00  0.00     0.200 A 
ATOM    102  F   UNL     1      -0.004  15.217 -16.392  1.00  0.00    -0.200 F 
ATOM    103  F   UNL     1       1.666  17.280 -17.019  1.00  0.00    -0.200 F 
ENDBRANCH  70  93
ENDBRANCH  44  45
ENDBRANCH  37  39
ENDBRANCH  36  37
ENDBRANCH  35  36
ENDBRANCH  34  35
ENDBRANCH  33  34
ENDBRANCH  32  33
ENDBRANCH   1  32
TORSDOF 23
