REMARK SMILES C[NH2+][C@]1(C(=O)OCCOCCOCCOC(=O)c2ccc(-c3c4nc(c(-c5c(F)c(F)c(F)c(F)c5F)c5ccc([nH]5)c(-c5c(F)c(F)c(F)c(F)c5F)c5nc(c(-c6c(F)c(F)c(F)c(F)c6F)c6ccc3[nH]6)C=C5)C=C4)cc2)CC[C@@H]([N@@H+](C)C[C@@H]2CCCCO2)C1
REMARK SMILES IDX 10 1 9 2 8 3 7 4 6 5 4 6 5 7 3 8 81 9 93 10 82 11 83 12 2 13
REMARK SMILES IDX 1 14 84 17 85 18 86 20 87 21 88 22 92 23 89 24 91 25 90 26
REMARK SMILES IDX 11 27 12 28 13 29 14 30 15 31 16 32 17 33 18 34 19 35 80 36
REMARK SMILES IDX 20 37 79 38 21 39 22 40 23 41 73 42 24 43 78 44 72 45 74 46
REMARK SMILES IDX 25 47 77 48 71 49 70 50 26 52 58 53 38 54 57 55 39 56 42 57
REMARK SMILES IDX 56 58 75 59 40 60 41 61 55 63 76 64 43 65 27 66 28 67 36 68
REMARK SMILES IDX 29 69 30 70 34 71 37 72 31 73 32 74 35 75 33 76 59 77 60 78
REMARK SMILES IDX 68 79 61 80 62 81 66 82 69 83 63 84 64 85 67 86 65 87 44 88
REMARK SMILES IDX 45 89 53 90 46 91 47 92 51 93 54 94 48 95 49 96 52 97 50 98
REMARK H PARENT 2 15 2 16 84 19 74 51 42 62
REMARK Flexibility Score: inf
ROOT
ATOM      1  C   UNL     1       1.975  -0.241   1.793  1.00  0.00     0.188 C 
ENDROOT
BRANCH   1   2
ATOM      2  O   UNL     1       3.274  -0.632   1.364  1.00  0.00    -0.376 OA
BRANCH   2   3
ATOM      3  C   UNL     1       3.521  -0.820  -0.024  1.00  0.00     0.202 C 
BRANCH   3   4
ATOM      4  C   UNL     1       2.566  -1.679  -0.877  1.00  0.00     0.261 C 
BRANCH   4   5
ATOM      5  O   UNL     1       1.161  -1.380  -0.755  1.00  0.00    -0.459 OA
BRANCH   5   6
ATOM      6  C   UNL     1       0.381  -2.362  -0.231  1.00  0.00     0.368 C 
ATOM      7  O   UNL     1       0.800  -3.483   0.053  1.00  0.00    -0.245 OA
BRANCH   6   8
ATOM      8  C   UNL     1      -1.100  -1.940   0.035  1.00  0.00     0.200 C 
ATOM      9  C   UNL     1      -1.629  -0.627  -0.587  1.00  0.00     0.087 C 
ATOM     10  C   UNL     1      -1.964  -2.988  -0.718  1.00  0.00     0.146 C 
ATOM     11  C   UNL     1      -3.133  -0.866  -0.672  1.00  0.00     0.072 C 
ATOM     12  C   UNL     1      -3.254  -2.291  -1.195  1.00  0.00     0.191 C 
BRANCH   8  13
ATOM     13  N   UNL     1      -1.300  -1.786   1.511  1.00  0.00    -0.334 N 
ATOM     14  C   UNL     1      -1.518  -3.011   2.257  1.00  0.00     0.331 C 
ATOM     15  H   UNL     1      -0.471  -1.332   1.893  1.00  0.00     0.347 HD
ATOM     16  H   UNL     1      -2.159  -1.245   1.616  1.00  0.00     0.347 HD
ENDBRANCH   8  13
BRANCH  12  17
ATOM     17  N   UNL     1      -3.471  -2.457  -2.645  1.00  0.00    -0.333 N 
ATOM     18  C   UNL     1      -4.886  -2.334  -2.985  1.00  0.00     0.333 C 
ATOM     19  H   UNL     1      -3.171  -3.416  -2.820  1.00  0.00     0.348 HD
BRANCH  17  20
ATOM     20  C   UNL     1      -2.577  -1.713  -3.568  1.00  0.00     0.294 C 
BRANCH  20  21
ATOM     21  C   UNL     1      -2.932  -0.235  -3.927  1.00  0.00     0.173 C 
ATOM     22  C   UNL     1      -3.715  -0.072  -5.235  1.00  0.00     0.038 C 
ATOM     23  O   UNL     1      -1.795   0.640  -3.860  1.00  0.00    -0.372 OA
ATOM     24  C   UNL     1      -2.814  -0.057  -6.460  1.00  0.00     0.005 C 
ATOM     25  C   UNL     1      -0.933   0.623  -4.993  1.00  0.00     0.161 C 
ATOM     26  C   UNL     1      -1.701   0.959  -6.261  1.00  0.00     0.029 C 
ENDBRANCH  20  21
ENDBRANCH  17  20
ENDBRANCH  12  17
ENDBRANCH   6   8
ENDBRANCH   5   6
ENDBRANCH   4   5
ENDBRANCH   3   4
ENDBRANCH   2   3
ENDBRANCH   1   2
BRANCH   1  27
ATOM     27  C   UNL     1       1.215   0.828   0.992  1.00  0.00     0.188 C 
BRANCH  27  28
ATOM     28  O   UNL     1       1.930   1.389  -0.079  1.00  0.00    -0.376 OA
BRANCH  28  29
ATOM     29  C   UNL     1       2.471   2.685   0.058  1.00  0.00     0.202 C 
BRANCH  29  30
ATOM     30  C   UNL     1       3.049   3.205   1.388  1.00  0.00     0.261 C 
BRANCH  30  31
ATOM     31  O   UNL     1       2.529   2.662   2.611  1.00  0.00    -0.460 OA
BRANCH  31  32
ATOM     32  C   UNL     1       1.411   3.223   3.121  1.00  0.00     0.338 C 
ATOM     33  O   UNL     1       0.774   4.158   2.653  1.00  0.00    -0.246 OA
BRANCH  32  34
ATOM     34  C   UNL     1       0.948   2.384   4.249  1.00  0.00     0.060 A 
ATOM     35  C   UNL     1      -0.287   1.727   4.154  1.00  0.00     0.016 A 
ATOM     36  C   UNL     1       1.731   2.243   5.397  1.00  0.00     0.016 A 
ATOM     37  C   UNL     1      -0.756   0.950   5.217  1.00  0.00     0.010 A 
ATOM     38  C   UNL     1       1.249   1.485   6.470  1.00  0.00     0.010 A 
ATOM     39  C   UNL     1      -0.010   0.860   6.398  1.00  0.00    -0.014 A 
BRANCH  39  40
ATOM     40  C   UNL     1      -0.614   0.278   7.624  1.00  0.00     0.031 A 
ATOM     41  C   UNL     1      -1.177   1.215   8.658  1.00  0.00     0.074 A 
ATOM     42  C   UNL     1      -0.665  -1.051   7.827  1.00  0.00     0.049 A 
ATOM     43  N   UNL     1      -1.662   0.958   9.846  1.00  0.00    -0.248 NA
ATOM     44  C   UNL     1      -1.189   2.643   8.300  1.00  0.00     0.031 C 
ATOM     45  C   UNL     1      -0.202  -2.069   6.888  1.00  0.00     0.029 A 
ATOM     46  N   UNL     1      -1.117  -1.768   8.909  1.00  0.00    -0.354 N 
ATOM     47  C   UNL     1      -2.023   2.188  10.380  1.00  0.00     0.074 A 
ATOM     48  C   UNL     1      -1.676   3.194   9.400  1.00  0.00     0.031 C 
ATOM     49  C   UNL     1      -0.373  -3.282   7.444  1.00  0.00     0.029 A 
ATOM     50  C   UNL     1      -0.921  -3.123   8.791  1.00  0.00     0.049 A 
ATOM     51  H   UNL     1      -1.541  -1.351   9.693  1.00  0.00     0.167 HD
ATOM     52  C   UNL     1      -2.596   2.455  11.578  1.00  0.00     0.037 A 
ATOM     53  C   UNL     1      -1.131  -4.113   9.682  1.00  0.00     0.037 A 
ATOM     54  C   UNL     1      -2.938   1.454  12.554  1.00  0.00     0.049 A 
ATOM     55  C   UNL     1      -1.690  -3.782  11.044  1.00  0.00     0.074 A 
ATOM     56  C   UNL     1      -3.537   1.623  13.790  1.00  0.00     0.029 A 
ATOM     57  N   UNL     1      -2.699   0.095  12.409  1.00  0.00    -0.354 N 
ATOM     58  N   UNL     1      -2.050  -2.621  11.536  1.00  0.00    -0.248 NA
ATOM     59  C   UNL     1      -1.875  -4.905  11.976  1.00  0.00     0.031 C 
ATOM     60  C   UNL     1      -3.603   0.376  14.419  1.00  0.00     0.029 A 
ATOM     61  C   UNL     1      -3.111  -0.581  13.546  1.00  0.00     0.049 A 
ATOM     62  H   UNL     1      -2.296  -0.326  11.616  1.00  0.00     0.167 HD
ATOM     63  C   UNL     1      -2.534  -2.877  12.815  1.00  0.00     0.074 A 
ATOM     64  C   UNL     1      -2.433  -4.306  13.019  1.00  0.00     0.031 C 
ATOM     65  C   UNL     1      -3.019  -2.007  13.735  1.00  0.00     0.037 A 
BRANCH  52  66
ATOM     66  C   UNL     1      -2.860   3.895  11.915  1.00  0.00     0.064 A 
ATOM     67  C   UNL     1      -3.846   4.642  11.253  1.00  0.00     0.173 A 
ATOM     68  C   UNL     1      -2.135   4.527  12.937  1.00  0.00     0.173 A 
ATOM     69  F   UNL     1      -4.559   4.090  10.259  1.00  0.00    -0.203 F 
ATOM     70  C   UNL     1      -4.076   5.975  11.582  1.00  0.00     0.198 A 
ATOM     71  C   UNL     1      -2.391   5.850  13.286  1.00  0.00     0.198 A 
ATOM     72  F   UNL     1      -1.184   3.858  13.605  1.00  0.00    -0.203 F 
ATOM     73  F   UNL     1      -4.987   6.684  10.900  1.00  0.00    -0.200 F 
ATOM     74  C   UNL     1      -3.355   6.576  12.602  1.00  0.00     0.200 A 
ATOM     75  F   UNL     1      -1.703   6.423  14.283  1.00  0.00    -0.200 F 
ATOM     76  F   UNL     1      -3.584   7.856  12.924  1.00  0.00    -0.200 F 
ENDBRANCH  52  66
BRANCH  53  77
ATOM     77  C   UNL     1      -0.792  -5.519   9.329  1.00  0.00     0.064 A 
ATOM     78  C   UNL     1      -1.791  -6.493   9.197  1.00  0.00     0.173 A 
ATOM     79  C   UNL     1       0.539  -5.925   9.151  1.00  0.00     0.173 A 
ATOM     80  F   UNL     1      -3.077  -6.163   9.389  1.00  0.00    -0.203 F 
ATOM     81  C   UNL     1      -1.472  -7.822   8.923  1.00  0.00     0.198 A 
ATOM     82  C   UNL     1       0.856  -7.247   8.845  1.00  0.00     0.198 A 
ATOM     83  F   UNL     1       1.535  -5.035   9.275  1.00  0.00    -0.203 F 
ATOM     84  F   UNL     1      -2.443  -8.742   8.860  1.00  0.00    -0.200 F 
ATOM     85  C   UNL     1      -0.149  -8.196   8.741  1.00  0.00     0.200 A 
ATOM     86  F   UNL     1       2.134  -7.603   8.661  1.00  0.00    -0.200 F 
ATOM     87  F   UNL     1       0.157  -9.474   8.478  1.00  0.00    -0.200 F 
ENDBRANCH  53  77
BRANCH  65  88
ATOM     88  C   UNL     1      -3.530  -2.575  15.031  1.00  0.00     0.064 A 
ATOM     89  C   UNL     1      -2.669  -3.121  15.994  1.00  0.00     0.173 A 
ATOM     90  C   UNL     1      -4.901  -2.527  15.331  1.00  0.00     0.173 A 
ATOM     91  F   UNL     1      -1.352  -3.202  15.754  1.00  0.00    -0.203 F 
ATOM     92  C   UNL     1      -3.164  -3.624  17.195  1.00  0.00     0.198 A 
ATOM     93  C   UNL     1      -5.388  -2.999  16.548  1.00  0.00     0.198 A 
ATOM     94  F   UNL     1      -5.769  -2.006  14.451  1.00  0.00    -0.203 F 
ATOM     95  F   UNL     1      -2.328  -4.189  18.078  1.00  0.00    -0.200 F 
ATOM     96  C   UNL     1      -4.521  -3.555  17.474  1.00  0.00     0.200 A 
ATOM     97  F   UNL     1      -6.697  -2.913  16.822  1.00  0.00    -0.200 F 
ATOM     98  F   UNL     1      -4.993  -4.030  18.635  1.00  0.00    -0.200 F 
ENDBRANCH  65  88
ENDBRANCH  39  40
ENDBRANCH  32  34
ENDBRANCH  31  32
ENDBRANCH  30  31
ENDBRANCH  29  30
ENDBRANCH  28  29
ENDBRANCH  27  28
ENDBRANCH   1  27
TORSDOF 21
