REMARK SMILES CCOc1cc(OCC)cc(-c2ccc([C@@H](C)C(=O)OCCOCCOCCOC(=O)c3ccc(-c4c5nc(c(-c6c(F)c(F)c(F)c(F)c6F)c6ccc([nH]6)c(-c6c(F)c(F)c(F)c(F)c6F)c6nc(c(-c7c(F)c(F)c(F)c(F)c7F)c7ccc4[nH]7)C=C6)C=C5)cc3)cc2)c1
REMARK SMILES IDX 24 1 23 2 22 3 21 4 20 5 18 6 19 7 16 8 17 9 15 10 12 11
REMARK SMILES IDX 13 12 96 13 14 14 95 15 11 16 4 17 5 18 97 19 6 20 10 21
REMARK SMILES IDX 3 22 2 23 1 24 7 25 8 26 9 27 25 28 26 29 27 30 28 31 29 32
REMARK SMILES IDX 30 33 31 34 32 35 33 36 94 37 34 38 93 39 35 40 36 41 37 42
REMARK SMILES IDX 87 43 38 44 92 45 86 46 88 47 39 48 91 49 85 50 84 51 40 53
REMARK SMILES IDX 72 54 52 55 71 56 53 57 56 58 70 59 89 60 54 61 55 62 69 64
REMARK SMILES IDX 90 65 57 66 41 67 42 68 50 69 43 70 44 71 48 72 51 73 45 74
REMARK SMILES IDX 46 75 49 76 47 77 73 78 74 79 82 80 75 81 76 82 80 83 83 84
REMARK SMILES IDX 77 85 78 86 81 87 79 88 58 89 59 90 67 91 60 92 61 93 65 94
REMARK SMILES IDX 68 95 62 96 63 97 66 98 64 99
REMARK H PARENT 88 52 56 63
REMARK Flexibility Score: inf
ROOT
ATOM      1  C   UNL     1       6.533   2.823   4.148  1.00  0.00     0.188 C 
ENDROOT
BRANCH   1   2
ATOM      2  O   UNL     1       7.351   3.982   4.258  1.00  0.00    -0.376 OA
BRANCH   2   3
ATOM      3  C   UNL     1       8.405   4.182   3.326  1.00  0.00     0.202 C 
BRANCH   3   4
ATOM      4  C   UNL     1       9.489   3.097   3.209  1.00  0.00     0.261 C 
BRANCH   4   5
ATOM      5  O   UNL     1       9.009   1.754   2.974  1.00  0.00    -0.463 OA
BRANCH   5   6
ATOM      6  C   UNL     1       9.302   0.829   3.924  1.00  0.00     0.313 C 
ATOM      7  O   UNL     1       9.976   1.078   4.922  1.00  0.00    -0.252 OA
BRANCH   6   8
ATOM      8  C   UNL     1       8.734  -0.576   3.704  1.00  0.00     0.126 C 
ATOM      9  C   UNL     1       9.892  -1.565   3.587  1.00  0.00     0.025 C 
BRANCH   8  10
ATOM     10  C   UNL     1       7.697  -0.851   2.619  1.00  0.00    -0.034 A 
ATOM     11  C   UNL     1       5.709  -1.458   0.659  1.00  0.00    -0.018 A 
ATOM     12  C   UNL     1       6.919  -0.830   0.312  1.00  0.00     0.009 A 
ATOM     13  C   UNL     1       5.503  -1.768   2.007  1.00  0.00     0.009 A 
ATOM     14  C   UNL     1       7.906  -0.546   1.269  1.00  0.00     0.005 A 
ATOM     15  C   UNL     1       6.481  -1.474   2.969  1.00  0.00     0.005 A 
BRANCH  11  16
ATOM     16  C   UNL     1       4.750  -1.876  -0.380  1.00  0.00    -0.011 A 
ATOM     17  C   UNL     1       2.528  -1.978  -1.365  1.00  0.00     0.123 A 
ATOM     18  C   UNL     1       3.010  -2.780  -2.402  1.00  0.00     0.092 A 
ATOM     19  C   UNL     1       3.390  -1.536  -0.354  1.00  0.00     0.055 A 
ATOM     20  C   UNL     1       4.353  -3.151  -2.434  1.00  0.00     0.123 A 
ATOM     21  C   UNL     1       5.204  -2.700  -1.425  1.00  0.00     0.055 A 
BRANCH  17  22
ATOM     22  O   UNL     1       1.173  -1.801  -1.288  1.00  0.00    -0.494 OA
BRANCH  22  23
ATOM     23  C   UNL     1       0.733  -0.451  -1.469  1.00  0.00     0.226 C 
ATOM     24  C   UNL     1       0.636   0.285  -0.145  1.00  0.00     0.049 C 
ENDBRANCH  22  23
ENDBRANCH  17  22
BRANCH  20  25
ATOM     25  O   UNL     1       4.733  -3.942  -3.485  1.00  0.00    -0.494 OA
BRANCH  25  26
ATOM     26  C   UNL     1       5.981  -4.632  -3.376  1.00  0.00     0.226 C 
ATOM     27  C   UNL     1       7.136  -3.789  -3.897  1.00  0.00     0.049 C 
ENDBRANCH  25  26
ENDBRANCH  20  25
ENDBRANCH  11  16
ENDBRANCH   8  10
ENDBRANCH   6   8
ENDBRANCH   5   6
ENDBRANCH   4   5
ENDBRANCH   3   4
ENDBRANCH   2   3
ENDBRANCH   1   2
BRANCH   1  28
ATOM     28  C   UNL     1       6.199   2.255   2.760  1.00  0.00     0.188 C 
BRANCH  28  29
ATOM     29  O   UNL     1       6.523   3.107   1.682  1.00  0.00    -0.376 OA
BRANCH  29  30
ATOM     30  C   UNL     1       5.469   3.424   0.795  1.00  0.00     0.202 C 
BRANCH  30  31
ATOM     31  C   UNL     1       4.396   4.340   1.399  1.00  0.00     0.261 C 
BRANCH  31  32
ATOM     32  O   UNL     1       3.849   3.910   2.662  1.00  0.00    -0.460 OA
BRANCH  32  33
ATOM     33  C   UNL     1       3.023   2.844   2.631  1.00  0.00     0.338 C 
ATOM     34  O   UNL     1       2.670   2.223   1.637  1.00  0.00    -0.246 OA
BRANCH  33  35
ATOM     35  C   UNL     1       2.759   2.398   4.015  1.00  0.00     0.060 A 
ATOM     36  C   UNL     1       3.104   1.091   4.391  1.00  0.00     0.016 A 
ATOM     37  C   UNL     1       2.150   3.257   4.931  1.00  0.00     0.016 A 
ATOM     38  C   UNL     1       2.806   0.629   5.675  1.00  0.00     0.010 A 
ATOM     39  C   UNL     1       1.834   2.786   6.209  1.00  0.00     0.010 A 
ATOM     40  C   UNL     1       2.127   1.459   6.577  1.00  0.00    -0.014 A 
BRANCH  40  41
ATOM     41  C   UNL     1       1.543   0.891   7.820  1.00  0.00     0.031 A 
ATOM     42  C   UNL     1       0.079   0.540   7.827  1.00  0.00     0.074 A 
ATOM     43  C   UNL     1       2.287   0.681   8.920  1.00  0.00     0.049 A 
ATOM     44  N   UNL     1      -0.671   0.100   8.805  1.00  0.00    -0.248 NA
ATOM     45  C   UNL     1      -0.636   0.716   6.553  1.00  0.00     0.031 C 
ATOM     46  C   UNL     1       3.720   0.939   9.036  1.00  0.00     0.029 A 
ATOM     47  N   UNL     1       1.927   0.211  10.160  1.00  0.00    -0.354 N 
ATOM     48  C   UNL     1      -1.945  -0.041   8.268  1.00  0.00     0.074 A 
ATOM     49  C   UNL     1      -1.874   0.390   6.889  1.00  0.00     0.031 C 
ATOM     50  C   UNL     1       4.117   0.637  10.285  1.00  0.00     0.029 A 
ATOM     51  C   UNL     1       2.960   0.199  11.065  1.00  0.00     0.049 A 
ATOM     52  H   UNL     1       1.015  -0.088  10.379  1.00  0.00     0.167 HD
ATOM     53  C   UNL     1      -3.071  -0.498   8.867  1.00  0.00     0.037 A 
ATOM     54  C   UNL     1       2.962  -0.108  12.378  1.00  0.00     0.037 A 
ATOM     55  C   UNL     1      -3.143  -0.924  10.240  1.00  0.00     0.049 A 
ATOM     56  C   UNL     1       1.679  -0.545  13.042  1.00  0.00     0.074 A 
ATOM     57  C   UNL     1      -4.235  -1.415  10.935  1.00  0.00     0.029 A 
ATOM     58  N   UNL     1      -2.080  -0.902  11.131  1.00  0.00    -0.354 N 
ATOM     59  N   UNL     1       0.484  -0.699  12.524  1.00  0.00    -0.248 NA
ATOM     60  C   UNL     1       1.750  -0.859  14.477  1.00  0.00     0.031 C 
ATOM     61  C   UNL     1      -3.848  -1.633  12.262  1.00  0.00     0.029 A 
ATOM     62  C   UNL     1      -2.497  -1.347  12.376  1.00  0.00     0.049 A 
ATOM     63  H   UNL     1      -1.165  -0.612  10.912  1.00  0.00     0.167 HD
ATOM     64  C   UNL     1      -0.325  -1.163  13.555  1.00  0.00     0.074 A 
ATOM     65  C   UNL     1       0.518  -1.278  14.726  1.00  0.00     0.031 C 
ATOM     66  C   UNL     1      -1.646  -1.471  13.533  1.00  0.00     0.037 A 
BRANCH  53  67
ATOM     67  C   UNL     1      -4.328  -0.529   8.045  1.00  0.00     0.064 A 
ATOM     68  C   UNL     1      -4.496  -1.431   6.983  1.00  0.00     0.173 A 
ATOM     69  C   UNL     1      -5.391   0.337   8.343  1.00  0.00     0.173 A 
ATOM     70  F   UNL     1      -3.505  -2.271   6.647  1.00  0.00    -0.203 F 
ATOM     71  C   UNL     1      -5.669  -1.443   6.232  1.00  0.00     0.198 A 
ATOM     72  C   UNL     1      -6.575   0.299   7.612  1.00  0.00     0.198 A 
ATOM     73  F   UNL     1      -5.285   1.218   9.350  1.00  0.00    -0.203 F 
ATOM     74  F   UNL     1      -5.785  -2.275   5.188  1.00  0.00    -0.200 F 
ATOM     75  C   UNL     1      -6.710  -0.584   6.551  1.00  0.00     0.200 A 
ATOM     76  F   UNL     1      -7.585   1.120   7.931  1.00  0.00    -0.200 F 
ATOM     77  F   UNL     1      -7.840  -0.602   5.832  1.00  0.00    -0.200 F 
ENDBRANCH  53  67
BRANCH  54  78
ATOM     78  C   UNL     1       4.220  -0.007  13.167  1.00  0.00     0.064 A 
ATOM     79  C   UNL     1       4.834  -1.149  13.701  1.00  0.00     0.173 A 
ATOM     80  C   UNL     1       4.814   1.236  13.436  1.00  0.00     0.173 A 
ATOM     81  F   UNL     1       4.290  -2.358  13.499  1.00  0.00    -0.203 F 
ATOM     82  C   UNL     1       5.978  -1.050  14.492  1.00  0.00     0.198 A 
ATOM     83  C   UNL     1       5.976   1.330  14.199  1.00  0.00     0.198 A 
ATOM     84  F   UNL     1       4.264   2.361  12.955  1.00  0.00    -0.203 F 
ATOM     85  F   UNL     1       6.509  -2.153  15.038  1.00  0.00    -0.200 F 
ATOM     86  C   UNL     1       6.551   0.189  14.735  1.00  0.00     0.200 A 
ATOM     87  F   UNL     1       6.531   2.529  14.424  1.00  0.00    -0.200 F 
ATOM     88  F   UNL     1       7.649   0.283  15.497  1.00  0.00    -0.200 F 
ENDBRANCH  54  78
BRANCH  66  89
ATOM     89  C   UNL     1      -2.253  -2.022  14.795  1.00  0.00     0.064 A 
ATOM     90  C   UNL     1      -2.433  -1.233  15.941  1.00  0.00     0.173 A 
ATOM     91  C   UNL     1      -2.688  -3.356  14.845  1.00  0.00     0.173 A 
ATOM     92  F   UNL     1      -2.027   0.045  15.953  1.00  0.00    -0.203 F 
ATOM     93  C   UNL     1      -2.988  -1.770  17.101  1.00  0.00     0.198 A 
ATOM     94  C   UNL     1      -3.276  -3.879  15.993  1.00  0.00     0.198 A 
ATOM     95  F   UNL     1      -2.551  -4.153  13.775  1.00  0.00    -0.203 F 
ATOM     96  F   UNL     1      -3.093  -1.015  18.203  1.00  0.00    -0.200 F 
ATOM     97  C   UNL     1      -3.415  -3.090  17.124  1.00  0.00     0.200 A 
ATOM     98  F   UNL     1      -3.705  -5.149  16.006  1.00  0.00    -0.200 F 
ATOM     99  F   UNL     1      -3.953  -3.603  18.239  1.00  0.00    -0.200 F 
ENDBRANCH  66  89
ENDBRANCH  40  41
ENDBRANCH  33  35
ENDBRANCH  32  33
ENDBRANCH  31  32
ENDBRANCH  30  31
ENDBRANCH  29  30
ENDBRANCH  28  29
ENDBRANCH   1  28
TORSDOF 23
