REMARK SMILES CC(C)[C@H](NC(=O)N1CC[C@@H]2CC[C@H](C1)[N@H+]2C)C(=O)OCCOCCOCCOC(=O)c1ccc(-c2c3nc(c(-c4c(F)c(F)c(F)c(F)c4F)c4ccc([nH]4)c(-c4c(F)c(F)c(F)c(F)c4F)c4nc(c(-c5c(F)c(F)c(F)c(F)c5F)c5ccc2[nH]5)C=C4)C=C3)cc1
REMARK SMILES IDX 23 1 22 2 21 3 20 4 18 5 19 6 4 7 2 8 1 9 3 10 5 11 6 12
REMARK SMILES IDX 7 14 8 15 9 16 15 18 14 19 13 20 16 21 12 22 11 23 17 24
REMARK SMILES IDX 10 26 24 28 25 29 26 30 27 31 28 32 29 33 30 34 31 35 32 36
REMARK SMILES IDX 33 37 94 38 34 39 93 40 35 41 36 42 37 43 87 44 38 45 92 46
REMARK SMILES IDX 86 47 88 48 39 49 91 50 85 51 84 52 40 54 72 55 52 56 71 57
REMARK SMILES IDX 53 58 56 59 70 60 89 61 54 62 55 63 69 65 90 66 57 67 41 68
REMARK SMILES IDX 42 69 50 70 43 71 44 72 48 73 51 74 45 75 46 76 49 77 47 78
REMARK SMILES IDX 73 79 74 80 82 81 75 82 76 83 80 84 83 85 77 86 78 87 81 88
REMARK SMILES IDX 79 89 58 90 59 91 67 92 60 93 61 94 65 95 68 96 62 97 63 98
REMARK SMILES IDX 66 99 64 100
REMARK H PARENT 5 13 16 25 88 53 56 64
REMARK Flexibility Score: 90.00
ROOT
ATOM      1  O   UNL     1      -1.544  -0.272  -4.773  1.00  0.00    -0.376 OA
ENDROOT
BRANCH   1   2
ATOM      2  C   UNL     1      -2.571   1.145  -5.463  1.00  0.00     0.202 C 
BRANCH   2   3
ATOM      3  C   UNL     1      -3.618   2.326  -4.521  1.00  0.00     0.261 C 
BRANCH   3   4
ATOM      4  O   UNL     1      -3.050   3.185  -3.321  1.00  0.00    -0.462 OA
BRANCH   4   5
ATOM      5  C   UNL     1      -2.896   2.764  -2.004  1.00  0.00     0.329 C 
ATOM      6  O   UNL     1      -3.873   2.452  -1.325  1.00  0.00    -0.250 OA
BRANCH   5   7
ATOM      7  C   UNL     1      -1.290   2.561  -1.411  1.00  0.00     0.196 C 
BRANCH   7   8
ATOM      8  C   UNL     1      -1.178   3.032   0.058  1.00  0.00     0.017 C 
ATOM      9  C   UNL     1       0.031   2.452   0.809  1.00  0.00     0.010 C 
ATOM     10  C   UNL     1      -1.276   4.532   0.136  1.00  0.00     0.010 C 
ENDBRANCH   7   8
BRANCH   7  11
ATOM     11  N   UNL     1       0.062   2.739  -2.375  1.00  0.00    -0.324 N 
ATOM     12  C   UNL     1       0.633   2.150  -3.624  1.00  0.00     0.318 C 
ATOM     13  H   UNL     1       0.658   3.435  -2.014  1.00  0.00     0.166 HD
ATOM     14  O   UNL     1       1.788   2.446  -3.926  1.00  0.00    -0.249 OA
BRANCH  12  15
ATOM     15  N   UNL     1      -0.221   1.286  -4.414  1.00  0.00    -0.319 N 
BRANCH  15  16
ATOM     16  C   UNL     1      -1.547   1.299  -3.676  1.00  0.00     0.128 CG0
ATOM     17  G   UNL     1      -2.964  -0.033  -3.486  1.00  0.00     0.000 G0
ENDBRANCH  15  16
BRANCH  15  18
ATOM     18  C   UNL     1      -0.066   0.288  -5.974  1.00  0.00     0.186 C 
BRANCH  18  19
ATOM     19  C   UNL     1      -1.193  -1.250  -6.453  1.00  0.00     0.204 C 
ATOM     20  C   UNL     1      -1.237  -2.610  -5.590  1.00  0.00     0.073 C 
ATOM     21  N   UNL     1      -2.817  -1.145  -6.391  1.00  0.00    -0.331 N 
ATOM     22  C   UNL     1      -2.498  -2.653  -4.611  1.00  0.00     0.071 C 
ATOM     23  C   UNL     1      -3.282  -1.342  -4.824  1.00  0.00     0.186 C 
ATOM     24  C   UNL     1      -3.506  -2.094  -7.267  1.00  0.00     0.333 C 
ATOM     25  H   UNL     1      -3.086  -0.225  -6.740  1.00  0.00     0.348 HD
BRANCH  23  26
ATOM     26  C   UNL     1      -2.964  -0.033  -3.486  1.00  0.00     0.086 CG0
ATOM     27  G   UNL     1      -1.547   1.299  -3.676  1.00  0.00     0.000 G0
ENDBRANCH  23  26
ENDBRANCH  18  19
ENDBRANCH  15  18
ENDBRANCH  12  15
ENDBRANCH   7  11
ENDBRANCH   5   7
ENDBRANCH   4   5
ENDBRANCH   3   4
ENDBRANCH   2   3
ENDBRANCH   1   2
BRANCH   1  28
ATOM     28  C   UNL     1      -0.446  -0.775  -3.508  1.00  0.00     0.188 C 
BRANCH  28  29
ATOM     29  C   UNL     1       1.023  -1.274  -3.790  1.00  0.00     0.188 C 
BRANCH  29  30
ATOM     30  O   UNL     1       2.128  -0.390  -3.821  1.00  0.00    -0.376 OA
BRANCH  30  31
ATOM     31  C   UNL     1       3.042  -0.325  -4.932  1.00  0.00     0.202 C 
BRANCH  31  32
ATOM     32  C   UNL     1       3.148  -1.326  -6.128  1.00  0.00     0.261 C 
BRANCH  32  33
ATOM     33  O   UNL     1       2.445  -2.563  -6.022  1.00  0.00    -0.460 OA
BRANCH  33  34
ATOM     34  C   UNL     1       3.053  -3.502  -5.271  1.00  0.00     0.338 C 
ATOM     35  O   UNL     1       4.212  -3.499  -4.879  1.00  0.00    -0.246 OA
BRANCH  34  36
ATOM     36  C   UNL     1       2.014  -4.419  -4.765  1.00  0.00     0.060 A 
ATOM     37  C   UNL     1       1.924  -4.562  -3.376  1.00  0.00     0.016 A 
ATOM     38  C   UNL     1       1.112  -5.081  -5.608  1.00  0.00     0.016 A 
ATOM     39  C   UNL     1       0.977  -5.416  -2.822  1.00  0.00     0.010 A 
ATOM     40  C   UNL     1       0.168  -5.955  -5.053  1.00  0.00     0.010 A 
ATOM     41  C   UNL     1       0.146  -6.171  -3.662  1.00  0.00    -0.014 A 
BRANCH  41  42
ATOM     42  C   UNL     1      -0.392  -7.441  -3.117  1.00  0.00     0.031 A 
ATOM     43  C   UNL     1       0.542  -8.626  -3.154  1.00  0.00     0.074 A 
ATOM     44  C   UNL     1      -1.599  -7.549  -2.538  1.00  0.00     0.049 A 
ATOM     45  N   UNL     1       0.403  -9.820  -2.641  1.00  0.00    -0.248 NA
ATOM     46  C   UNL     1       1.821  -8.421  -3.858  1.00  0.00     0.031 C 
ATOM     47  C   UNL     1      -2.585  -6.481  -2.404  1.00  0.00     0.029 A 
ATOM     48  N   UNL     1      -2.192  -8.634  -1.939  1.00  0.00    -0.354 N 
ATOM     49  C   UNL     1       1.587 -10.486  -2.928  1.00  0.00     0.074 A 
ATOM     50  C   UNL     1       2.413  -9.592  -3.703  1.00  0.00     0.031 C 
ATOM     51  C   UNL     1      -3.667  -6.967  -1.766  1.00  0.00     0.029 A 
ATOM     52  C   UNL     1      -3.449  -8.379  -1.451  1.00  0.00     0.049 A 
ATOM     53  H   UNL     1      -1.754  -9.513  -1.866  1.00  0.00     0.167 HD
ATOM     54  C   UNL     1       1.971 -11.729  -2.566  1.00  0.00     0.037 A 
ATOM     55  C   UNL     1      -4.313  -9.202  -0.824  1.00  0.00     0.037 A 
ATOM     56  C   UNL     1       1.143 -12.651  -1.848  1.00  0.00     0.049 A 
ATOM     57  C   UNL     1      -3.906 -10.629  -0.533  1.00  0.00     0.074 A 
ATOM     58  C   UNL     1       1.420 -13.951  -1.472  1.00  0.00     0.029 A 
ATOM     59  N   UNL     1      -0.144 -12.368  -1.417  1.00  0.00    -0.354 N 
ATOM     60  N   UNL     1      -2.764 -11.233  -0.756  1.00  0.00    -0.248 NA
ATOM     61  C   UNL     1      -4.915 -11.486   0.111  1.00  0.00     0.031 C 
ATOM     62  C   UNL     1       0.280 -14.474  -0.853  1.00  0.00     0.029 A 
ATOM     63  C   UNL     1      -0.685 -13.481  -0.799  1.00  0.00     0.049 A 
ATOM     64  H   UNL     1      -0.604 -11.506  -1.534  1.00  0.00     0.167 HD
ATOM     65  C   UNL     1      -2.903 -12.520  -0.245  1.00  0.00     0.074 A 
ATOM     66  C   UNL     1      -4.237 -12.608   0.307  1.00  0.00     0.031 C 
ATOM     67  C   UNL     1      -2.007 -13.538  -0.232  1.00  0.00     0.037 A 
BRANCH  54  68
ATOM     68  C   UNL     1       3.344 -12.154  -2.986  1.00  0.00     0.064 A 
ATOM     69  C   UNL     1       4.489 -11.629  -2.367  1.00  0.00     0.173 A 
ATOM     70  C   UNL     1       3.517 -13.054  -4.045  1.00  0.00     0.173 A 
ATOM     71  F   UNL     1       4.370 -10.737  -1.372  1.00  0.00    -0.203 F 
ATOM     72  C   UNL     1       5.761 -11.972  -2.814  1.00  0.00     0.198 A 
ATOM     73  C   UNL     1       4.791 -13.414  -4.473  1.00  0.00     0.198 A 
ATOM     74  F   UNL     1       2.451 -13.568  -4.676  1.00  0.00    -0.203 F 
ATOM     75  F   UNL     1       6.841 -11.416  -2.249  1.00  0.00    -0.200 F 
ATOM     76  C   UNL     1       5.911 -12.867  -3.864  1.00  0.00     0.200 A 
ATOM     77  F   UNL     1       4.935 -14.276  -5.488  1.00  0.00    -0.200 F 
ATOM     78  F   UNL     1       7.136 -13.190  -4.300  1.00  0.00    -0.200 F 
ENDBRANCH  54  68
BRANCH  55  79
ATOM     79  C   UNL     1      -5.660  -8.720  -0.415  1.00  0.00     0.064 A 
ATOM     80  C   UNL     1      -6.005  -8.600   0.939  1.00  0.00     0.173 A 
ATOM     81  C   UNL     1      -6.654  -8.454  -1.368  1.00  0.00     0.173 A 
ATOM     82  F   UNL     1      -5.098  -8.875   1.888  1.00  0.00    -0.203 F 
ATOM     83  C   UNL     1      -7.303  -8.265   1.324  1.00  0.00     0.198 A 
ATOM     84  C   UNL     1      -7.944  -8.094  -0.981  1.00  0.00     0.198 A 
ATOM     85  F   UNL     1      -6.377  -8.562  -2.675  1.00  0.00    -0.203 F 
ATOM     86  F   UNL     1      -7.623  -8.222   2.625  1.00  0.00    -0.200 F 
ATOM     87  C   UNL     1      -8.270  -8.012   0.364  1.00  0.00     0.200 A 
ATOM     88  F   UNL     1      -8.876  -7.849  -1.912  1.00  0.00    -0.200 F 
ATOM     89  F   UNL     1      -9.522  -7.708   0.735  1.00  0.00    -0.200 F 
ENDBRANCH  55  79
BRANCH  67  90
ATOM     90  C   UNL     1      -2.412 -14.816   0.443  1.00  0.00     0.064 A 
ATOM     91  C   UNL     1      -3.354 -15.685  -0.124  1.00  0.00     0.173 A 
ATOM     92  C   UNL     1      -1.799 -15.204   1.645  1.00  0.00     0.173 A 
ATOM     93  F   UNL     1      -3.975 -15.356  -1.266  1.00  0.00    -0.203 F 
ATOM     94  C   UNL     1      -3.687 -16.885   0.501  1.00  0.00     0.198 A 
ATOM     95  C   UNL     1      -2.111 -16.417   2.251  1.00  0.00     0.198 A 
ATOM     96  F   UNL     1      -0.882 -14.413   2.223  1.00  0.00    -0.203 F 
ATOM     97  F   UNL     1      -4.622 -17.681  -0.037  1.00  0.00    -0.200 F 
ATOM     98  C   UNL     1      -3.059 -17.253   1.682  1.00  0.00     0.200 A 
ATOM     99  F   UNL     1      -1.492 -16.779   3.383  1.00  0.00    -0.200 F 
ATOM    100  F   UNL     1      -3.373 -18.414   2.275  1.00  0.00    -0.200 F 
ENDBRANCH  67  90
ENDBRANCH  41  42
ENDBRANCH  34  36
ENDBRANCH  33  34
ENDBRANCH  32  33
ENDBRANCH  31  32
ENDBRANCH  30  31
ENDBRANCH  29  30
ENDBRANCH  28  29
ENDBRANCH   1  28
TORSDOF 20
