REMARK SMILES [NH3+][C@H]1CN(C(=O)OCC2c3ccccc3-c3ccccc32)C[C@@H]1C(=O)OCCOCCOCCOC(=O)c1ccc(-c2c3nc(c(-c4c(F)c(F)c(F)c(F)c4F)c4ccc([nH]4)c(-c4c(F)c(F)c(F)c(F)c4F)c4nc(c(-c5c(F)c(F)c(F)c(F)c5F)c5ccc2[nH]5)C=C4)C=C3)cc1
REMARK SMILES IDX 30 1 29 2 28 3 27 4 26 5 24 6 25 7 23 8 2 9 3 10 4 11 22 12
REMARK SMILES IDX 1 13 5 17 6 18 7 19 8 20 9 21 10 22 21 23 11 24 15 25 16 26
REMARK SMILES IDX 20 27 12 28 14 29 17 30 19 31 13 32 18 33 31 34 32 35 33 36
REMARK SMILES IDX 34 37 35 38 36 39 37 40 38 41 39 42 100 43 40 44 99 45 41 46
REMARK SMILES IDX 42 47 43 48 93 49 44 50 98 51 92 52 94 53 45 54 97 55 91 56
REMARK SMILES IDX 90 57 46 59 78 60 58 61 77 62 59 63 62 64 76 65 95 66 60 67
REMARK SMILES IDX 61 68 75 70 96 71 63 72 47 73 48 74 56 75 49 76 50 77 54 78
REMARK SMILES IDX 57 79 51 80 52 81 55 82 53 83 79 84 80 85 88 86 81 87 82 88
REMARK SMILES IDX 86 89 89 90 83 91 84 92 87 93 85 94 64 95 65 96 73 97 66 98
REMARK SMILES IDX 67 99 71 100 74 101 68 102 69 103 72 104 70 105
REMARK H PARENT 1 14 1 15 1 16 94 58 62 69
REMARK Flexibility Score: inf
ROOT
ATOM      1  C   UNL     1       2.008  -4.213   1.555  1.00  0.00     0.188 C 
ENDROOT
BRANCH   1   2
ATOM      2  O   UNL     1       1.692  -4.190   2.941  1.00  0.00    -0.376 OA
BRANCH   2   3
ATOM      3  C   UNL     1       0.381  -3.810   3.357  1.00  0.00     0.202 C 
BRANCH   3   4
ATOM      4  C   UNL     1      -0.248  -2.517   2.807  1.00  0.00     0.261 C 
BRANCH   4   5
ATOM      5  O   UNL     1      -0.247  -2.430   1.373  1.00  0.00    -0.463 OA
BRANCH   5   6
ATOM      6  C   UNL     1       0.344  -1.351   0.806  1.00  0.00     0.316 C 
ATOM      7  O   UNL     1       0.827  -0.414   1.431  1.00  0.00    -0.252 OA
BRANCH   6   8
ATOM      8  C   UNL     1       0.486  -1.480  -0.700  1.00  0.00     0.178 C 
ATOM      9  C   UNL     1       0.132  -0.147  -1.382  1.00  0.00     0.216 C 
ATOM     10  C   UNL     1      -1.406  -0.258  -1.587  1.00  0.00     0.188 C 
ATOM     11  N   UNL     1      -1.688  -1.680  -1.530  1.00  0.00    -0.301 N 
ATOM     12  C   UNL     1      -0.486  -2.441  -1.358  1.00  0.00     0.145 C 
BRANCH   9  13
ATOM     13  N   UNL     1       0.860  -0.034  -2.661  1.00  0.00    -0.353 N 
ATOM     14  H   UNL     1       0.623   0.851  -3.109  1.00  0.00     0.344 HD
ATOM     15  H   UNL     1       0.597  -0.806  -3.272  1.00  0.00     0.344 HD
ATOM     16  H   UNL     1       1.865  -0.067  -2.485  1.00  0.00     0.344 HD
ENDBRANCH   9  13
BRANCH  11  17
ATOM     17  C   UNL     1      -2.901  -2.306  -1.483  1.00  0.00     0.410 C 
ATOM     18  O   UNL     1      -3.042  -3.461  -1.088  1.00  0.00    -0.224 OA
BRANCH  17  19
ATOM     19  O   UNL     1      -3.898  -1.556  -2.011  1.00  0.00    -0.448 OA
BRANCH  19  20
ATOM     20  C   UNL     1      -5.106  -2.302  -2.243  1.00  0.00     0.248 C 
BRANCH  20  21
ATOM     21  C   UNL     1      -5.195  -2.838  -3.687  1.00  0.00     0.088 C 
ATOM     22  C   UNL     1      -4.237  -3.979  -4.040  1.00  0.00    -0.029 A 
ATOM     23  C   UNL     1      -6.549  -3.513  -3.906  1.00  0.00    -0.029 A 
ATOM     24  C   UNL     1      -2.855  -3.958  -4.162  1.00  0.00     0.005 A 
ATOM     25  C   UNL     1      -4.958  -5.164  -4.300  1.00  0.00    -0.014 A 
ATOM     26  C   UNL     1      -6.373  -4.871  -4.247  1.00  0.00    -0.014 A 
ATOM     27  C   UNL     1      -7.815  -2.956  -3.806  1.00  0.00     0.005 A 
ATOM     28  C   UNL     1      -2.187  -5.154  -4.436  1.00  0.00     0.000 A 
ATOM     29  C   UNL     1      -4.298  -6.351  -4.581  1.00  0.00     0.009 A 
ATOM     30  C   UNL     1      -7.466  -5.680  -4.509  1.00  0.00     0.009 A 
ATOM     31  C   UNL     1      -8.917  -3.774  -4.061  1.00  0.00     0.000 A 
ATOM     32  C   UNL     1      -2.901  -6.345  -4.628  1.00  0.00     0.001 A 
ATOM     33  C   UNL     1      -8.744  -5.122  -4.415  1.00  0.00     0.001 A 
ENDBRANCH  20  21
ENDBRANCH  19  20
ENDBRANCH  17  19
ENDBRANCH  11  17
ENDBRANCH   6   8
ENDBRANCH   5   6
ENDBRANCH   4   5
ENDBRANCH   3   4
ENDBRANCH   2   3
ENDBRANCH   1   2
BRANCH   1  34
ATOM     34  C   UNL     1       1.046  -4.886   0.566  1.00  0.00     0.188 C 
BRANCH  34  35
ATOM     35  O   UNL     1      -0.203  -5.229   1.112  1.00  0.00    -0.376 OA
BRANCH  35  36
ATOM     36  C   UNL     1      -0.517  -6.610   1.224  1.00  0.00     0.202 C 
BRANCH  36  37
ATOM     37  C   UNL     1       0.513  -7.593   1.825  1.00  0.00     0.261 C 
BRANCH  37  38
ATOM     38  O   UNL     1       1.897  -7.397   1.477  1.00  0.00    -0.460 OA
BRANCH  38  39
ATOM     39  C   UNL     1       2.302  -7.843   0.265  1.00  0.00     0.338 C 
ATOM     40  O   UNL     1       1.633  -8.434  -0.563  1.00  0.00    -0.246 OA
BRANCH  39  41
ATOM     41  C   UNL     1       3.645  -7.272  -0.008  1.00  0.00     0.060 A 
ATOM     42  C   UNL     1       3.800  -6.385  -1.086  1.00  0.00     0.016 A 
ATOM     43  C   UNL     1       4.742  -7.608   0.786  1.00  0.00     0.016 A 
ATOM     44  C   UNL     1       5.057  -5.861  -1.393  1.00  0.00     0.010 A 
ATOM     45  C   UNL     1       6.007  -7.105   0.459  1.00  0.00     0.010 A 
ATOM     46  C   UNL     1       6.177  -6.259  -0.653  1.00  0.00    -0.014 A 
BRANCH  46  47
ATOM     47  C   UNL     1       7.539  -5.969  -1.170  1.00  0.00     0.031 A 
ATOM     48  C   UNL     1       8.256  -7.052  -1.931  1.00  0.00     0.074 A 
ATOM     49  C   UNL     1       8.124  -4.771  -0.997  1.00  0.00     0.049 A 
ATOM     50  N   UNL     1       9.466  -7.064  -2.429  1.00  0.00    -0.248 NA
ATOM     51  C   UNL     1       7.501  -8.296  -2.153  1.00  0.00     0.031 C 
ATOM     52  C   UNL     1       7.523  -3.627  -0.319  1.00  0.00     0.029 A 
ATOM     53  N   UNL     1       9.369  -4.327  -1.372  1.00  0.00    -0.354 N 
ATOM     54  C   UNL     1       9.619  -8.315  -3.015  1.00  0.00     0.074 A 
ATOM     55  C   UNL     1       8.394  -9.047  -2.777  1.00  0.00     0.031 C 
ATOM     56  C   UNL     1       8.408  -2.615  -0.306  1.00  0.00     0.029 A 
ATOM     57  C   UNL     1       9.649  -3.053  -0.945  1.00  0.00     0.049 A 
ATOM     58  H   UNL     1      10.001  -4.872  -1.896  1.00  0.00     0.167 HD
ATOM     59  C   UNL     1      10.680  -8.806  -3.698  1.00  0.00     0.037 A 
ATOM     60  C   UNL     1      10.787  -2.336  -1.036  1.00  0.00     0.037 A 
ATOM     61  C   UNL     1      11.902  -8.080  -3.926  1.00  0.00     0.049 A 
ATOM     62  C   UNL     1      11.986  -2.931  -1.734  1.00  0.00     0.074 A 
ATOM     63  C   UNL     1      13.032  -8.485  -4.614  1.00  0.00     0.029 A 
ATOM     64  N   UNL     1      12.157  -6.799  -3.457  1.00  0.00    -0.354 N 
ATOM     65  N   UNL     1      12.117  -4.104  -2.306  1.00  0.00    -0.248 NA
ATOM     66  C   UNL     1      13.194  -2.096  -1.805  1.00  0.00     0.031 C 
ATOM     67  C   UNL     1      13.994  -7.474  -4.508  1.00  0.00     0.029 A 
ATOM     68  C   UNL     1      13.438  -6.410  -3.817  1.00  0.00     0.049 A 
ATOM     69  H   UNL     1      11.522  -6.248  -2.944  1.00  0.00     0.167 HD
ATOM     70  C   UNL     1      13.404  -4.135  -2.830  1.00  0.00     0.074 A 
ATOM     71  C   UNL     1      14.009  -2.856  -2.521  1.00  0.00     0.031 C 
ATOM     72  C   UNL     1      14.028  -5.131  -3.508  1.00  0.00     0.037 A 
BRANCH  59  73
ATOM     73  C   UNL     1      10.575 -10.213  -4.218  1.00  0.00     0.064 A 
ATOM     74  C   UNL     1       9.693 -10.557  -5.254  1.00  0.00     0.173 A 
ATOM     75  C   UNL     1      11.379 -11.229  -3.679  1.00  0.00     0.173 A 
ATOM     76  F   UNL     1       8.890  -9.627  -5.794  1.00  0.00    -0.203 F 
ATOM     77  C   UNL     1       9.594 -11.871  -5.705  1.00  0.00     0.198 A 
ATOM     78  C   UNL     1      11.304 -12.534  -4.158  1.00  0.00     0.198 A 
ATOM     79  F   UNL     1      12.243 -10.956  -2.690  1.00  0.00    -0.203 F 
ATOM     80  F   UNL     1       8.700 -12.186  -6.652  1.00  0.00    -0.200 F 
ATOM     81  C   UNL     1      10.404 -12.857  -5.162  1.00  0.00     0.200 A 
ATOM     82  F   UNL     1      12.099 -13.482  -3.642  1.00  0.00    -0.200 F 
ATOM     83  F   UNL     1      10.310 -14.120  -5.600  1.00  0.00    -0.200 F 
ENDBRANCH  59  73
BRANCH  60  84
ATOM     84  C   UNL     1      10.859  -0.978  -0.432  1.00  0.00     0.064 A 
ATOM     85  C   UNL     1      10.996   0.168  -1.229  1.00  0.00     0.173 A 
ATOM     86  C   UNL     1      10.814  -0.799   0.959  1.00  0.00     0.173 A 
ATOM     87  F   UNL     1      11.073   0.049  -2.563  1.00  0.00    -0.203 F 
ATOM     88  C   UNL     1      11.105   1.435  -0.658  1.00  0.00     0.198 A 
ATOM     89  C   UNL     1      10.890   0.471   1.527  1.00  0.00     0.198 A 
ATOM     90  F   UNL     1      10.689  -1.861   1.769  1.00  0.00    -0.203 F 
ATOM     91  F   UNL     1      11.288   2.506  -1.442  1.00  0.00    -0.200 F 
ATOM     92  C   UNL     1      11.044   1.586   0.719  1.00  0.00     0.200 A 
ATOM     93  F   UNL     1      10.817   0.613   2.857  1.00  0.00    -0.200 F 
ATOM     94  F   UNL     1      11.143   2.805   1.266  1.00  0.00    -0.200 F 
ENDBRANCH  60  84
BRANCH  72  95
ATOM     95  C   UNL     1      15.423  -4.865  -4.006  1.00  0.00     0.064 A 
ATOM     96  C   UNL     1      16.515  -4.744  -3.133  1.00  0.00     0.173 A 
ATOM     97  C   UNL     1      15.675  -4.763  -5.384  1.00  0.00     0.173 A 
ATOM     98  F   UNL     1      16.330  -4.821  -1.806  1.00  0.00    -0.203 F 
ATOM     99  C   UNL     1      17.797  -4.496  -3.617  1.00  0.00     0.198 A 
ATOM    100  C   UNL     1      16.964  -4.553  -5.866  1.00  0.00     0.198 A 
ATOM    101  F   UNL     1      14.671  -4.881  -6.266  1.00  0.00    -0.203 F 
ATOM    102  F   UNL     1      18.813  -4.325  -2.760  1.00  0.00    -0.200 F 
ATOM    103  C   UNL     1      18.022  -4.409  -4.983  1.00  0.00     0.200 A 
ATOM    104  F   UNL     1      17.181  -4.489  -7.187  1.00  0.00    -0.200 F 
ATOM    105  F   UNL     1      19.258  -4.177  -5.447  1.00  0.00    -0.200 F 
ENDBRANCH  72  95
ENDBRANCH  46  47
ENDBRANCH  39  41
ENDBRANCH  38  39
ENDBRANCH  37  38
ENDBRANCH  36  37
ENDBRANCH  35  36
ENDBRANCH  34  35
ENDBRANCH   1  34
TORSDOF 22
