REMARK SMILES CCOc1ccc(-c2nc(C(=O)OCCOCCOCCOC(=O)c3ccc(-c4c5nc(c(-c6c(F)c(F)c(F)c(F)c6F)c6ccc([nH]6)c(-c6c(F)c(F)c(F)c(F)c6F)c6nc(c(-c7c(F)c(F)c(F)c(F)c7F)c7ccc4[nH]7)C=C6)C=C5)cc3)cc(=O)[nH]2)cc1
REMARK SMILES IDX 17 1 16 2 15 3 14 4 13 5 11 6 12 7 10 8 8 9 9 10 91 11 89 12
REMARK SMILES IDX 88 14 90 15 7 16 4 17 5 18 93 19 6 20 92 21 3 22 2 23 1 24
REMARK SMILES IDX 18 25 19 26 20 27 21 28 22 29 23 30 24 31 25 32 26 33 87 34
REMARK SMILES IDX 27 35 86 36 28 37 29 38 30 39 80 40 31 41 85 42 79 43 81 44
REMARK SMILES IDX 32 45 84 46 78 47 77 48 33 50 65 51 45 52 64 53 46 54 49 55
REMARK SMILES IDX 63 56 82 57 47 58 48 59 62 61 83 62 50 63 34 64 35 65 43 66
REMARK SMILES IDX 36 67 37 68 41 69 44 70 38 71 39 72 42 73 40 74 66 75 67 76
REMARK SMILES IDX 75 77 68 78 69 79 73 80 76 81 70 82 71 83 74 84 72 85 51 86
REMARK SMILES IDX 52 87 60 88 53 89 54 90 58 91 61 92 55 93 56 94 59 95 57 96
REMARK H PARENT 91 13 81 49 49 60
REMARK Flexibility Score: inf
ROOT
ATOM      1  C   UNL     1       9.082  -3.979   0.987  1.00  0.00     0.188 C 
ENDROOT
BRANCH   1   2
ATOM      2  O   UNL     1       9.732  -5.119   1.541  1.00  0.00    -0.376 OA
BRANCH   2   3
ATOM      3  C   UNL     1      10.808  -5.730   0.836  1.00  0.00     0.202 C 
BRANCH   3   4
ATOM      4  C   UNL     1      10.611  -6.141  -0.630  1.00  0.00     0.261 C 
BRANCH   4   5
ATOM      5  O   UNL     1      10.149  -5.074  -1.475  1.00  0.00    -0.459 OA
BRANCH   5   6
ATOM      6  C   UNL     1       8.977  -5.305  -2.128  1.00  0.00     0.357 C 
ATOM      7  O   UNL     1       8.367  -6.364  -2.156  1.00  0.00    -0.244 OA
BRANCH   6   8
ATOM      8  C   UNL     1       8.436  -4.024  -2.691  1.00  0.00     0.156 A 
ATOM      9  C   UNL     1       6.641  -2.639  -2.943  1.00  0.00     0.141 A 
ATOM     10  N   UNL     1       7.119  -3.717  -2.418  1.00  0.00    -0.223 NA
ATOM     11  N   UNL     1       7.383  -1.791  -3.720  1.00  0.00    -0.306 N 
ATOM     12  C   UNL     1       8.704  -2.014  -3.973  1.00  0.00     0.251 A 
ATOM     13  H   UNL     1       6.950  -0.997  -4.109  1.00  0.00     0.171 HD
ATOM     14  C   UNL     1       9.260  -3.253  -3.413  1.00  0.00     0.107 A 
ATOM     15  O   UNL     1       9.397  -1.236  -4.616  1.00  0.00    -0.269 OA
BRANCH   9  16
ATOM     16  C   UNL     1       5.246  -2.239  -2.694  1.00  0.00     0.018 A 
ATOM     17  C   UNL     1       2.591  -1.627  -2.141  1.00  0.00     0.119 A 
ATOM     18  C   UNL     1       2.971  -1.962  -3.443  1.00  0.00     0.047 A 
ATOM     19  C   UNL     1       3.531  -1.616  -1.112  1.00  0.00     0.047 A 
ATOM     20  C   UNL     1       4.308  -2.259  -3.728  1.00  0.00     0.016 A 
ATOM     21  C   UNL     1       4.864  -1.921  -1.388  1.00  0.00     0.016 A 
BRANCH  17  22
ATOM     22  O   UNL     1       1.258  -1.478  -1.879  1.00  0.00    -0.494 OA
BRANCH  22  23
ATOM     23  C   UNL     1       0.879  -0.135  -1.558  1.00  0.00     0.226 C 
ATOM     24  C   UNL     1       0.830   0.089  -0.055  1.00  0.00     0.049 C 
ENDBRANCH  22  23
ENDBRANCH  17  22
ENDBRANCH   9  16
ENDBRANCH   6   8
ENDBRANCH   5   6
ENDBRANCH   4   5
ENDBRANCH   3   4
ENDBRANCH   2   3
ENDBRANCH   1   2
BRANCH   1  25
ATOM     25  C   UNL     1       9.924  -2.796   0.464  1.00  0.00     0.188 C 
BRANCH  25  26
ATOM     26  O   UNL     1      11.315  -3.001   0.526  1.00  0.00    -0.376 OA
BRANCH  26  27
ATOM     27  C   UNL     1      12.073  -2.449   1.587  1.00  0.00     0.202 C 
BRANCH  27  28
ATOM     28  C   UNL     1      11.542  -2.202   3.014  1.00  0.00     0.261 C 
BRANCH  28  29
ATOM     29  O   UNL     1      10.128  -2.200   3.219  1.00  0.00    -0.460 OA
BRANCH  29  30
ATOM     30  C   UNL     1       9.519  -0.996   3.219  1.00  0.00     0.338 C 
ATOM     31  O   UNL     1      10.024   0.097   2.995  1.00  0.00    -0.246 OA
BRANCH  30  32
ATOM     32  C   UNL     1       8.071  -1.211   3.369  1.00  0.00     0.060 A 
ATOM     33  C   UNL     1       7.231  -0.878   2.301  1.00  0.00     0.016 A 
ATOM     34  C   UNL     1       7.543  -1.714   4.561  1.00  0.00     0.016 A 
ATOM     35  C   UNL     1       5.851  -1.028   2.431  1.00  0.00     0.010 A 
ATOM     36  C   UNL     1       6.158  -1.852   4.694  1.00  0.00     0.010 A 
ATOM     37  C   UNL     1       5.306  -1.489   3.636  1.00  0.00    -0.014 A 
BRANCH  37  38
ATOM     38  C   UNL     1       3.840  -1.428   3.840  1.00  0.00     0.031 A 
ATOM     39  C   UNL     1       3.259  -0.230   4.532  1.00  0.00     0.074 A 
ATOM     40  C   UNL     1       3.034  -2.406   3.392  1.00  0.00     0.049 A 
ATOM     41  N   UNL     1       2.018   0.028   4.853  1.00  0.00    -0.248 NA
ATOM     42  C   UNL     1       4.212   0.826   4.907  1.00  0.00     0.031 C 
ATOM     43  C   UNL     1       3.472  -3.595   2.667  1.00  0.00     0.029 A 
ATOM     44  N   UNL     1       1.673  -2.553   3.499  1.00  0.00    -0.354 N 
ATOM     45  C   UNL     1       2.039   1.272   5.467  1.00  0.00     0.074 A 
ATOM     46  C   UNL     1       3.420   1.706   5.499  1.00  0.00     0.031 C 
ATOM     47  C   UNL     1       2.401  -4.369   2.417  1.00  0.00     0.029 A 
ATOM     48  C   UNL     1       1.211  -3.743   2.994  1.00  0.00     0.049 A 
ATOM     49  H   UNL     1       1.086  -1.872   3.898  1.00  0.00     0.167 HD
ATOM     50  C   UNL     1       1.001   1.991   5.954  1.00  0.00     0.037 A 
ATOM     51  C   UNL     1      -0.025  -4.279   3.028  1.00  0.00     0.037 A 
ATOM     52  C   UNL     1      -0.367   1.547   5.945  1.00  0.00     0.049 A 
ATOM     53  C   UNL     1      -1.153  -3.502   3.658  1.00  0.00     0.074 A 
ATOM     54  C   UNL     1      -1.492   2.203   6.412  1.00  0.00     0.029 A 
ATOM     55  N   UNL     1      -0.794   0.320   5.457  1.00  0.00    -0.354 N 
ATOM     56  N   UNL     1      -1.132  -2.315   4.215  1.00  0.00    -0.248 NA
ATOM     57  C   UNL     1      -2.477  -4.140   3.660  1.00  0.00     0.031 C 
ATOM     58  C   UNL     1      -2.591   1.352   6.255  1.00  0.00     0.029 A 
ATOM     59  C   UNL     1      -2.161   0.189   5.636  1.00  0.00     0.049 A 
ATOM     60  H   UNL     1      -0.210  -0.357   5.044  1.00  0.00     0.167 HD
ATOM     61  C   UNL     1      -2.438  -2.054   4.612  1.00  0.00     0.074 A 
ATOM     62  C   UNL     1      -3.229  -3.202   4.221  1.00  0.00     0.031 C 
ATOM     63  C   UNL     1      -2.937  -0.961   5.242  1.00  0.00     0.037 A 
BRANCH  50  64
ATOM     64  C   UNL     1       1.324   3.319   6.574  1.00  0.00     0.064 A 
ATOM     65  C   UNL     1       1.745   4.411   5.799  1.00  0.00     0.173 A 
ATOM     66  C   UNL     1       1.219   3.500   7.961  1.00  0.00     0.173 A 
ATOM     67  F   UNL     1       1.879   4.284   4.470  1.00  0.00    -0.203 F 
ATOM     68  C   UNL     1       2.084   5.623   6.394  1.00  0.00     0.198 A 
ATOM     69  C   UNL     1       1.529   4.723   8.549  1.00  0.00     0.198 A 
ATOM     70  F   UNL     1       0.820   2.489   8.747  1.00  0.00    -0.203 F 
ATOM     71  F   UNL     1       2.542   6.633   5.641  1.00  0.00    -0.200 F 
ATOM     72  C   UNL     1       1.972   5.779   7.768  1.00  0.00     0.200 A 
ATOM     73  F   UNL     1       1.411   4.875   9.876  1.00  0.00    -0.200 F 
ATOM     74  F   UNL     1       2.302   6.945   8.340  1.00  0.00    -0.200 F 
ENDBRANCH  50  64
BRANCH  51  75
ATOM     75  C   UNL     1      -0.251  -5.640   2.477  1.00  0.00     0.064 A 
ATOM     76  C   UNL     1      -1.006  -5.840   1.314  1.00  0.00     0.173 A 
ATOM     77  C   UNL     1       0.281  -6.773   3.114  1.00  0.00     0.173 A 
ATOM     78  F   UNL     1      -1.564  -4.793   0.691  1.00  0.00    -0.203 F 
ATOM     79  C   UNL     1      -1.229  -7.122   0.813  1.00  0.00     0.198 A 
ATOM     80  C   UNL     1       0.079  -8.051   2.598  1.00  0.00     0.198 A 
ATOM     81  F   UNL     1       1.001  -6.635   4.237  1.00  0.00    -0.203 F 
ATOM     82  F   UNL     1      -1.992  -7.290  -0.275  1.00  0.00    -0.200 F 
ATOM     83  C   UNL     1      -0.680  -8.225   1.451  1.00  0.00     0.200 A 
ATOM     84  F   UNL     1       0.615  -9.112   3.215  1.00  0.00    -0.200 F 
ATOM     85  F   UNL     1      -0.894  -9.457   0.968  1.00  0.00    -0.200 F 
ENDBRANCH  51  75
BRANCH  63  86
ATOM     86  C   UNL     1      -4.413  -0.935   5.521  1.00  0.00     0.064 A 
ATOM     87  C   UNL     1      -4.992  -1.744   6.510  1.00  0.00     0.173 A 
ATOM     88  C   UNL     1      -5.251  -0.052   4.822  1.00  0.00     0.173 A 
ATOM     89  F   UNL     1      -4.237  -2.615   7.197  1.00  0.00    -0.203 F 
ATOM     90  C   UNL     1      -6.358  -1.686   6.773  1.00  0.00     0.198 A 
ATOM     91  C   UNL     1      -6.611   0.025   5.109  1.00  0.00     0.198 A 
ATOM     92  F   UNL     1      -4.747   0.749   3.872  1.00  0.00    -0.203 F 
ATOM     93  F   UNL     1      -6.897  -2.499   7.692  1.00  0.00    -0.200 F 
ATOM     94  C   UNL     1      -7.165  -0.796   6.079  1.00  0.00     0.200 A 
ATOM     95  F   UNL     1      -7.385   0.896   4.447  1.00  0.00    -0.200 F 
ATOM     96  F   UNL     1      -8.478  -0.735   6.341  1.00  0.00    -0.200 F 
ENDBRANCH  63  86
ENDBRANCH  37  38
ENDBRANCH  30  32
ENDBRANCH  29  30
ENDBRANCH  28  29
ENDBRANCH  27  28
ENDBRANCH  26  27
ENDBRANCH  25  26
ENDBRANCH   1  25
TORSDOF 20
