REMARK SMILES NS(=O)(=O)c1ccc(C#Cc2cc(Cl)cc3c2O[C@H](C(F)(F)F)C(C(=O)OCCOCCOCCOC(=O)c2ccc(-c4c5nc(c(-c6c(F)c(F)c(F)c(F)c6F)c6ccc([nH]6)c(-c6c(F)c(F)c(F)c(F)c6F)c6nc(c(-c7c(F)c(F)c(F)c(F)c7F)c7ccc4[nH]7)C=C6)C=C5)cc2)=C3)cc1
REMARK SMILES IDX 31 1 30 2 29 3 28 4 27 5 25 6 26 7 24 8 11 9 12 10 17 11
REMARK SMILES IDX 13 12 16 13 18 14 14 15 15 16 102 17 19 18 10 19 9 20 8 21
REMARK SMILES IDX 5 22 6 23 104 24 7 25 103 26 2 27 3 28 4 29 1 30 20 33 21 34
REMARK SMILES IDX 22 35 23 36 32 37 33 38 34 39 35 40 36 41 37 42 38 43 39 44
REMARK SMILES IDX 40 45 101 46 41 47 100 48 42 49 43 50 44 51 94 52 45 53
REMARK SMILES IDX 99 54 93 55 95 56 46 57 98 58 92 59 91 60 47 62 79 63 59 64
REMARK SMILES IDX 78 65 60 66 63 67 77 68 96 69 61 70 62 71 76 73 97 74 64 75
REMARK SMILES IDX 48 76 49 77 57 78 50 79 51 80 55 81 58 82 52 83 53 84 56 85
REMARK SMILES IDX 54 86 80 87 81 88 89 89 82 90 83 91 87 92 90 93 84 94 85 95
REMARK SMILES IDX 88 96 86 97 65 98 66 99 74 100 67 101 68 102 72 103 75 104
REMARK SMILES IDX 69 105 70 106 73 107 71 108
REMARK H PARENT 1 31 1 32 95 61 63 72
REMARK Flexibility Score: inf
ROOT
ATOM      1  C   UNL     1       1.608  12.536   9.015  1.00  0.00     0.188 C 
ENDROOT
BRANCH   1   2
ATOM      2  O   UNL     1       1.483  13.922   8.794  1.00  0.00    -0.376 OA
BRANCH   2   3
ATOM      3  C   UNL     1       1.713  14.480   7.511  1.00  0.00     0.202 C 
BRANCH   3   4
ATOM      4  C   UNL     1       2.547  13.817   6.397  1.00  0.00     0.261 C 
BRANCH   4   5
ATOM      5  O   UNL     1       2.567  12.385   6.355  1.00  0.00    -0.460 OA
BRANCH   5   6
ATOM      6  C   UNL     1       3.728  11.804   6.743  1.00  0.00     0.338 C 
ATOM      7  O   UNL     1       4.744  12.375   7.106  1.00  0.00    -0.246 OA
BRANCH   6   8
ATOM      8  C   UNL     1       3.540  10.340   6.846  1.00  0.00     0.087 C 
ATOM      9  C   UNL     1       3.353   6.164   7.048  1.00  0.00     0.069 A 
ATOM     10  C   UNL     1       3.970   5.505   8.117  1.00  0.00     0.041 A 
ATOM     11  C   UNL     1       3.325   7.569   7.010  1.00  0.00     0.143 A 
ATOM     12  C   UNL     1       4.526   6.244   9.157  1.00  0.00     0.043 A 
ATOM     13  C   UNL     1       3.922   8.303   8.043  1.00  0.00     0.020 A 
ATOM     14  O   UNL     1       2.703   8.168   5.947  1.00  0.00    -0.474 OA
ATOM     15  Cl  UNL     1       5.284   5.434  10.472  1.00  0.00    -0.084 Cl
ATOM     16  C   UNL     1       4.498   7.637   9.131  1.00  0.00     0.032 A 
ATOM     17  C   UNL     1       4.010   9.751   7.953  1.00  0.00     0.027 C 
ATOM     18  C   UNL     1       2.847   9.600   5.737  1.00  0.00     0.316 C 
BRANCH   9  19
ATOM     19  C   UNL     1       2.797   5.371   5.988  1.00  0.00    -0.058 C 
ATOM     20  C   UNL     1       2.355   4.712   5.088  1.00  0.00    -0.062 C 
BRANCH  20  21
ATOM     21  C   UNL     1       1.845   3.969   3.974  1.00  0.00     0.025 A 
ATOM     22  C   UNL     1       0.937   2.578   1.731  1.00  0.00     0.082 A 
ATOM     23  C   UNL     1       0.648   3.939   1.870  1.00  0.00     0.023 A 
ATOM     24  C   UNL     1       1.658   1.901   2.719  1.00  0.00     0.023 A 
ATOM     25  C   UNL     1       1.102   4.632   2.994  1.00  0.00     0.018 A 
ATOM     26  C   UNL     1       2.113   2.602   3.842  1.00  0.00     0.018 A 
BRANCH  22  27
ATOM     27  S   UNL     1       0.433   1.785   0.233  1.00  0.00     0.238 S 
ATOM     28  O   UNL     1       1.056   2.474  -0.873  1.00  0.00    -0.207 OA
ATOM     29  O   UNL     1      -0.988   1.539   0.303  1.00  0.00    -0.207 OA
BRANCH  27  30
ATOM     30  N   UNL     1       1.161   0.270   0.271  1.00  0.00    -0.225 NA
ATOM     31  H   UNL     1       0.911  -0.249  -0.571  1.00  0.00     0.137 HD
ATOM     32  H   UNL     1       0.839  -0.242   1.093  1.00  0.00     0.137 HD
ENDBRANCH  27  30
ENDBRANCH  22  27
ENDBRANCH  20  21
ENDBRANCH   9  19
BRANCH  18  33
ATOM     33  C   UNL     1       3.535   9.833   4.386  1.00  0.00     0.430 C 
ATOM     34  F   UNL     1       2.961   9.101   3.403  1.00  0.00    -0.167 F 
ATOM     35  F   UNL     1       3.457  11.130   4.005  1.00  0.00    -0.167 F 
ATOM     36  F   UNL     1       4.846   9.503   4.431  1.00  0.00    -0.167 F 
ENDBRANCH  18  33
ENDBRANCH   6   8
ENDBRANCH   5   6
ENDBRANCH   4   5
ENDBRANCH   3   4
ENDBRANCH   2   3
ENDBRANCH   1   2
BRANCH   1  37
ATOM     37  C   UNL     1       0.615  11.571   8.335  1.00  0.00     0.188 C 
BRANCH  37  38
ATOM     38  O   UNL     1      -0.206  12.074   7.310  1.00  0.00    -0.376 OA
BRANCH  38  39
ATOM     39  C   UNL     1      -1.306  12.911   7.633  1.00  0.00     0.202 C 
BRANCH  39  40
ATOM     40  C   UNL     1      -1.889  13.138   9.048  1.00  0.00     0.261 C 
BRANCH  40  41
ATOM     41  O   UNL     1      -1.068  12.844  10.184  1.00  0.00    -0.460 OA
BRANCH  41  42
ATOM     42  C   UNL     1      -1.350  11.691  10.846  1.00  0.00     0.338 C 
ATOM     43  O   UNL     1      -2.205  10.870  10.566  1.00  0.00    -0.246 OA
BRANCH  42  44
ATOM     44  C   UNL     1      -0.292  11.463  11.854  1.00  0.00     0.060 A 
ATOM     45  C   UNL     1      -0.135  12.345  12.921  1.00  0.00     0.016 A 
ATOM     46  C   UNL     1       0.569  10.363  11.711  1.00  0.00     0.016 A 
ATOM     47  C   UNL     1       0.875  12.111  13.859  1.00  0.00     0.010 A 
ATOM     48  C   UNL     1       1.591  10.142  12.639  1.00  0.00     0.010 A 
ATOM     49  C   UNL     1       1.736  11.001  13.737  1.00  0.00    -0.014 A 
BRANCH  49  50
ATOM     50  C   UNL     1       2.655  10.658  14.854  1.00  0.00     0.031 A 
ATOM     51  C   UNL     1       4.135  10.881  14.776  1.00  0.00     0.074 A 
ATOM     52  C   UNL     1       2.116  10.136  15.972  1.00  0.00     0.049 A 
ATOM     53  N   UNL     1       5.038  10.728  15.714  1.00  0.00    -0.248 NA
ATOM     54  C   UNL     1       4.678  11.323  13.485  1.00  0.00     0.031 C 
ATOM     55  C   UNL     1       0.695   9.835  16.148  1.00  0.00     0.029 A 
ATOM     56  N   UNL     1       2.683   9.787  17.172  1.00  0.00    -0.354 N 
ATOM     57  C   UNL     1       6.251  11.083  15.140  1.00  0.00     0.074 A 
ATOM     58  C   UNL     1       5.976  11.399  13.752  1.00  0.00     0.031 C 
ATOM     59  C   UNL     1       0.492   9.395  17.398  1.00  0.00     0.029 A 
ATOM     60  C   UNL     1       1.772   9.346  18.100  1.00  0.00     0.049 A 
ATOM     61  H   UNL     1       3.650   9.846  17.349  1.00  0.00     0.167 HD
ATOM     62  C   UNL     1       7.471  11.163  15.728  1.00  0.00     0.037 A 
ATOM     63  C   UNL     1       1.941   8.954  19.377  1.00  0.00     0.037 A 
ATOM     64  C   UNL     1       7.737  10.829  17.107  1.00  0.00     0.049 A 
ATOM     65  C   UNL     1       3.315   8.998  19.986  1.00  0.00     0.074 A 
ATOM     66  C   UNL     1       8.935  10.910  17.797  1.00  0.00     0.029 A 
ATOM     67  N   UNL     1       6.799  10.335  18.004  1.00  0.00    -0.354 N 
ATOM     68  N   UNL     1       4.439   9.418  19.460  1.00  0.00    -0.248 NA
ATOM     69  C   UNL     1       3.443   8.518  21.369  1.00  0.00     0.031 C 
ATOM     70  C   UNL     1       8.739  10.405  19.085  1.00  0.00     0.029 A 
ATOM     71  C   UNL     1       7.402  10.075  19.227  1.00  0.00     0.049 A 
ATOM     72  H   UNL     1       5.846  10.192  17.802  1.00  0.00     0.167 HD
ATOM     73  C   UNL     1       5.401   9.276  20.451  1.00  0.00     0.074 A 
ATOM     74  C   UNL     1       4.724   8.752  21.618  1.00  0.00     0.031 C 
ATOM     75  C   UNL     1       6.726   9.553  20.391  1.00  0.00     0.037 A 
BRANCH  62  76
ATOM     76  C   UNL     1       8.625  11.648  14.895  1.00  0.00     0.064 A 
ATOM     77  C   UNL     1       8.705  12.982  14.466  1.00  0.00     0.173 A 
ATOM     78  C   UNL     1       9.708  10.803  14.602  1.00  0.00     0.173 A 
ATOM     79  F   UNL     1       7.701  13.834  14.721  1.00  0.00    -0.203 F 
ATOM     80  C   UNL     1       9.812  13.446  13.759  1.00  0.00     0.198 A 
ATOM     81  C   UNL     1      10.829  11.279  13.925  1.00  0.00     0.198 A 
ATOM     82  F   UNL     1       9.695   9.523  15.002  1.00  0.00    -0.203 F 
ATOM     83  F   UNL     1       9.848  14.715  13.331  1.00  0.00    -0.200 F 
ATOM     84  C   UNL     1      10.877  12.597  13.498  1.00  0.00     0.200 A 
ATOM     85  F   UNL     1      11.867  10.463  13.694  1.00  0.00    -0.200 F 
ATOM     86  F   UNL     1      11.950  13.050  12.836  1.00  0.00    -0.200 F 
ENDBRANCH  62  76
BRANCH  63  87
ATOM     87  C   UNL     1       0.759   8.531  20.174  1.00  0.00     0.064 A 
ATOM     88  C   UNL     1       0.301   9.305  21.249  1.00  0.00     0.173 A 
ATOM     89  C   UNL     1       0.045   7.365  19.857  1.00  0.00     0.173 A 
ATOM     90  F   UNL     1       0.961  10.418  21.602  1.00  0.00    -0.203 F 
ATOM     91  C   UNL     1      -0.821   8.925  21.982  1.00  0.00     0.198 A 
ATOM     92  C   UNL     1      -1.097   7.005  20.569  1.00  0.00     0.198 A 
ATOM     93  F   UNL     1       0.439   6.593  18.834  1.00  0.00    -0.203 F 
ATOM     94  F   UNL     1      -1.216   9.663  23.028  1.00  0.00    -0.200 F 
ATOM     95  C   UNL     1      -1.525   7.781  21.635  1.00  0.00     0.200 A 
ATOM     96  F   UNL     1      -1.785   5.911  20.217  1.00  0.00    -0.200 F 
ATOM     97  F   UNL     1      -2.615   7.426  22.329  1.00  0.00    -0.200 F 
ENDBRANCH  63  87
BRANCH  75  98
ATOM     98  C   UNL     1       7.551   9.311  21.625  1.00  0.00     0.064 A 
ATOM     99  C   UNL     1       7.828   8.013  22.081  1.00  0.00     0.173 A 
ATOM    100  C   UNL     1       8.138  10.384  22.315  1.00  0.00     0.173 A 
ATOM    101  F   UNL     1       7.282   6.951  21.469  1.00  0.00    -0.203 F 
ATOM    102  C   UNL     1       8.649   7.800  23.186  1.00  0.00     0.198 A 
ATOM    103  C   UNL     1       8.987  10.166  23.397  1.00  0.00     0.198 A 
ATOM    104  F   UNL     1       7.912  11.646  21.920  1.00  0.00    -0.203 F 
ATOM    105  F   UNL     1       8.868   6.553  23.625  1.00  0.00    -0.200 F 
ATOM    106  C   UNL     1       9.238   8.875  23.835  1.00  0.00     0.200 A 
ATOM    107  F   UNL     1       9.570  11.206  24.009  1.00  0.00    -0.200 F 
ATOM    108  F   UNL     1      10.047   8.667  24.882  1.00  0.00    -0.200 F 
ENDBRANCH  75  98
ENDBRANCH  49  50
ENDBRANCH  42  44
ENDBRANCH  41  42
ENDBRANCH  40  41
ENDBRANCH  39  40
ENDBRANCH  38  39
ENDBRANCH  37  38
ENDBRANCH   1  37
TORSDOF 22
