REMARK SMILES Cc1n[nH]c(C[N@H+]2CCC[C@H](c3cccc(C(=O)OCCOCCOCCOC(=O)c4ccc(-c5c6nc(c(-c7c(F)c(F)c(F)c(F)c7F)c7ccc([nH]7)c(-c7c(F)c(F)c(F)c(F)c7F)c7nc(c(-c8c(F)c(F)c(F)c(F)c8F)c8ccc5[nH]8)C=C7)C=C6)cc4)c3)C2)n1
REMARK SMILES IDX 23 1 22 2 21 3 20 4 19 5 17 6 18 7 16 8 12 9 13 10 94 11
REMARK SMILES IDX 14 12 15 13 11 14 7 15 8 16 95 17 9 19 10 20 6 21 5 22 1 23
REMARK SMILES IDX 2 24 3 25 96 26 4 27 24 29 25 30 26 31 27 32 28 33 29 34
REMARK SMILES IDX 30 35 31 36 32 37 93 38 33 39 92 40 34 41 35 42 36 43 86 44
REMARK SMILES IDX 37 45 91 46 85 47 87 48 38 49 90 50 84 51 83 52 39 54 71 55
REMARK SMILES IDX 51 56 70 57 52 58 55 59 69 60 88 61 53 62 54 63 68 65 89 66
REMARK SMILES IDX 56 67 40 68 41 69 49 70 42 71 43 72 47 73 50 74 44 75 45 76
REMARK SMILES IDX 48 77 46 78 72 79 73 80 81 81 74 82 75 83 79 84 82 85 76 86
REMARK SMILES IDX 77 87 80 88 78 89 57 90 58 91 66 92 59 93 60 94 64 95 67 96
REMARK SMILES IDX 61 97 62 98 65 99 63 100
REMARK H PARENT 7 18 4 28 87 53 55 64
REMARK Flexibility Score: inf
ROOT
ATOM      1  C   UNL     1      -4.271   0.400  10.746  1.00  0.00     0.188 C 
ENDROOT
BRANCH   1   2
ATOM      2  O   UNL     1      -3.874   1.051  11.934  1.00  0.00    -0.376 OA
BRANCH   2   3
ATOM      3  C   UNL     1      -2.963   0.375  12.790  1.00  0.00     0.202 C 
BRANCH   3   4
ATOM      4  C   UNL     1      -1.705  -0.346  12.251  1.00  0.00     0.261 C 
BRANCH   4   5
ATOM      5  O   UNL     1      -1.734  -0.768  10.883  1.00  0.00    -0.460 OA
BRANCH   5   6
ATOM      6  C   UNL     1      -2.059  -2.059  10.630  1.00  0.00     0.338 C 
ATOM      7  O   UNL     1      -2.313  -2.919  11.452  1.00  0.00    -0.246 OA
BRANCH   6   8
ATOM      8  C   UNL     1      -2.285  -2.203   9.169  1.00  0.00     0.060 A 
ATOM      9  C   UNL     1      -1.724  -1.664   6.848  1.00  0.00    -0.038 A 
ATOM     10  C   UNL     1      -2.905  -2.318   6.459  1.00  0.00     0.004 A 
ATOM     11  C   UNL     1      -1.453  -1.579   8.228  1.00  0.00     0.020 A 
ATOM     12  C   UNL     1      -3.743  -2.931   7.394  1.00  0.00     0.001 A 
ATOM     13  C   UNL     1      -3.423  -2.895   8.748  1.00  0.00     0.016 A 
BRANCH   9  14
ATOM     14  C   UNL     1      -0.761  -1.038   5.831  1.00  0.00     0.074 C 
ATOM     15  N   UNL     1      -0.710  -2.896   4.143  1.00  0.00    -0.328 N 
ATOM     16  C   UNL     1       0.670  -3.248   4.497  1.00  0.00     0.262 C 
ATOM     17  C   UNL     1      -0.979  -1.457   4.351  1.00  0.00     0.270 C 
ATOM     18  H   UNL     1      -1.312  -3.410   4.786  1.00  0.00     0.348 HD
ATOM     19  C   UNL     1       1.029  -2.818   5.922  1.00  0.00     0.062 C 
ATOM     20  C   UNL     1       0.721  -1.338   6.149  1.00  0.00     0.020 C 
BRANCH  15  21
ATOM     21  C   UNL     1      -1.093  -3.349   2.794  1.00  0.00     0.340 C 
BRANCH  21  22
ATOM     22  C   UNL     1      -0.322  -2.724   1.680  1.00  0.00     0.179 A 
ATOM     23  C   UNL     1       1.088  -0.157  -0.281  1.00  0.00     0.092 C 
ATOM     24  C   UNL     1       0.659  -1.422   0.344  1.00  0.00     0.147 A 
ATOM     25  N   UNL     1       1.215  -2.606   0.059  1.00  0.00    -0.159 NA
ATOM     26  N   UNL     1      -0.315  -1.462   1.301  1.00  0.00    -0.211 NA
ATOM     27  N   UNL     1       0.566  -3.418   0.909  1.00  0.00    -0.258 N 
ATOM     28  H   UNL     1       0.713  -4.389   0.970  1.00  0.00     0.192 HD
ENDBRANCH  21  22
ENDBRANCH  15  21
ENDBRANCH   9  14
ENDBRANCH   6   8
ENDBRANCH   5   6
ENDBRANCH   4   5
ENDBRANCH   3   4
ENDBRANCH   2   3
ENDBRANCH   1   2
BRANCH   1  29
ATOM     29  C   UNL     1      -3.664   1.022   9.470  1.00  0.00     0.188 C 
BRANCH  29  30
ATOM     30  O   UNL     1      -2.516   1.864   9.518  1.00  0.00    -0.376 OA
BRANCH  30  31
ATOM     31  C   UNL     1      -2.388   2.910  10.475  1.00  0.00     0.202 C 
BRANCH  31  32
ATOM     32  C   UNL     1      -3.467   3.983  10.622  1.00  0.00     0.261 C 
BRANCH  32  33
ATOM     33  O   UNL     1      -4.776   3.454  10.738  1.00  0.00    -0.460 OA
BRANCH  33  34
ATOM     34  C   UNL     1      -5.469   3.453   9.582  1.00  0.00     0.338 C 
ATOM     35  O   UNL     1      -5.098   3.855   8.494  1.00  0.00    -0.246 OA
BRANCH  34  36
ATOM     36  C   UNL     1      -6.808   2.900   9.825  1.00  0.00     0.060 A 
ATOM     37  C   UNL     1      -7.614   2.740   8.696  1.00  0.00     0.016 A 
ATOM     38  C   UNL     1      -7.324   2.857  11.127  1.00  0.00     0.016 A 
ATOM     39  C   UNL     1      -8.972   2.863   8.854  1.00  0.00     0.010 A 
ATOM     40  C   UNL     1      -8.682   2.992  11.286  1.00  0.00     0.010 A 
ATOM     41  C   UNL     1      -9.458   3.128  10.136  1.00  0.00    -0.014 A 
BRANCH  41  42
ATOM     42  C   UNL     1     -10.742   3.789  10.213  1.00  0.00     0.031 A 
ATOM     43  C   UNL     1     -11.925   2.913  10.223  1.00  0.00     0.074 A 
ATOM     44  C   UNL     1     -10.798   5.128  10.345  1.00  0.00     0.049 A 
ATOM     45  N   UNL     1     -12.925   2.904   9.405  1.00  0.00    -0.248 NA
ATOM     46  C   UNL     1     -11.960   1.860  11.247  1.00  0.00     0.031 C 
ATOM     47  C   UNL     1      -9.699   6.052  10.658  1.00  0.00     0.029 A 
ATOM     48  N   UNL     1     -11.889   5.937  10.338  1.00  0.00    -0.354 N 
ATOM     49  C   UNL     1     -13.793   1.935   9.893  1.00  0.00     0.074 A 
ATOM     50  C   UNL     1     -13.099   1.241  10.948  1.00  0.00     0.031 C 
ATOM     51  C   UNL     1     -10.217   7.245  11.025  1.00  0.00     0.029 A 
ATOM     52  C   UNL     1     -11.659   7.199  10.856  1.00  0.00     0.049 A 
ATOM     53  H   UNL     1     -12.766   5.650   9.994  1.00  0.00     0.167 HD
ATOM     54  C   UNL     1     -15.102   1.893   9.536  1.00  0.00     0.037 A 
ATOM     55  C   UNL     1     -12.608   8.094  11.218  1.00  0.00     0.037 A 
ATOM     56  C   UNL     1     -15.362   2.616   8.324  1.00  0.00     0.049 A 
ATOM     57  C   UNL     1     -13.884   7.689  10.573  1.00  0.00     0.074 A 
ATOM     58  C   UNL     1     -14.955   2.477   7.012  1.00  0.00     0.029 A 
ATOM     59  N   UNL     1     -15.905   3.873   8.415  1.00  0.00    -0.354 N 
ATOM     60  N   UNL     1     -14.118   7.753   9.292  1.00  0.00    -0.248 NA
ATOM     61  C   UNL     1     -14.773   6.813  11.324  1.00  0.00     0.031 C 
ATOM     62  C   UNL     1     -14.862   3.804   6.503  1.00  0.00     0.029 A 
ATOM     63  C   UNL     1     -15.226   4.673   7.532  1.00  0.00     0.049 A 
ATOM     64  H   UNL     1     -16.644   4.148   9.005  1.00  0.00     0.167 HD
ATOM     65  C   UNL     1     -14.909   6.645   9.016  1.00  0.00     0.074 A 
ATOM     66  C   UNL     1     -15.364   6.168  10.316  1.00  0.00     0.031 C 
ATOM     67  C   UNL     1     -14.894   6.056   7.785  1.00  0.00     0.037 A 
BRANCH  54  68
ATOM     68  C   UNL     1     -16.187   1.423  10.459  1.00  0.00     0.064 A 
ATOM     69  C   UNL     1     -17.455   1.101   9.948  1.00  0.00     0.173 A 
ATOM     70  C   UNL     1     -16.094   1.522  11.866  1.00  0.00     0.173 A 
ATOM     71  F   UNL     1     -17.658   1.030   8.624  1.00  0.00    -0.203 F 
ATOM     72  C   UNL     1     -18.557   0.917  10.786  1.00  0.00     0.198 A 
ATOM     73  C   UNL     1     -17.180   1.279  12.701  1.00  0.00     0.198 A 
ATOM     74  F   UNL     1     -14.981   1.959  12.471  1.00  0.00    -0.203 F 
ATOM     75  F   UNL     1     -19.769   0.713  10.255  1.00  0.00    -0.200 F 
ATOM     76  C   UNL     1     -18.417   1.001  12.161  1.00  0.00     0.200 A 
ATOM     77  F   UNL     1     -17.028   1.388  14.028  1.00  0.00    -0.200 F 
ATOM     78  F   UNL     1     -19.481   0.864  12.963  1.00  0.00    -0.200 F 
ENDBRANCH  54  68
BRANCH  55  79
ATOM     79  C   UNL     1     -12.543   9.054  12.342  1.00  0.00     0.064 A 
ATOM     80  C   UNL     1     -13.387  10.172  12.395  1.00  0.00     0.173 A 
ATOM     81  C   UNL     1     -11.813   8.762  13.513  1.00  0.00     0.173 A 
ATOM     82  F   UNL     1     -14.156  10.484  11.342  1.00  0.00    -0.203 F 
ATOM     83  C   UNL     1     -13.498  10.950  13.552  1.00  0.00     0.198 A 
ATOM     84  C   UNL     1     -11.913   9.546  14.662  1.00  0.00     0.198 A 
ATOM     85  F   UNL     1     -11.056   7.658  13.597  1.00  0.00    -0.203 F 
ATOM     86  F   UNL     1     -14.354  11.980  13.585  1.00  0.00    -0.200 F 
ATOM     87  C   UNL     1     -12.764  10.634  14.685  1.00  0.00     0.200 A 
ATOM     88  F   UNL     1     -11.225   9.205  15.761  1.00  0.00    -0.200 F 
ATOM     89  F   UNL     1     -12.906  11.350  15.808  1.00  0.00    -0.200 F 
ENDBRANCH  55  79
BRANCH  67  90
ATOM     90  C   UNL     1     -14.214   6.796   6.670  1.00  0.00     0.064 A 
ATOM     91  C   UNL     1     -12.829   7.033   6.638  1.00  0.00     0.173 A 
ATOM     92  C   UNL     1     -14.954   7.126   5.528  1.00  0.00     0.173 A 
ATOM     93  F   UNL     1     -12.043   6.646   7.650  1.00  0.00    -0.203 F 
ATOM     94  C   UNL     1     -12.222   7.613   5.526  1.00  0.00     0.198 A 
ATOM     95  C   UNL     1     -14.340   7.674   4.405  1.00  0.00     0.198 A 
ATOM     96  F   UNL     1     -16.270   6.862   5.481  1.00  0.00    -0.203 F 
ATOM     97  F   UNL     1     -10.899   7.833   5.520  1.00  0.00    -0.200 F 
ATOM     98  C   UNL     1     -12.977   7.925   4.407  1.00  0.00     0.200 A 
ATOM     99  F   UNL     1     -15.064   7.926   3.305  1.00  0.00    -0.200 F 
ATOM    100  F   UNL     1     -12.386   8.439   3.319  1.00  0.00    -0.200 F 
ENDBRANCH  67  90
ENDBRANCH  41  42
ENDBRANCH  34  36
ENDBRANCH  33  34
ENDBRANCH  32  33
ENDBRANCH  31  32
ENDBRANCH  30  31
ENDBRANCH  29  30
ENDBRANCH   1  29
TORSDOF 20
