REMARK SMILES COc1ccc(/C=N/Nc2cccc(C(=O)OCCOCCOCCOC(=O)c3ccc(-c4c5nc(c(-c6c(F)c(F)c(F)c(F)c6F)c6ccc([nH]6)c(-c6c(F)c(F)c(F)c(F)c6F)c6nc(c(-c7c(F)c(F)c(F)c(F)c7F)c7ccc4[nH]7)C=C6)C=C5)cc3)c2)cc1O
REMARK SMILES IDX 21 1 20 2 19 3 18 4 17 5 15 6 16 7 14 8 10 9 11 10 92 11
REMARK SMILES IDX 12 12 13 13 9 14 8 16 7 17 6 18 3 19 4 20 94 21 5 22 93 23
REMARK SMILES IDX 2 24 1 25 95 26 22 28 23 29 24 30 25 31 26 32 27 33 28 34
REMARK SMILES IDX 29 35 30 36 91 37 31 38 90 39 32 40 33 41 34 42 84 43 35 44
REMARK SMILES IDX 89 45 83 46 85 47 36 48 88 49 82 50 81 51 37 53 69 54 49 55
REMARK SMILES IDX 68 56 50 57 53 58 67 59 86 60 51 61 52 62 66 64 87 65 54 66
REMARK SMILES IDX 38 67 39 68 47 69 40 70 41 71 45 72 48 73 42 74 43 75 46 76
REMARK SMILES IDX 44 77 70 78 71 79 79 80 72 81 73 82 77 83 80 84 74 85 75 86
REMARK SMILES IDX 78 87 76 88 55 89 56 90 64 91 57 92 58 93 62 94 65 95 59 96
REMARK SMILES IDX 60 97 63 98 61 99
REMARK H PARENT 9 15 95 27 85 52 53 63
REMARK Flexibility Score: inf
ROOT
ATOM      1  C   UNL     1       5.749 -10.291   1.147  1.00  0.00     0.188 C 
ENDROOT
BRANCH   1   2
ATOM      2  O   UNL     1       6.637  -9.815   0.141  1.00  0.00    -0.376 OA
BRANCH   2   3
ATOM      3  C   UNL     1       6.730  -8.421  -0.125  1.00  0.00     0.202 C 
BRANCH   3   4
ATOM      4  C   UNL     1       5.458  -7.642  -0.492  1.00  0.00     0.261 C 
BRANCH   4   5
ATOM      5  O   UNL     1       4.357  -7.842   0.407  1.00  0.00    -0.460 OA
BRANCH   5   6
ATOM      6  C   UNL     1       3.302  -8.531  -0.090  1.00  0.00     0.338 C 
ATOM      7  O   UNL     1       3.155  -8.926  -1.240  1.00  0.00    -0.246 OA
BRANCH   6   8
ATOM      8  C   UNL     1       2.393  -8.923   1.010  1.00  0.00     0.062 A 
ATOM      9  C   UNL     1       1.185  -8.414   3.060  1.00  0.00     0.057 A 
ATOM     10  C   UNL     1       0.667  -9.718   3.047  1.00  0.00     0.028 A 
ATOM     11  C   UNL     1       2.091  -8.046   2.054  1.00  0.00     0.043 A 
ATOM     12  C   UNL     1       1.003 -10.616   2.030  1.00  0.00     0.003 A 
ATOM     13  C   UNL     1       1.843 -10.209   0.997  1.00  0.00     0.016 A 
BRANCH   9  14
ATOM     14  N   UNL     1       0.656  -7.482   3.978  1.00  0.00    -0.278 N 
ATOM     15  H   UNL     1       0.184  -7.829   4.769  1.00  0.00     0.190 HD
BRANCH  14  16
ATOM     16  N   UNL     1       0.759  -6.131   3.836  1.00  0.00    -0.183 NA
ATOM     17  C   UNL     1       0.410  -5.663   2.676  1.00  0.00     0.141 C 
BRANCH  17  18
ATOM     18  C   UNL     1       0.544  -4.245   2.326  1.00  0.00    -0.002 A 
ATOM     19  C   UNL     1       0.808  -1.561   1.578  1.00  0.00     0.160 A 
ATOM     20  C   UNL     1       0.417  -1.911   2.879  1.00  0.00     0.051 A 
ATOM     21  C   UNL     1       1.098  -2.584   0.670  1.00  0.00     0.158 A 
ATOM     22  C   UNL     1       0.301  -3.248   3.265  1.00  0.00     0.014 A 
ATOM     23  C   UNL     1       0.934  -3.922   1.026  1.00  0.00     0.060 A 
BRANCH  19  24
ATOM     24  O   UNL     1       0.886  -0.212   1.379  1.00  0.00    -0.493 OA
ATOM     25  C   UNL     1       0.836   0.290   0.051  1.00  0.00     0.278 C 
ENDBRANCH  19  24
BRANCH  21  26
ATOM     26  O   UNL     1       1.609  -2.373  -0.579  1.00  0.00    -0.504 OA
ATOM     27  H   UNL     1       1.747  -1.499  -0.886  1.00  0.00     0.293 HD
ENDBRANCH  21  26
ENDBRANCH  17  18
ENDBRANCH  14  16
ENDBRANCH   9  14
ENDBRANCH   6   8
ENDBRANCH   5   6
ENDBRANCH   4   5
ENDBRANCH   3   4
ENDBRANCH   2   3
ENDBRANCH   1   2
BRANCH   1  28
ATOM     28  C   UNL     1       5.621  -9.543   2.493  1.00  0.00     0.188 C 
BRANCH  28  29
ATOM     29  O   UNL     1       6.506  -8.451   2.614  1.00  0.00    -0.376 OA
BRANCH  29  30
ATOM     30  C   UNL     1       7.595  -8.584   3.509  1.00  0.00     0.202 C 
BRANCH  30  31
ATOM     31  C   UNL     1       8.556  -9.779   3.371  1.00  0.00     0.261 C 
BRANCH  31  32
ATOM     32  O   UNL     1       7.977 -11.052   3.039  1.00  0.00    -0.460 OA
BRANCH  32  33
ATOM     33  C   UNL     1       7.470 -11.786   4.048  1.00  0.00     0.338 C 
ATOM     34  O   UNL     1       7.423 -11.478   5.235  1.00  0.00    -0.246 OA
BRANCH  33  35
ATOM     35  C   UNL     1       6.807 -12.979   3.481  1.00  0.00     0.060 A 
ATOM     36  C   UNL     1       5.428 -13.138   3.672  1.00  0.00     0.016 A 
ATOM     37  C   UNL     1       7.539 -13.954   2.797  1.00  0.00     0.016 A 
ATOM     38  C   UNL     1       4.789 -14.298   3.231  1.00  0.00     0.010 A 
ATOM     39  C   UNL     1       6.899 -15.124   2.366  1.00  0.00     0.010 A 
ATOM     40  C   UNL     1       5.529 -15.321   2.622  1.00  0.00    -0.014 A 
BRANCH  40  41
ATOM     41  C   UNL     1       4.910 -16.662   2.454  1.00  0.00     0.031 A 
ATOM     42  C   UNL     1       5.184 -17.714   3.498  1.00  0.00     0.074 A 
ATOM     43  C   UNL     1       4.077 -16.934   1.435  1.00  0.00     0.049 A 
ATOM     44  N   UNL     1       4.736 -18.941   3.587  1.00  0.00    -0.248 NA
ATOM     45  C   UNL     1       6.088 -17.326   4.592  1.00  0.00     0.031 C 
ATOM     46  C   UNL     1       3.706 -16.000   0.375  1.00  0.00     0.029 A 
ATOM     47  N   UNL     1       3.390 -18.084   1.129  1.00  0.00    -0.354 N 
ATOM     48  C   UNL     1       5.302 -19.468   4.741  1.00  0.00     0.074 A 
ATOM     49  C   UNL     1       6.157 -18.443   5.299  1.00  0.00     0.031 C 
ATOM     50  C   UNL     1       2.859 -16.616  -0.470  1.00  0.00     0.029 A 
ATOM     51  C   UNL     1       2.647 -17.992  -0.022  1.00  0.00     0.049 A 
ATOM     52  H   UNL     1       3.428 -18.897   1.682  1.00  0.00     0.167 HD
ATOM     53  C   UNL     1       5.116 -20.689   5.298  1.00  0.00     0.037 A 
ATOM     54  C   UNL     1       1.890 -18.918  -0.644  1.00  0.00     0.037 A 
ATOM     55  C   UNL     1       4.270 -21.713   4.744  1.00  0.00     0.049 A 
ATOM     56  C   UNL     1       1.745 -20.291  -0.036  1.00  0.00     0.074 A 
ATOM     57  C   UNL     1       4.007 -22.979   5.240  1.00  0.00     0.029 A 
ATOM     58  N   UNL     1       3.557 -21.593   3.561  1.00  0.00    -0.354 N 
ATOM     59  N   UNL     1       2.254 -20.768   1.075  1.00  0.00    -0.248 NA
ATOM     60  C   UNL     1       0.906 -21.252  -0.767  1.00  0.00     0.031 C 
ATOM     61  C   UNL     1       3.177 -23.642   4.331  1.00  0.00     0.029 A 
ATOM     62  C   UNL     1       2.871 -22.769   3.299  1.00  0.00     0.049 A 
ATOM     63  H   UNL     1       3.539 -20.790   2.991  1.00  0.00     0.167 HD
ATOM     64  C   UNL     1       1.772 -22.066   1.192  1.00  0.00     0.074 A 
ATOM     65  C   UNL     1       0.914 -22.296   0.049  1.00  0.00     0.031 C 
ATOM     66  C   UNL     1       2.016 -22.986   2.160  1.00  0.00     0.037 A 
BRANCH  53  67
ATOM     67  C   UNL     1       5.867 -20.991   6.563  1.00  0.00     0.064 A 
ATOM     68  C   UNL     1       5.549 -20.366   7.779  1.00  0.00     0.173 A 
ATOM     69  C   UNL     1       6.908 -21.932   6.563  1.00  0.00     0.173 A 
ATOM     70  F   UNL     1       4.573 -19.447   7.830  1.00  0.00    -0.203 F 
ATOM     71  C   UNL     1       6.263 -20.651   8.940  1.00  0.00     0.198 A 
ATOM     72  C   UNL     1       7.599 -22.238   7.733  1.00  0.00     0.198 A 
ATOM     73  F   UNL     1       7.252 -22.561   5.429  1.00  0.00    -0.203 F 
ATOM     74  F   UNL     1       5.976 -20.003  10.077  1.00  0.00    -0.200 F 
ATOM     75  C   UNL     1       7.282 -21.591   8.918  1.00  0.00     0.200 A 
ATOM     76  F   UNL     1       8.575 -23.156   7.712  1.00  0.00    -0.200 F 
ATOM     77  F   UNL     1       7.966 -21.868  10.037  1.00  0.00    -0.200 F 
ENDBRANCH  53  67
BRANCH  54  78
ATOM     78  C   UNL     1       1.202 -18.584  -1.921  1.00  0.00     0.064 A 
ATOM     79  C   UNL     1      -0.196 -18.509  -1.994  1.00  0.00     0.173 A 
ATOM     80  C   UNL     1       1.928 -18.370  -3.102  1.00  0.00     0.173 A 
ATOM     81  F   UNL     1      -0.937 -18.736  -0.898  1.00  0.00    -0.203 F 
ATOM     82  C   UNL     1      -0.842 -18.256  -3.202  1.00  0.00     0.198 A 
ATOM     83  C   UNL     1       1.282 -18.086  -4.303  1.00  0.00     0.198 A 
ATOM     84  F   UNL     1       3.267 -18.436  -3.088  1.00  0.00    -0.203 F 
ATOM     85  F   UNL     1      -2.181 -18.246  -3.254  1.00  0.00    -0.200 F 
ATOM     86  C   UNL     1      -0.102 -18.038  -4.355  1.00  0.00     0.200 A 
ATOM     87  F   UNL     1       2.002 -17.868  -5.412  1.00  0.00    -0.200 F 
ATOM     88  F   UNL     1      -0.724 -17.796  -5.517  1.00  0.00    -0.200 F 
ENDBRANCH  54  78
BRANCH  66  89
ATOM     89  C   UNL     1       1.310 -24.309   2.047  1.00  0.00     0.064 A 
ATOM     90  C   UNL     1       1.625 -25.236   1.041  1.00  0.00     0.173 A 
ATOM     91  C   UNL     1       0.311 -24.660   2.969  1.00  0.00     0.173 A 
ATOM     92  F   UNL     1       2.564 -24.948   0.128  1.00  0.00    -0.203 F 
ATOM     93  C   UNL     1       0.935 -26.442   0.936  1.00  0.00     0.198 A 
ATOM     94  C   UNL     1      -0.351 -25.882   2.882  1.00  0.00     0.198 A 
ATOM     95  F   UNL     1      -0.023 -23.818   3.959  1.00  0.00    -0.203 F 
ATOM     96  F   UNL     1       1.207 -27.280  -0.074  1.00  0.00    -0.200 F 
ATOM     97  C   UNL     1      -0.048 -26.766   1.858  1.00  0.00     0.200 A 
ATOM     98  F   UNL     1      -1.289 -26.201   3.785  1.00  0.00    -0.200 F 
ATOM     99  F   UNL     1      -0.711 -27.926   1.754  1.00  0.00    -0.200 F 
ENDBRANCH  66  89
ENDBRANCH  40  41
ENDBRANCH  33  35
ENDBRANCH  32  33
ENDBRANCH  31  32
ENDBRANCH  30  31
ENDBRANCH  29  30
ENDBRANCH  28  29
ENDBRANCH   1  28
TORSDOF 22
