REMARK SMILES CC(C)C[C@H](NC(=O)CNC(=O)[C@@H]([NH3+])C(C)C)C(=O)OCCOCCOCCOC(=O)c1ccc(-c2c3nc(c(-c4c(F)c(F)c(F)c(F)c4F)c4ccc([nH]4)c(-c4c(F)c(F)c(F)c(F)c4F)c4nc(c(-c5c(F)c(F)c(F)c(F)c5F)c5ccc2[nH]5)C=C4)C=C3)cc1
REMARK SMILES IDX 23 1 22 2 21 3 20 4 18 5 19 6 5 7 4 8 2 9 1 10 3 11 6 12
REMARK SMILES IDX 7 13 8 15 9 16 10 17 11 18 12 20 13 21 14 22 15 26 16 27
REMARK SMILES IDX 17 28 24 29 25 30 26 31 27 32 28 33 29 34 30 35 31 36 32 37
REMARK SMILES IDX 33 38 94 39 34 40 93 41 35 42 36 43 37 44 87 45 38 46 92 47
REMARK SMILES IDX 86 48 88 49 39 50 91 51 85 52 84 53 40 55 72 56 52 57 71 58
REMARK SMILES IDX 53 59 56 60 70 61 89 62 54 63 55 64 69 66 90 67 57 68 41 69
REMARK SMILES IDX 42 70 50 71 43 72 44 73 48 74 51 75 45 76 46 77 49 78 47 79
REMARK SMILES IDX 73 80 74 81 82 82 75 83 76 84 80 85 83 86 77 87 78 88 81 89
REMARK SMILES IDX 79 90 58 91 59 92 67 93 60 94 61 95 65 96 68 97 62 98 63 99
REMARK SMILES IDX 66 100 64 101
REMARK H PARENT 6 14 10 19 14 23 14 24 14 25 88 54 56 65
REMARK Flexibility Score: inf
ROOT
ATOM      1  O   UNL     1      -5.780  -0.568  -0.028  1.00  0.00    -0.376 OA
ENDROOT
BRANCH   1   2
ATOM      2  C   UNL     1      -5.979  -0.320  -1.412  1.00  0.00     0.202 C 
BRANCH   2   3
ATOM      3  C   UNL     1      -5.105  -1.127  -2.385  1.00  0.00     0.261 C 
BRANCH   3   4
ATOM      4  O   UNL     1      -3.678  -1.032  -2.188  1.00  0.00    -0.462 OA
BRANCH   4   5
ATOM      5  C   UNL     1      -3.057   0.065  -2.689  1.00  0.00     0.328 C 
ATOM      6  O   UNL     1      -3.655   0.993  -3.226  1.00  0.00    -0.250 OA
BRANCH   5   7
ATOM      7  C   UNL     1      -1.510   0.002  -2.554  1.00  0.00     0.192 C 
BRANCH   7   8
ATOM      8  C   UNL     1      -0.841  -0.048  -3.934  1.00  0.00     0.040 C 
BRANCH   8   9
ATOM      9  C   UNL     1      -0.899   1.271  -4.735  1.00  0.00    -0.015 C 
ATOM     10  C   UNL     1      -0.161   2.421  -4.051  1.00  0.00     0.007 C 
ATOM     11  C   UNL     1      -0.299   1.054  -6.121  1.00  0.00     0.007 C 
ENDBRANCH   8   9
ENDBRANCH   7   8
BRANCH   7  12
ATOM     12  N   UNL     1      -0.946  -1.069  -1.723  1.00  0.00    -0.341 N 
ATOM     13  C   UNL     1      -0.242  -0.959  -0.554  1.00  0.00     0.240 C 
ATOM     14  H   UNL     1      -1.095  -1.986  -2.049  1.00  0.00     0.164 HD
ATOM     15  O   UNL     1       0.223  -1.983  -0.049  1.00  0.00    -0.273 OA
BRANCH  13  16
ATOM     16  C   UNL     1      -0.160   0.384   0.191  1.00  0.00     0.216 C 
BRANCH  16  17
ATOM     17  N   UNL     1       0.550   1.448  -0.501  1.00  0.00    -0.342 N 
ATOM     18  C   UNL     1       0.206   2.756  -0.688  1.00  0.00     0.278 C 
ATOM     19  H   UNL     1       1.412   1.185  -0.895  1.00  0.00     0.164 HD
ATOM     20  O   UNL     1       1.038   3.494  -1.226  1.00  0.00    -0.268 OA
BRANCH  18  21
ATOM     21  C   UNL     1      -1.165   3.330  -0.243  1.00  0.00     0.273 C 
BRANCH  21  22
ATOM     22  N   UNL     1      -2.283   2.601  -0.880  1.00  0.00    -0.347 N 
ATOM     23  H   UNL     1      -2.260   1.623  -0.590  1.00  0.00     0.345 HD
ATOM     24  H   UNL     1      -2.191   2.656  -1.895  1.00  0.00     0.345 HD
ATOM     25  H   UNL     1      -3.168   3.019  -0.596  1.00  0.00     0.345 HD
ENDBRANCH  21  22
BRANCH  21  26
ATOM     26  C   UNL     1      -1.270   3.361   1.287  1.00  0.00     0.051 C 
ATOM     27  C   UNL     1      -0.404   4.501   1.839  1.00  0.00     0.014 C 
ATOM     28  C   UNL     1      -2.716   3.502   1.751  1.00  0.00     0.014 C 
ENDBRANCH  21  26
ENDBRANCH  18  21
ENDBRANCH  16  17
ENDBRANCH  13  16
ENDBRANCH   7  12
ENDBRANCH   5   7
ENDBRANCH   4   5
ENDBRANCH   3   4
ENDBRANCH   2   3
ENDBRANCH   1   2
BRANCH   1  29
ATOM     29  C   UNL     1      -4.527  -0.164   0.492  1.00  0.00     0.188 C 
BRANCH  29  30
ATOM     30  C   UNL     1      -3.550  -1.321   0.760  1.00  0.00     0.188 C 
BRANCH  30  31
ATOM     31  O   UNL     1      -3.968  -2.672   0.659  1.00  0.00    -0.376 OA
BRANCH  31  32
ATOM     32  C   UNL     1      -5.229  -3.050   1.182  1.00  0.00     0.202 C 
BRANCH  32  33
ATOM     33  C   UNL     1      -5.519  -2.792   2.667  1.00  0.00     0.261 C 
BRANCH  33  34
ATOM     34  O   UNL     1      -5.159  -1.483   3.149  1.00  0.00    -0.460 OA
BRANCH  34  35
ATOM     35  C   UNL     1      -4.093  -1.460   3.988  1.00  0.00     0.338 C 
ATOM     36  O   UNL     1      -3.444  -2.413   4.380  1.00  0.00    -0.246 OA
BRANCH  35  37
ATOM     37  C   UNL     1      -3.687  -0.068   4.295  1.00  0.00     0.060 A 
ATOM     38  C   UNL     1      -2.345   0.274   4.091  1.00  0.00     0.016 A 
ATOM     39  C   UNL     1      -4.555   0.840   4.908  1.00  0.00     0.016 A 
ATOM     40  C   UNL     1      -1.858   1.499   4.554  1.00  0.00     0.010 A 
ATOM     41  C   UNL     1      -4.059   2.064   5.394  1.00  0.00     0.010 A 
ATOM     42  C   UNL     1      -2.700   2.385   5.256  1.00  0.00    -0.014 A 
BRANCH  42  43
ATOM     43  C   UNL     1      -2.054   3.480   6.038  1.00  0.00     0.031 A 
ATOM     44  C   UNL     1      -1.398   3.095   7.333  1.00  0.00     0.074 A 
ATOM     45  C   UNL     1      -1.972   4.756   5.614  1.00  0.00     0.049 A 
ATOM     46  N   UNL     1      -0.670   3.818   8.143  1.00  0.00    -0.248 NA
ATOM     47  C   UNL     1      -1.650   1.723   7.804  1.00  0.00     0.031 C 
ATOM     48  C   UNL     1      -2.670   5.314   4.469  1.00  0.00     0.029 A 
ATOM     49  N   UNL     1      -1.200   5.806   6.060  1.00  0.00    -0.354 N 
ATOM     50  C   UNL     1      -0.438   3.014   9.249  1.00  0.00     0.074 A 
ATOM     51  C   UNL     1      -1.062   1.735   8.989  1.00  0.00     0.031 C 
ATOM     52  C   UNL     1      -2.143   6.511   4.164  1.00  0.00     0.029 A 
ATOM     53  C   UNL     1      -1.163   6.870   5.182  1.00  0.00     0.049 A 
ATOM     54  H   UNL     1      -0.721   5.798   6.920  1.00  0.00     0.167 HD
ATOM     55  C   UNL     1       0.191   3.337  10.402  1.00  0.00     0.037 A 
ATOM     56  C   UNL     1      -0.426   8.000   5.206  1.00  0.00     0.037 A 
ATOM     57  C   UNL     1       0.789   4.619  10.662  1.00  0.00     0.049 A 
ATOM     58  C   UNL     1       0.386   8.288   6.443  1.00  0.00     0.074 A 
ATOM     59  C   UNL     1       1.423   5.060  11.809  1.00  0.00     0.029 A 
ATOM     60  N   UNL     1       0.825   5.668   9.755  1.00  0.00    -0.354 N 
ATOM     61  N   UNL     1       0.588   7.532   7.495  1.00  0.00    -0.248 NA
ATOM     62  C   UNL     1       1.010   9.617   6.531  1.00  0.00     0.031 C 
ATOM     63  C   UNL     1       1.811   6.390  11.610  1.00  0.00     0.029 A 
ATOM     64  C   UNL     1       1.472   6.757  10.317  1.00  0.00     0.049 A 
ATOM     65  H   UNL     1       0.446   5.644   8.847  1.00  0.00     0.167 HD
ATOM     66  C   UNL     1       1.336   8.298   8.377  1.00  0.00     0.074 A 
ATOM     67  C   UNL     1       1.607   9.556   7.713  1.00  0.00     0.031 C 
ATOM     68  C   UNL     1       1.732   8.000   9.639  1.00  0.00     0.037 A 
BRANCH  55  69
ATOM     69  C   UNL     1       0.167   2.311  11.494  1.00  0.00     0.064 A 
ATOM     70  C   UNL     1       0.909   1.124  11.420  1.00  0.00     0.173 A 
ATOM     71  C   UNL     1      -0.646   2.509  12.621  1.00  0.00     0.173 A 
ATOM     72  F   UNL     1       1.675   0.874  10.347  1.00  0.00    -0.203 F 
ATOM     73  C   UNL     1       0.814   0.159  12.419  1.00  0.00     0.198 A 
ATOM     74  C   UNL     1      -0.714   1.557  13.633  1.00  0.00     0.198 A 
ATOM     75  F   UNL     1      -1.385   3.623  12.735  1.00  0.00    -0.203 F 
ATOM     76  F   UNL     1       1.481  -0.997  12.296  1.00  0.00    -0.200 F 
ATOM     77  C   UNL     1       0.008   0.379  13.526  1.00  0.00     0.200 A 
ATOM     78  F   UNL     1      -1.489   1.774  14.704  1.00  0.00    -0.200 F 
ATOM     79  F   UNL     1      -0.084  -0.553  14.485  1.00  0.00    -0.200 F 
ENDBRANCH  55  69
BRANCH  56  80
ATOM     80  C   UNL     1      -0.422   8.962   4.062  1.00  0.00     0.064 A 
ATOM     81  C   UNL     1       0.770   9.248   3.374  1.00  0.00     0.173 A 
ATOM     82  C   UNL     1      -1.575   9.644   3.651  1.00  0.00     0.173 A 
ATOM     83  F   UNL     1       1.916   8.657   3.745  1.00  0.00    -0.203 F 
ATOM     84  C   UNL     1       0.807  10.181   2.337  1.00  0.00     0.198 A 
ATOM     85  C   UNL     1      -1.547  10.543   2.584  1.00  0.00     0.198 A 
ATOM     86  F   UNL     1      -2.741   9.438   4.281  1.00  0.00    -0.203 F 
ATOM     87  F   UNL     1       1.973  10.478   1.744  1.00  0.00    -0.200 F 
ATOM     88  C   UNL     1      -0.354  10.820   1.935  1.00  0.00     0.200 A 
ATOM     89  F   UNL     1      -2.677  11.146   2.192  1.00  0.00    -0.200 F 
ATOM     90  F   UNL     1      -0.323  11.710   0.934  1.00  0.00    -0.200 F 
ENDBRANCH  56  80
BRANCH  68  91
ATOM     91  C   UNL     1       2.518   9.047  10.372  1.00  0.00     0.064 A 
ATOM     92  C   UNL     1       1.920  10.229  10.835  1.00  0.00     0.173 A 
ATOM     93  C   UNL     1       3.882   8.853  10.633  1.00  0.00     0.173 A 
ATOM     94  F   UNL     1       0.621  10.467  10.600  1.00  0.00    -0.203 F 
ATOM     95  C   UNL     1       2.669  11.194  11.503  1.00  0.00     0.198 A 
ATOM     96  C   UNL     1       4.621   9.806  11.326  1.00  0.00     0.198 A 
ATOM     97  F   UNL     1       4.497   7.735  10.218  1.00  0.00    -0.203 F 
ATOM     98  F   UNL     1       2.091  12.341  11.888  1.00  0.00    -0.200 F 
ATOM     99  C   UNL     1       4.017  10.980  11.752  1.00  0.00     0.200 A 
ATOM    100  F   UNL     1       5.920   9.592  11.578  1.00  0.00    -0.200 F 
ATOM    101  F   UNL     1       4.737  11.911  12.394  1.00  0.00    -0.200 F 
ENDBRANCH  68  91
ENDBRANCH  42  43
ENDBRANCH  35  37
ENDBRANCH  34  35
ENDBRANCH  33  34
ENDBRANCH  32  33
ENDBRANCH  31  32
ENDBRANCH  30  31
ENDBRANCH  29  30
ENDBRANCH   1  29
TORSDOF 25
