REMARK SMILES O=C(OCCOCCOCCOC(=O)[C@H]1CC=CC[C@H]1C(=O)N[C@@H]1CCN(c2cccc(Cl)c2)C1)c1ccc(-c2c3nc(c(-c4c(F)c(F)c(F)c(F)c4F)c4ccc([nH]4)c(-c4c(F)c(F)c(F)c(F)c4F)c4nc(c(-c5c(F)c(F)c(F)c(F)c5F)c5ccc2[nH]5)C=C4)C=C3)cc1
REMARK SMILES IDX 8 1 7 2 6 3 5 4 4 5 3 6 2 7 1 8 36 9 37 10 98 11 38 12 97 13
REMARK SMILES IDX 39 14 40 15 41 16 91 17 42 18 96 19 90 20 92 21 43 22 95 23
REMARK SMILES IDX 89 24 88 25 44 27 76 28 56 29 75 30 57 31 60 32 74 33 93 34
REMARK SMILES IDX 58 35 59 36 73 38 94 39 61 40 45 41 46 42 54 43 47 44 48 45
REMARK SMILES IDX 52 46 55 47 49 48 50 49 53 50 51 51 77 52 78 53 86 54 79 55
REMARK SMILES IDX 80 56 84 57 87 58 81 59 82 60 85 61 83 62 62 63 63 64 71 65
REMARK SMILES IDX 64 66 65 67 69 68 72 69 66 70 67 71 70 72 68 73 9 74 10 75
REMARK SMILES IDX 11 76 12 77 13 78 14 79 15 80 16 81 20 82 17 83 19 84 18 85
REMARK SMILES IDX 21 86 22 87 23 88 24 90 25 91 35 92 26 93 27 94 28 95 29 96
REMARK SMILES IDX 34 97 30 98 32 99 31 100 33 101
REMARK H PARENT 92 26 60 37 23 89
REMARK Flexibility Score: inf
ROOT
ATOM      1  C   UNL     1       2.621   2.529  -0.339  1.00  0.00     0.188 C 
ENDROOT
BRANCH   1   2
ATOM      2  C   UNL     1       2.842   1.040  -0.176  1.00  0.00     0.188 C 
BRANCH   2   3
ATOM      3  O   UNL     1       4.210   0.707   0.043  1.00  0.00    -0.376 OA
BRANCH   3   4
ATOM      4  C   UNL     1       4.922   0.413  -1.153  1.00  0.00     0.202 C 
BRANCH   4   5
ATOM      5  C   UNL     1       4.613  -0.963  -1.769  1.00  0.00     0.261 C 
BRANCH   5   6
ATOM      6  O   UNL     1       3.326  -1.558  -1.478  1.00  0.00    -0.460 OA
BRANCH   6   7
ATOM      7  C   UNL     1       2.779  -2.111  -0.370  1.00  0.00     0.338 C 
ATOM      8  O   UNL     1       1.645  -2.583  -0.462  1.00  0.00    -0.246 OA
BRANCH   7   9
ATOM      9  C   UNL     1       3.419  -2.134   0.983  1.00  0.00     0.060 A 
ATOM     10  C   UNL     1       4.725  -1.732   1.245  1.00  0.00     0.016 A 
ATOM     11  C   UNL     1       2.638  -2.579   2.073  1.00  0.00     0.016 A 
ATOM     12  C   UNL     1       5.224  -1.689   2.538  1.00  0.00     0.010 A 
ATOM     13  C   UNL     1       3.160  -2.627   3.372  1.00  0.00     0.010 A 
ATOM     14  C   UNL     1       4.467  -2.191   3.595  1.00  0.00    -0.014 A 
BRANCH  14  15
ATOM     15  C   UNL     1       5.230  -2.513   4.813  1.00  0.00     0.031 A 
ATOM     16  C   UNL     1       5.922  -3.843   4.836  1.00  0.00     0.074 A 
ATOM     17  C   UNL     1       5.507  -1.556   5.713  1.00  0.00     0.049 A 
ATOM     18  N   UNL     1       6.790  -4.312   5.688  1.00  0.00    -0.248 NA
ATOM     19  C   UNL     1       5.637  -4.745   3.705  1.00  0.00     0.031 C 
ATOM     20  C   UNL     1       4.995  -0.189   5.660  1.00  0.00     0.029 A 
ATOM     21  N   UNL     1       6.321  -1.570   6.814  1.00  0.00    -0.354 N 
ATOM     22  C   UNL     1       7.172  -5.547   5.183  1.00  0.00     0.074 A 
ATOM     23  C   UNL     1       6.432  -5.769   3.964  1.00  0.00     0.031 C 
ATOM     24  C   UNL     1       5.509   0.507   6.689  1.00  0.00     0.029 A 
ATOM     25  C   UNL     1       6.350  -0.374   7.488  1.00  0.00     0.049 A 
ATOM     26  H   UNL     1       6.835  -2.361   7.095  1.00  0.00     0.167 HD
ATOM     27  C   UNL     1       8.070  -6.415   5.699  1.00  0.00     0.037 A 
ATOM     28  C   UNL     1       6.969  -0.047   8.638  1.00  0.00     0.037 A 
ATOM     29  C   UNL     1       8.748  -6.189   6.944  1.00  0.00     0.049 A 
ATOM     30  C   UNL     1       7.831  -1.099   9.284  1.00  0.00     0.074 A 
ATOM     31  C   UNL     1       9.575  -7.040   7.649  1.00  0.00     0.029 A 
ATOM     32  N   UNL     1       8.655  -5.012   7.677  1.00  0.00    -0.354 N 
ATOM     33  N   UNL     1       8.137  -2.299   8.845  1.00  0.00    -0.248 NA
ATOM     34  C   UNL     1       8.434  -0.762  10.578  1.00  0.00     0.031 C 
ATOM     35  C   UNL     1       9.943  -6.396   8.835  1.00  0.00     0.029 A 
ATOM     36  C   UNL     1       9.398  -5.120   8.839  1.00  0.00     0.049 A 
ATOM     37  H   UNL     1       8.138  -4.218   7.409  1.00  0.00     0.167 HD
ATOM     38  C   UNL     1       8.981  -2.852   9.795  1.00  0.00     0.074 A 
ATOM     39  C   UNL     1       9.162  -1.842  10.820  1.00  0.00     0.031 C 
ATOM     40  C   UNL     1       9.551  -4.082   9.829  1.00  0.00     0.037 A 
BRANCH  27  41
ATOM     41  C   UNL     1       8.278  -7.697   4.951  1.00  0.00     0.064 A 
ATOM     42  C   UNL     1       8.952  -7.736   3.720  1.00  0.00     0.173 A 
ATOM     43  C   UNL     1       7.746  -8.897   5.445  1.00  0.00     0.173 A 
ATOM     44  F   UNL     1       9.445  -6.609   3.185  1.00  0.00    -0.203 F 
ATOM     45  C   UNL     1       9.062  -8.924   3.001  1.00  0.00     0.198 A 
ATOM     46  C   UNL     1       7.881 -10.088   4.736  1.00  0.00     0.198 A 
ATOM     47  F   UNL     1       7.077  -8.911   6.608  1.00  0.00    -0.203 F 
ATOM     48  F   UNL     1       9.655  -8.926   1.798  1.00  0.00    -0.200 F 
ATOM     49  C   UNL     1       8.530 -10.099   3.511  1.00  0.00     0.200 A 
ATOM     50  F   UNL     1       7.365 -11.221   5.231  1.00  0.00    -0.200 F 
ATOM     51  F   UNL     1       8.628 -11.239   2.814  1.00  0.00    -0.200 F 
ENDBRANCH  27  41
BRANCH  28  52
ATOM     52  C   UNL     1       6.747   1.283   9.275  1.00  0.00     0.064 A 
ATOM     53  C   UNL     1       7.798   2.180   9.512  1.00  0.00     0.173 A 
ATOM     54  C   UNL     1       5.466   1.663   9.713  1.00  0.00     0.173 A 
ATOM     55  F   UNL     1       9.045   1.866   9.132  1.00  0.00    -0.203 F 
ATOM     56  C   UNL     1       7.585   3.382  10.190  1.00  0.00     0.198 A 
ATOM     57  C   UNL     1       5.248   2.880  10.355  1.00  0.00     0.198 A 
ATOM     58  F   UNL     1       4.419   0.849   9.515  1.00  0.00    -0.203 F 
ATOM     59  F   UNL     1       8.620   4.188  10.460  1.00  0.00    -0.200 F 
ATOM     60  C   UNL     1       6.310   3.732  10.608  1.00  0.00     0.200 A 
ATOM     61  F   UNL     1       4.010   3.219  10.741  1.00  0.00    -0.200 F 
ATOM     62  F   UNL     1       6.108   4.883  11.264  1.00  0.00    -0.200 F 
ENDBRANCH  28  52
BRANCH  40  63
ATOM     63  C   UNL     1      10.446  -4.377  10.994  1.00  0.00     0.064 A 
ATOM     64  C   UNL     1       9.937  -4.555  12.288  1.00  0.00     0.173 A 
ATOM     65  C   UNL     1      11.829  -4.514  10.803  1.00  0.00     0.173 A 
ATOM     66  F   UNL     1       8.622  -4.418  12.522  1.00  0.00    -0.203 F 
ATOM     67  C   UNL     1      10.785  -4.826  13.356  1.00  0.00     0.198 A 
ATOM     68  C   UNL     1      12.669  -4.823  11.866  1.00  0.00     0.198 A 
ATOM     69  F   UNL     1      12.362  -4.361   9.581  1.00  0.00    -0.203 F 
ATOM     70  F   UNL     1      10.286  -4.931  14.595  1.00  0.00    -0.200 F 
ATOM     71  C   UNL     1      12.149  -4.968  13.143  1.00  0.00     0.200 A 
ATOM     72  F   UNL     1      13.983  -4.978  11.655  1.00  0.00    -0.200 F 
ATOM     73  F   UNL     1      12.963  -5.236  14.172  1.00  0.00    -0.200 F 
ENDBRANCH  40  63
ENDBRANCH  14  15
ENDBRANCH   7   9
ENDBRANCH   6   7
ENDBRANCH   5   6
ENDBRANCH   4   5
ENDBRANCH   3   4
ENDBRANCH   2   3
ENDBRANCH   1   2
BRANCH   1  74
ATOM     74  O   UNL     1       3.692   3.168  -1.022  1.00  0.00    -0.376 OA
BRANCH  74  75
ATOM     75  C   UNL     1       4.488   4.073  -0.250  1.00  0.00     0.202 C 
BRANCH  75  76
ATOM     76  C   UNL     1       5.192   3.512   0.997  1.00  0.00     0.261 C 
BRANCH  76  77
ATOM     77  O   UNL     1       4.293   2.965   1.983  1.00  0.00    -0.463 OA
BRANCH  77  78
ATOM     78  C   UNL     1       3.736   3.820   2.879  1.00  0.00     0.310 C 
ATOM     79  O   UNL     1       3.975   5.019   2.924  1.00  0.00    -0.252 OA
BRANCH  78  80
ATOM     80  C   UNL     1       2.830   3.059   3.828  1.00  0.00     0.115 C 
ATOM     81  C   UNL     1       3.516   3.094   5.203  1.00  0.00     0.043 C 
ATOM     82  C   UNL     1       1.369   3.523   3.955  1.00  0.00     0.096 C 
ATOM     83  C   UNL     1       3.336   4.408   5.901  1.00  0.00    -0.030 C 
ATOM     84  C   UNL     1       1.104   4.749   4.839  1.00  0.00     0.041 C 
ATOM     85  C   UNL     1       2.250   5.167   5.708  1.00  0.00    -0.030 C 
BRANCH  82  86
ATOM     86  C   UNL     1       0.474   3.473   2.719  1.00  0.00     0.224 C 
ATOM     87  O   UNL     1      -0.252   2.486   2.547  1.00  0.00    -0.275 OA
ATOM     88  N   UNL     1       0.346   4.458   1.792  1.00  0.00    -0.351 N 
ATOM     89  H   UNL     1      -0.574   4.588   1.465  1.00  0.00     0.163 HD
BRANCH  88  90
ATOM     90  C   UNL     1       1.327   5.361   1.192  1.00  0.00     0.103 C 
ATOM     91  C   UNL     1       1.606   6.699   1.876  1.00  0.00     0.048 C 
ATOM     92  C   UNL     1       0.993   5.717  -0.289  1.00  0.00     0.141 C 
ATOM     93  C   UNL     1       1.149   7.761   0.896  1.00  0.00     0.119 C 
ATOM     94  N   UNL     1       1.319   7.135  -0.405  1.00  0.00    -0.369 N 
BRANCH  94  95
ATOM     95  C   UNL     1       2.288   7.520  -1.311  1.00  0.00     0.038 A 
ATOM     96  C   UNL     1       3.518   8.071  -0.924  1.00  0.00     0.026 A 
ATOM     97  C   UNL     1       2.044   7.379  -2.685  1.00  0.00     0.046 A 
ATOM     98  C   UNL     1       4.454   8.506  -1.869  1.00  0.00     0.004 A 
ATOM     99  C   UNL     1       2.968   7.830  -3.630  1.00  0.00     0.043 A 
ATOM    100  C   UNL     1       4.171   8.400  -3.227  1.00  0.00     0.020 A 
ATOM    101  Cl  UNL     1       2.604   7.707  -5.308  1.00  0.00    -0.084 Cl
ENDBRANCH  94  95
ENDBRANCH  88  90
ENDBRANCH  82  86
ENDBRANCH  78  80
ENDBRANCH  77  78
ENDBRANCH  76  77
ENDBRANCH  75  76
ENDBRANCH  74  75
ENDBRANCH   1  74
TORSDOF 20
