REMARK SMILES Cc1coc2c(C)c3oc(=O)c(CCC(=O)N[C@H](CC(C)C)C(=O)OCCOCCOCCOC(=O)c4ccc(-c5c6nc(c(-c7c(F)c(F)c(F)c(F)c7F)c7ccc([nH]7)c(-c7c(F)c(F)c(F)c(F)c7F)c7nc(c(-c8c(F)c(F)c(F)c(F)c8F)c8ccc5[nH]8)C=C7)C=C6)cc4)c(C)c3cc12
REMARK SMILES IDX 29 1 28 2 27 3 26 4 25 5 23 6 24 7 18 8 17 9 15 10 16 11
REMARK SMILES IDX 14 13 13 14 12 15 1 16 2 17 3 18 104 19 4 20 5 21 103 22
REMARK SMILES IDX 6 23 102 24 7 25 8 26 100 27 9 28 101 29 10 30 11 31 19 32
REMARK SMILES IDX 20 33 21 34 22 35 30 36 31 37 32 38 33 39 34 40 35 41 36 42
REMARK SMILES IDX 37 43 38 44 99 45 39 46 98 47 40 48 41 49 42 50 92 51 43 52
REMARK SMILES IDX 97 53 91 54 93 55 44 56 96 57 90 58 89 59 45 61 77 62 57 63
REMARK SMILES IDX 76 64 58 65 61 66 75 67 94 68 59 69 60 70 74 72 95 73 62 74
REMARK SMILES IDX 46 75 47 76 55 77 48 78 49 79 53 80 56 81 50 82 51 83 54 84
REMARK SMILES IDX 52 85 78 86 79 87 87 88 80 89 81 90 85 91 88 92 82 93 83 94
REMARK SMILES IDX 86 95 84 96 63 97 64 98 72 99 65 100 66 101 70 102 73 103
REMARK SMILES IDX 67 104 68 105 71 106 69 107
REMARK H PARENT 17 12 93 60 61 71
REMARK Flexibility Score: inf
ROOT
ATOM      1  C   UNL     1      -6.147  -0.325   0.113  1.00  0.00     0.188 C 
ENDROOT
BRANCH   1   2
ATOM      2  O   UNL     1      -6.040  -0.606   1.488  1.00  0.00    -0.376 OA
BRANCH   2   3
ATOM      3  C   UNL     1      -4.962  -1.439   1.883  1.00  0.00     0.202 C 
BRANCH   3   4
ATOM      4  C   UNL     1      -3.567  -1.307   1.222  1.00  0.00     0.261 C 
BRANCH   4   5
ATOM      5  O   UNL     1      -3.434  -0.299   0.193  1.00  0.00    -0.462 OA
BRANCH   5   6
ATOM      6  C   UNL     1      -2.766  -0.680  -0.929  1.00  0.00     0.328 C 
ATOM      7  O   UNL     1      -2.210  -1.774  -1.028  1.00  0.00    -0.250 OA
BRANCH   6   8
ATOM      8  C   UNL     1      -2.879   0.301  -2.148  1.00  0.00     0.192 C 
BRANCH   8   9
ATOM      9  N   UNL     1      -1.776  -0.127  -3.032  1.00  0.00    -0.343 N 
ATOM     10  C   UNL     1      -1.685  -0.420  -4.350  1.00  0.00     0.221 C 
ATOM     11  O   UNL     1      -0.703  -1.081  -4.702  1.00  0.00    -0.275 OA
ATOM     12  H   UNL     1      -0.919  -0.221  -2.558  1.00  0.00     0.164 HD
BRANCH  10  13
ATOM     13  C   UNL     1      -2.659   0.095  -5.390  1.00  0.00     0.105 C 
BRANCH  13  14
ATOM     14  C   UNL     1      -3.914  -0.694  -5.798  1.00  0.00     0.053 C 
BRANCH  14  15
ATOM     15  C   UNL     1      -4.819  -1.306  -4.747  1.00  0.00     0.042 A 
ATOM     16  C   UNL     1      -4.287  -5.629   0.619  1.00  0.00     0.048 C 
ATOM     17  C   UNL     1      -5.539  -4.939   0.223  1.00  0.00    -0.005 A 
ATOM     18  C   UNL     1      -6.711  -4.829   0.942  1.00  0.00     0.199 A 
ATOM     19  C   UNL     1      -5.750  -4.172  -0.958  1.00  0.00     0.024 A 
ATOM     20  O   UNL     1      -7.604  -4.030   0.299  1.00  0.00    -0.464 OA
ATOM     21  C   UNL     1      -7.010  -3.603  -0.854  1.00  0.00     0.140 A 
ATOM     22  C   UNL     1      -4.951  -3.850  -2.063  1.00  0.00     0.024 A 
ATOM     23  C   UNL     1      -7.541  -2.672  -1.758  1.00  0.00     0.036 A 
ATOM     24  C   UNL     1      -5.387  -2.892  -2.984  1.00  0.00     0.022 A 
ATOM     25  C   UNL     1      -8.877  -2.029  -1.534  1.00  0.00     0.052 C 
ATOM     26  C   UNL     1      -6.652  -2.321  -2.807  1.00  0.00     0.145 A 
ATOM     27  C   UNL     1      -4.491  -2.413  -4.052  1.00  0.00    -0.030 A 
ATOM     28  O   UNL     1      -7.037  -1.261  -3.659  1.00  0.00    -0.422 OA
ATOM     29  C   UNL     1      -3.212  -3.184  -4.275  1.00  0.00     0.046 C 
ATOM     30  C   UNL     1      -6.172  -0.686  -4.584  1.00  0.00     0.339 A 
ATOM     31  O   UNL     1      -6.522   0.289  -5.239  1.00  0.00    -0.246 OA
ENDBRANCH  14  15
ENDBRANCH  13  14
ENDBRANCH  10  13
ENDBRANCH   8   9
BRANCH   8  32
ATOM     32  C   UNL     1      -2.792   1.813  -1.847  1.00  0.00     0.040 C 
BRANCH  32  33
ATOM     33  C   UNL     1      -3.048   2.748  -3.060  1.00  0.00    -0.015 C 
ATOM     34  C   UNL     1      -4.395   2.535  -3.764  1.00  0.00     0.007 C 
ATOM     35  C   UNL     1      -2.971   4.227  -2.676  1.00  0.00     0.007 C 
ENDBRANCH  32  33
ENDBRANCH   8  32
ENDBRANCH   6   8
ENDBRANCH   5   6
ENDBRANCH   4   5
ENDBRANCH   3   4
ENDBRANCH   2   3
ENDBRANCH   1   2
BRANCH   1  36
ATOM     36  C   UNL     1      -5.875   1.132  -0.257  1.00  0.00     0.188 C 
BRANCH  36  37
ATOM     37  O   UNL     1      -5.116   1.986   0.593  1.00  0.00    -0.376 OA
BRANCH  37  38
ATOM     38  C   UNL     1      -5.268   1.963   2.008  1.00  0.00     0.202 C 
BRANCH  38  39
ATOM     39  C   UNL     1      -6.638   2.208   2.636  1.00  0.00     0.261 C 
BRANCH  39  40
ATOM     40  O   UNL     1      -7.725   1.855   1.807  1.00  0.00    -0.460 OA
BRANCH  40  41
ATOM     41  C   UNL     1      -8.054   2.822   0.921  1.00  0.00     0.338 C 
ATOM     42  O   UNL     1      -7.489   3.873   0.712  1.00  0.00    -0.246 OA
BRANCH  41  43
ATOM     43  C   UNL     1      -9.290   2.405   0.252  1.00  0.00     0.060 A 
ATOM     44  C   UNL     1      -9.679   3.150  -0.862  1.00  0.00     0.016 A 
ATOM     45  C   UNL     1     -10.160   1.540   0.928  1.00  0.00     0.016 A 
ATOM     46  C   UNL     1     -11.025   3.258  -1.111  1.00  0.00     0.010 A 
ATOM     47  C   UNL     1     -11.501   1.669   0.696  1.00  0.00     0.010 A 
ATOM     48  C   UNL     1     -11.909   2.615  -0.237  1.00  0.00    -0.014 A 
BRANCH  48  49
ATOM     49  C   UNL     1     -13.309   2.945  -0.325  1.00  0.00     0.031 A 
ATOM     50  C   UNL     1     -13.962   2.270  -1.458  1.00  0.00     0.074 A 
ATOM     51  C   UNL     1     -13.903   3.742   0.584  1.00  0.00     0.049 A 
ATOM     52  N   UNL     1     -14.368   2.815  -2.553  1.00  0.00    -0.248 NA
ATOM     53  C   UNL     1     -13.982   0.799  -1.471  1.00  0.00     0.031 C 
ATOM     54  C   UNL     1     -13.356   4.226   1.858  1.00  0.00     0.029 A 
ATOM     55  N   UNL     1     -15.173   4.232   0.595  1.00  0.00    -0.354 N 
ATOM     56  C   UNL     1     -14.909   1.776  -3.300  1.00  0.00     0.074 A 
ATOM     57  C   UNL     1     -14.456   0.556  -2.693  1.00  0.00     0.031 C 
ATOM     58  C   UNL     1     -14.355   4.747   2.609  1.00  0.00     0.029 A 
ATOM     59  C   UNL     1     -15.571   4.770   1.816  1.00  0.00     0.049 A 
ATOM     60  H   UNL     1     -15.761   4.207  -0.195  1.00  0.00     0.167 HD
ATOM     61  C   UNL     1     -15.945   2.026  -4.143  1.00  0.00     0.037 A 
ATOM     62  C   UNL     1     -16.833   5.154   2.131  1.00  0.00     0.037 A 
ATOM     63  C   UNL     1     -16.042   3.439  -4.416  1.00  0.00     0.049 A 
ATOM     64  C   UNL     1     -17.538   5.393   0.850  1.00  0.00     0.074 A 
ATOM     65  C   UNL     1     -15.327   4.360  -5.151  1.00  0.00     0.029 A 
ATOM     66  N   UNL     1     -16.780   4.134  -3.495  1.00  0.00    -0.354 N 
ATOM     67  N   UNL     1     -17.253   6.378   0.045  1.00  0.00    -0.248 NA
ATOM     68  C   UNL     1     -18.339   4.321   0.271  1.00  0.00     0.031 C 
ATOM     69  C   UNL     1     -15.516   5.616  -4.500  1.00  0.00     0.029 A 
ATOM     70  C   UNL     1     -16.375   5.438  -3.417  1.00  0.00     0.049 A 
ATOM     71  H   UNL     1     -17.508   3.745  -2.958  1.00  0.00     0.167 HD
ATOM     72  C   UNL     1     -17.462   5.858  -1.217  1.00  0.00     0.074 A 
ATOM     73  C   UNL     1     -18.289   4.674  -1.016  1.00  0.00     0.031 C 
ATOM     74  C   UNL     1     -16.675   6.251  -2.260  1.00  0.00     0.037 A 
BRANCH  61  75
ATOM     75  C   UNL     1     -17.147   1.116  -4.286  1.00  0.00     0.064 A 
ATOM     76  C   UNL     1     -18.146   1.456  -5.222  1.00  0.00     0.173 A 
ATOM     77  C   UNL     1     -17.513   0.121  -3.351  1.00  0.00     0.173 A 
ATOM     78  F   UNL     1     -17.927   2.414  -6.136  1.00  0.00    -0.203 F 
ATOM     79  C   UNL     1     -19.422   0.887  -5.183  1.00  0.00     0.198 A 
ATOM     80  C   UNL     1     -18.769  -0.482  -3.349  1.00  0.00     0.198 A 
ATOM     81  F   UNL     1     -16.727  -0.232  -2.328  1.00  0.00    -0.203 F 
ATOM     82  F   UNL     1     -20.373   1.327  -6.018  1.00  0.00    -0.200 F 
ATOM     83  C   UNL     1     -19.733  -0.081  -4.247  1.00  0.00     0.200 A 
ATOM     84  F   UNL     1     -19.057  -1.397  -2.412  1.00  0.00    -0.200 F 
ATOM     85  F   UNL     1     -20.969  -0.591  -4.174  1.00  0.00    -0.200 F 
ENDBRANCH  61  75
BRANCH  62  86
ATOM     86  C   UNL     1     -17.582   5.050   3.408  1.00  0.00     0.064 A 
ATOM     87  C   UNL     1     -18.831   5.687   3.549  1.00  0.00     0.173 A 
ATOM     88  C   UNL     1     -17.273   4.064   4.362  1.00  0.00     0.173 A 
ATOM     89  F   UNL     1     -19.212   6.628   2.673  1.00  0.00    -0.203 F 
ATOM     90  C   UNL     1     -19.748   5.299   4.530  1.00  0.00     0.198 A 
ATOM     91  C   UNL     1     -18.189   3.683   5.346  1.00  0.00     0.198 A 
ATOM     92  F   UNL     1     -16.126   3.376   4.292  1.00  0.00    -0.203 F 
ATOM     93  F   UNL     1     -20.965   5.861   4.566  1.00  0.00    -0.200 F 
ATOM     94  C   UNL     1     -19.435   4.282   5.413  1.00  0.00     0.200 A 
ATOM     95  F   UNL     1     -17.888   2.677   6.180  1.00  0.00    -0.200 F 
ATOM     96  F   UNL     1     -20.346   3.846   6.295  1.00  0.00    -0.200 F 
ENDBRANCH  62  86
BRANCH  74  97
ATOM     97  C   UNL     1     -15.946   7.552  -2.114  1.00  0.00     0.064 A 
ATOM     98  C   UNL     1     -14.900   7.784  -1.205  1.00  0.00     0.173 A 
ATOM     99  C   UNL     1     -16.269   8.581  -3.008  1.00  0.00     0.173 A 
ATOM    100  F   UNL     1     -14.488   6.823  -0.368  1.00  0.00    -0.203 F 
ATOM    101  C   UNL     1     -14.230   9.006  -1.179  1.00  0.00     0.198 A 
ATOM    102  C   UNL     1     -15.574   9.784  -3.005  1.00  0.00     0.198 A 
ATOM    103  F   UNL     1     -17.238   8.397  -3.919  1.00  0.00    -0.203 F 
ATOM    104  F   UNL     1     -13.243   9.214  -0.294  1.00  0.00    -0.200 F 
ATOM    105  C   UNL     1     -14.561  10.001  -2.086  1.00  0.00     0.200 A 
ATOM    106  F   UNL     1     -15.871  10.725  -3.912  1.00  0.00    -0.200 F 
ATOM    107  F   UNL     1     -13.889  11.160  -2.090  1.00  0.00    -0.200 F 
ENDBRANCH  74  97
ENDBRANCH  48  49
ENDBRANCH  41  43
ENDBRANCH  40  41
ENDBRANCH  39  40
ENDBRANCH  38  39
ENDBRANCH  37  38
ENDBRANCH  36  37
ENDBRANCH   1  36
TORSDOF 23
