REMARK SMILES C[C@@H]1CCCN(C(=O)NC2(CC(=O)OCCOCCOCCOC(=O)c3ccc(-c4c5nc(c(-c6c(F)c(F)c(F)c(F)c6F)c6ccc([nH]6)c(-c6c(F)c(F)c(F)c(F)c6F)c6nc(c(-c7c(F)c(F)c(F)c(F)c7F)c7ccc4[nH]7)C=C6)C=C5)cc3)CCC2)[C@@H]1C
REMARK SMILES IDX 18 1 17 2 16 3 15 4 14 5 12 6 13 7 11 8 10 9 89 10 91 11
REMARK SMILES IDX 90 12 9 13 7 14 8 15 6 17 1 18 2 19 3 20 92 21 4 22 93 23
REMARK SMILES IDX 5 24 19 25 20 26 21 27 22 28 23 29 24 30 25 31 26 32 27 33
REMARK SMILES IDX 88 34 28 35 87 36 29 37 30 38 31 39 81 40 32 41 86 42 80 43
REMARK SMILES IDX 82 44 33 45 85 46 79 47 78 48 34 50 66 51 46 52 65 53 47 54
REMARK SMILES IDX 50 55 64 56 83 57 48 58 49 59 63 61 84 62 51 63 35 64 36 65
REMARK SMILES IDX 44 66 37 67 38 68 42 69 45 70 39 71 40 72 43 73 41 74 67 75
REMARK SMILES IDX 68 76 76 77 69 78 70 79 74 80 77 81 71 82 72 83 75 84 73 85
REMARK SMILES IDX 52 86 53 87 61 88 54 89 55 90 59 91 62 92 56 93 57 94 60 95
REMARK SMILES IDX 58 96
REMARK H PARENT 9 16 82 49 50 60
REMARK Flexibility Score: inf
ROOT
ATOM      1  C   UNL     1      -3.146   5.771  -1.961  1.00  0.00     0.188 C 
ENDROOT
BRANCH   1   2
ATOM      2  O   UNL     1      -4.215   6.370  -2.691  1.00  0.00    -0.376 OA
BRANCH   2   3
ATOM      3  C   UNL     1      -5.464   6.571  -2.059  1.00  0.00     0.202 C 
BRANCH   3   4
ATOM      4  C   UNL     1      -6.394   5.357  -2.088  1.00  0.00     0.261 C 
BRANCH   4   5
ATOM      5  O   UNL     1      -5.763   4.108  -1.749  1.00  0.00    -0.463 OA
BRANCH   5   6
ATOM      6  C   UNL     1      -5.273   3.396  -2.790  1.00  0.00     0.308 C 
ATOM      7  O   UNL     1      -5.302   3.767  -3.959  1.00  0.00    -0.252 OA
BRANCH   6   8
ATOM      8  C   UNL     1      -4.841   2.000  -2.433  1.00  0.00     0.151 C 
BRANCH   8   9
ATOM      9  C   UNL     1      -4.221   1.608  -1.058  1.00  0.00     0.052 C 
ATOM     10  C   UNL     1      -4.617   0.116  -0.851  1.00  0.00     0.029 C 
ATOM     11  C   UNL     1      -4.997   1.958   0.234  1.00  0.00     0.029 C 
ATOM     12  C   UNL     1      -5.669   0.573   0.176  1.00  0.00     0.005 C 
BRANCH   9  13
ATOM     13  N   UNL     1      -2.748   1.843  -1.072  1.00  0.00    -0.332 N 
ATOM     14  C   UNL     1      -1.613   1.709  -0.349  1.00  0.00     0.318 C 
ATOM     15  O   UNL     1      -0.626   2.084  -0.994  1.00  0.00    -0.249 OA
ATOM     16  H   UNL     1      -2.512   2.250  -1.937  1.00  0.00     0.165 HD
BRANCH  14  17
ATOM     17  N   UNL     1      -1.478   1.242   0.924  1.00  0.00    -0.322 N 
ATOM     18  C   UNL     1       1.173  -0.348   0.052  1.00  0.00     0.010 C 
ATOM     19  C   UNL     1       0.578  -0.117   1.443  1.00  0.00     0.008 C 
ATOM     20  C   UNL     1      -0.362  -1.275   1.848  1.00  0.00     0.007 C 
ATOM     21  C   UNL     1      -0.147   1.251   1.606  1.00  0.00     0.086 C 
ATOM     22  C   UNL     1      -1.776  -1.135   1.280  1.00  0.00     0.022 C 
ATOM     23  C   UNL     1       0.766   2.460   1.385  1.00  0.00     0.031 C 
ATOM     24  C   UNL     1      -2.336   0.260   1.561  1.00  0.00     0.121 C 
ENDBRANCH  14  17
ENDBRANCH   9  13
ENDBRANCH   8   9
ENDBRANCH   6   8
ENDBRANCH   5   6
ENDBRANCH   4   5
ENDBRANCH   3   4
ENDBRANCH   2   3
ENDBRANCH   1   2
BRANCH   1  25
ATOM     25  C   UNL     1      -3.287   5.404  -0.474  1.00  0.00     0.188 C 
BRANCH  25  26
ATOM     26  O   UNL     1      -3.701   6.507   0.327  1.00  0.00    -0.376 OA
BRANCH  26  27
ATOM     27  C   UNL     1      -2.838   6.787   1.424  1.00  0.00     0.202 C 
BRANCH  27  28
ATOM     28  C   UNL     1      -1.758   7.791   1.019  1.00  0.00     0.261 C 
BRANCH  28  29
ATOM     29  O   UNL     1      -0.977   7.351  -0.108  1.00  0.00    -0.460 OA
BRANCH  29  30
ATOM     30  C   UNL     1       0.059   6.536   0.167  1.00  0.00     0.338 C 
ATOM     31  O   UNL     1       0.409   6.129   1.265  1.00  0.00    -0.246 OA
BRANCH  30  32
ATOM     32  C   UNL     1       0.689   6.138  -1.104  1.00  0.00     0.060 A 
ATOM     33  C   UNL     1       0.339   4.917  -1.678  1.00  0.00     0.016 A 
ATOM     34  C   UNL     1       1.676   6.926  -1.689  1.00  0.00     0.016 A 
ATOM     35  C   UNL     1       1.009   4.440  -2.807  1.00  0.00     0.010 A 
ATOM     36  C   UNL     1       2.336   6.461  -2.834  1.00  0.00     0.010 A 
ATOM     37  C   UNL     1       2.033   5.199  -3.382  1.00  0.00    -0.014 A 
BRANCH  37  38
ATOM     38  C   UNL     1       2.891   4.638  -4.461  1.00  0.00     0.031 A 
ATOM     39  C   UNL     1       4.315   4.273  -4.140  1.00  0.00     0.074 A 
ATOM     40  C   UNL     1       2.428   4.450  -5.711  1.00  0.00     0.049 A 
ATOM     41  N   UNL     1       5.306   3.983  -4.945  1.00  0.00    -0.248 NA
ATOM     42  C   UNL     1       4.668   4.237  -2.712  1.00  0.00     0.031 C 
ATOM     43  C   UNL     1       1.052   4.668  -6.148  1.00  0.00     0.029 A 
ATOM     44  N   UNL     1       3.083   4.047  -6.851  1.00  0.00    -0.354 N 
ATOM     45  C   UNL     1       6.407   3.774  -4.125  1.00  0.00     0.074 A 
ATOM     46  C   UNL     1       5.965   3.971  -2.761  1.00  0.00     0.031 C 
ATOM     47  C   UNL     1       0.966   4.410  -7.464  1.00  0.00     0.029 A 
ATOM     48  C   UNL     1       2.294   4.072  -7.975  1.00  0.00     0.049 A 
ATOM     49  H   UNL     1       4.027   3.768  -6.861  1.00  0.00     0.167 HD
ATOM     50  C   UNL     1       7.674   3.450  -4.480  1.00  0.00     0.037 A 
ATOM     51  C   UNL     1       2.615   3.893  -9.272  1.00  0.00     0.037 A 
ATOM     52  C   UNL     1       8.106   3.219  -5.833  1.00  0.00     0.049 A 
ATOM     53  C   UNL     1       4.047   3.614  -9.653  1.00  0.00     0.074 A 
ATOM     54  C   UNL     1       9.368   2.884  -6.293  1.00  0.00     0.029 A 
ATOM     55  N   UNL     1       7.282   3.290  -6.946  1.00  0.00    -0.354 N 
ATOM     56  N   UNL     1       5.098   3.471  -8.883  1.00  0.00    -0.248 NA
ATOM     57  C   UNL     1       4.339   3.490 -11.089  1.00  0.00     0.031 C 
ATOM     58  C   UNL     1       9.317   2.793  -7.688  1.00  0.00     0.029 A 
ATOM     59  C   UNL     1       8.013   3.025  -8.093  1.00  0.00     0.049 A 
ATOM     60  H   UNL     1       6.320   3.498  -6.925  1.00  0.00     0.167 HD
ATOM     61  C   UNL     1       6.167   3.219  -9.735  1.00  0.00     0.074 A 
ATOM     62  C   UNL     1       5.636   3.215 -11.081  1.00  0.00     0.031 C 
ATOM     63  C   UNL     1       7.471   3.012  -9.427  1.00  0.00     0.037 A 
BRANCH  50  64
ATOM     64  C   UNL     1       8.699   3.369  -3.387  1.00  0.00     0.064 A 
ATOM     65  C   UNL     1       8.726   2.309  -2.471  1.00  0.00     0.173 A 
ATOM     66  C   UNL     1       9.687   4.360  -3.276  1.00  0.00     0.173 A 
ATOM     67  F   UNL     1       7.795   1.345  -2.526  1.00  0.00    -0.203 F 
ATOM     68  C   UNL     1       9.691   2.256  -1.468  1.00  0.00     0.198 A 
ATOM     69  C   UNL     1      10.666   4.289  -2.289  1.00  0.00     0.198 A 
ATOM     70  F   UNL     1       9.708   5.394  -4.131  1.00  0.00    -0.203 F 
ATOM     71  F   UNL     1       9.672   1.256  -0.574  1.00  0.00    -0.200 F 
ATOM     72  C   UNL     1      10.663   3.242  -1.382  1.00  0.00     0.200 A 
ATOM     73  F   UNL     1      11.611   5.237  -2.216  1.00  0.00    -0.200 F 
ATOM     74  F   UNL     1      11.593   3.186  -0.419  1.00  0.00    -0.200 F 
ENDBRANCH  50  64
BRANCH  51  75
ATOM     75  C   UNL     1       1.569   4.021 -10.321  1.00  0.00     0.064 A 
ATOM     76  C   UNL     1       1.156   2.911 -11.070  1.00  0.00     0.173 A 
ATOM     77  C   UNL     1       0.983   5.261 -10.616  1.00  0.00     0.173 A 
ATOM     78  F   UNL     1       1.714   1.711 -10.851  1.00  0.00    -0.203 F 
ATOM     79  C   UNL     1       0.204   3.038 -12.080  1.00  0.00     0.198 A 
ATOM     80  C   UNL     1       0.010   5.382 -11.606  1.00  0.00     0.198 A 
ATOM     81  F   UNL     1       1.354   6.358  -9.939  1.00  0.00    -0.203 F 
ATOM     82  F   UNL     1      -0.137   1.970 -12.814  1.00  0.00    -0.200 F 
ATOM     83  C   UNL     1      -0.373   4.272 -12.342  1.00  0.00     0.200 A 
ATOM     84  F   UNL     1      -0.548   6.575 -11.853  1.00  0.00    -0.200 F 
ATOM     85  F   UNL     1      -1.288   4.393 -13.314  1.00  0.00    -0.200 F 
ENDBRANCH  51  75
BRANCH  63  86
ATOM     86  C   UNL     1       8.412   2.725 -10.561  1.00  0.00     0.064 A 
ATOM     87  C   UNL     1       8.826   3.730 -11.447  1.00  0.00     0.173 A 
ATOM     88  C   UNL     1       8.943   1.437 -10.733  1.00  0.00     0.173 A 
ATOM     89  F   UNL     1       8.337   4.973 -11.333  1.00  0.00    -0.203 F 
ATOM     90  C   UNL     1       9.722   3.451 -12.476  1.00  0.00     0.198 A 
ATOM     91  C   UNL     1       9.858   1.168 -11.747  1.00  0.00     0.198 A 
ATOM     92  F   UNL     1       8.584   0.442  -9.908  1.00  0.00    -0.203 F 
ATOM     93  F   UNL     1      10.074   4.417 -13.336  1.00  0.00    -0.200 F 
ATOM     94  C   UNL     1      10.243   2.174 -12.620  1.00  0.00     0.200 A 
ATOM     95  F   UNL     1      10.370  -0.064 -11.877  1.00  0.00    -0.200 F 
ATOM     96  F   UNL     1      11.111   1.910 -13.607  1.00  0.00    -0.200 F 
ENDBRANCH  63  86
ENDBRANCH  37  38
ENDBRANCH  30  32
ENDBRANCH  29  30
ENDBRANCH  28  29
ENDBRANCH  27  28
ENDBRANCH  26  27
ENDBRANCH  25  26
ENDBRANCH   1  25
TORSDOF 20
