REMARK SMILES O=C(C[C@H]1SC[C@@H](C(=O)OCCOCCOCCOC(=O)c2ccc(-c3c4nc(c(-c5c(F)c(F)c(F)c(F)c5F)c5ccc([nH]5)c(-c5c(F)c(F)c(F)c(F)c5F)c5nc(c(-c6c(F)c(F)c(F)c(F)c6F)c6ccc3[nH]6)C=C5)C=C4)cc2)NC1=O)Nc1cccc(Cl)c1
REMARK SMILES IDX 14 1 13 2 12 3 11 4 10 5 8 6 9 7 7 8 4 9 5 10 86 11 6 12
REMARK SMILES IDX 85 13 87 14 3 16 2 17 1 18 88 19 89 21 90 22 95 23 91 24
REMARK SMILES IDX 93 25 92 26 94 27 15 28 16 29 17 30 18 31 19 32 20 33 21 34
REMARK SMILES IDX 22 35 23 36 84 37 24 38 83 39 25 40 26 41 27 42 77 43 28 44
REMARK SMILES IDX 82 45 76 46 78 47 29 48 81 49 75 50 74 51 30 53 62 54 42 55
REMARK SMILES IDX 61 56 43 57 46 58 60 59 79 60 44 61 45 62 59 64 80 65 47 66
REMARK SMILES IDX 31 67 32 68 40 69 33 70 34 71 38 72 41 73 35 74 36 75 39 76
REMARK SMILES IDX 37 77 63 78 64 79 72 80 65 81 66 82 70 83 73 84 67 85 68 86
REMARK SMILES IDX 71 87 69 88 48 89 49 90 57 91 50 92 51 93 55 94 58 95 52 96
REMARK SMILES IDX 53 97 56 98 54 99
REMARK H PARENT 85 15 88 20 78 52 46 63
REMARK Flexibility Score: inf
ROOT
ATOM      1  C   UNL     1       7.361  -1.831   1.603  1.00  0.00     0.188 C 
ENDROOT
BRANCH   1   2
ATOM      2  O   UNL     1       8.267  -2.931   1.577  1.00  0.00    -0.376 OA
BRANCH   2   3
ATOM      3  C   UNL     1       8.970  -3.141   0.353  1.00  0.00     0.202 C 
BRANCH   3   4
ATOM      4  C   UNL     1       8.112  -3.497  -0.871  1.00  0.00     0.261 C 
BRANCH   4   5
ATOM      5  O   UNL     1       7.030  -2.574  -1.157  1.00  0.00    -0.462 OA
BRANCH   5   6
ATOM      6  C   UNL     1       5.791  -3.127  -1.136  1.00  0.00     0.329 C 
ATOM      7  O   UNL     1       5.579  -4.333  -1.008  1.00  0.00    -0.250 OA
BRANCH   6   8
ATOM      8  C   UNL     1       4.614  -2.154  -1.366  1.00  0.00     0.202 C 
ATOM      9  C   UNL     1       3.160  -1.005   1.138  1.00  0.00     0.145 C 
ATOM     10  S   UNL     1       4.513   0.036   0.490  1.00  0.00    -0.145 SA
ATOM     11  C   UNL     1       3.240  -2.459   0.699  1.00  0.00     0.234 C 
ATOM     12  C   UNL     1       4.793  -0.654  -1.175  1.00  0.00     0.107 C 
ATOM     13  N   UNL     1       3.498  -2.731  -0.613  1.00  0.00    -0.341 N 
ATOM     14  O   UNL     1       2.910  -3.394   1.422  1.00  0.00    -0.274 OA
ATOM     15  H   UNL     1       2.897  -3.354  -1.082  1.00  0.00     0.164 HD
BRANCH   9  16
ATOM     16  C   UNL     1       3.173  -0.847   2.670  1.00  0.00     0.124 C 
BRANCH  16  17
ATOM     17  C   UNL     1       2.066  -1.590   3.404  1.00  0.00     0.226 C 
ATOM     18  O   UNL     1       2.322  -2.381   4.305  1.00  0.00    -0.275 OA
ATOM     19  N   UNL     1       0.805  -1.264   2.947  1.00  0.00    -0.326 N 
ATOM     20  H   UNL     1       0.730  -0.497   2.334  1.00  0.00     0.169 HD
BRANCH  19  21
ATOM     21  C   UNL     1      -0.381  -1.937   3.285  1.00  0.00     0.042 A 
ATOM     22  C   UNL     1      -1.373  -1.964   2.298  1.00  0.00     0.026 A 
ATOM     23  C   UNL     1      -0.591  -2.592   4.499  1.00  0.00     0.046 A 
ATOM     24  C   UNL     1      -2.542  -2.696   2.490  1.00  0.00     0.004 A 
ATOM     25  C   UNL     1      -1.784  -3.286   4.699  1.00  0.00     0.043 A 
ATOM     26  C   UNL     1      -2.749  -3.357   3.696  1.00  0.00     0.020 A 
ATOM     27  Cl  UNL     1      -2.099  -4.072   6.192  1.00  0.00    -0.084 Cl
ENDBRANCH  19  21
ENDBRANCH  16  17
ENDBRANCH   9  16
ENDBRANCH   6   8
ENDBRANCH   5   6
ENDBRANCH   4   5
ENDBRANCH   3   4
ENDBRANCH   2   3
ENDBRANCH   1   2
BRANCH   1  28
ATOM     28  C   UNL     1       7.986  -0.478   1.262  1.00  0.00     0.188 C 
BRANCH  28  29
ATOM     29  O   UNL     1       8.669  -0.429   0.023  1.00  0.00    -0.376 OA
BRANCH  29  30
ATOM     30  C   UNL     1       9.506   0.698  -0.231  1.00  0.00     0.202 C 
BRANCH  30  31
ATOM     31  C   UNL     1      10.312   1.379   0.905  1.00  0.00     0.261 C 
BRANCH  31  32
ATOM     32  O   UNL     1       9.642   1.615   2.163  1.00  0.00    -0.460 OA
BRANCH  32  33
ATOM     33  C   UNL     1       8.570   2.444   2.147  1.00  0.00     0.338 C 
ATOM     34  O   UNL     1       8.230   3.147   1.220  1.00  0.00    -0.246 OA
BRANCH  33  35
ATOM     35  C   UNL     1       7.710   2.162   3.340  1.00  0.00     0.060 A 
ATOM     36  C   UNL     1       6.332   2.064   3.115  1.00  0.00     0.016 A 
ATOM     37  C   UNL     1       8.202   1.960   4.635  1.00  0.00     0.016 A 
ATOM     38  C   UNL     1       5.449   1.784   4.163  1.00  0.00     0.010 A 
ATOM     39  C   UNL     1       7.308   1.708   5.697  1.00  0.00     0.010 A 
ATOM     40  C   UNL     1       5.921   1.630   5.471  1.00  0.00    -0.014 A 
BRANCH  40  41
ATOM     41  C   UNL     1       4.932   1.583   6.587  1.00  0.00     0.031 A 
ATOM     42  C   UNL     1       4.522   2.874   7.242  1.00  0.00     0.074 A 
ATOM     43  C   UNL     1       4.316   0.444   6.962  1.00  0.00     0.049 A 
ATOM     44  N   UNL     1       3.686   3.087   8.227  1.00  0.00    -0.248 NA
ATOM     45  C   UNL     1       5.132   4.095   6.695  1.00  0.00     0.031 C 
ATOM     46  C   UNL     1       4.526  -0.863   6.353  1.00  0.00     0.029 A 
ATOM     47  N   UNL     1       3.368   0.214   7.935  1.00  0.00    -0.354 N 
ATOM     48  C   UNL     1       3.684   4.459   8.432  1.00  0.00     0.074 A 
ATOM     49  C   UNL     1       4.602   5.030   7.468  1.00  0.00     0.031 C 
ATOM     50  C   UNL     1       3.725  -1.758   6.958  1.00  0.00     0.029 A 
ATOM     51  C   UNL     1       2.980  -1.103   8.032  1.00  0.00     0.049 A 
ATOM     52  H   UNL     1       3.002   0.925   8.509  1.00  0.00     0.167 HD
ATOM     53  C   UNL     1       2.990   5.181   9.345  1.00  0.00     0.037 A 
ATOM     54  C   UNL     1       2.142  -1.715   8.897  1.00  0.00     0.037 A 
ATOM     55  C   UNL     1       2.081   4.624  10.313  1.00  0.00     0.049 A 
ATOM     56  C   UNL     1       1.459  -0.898   9.973  1.00  0.00     0.074 A 
ATOM     57  C   UNL     1       1.359   5.283  11.294  1.00  0.00     0.029 A 
ATOM     58  N   UNL     1       1.774   3.277  10.431  1.00  0.00    -0.354 N 
ATOM     59  N   UNL     1       1.470   0.399  10.167  1.00  0.00    -0.248 NA
ATOM     60  C   UNL     1       0.653  -1.635  10.960  1.00  0.00     0.031 C 
ATOM     61  C   UNL     1       0.666   4.329  12.046  1.00  0.00     0.029 A 
ATOM     62  C   UNL     1       0.899   3.082  11.490  1.00  0.00     0.049 A 
ATOM     63  H   UNL     1       2.124   2.565   9.849  1.00  0.00     0.167 HD
ATOM     64  C   UNL     1       0.656   0.631  11.271  1.00  0.00     0.074 A 
ATOM     65  C   UNL     1       0.139  -0.654  11.687  1.00  0.00     0.031 C 
ATOM     66  C   UNL     1       0.372   1.803  11.893  1.00  0.00     0.037 A 
BRANCH  53  67
ATOM     67  C   UNL     1       3.248   6.659   9.385  1.00  0.00     0.064 A 
ATOM     68  C   UNL     1       2.802   7.522   8.374  1.00  0.00     0.173 A 
ATOM     69  C   UNL     1       3.949   7.218  10.465  1.00  0.00     0.173 A 
ATOM     70  F   UNL     1       2.145   7.034   7.311  1.00  0.00    -0.203 F 
ATOM     71  C   UNL     1       3.077   8.886   8.427  1.00  0.00     0.198 A 
ATOM     72  C   UNL     1       4.193   8.586  10.531  1.00  0.00     0.198 A 
ATOM     73  F   UNL     1       4.396   6.436  11.460  1.00  0.00    -0.203 F 
ATOM     74  F   UNL     1       2.693   9.684   7.421  1.00  0.00    -0.200 F 
ATOM     75  C   UNL     1       3.766   9.418   9.507  1.00  0.00     0.200 A 
ATOM     76  F   UNL     1       4.847   9.099  11.582  1.00  0.00    -0.200 F 
ATOM     77  F   UNL     1       4.028  10.731   9.556  1.00  0.00    -0.200 F 
ENDBRANCH  53  67
BRANCH  54  78
ATOM     78  C   UNL     1       1.918  -3.191   8.826  1.00  0.00     0.064 A 
ATOM     79  C   UNL     1       0.634  -3.725   8.639  1.00  0.00     0.173 A 
ATOM     80  C   UNL     1       2.966  -4.103   9.026  1.00  0.00     0.173 A 
ATOM     81  F   UNL     1      -0.416  -2.899   8.515  1.00  0.00    -0.203 F 
ATOM     82  C   UNL     1       0.406  -5.102   8.674  1.00  0.00     0.198 A 
ATOM     83  C   UNL     1       2.746  -5.480   9.010  1.00  0.00     0.198 A 
ATOM     84  F   UNL     1       4.209  -3.658   9.262  1.00  0.00    -0.203 F 
ATOM     85  F   UNL     1      -0.843  -5.581   8.604  1.00  0.00    -0.200 F 
ATOM     86  C   UNL     1       1.465  -5.979   8.842  1.00  0.00     0.200 A 
ATOM     87  F   UNL     1       3.772  -6.322   9.193  1.00  0.00    -0.200 F 
ATOM     88  F   UNL     1       1.246  -7.300   8.882  1.00  0.00    -0.200 F 
ENDBRANCH  54  78
BRANCH  66  89
ATOM     89  C   UNL     1      -0.572   1.763  13.065  1.00  0.00     0.064 A 
ATOM     90  C   UNL     1      -0.217   1.162  14.283  1.00  0.00     0.173 A 
ATOM     91  C   UNL     1      -1.838   2.365  12.982  1.00  0.00     0.173 A 
ATOM     92  F   UNL     1       0.976   0.564  14.419  1.00  0.00    -0.203 F 
ATOM     93  C   UNL     1      -1.105   1.134  15.357  1.00  0.00     0.198 A 
ATOM     94  C   UNL     1      -2.708   2.368  14.069  1.00  0.00     0.198 A 
ATOM     95  F   UNL     1      -2.228   2.967  11.848  1.00  0.00    -0.203 F 
ATOM     96  F   UNL     1      -0.764   0.504  16.490  1.00  0.00    -0.200 F 
ATOM     97  C   UNL     1      -2.346   1.743  15.252  1.00  0.00     0.200 A 
ATOM     98  F   UNL     1      -3.899   2.976  13.972  1.00  0.00    -0.200 F 
ATOM     99  F   UNL     1      -3.195   1.723  16.289  1.00  0.00    -0.200 F 
ENDBRANCH  66  89
ENDBRANCH  40  41
ENDBRANCH  33  35
ENDBRANCH  32  33
ENDBRANCH  31  32
ENDBRANCH  30  31
ENDBRANCH  29  30
ENDBRANCH  28  29
ENDBRANCH   1  28
TORSDOF 20
