REMARK SMILES Cc1ccc2nc(CC3(CC(=O)OCCOCCOCCOC(=O)c4ccc(-c5c6nc(c(-c7c(F)c(F)c(F)c(F)c7F)c7ccc([nH]7)c(-c7c(F)c(F)c(F)c(F)c7F)c7nc(c(-c8c(F)c(F)c(F)c(F)c8F)c8ccc5[nH]8)C=C7)C=C6)cc4)CCCCC3)sc2c1
REMARK SMILES IDX 17 1 16 2 15 3 14 4 13 5 11 6 12 7 10 8 9 9 88 10 92 11
REMARK SMILES IDX 89 12 91 13 90 14 8 15 7 16 1 17 2 18 3 19 95 20 4 21 94 22
REMARK SMILES IDX 5 23 93 24 6 25 18 26 19 27 20 28 21 29 22 30 23 31 24 32
REMARK SMILES IDX 25 33 26 34 87 35 27 36 86 37 28 38 29 39 30 40 80 41 31 42
REMARK SMILES IDX 85 43 79 44 81 45 32 46 84 47 78 48 77 49 33 51 65 52 45 53
REMARK SMILES IDX 64 54 46 55 49 56 63 57 82 58 47 59 48 60 62 62 83 63 50 64
REMARK SMILES IDX 34 65 35 66 43 67 36 68 37 69 41 70 44 71 38 72 39 73 42 74
REMARK SMILES IDX 40 75 66 76 67 77 75 78 68 79 69 80 73 81 76 82 70 83 71 84
REMARK SMILES IDX 74 85 72 86 51 87 52 88 60 89 53 90 54 91 58 92 61 93 55 94
REMARK SMILES IDX 56 95 59 96 57 97
REMARK H PARENT 81 50 49 61
REMARK Flexibility Score: inf
ROOT
ATOM      1  C   UNL     1      -6.668  -2.038   2.336  1.00  0.00     0.188 C 
ENDROOT
BRANCH   1   2
ATOM      2  O   UNL     1      -7.394  -3.245   2.537  1.00  0.00    -0.376 OA
BRANCH   2   3
ATOM      3  C   UNL     1      -6.696  -4.452   2.243  1.00  0.00     0.202 C 
BRANCH   3   4
ATOM      4  C   UNL     1      -6.440  -4.741   0.757  1.00  0.00     0.261 C 
BRANCH   4   5
ATOM      5  O   UNL     1      -5.821  -3.656   0.033  1.00  0.00    -0.463 OA
BRANCH   5   6
ATOM      6  C   UNL     1      -6.554  -3.133  -0.978  1.00  0.00     0.306 C 
ATOM      7  O   UNL     1      -7.691  -3.494  -1.270  1.00  0.00    -0.252 OA
BRANCH   6   8
ATOM      8  C   UNL     1      -5.918  -1.952  -1.695  1.00  0.00     0.130 C 
BRANCH   8   9
ATOM      9  C   UNL     1      -4.370  -1.741  -1.816  1.00  0.00    -0.013 C 
ATOM     10  C   UNL     1      -4.108  -0.883  -3.098  1.00  0.00     0.008 C 
ATOM     11  C   UNL     1      -3.586  -3.067  -1.965  1.00  0.00     0.008 C 
ATOM     12  C   UNL     1      -4.357  -1.626  -4.416  1.00  0.00     0.001 C 
ATOM     13  C   UNL     1      -3.937  -3.826  -3.239  1.00  0.00     0.001 C 
ATOM     14  C   UNL     1      -3.642  -2.971  -4.468  1.00  0.00     0.000 C 
BRANCH   9  15
ATOM     15  C   UNL     1      -3.902  -0.919  -0.573  1.00  0.00     0.075 C 
BRANCH  15  16
ATOM     16  C   UNL     1      -2.419  -0.653  -0.474  1.00  0.00     0.094 A 
ATOM     17  C   UNL     1       3.525   1.031   0.030  1.00  0.00     0.044 C 
ATOM     18  C   UNL     1       2.208   0.312  -0.044  1.00  0.00    -0.050 A 
ATOM     19  C   UNL     1       2.155  -1.078   0.087  1.00  0.00     0.006 A 
ATOM     20  C   UNL     1       1.023   1.044  -0.238  1.00  0.00     0.024 A 
ATOM     21  C   UNL     1       0.933  -1.756   0.035  1.00  0.00     0.030 A 
ATOM     22  C   UNL     1      -0.196   0.347  -0.319  1.00  0.00     0.055 A 
ATOM     23  C   UNL     1      -0.260  -1.038  -0.167  1.00  0.00     0.082 A 
ATOM     24  S   UNL     1      -1.786   0.943  -0.616  1.00  0.00    -0.119 S 
ATOM     25  N   UNL     1      -1.527  -1.587  -0.234  1.00  0.00    -0.241 NA
ENDBRANCH  15  16
ENDBRANCH   9  15
ENDBRANCH   8   9
ENDBRANCH   6   8
ENDBRANCH   5   6
ENDBRANCH   4   5
ENDBRANCH   3   4
ENDBRANCH   2   3
ENDBRANCH   1   2
BRANCH   1  26
ATOM     26  C   UNL     1      -5.310  -1.944   3.037  1.00  0.00     0.188 C 
BRANCH  26  27
ATOM     27  O   UNL     1      -4.348  -2.854   2.525  1.00  0.00    -0.376 OA
BRANCH  27  28
ATOM     28  C   UNL     1      -2.996  -2.749   2.979  1.00  0.00     0.202 C 
BRANCH  28  29
ATOM     29  C   UNL     1      -2.664  -2.033   4.303  1.00  0.00     0.261 C 
BRANCH  29  30
ATOM     30  O   UNL     1      -3.274  -0.739   4.467  1.00  0.00    -0.460 OA
BRANCH  30  31
ATOM     31  C   UNL     1      -2.869   0.239   3.625  1.00  0.00     0.338 C 
ATOM     32  O   UNL     1      -1.908   0.211   2.879  1.00  0.00    -0.246 OA
BRANCH  31  33
ATOM     33  C   UNL     1      -3.939   1.270   3.574  1.00  0.00     0.060 A 
ATOM     34  C   UNL     1      -4.363   1.718   2.316  1.00  0.00     0.016 A 
ATOM     35  C   UNL     1      -4.579   1.734   4.725  1.00  0.00     0.016 A 
ATOM     36  C   UNL     1      -5.385   2.662   2.200  1.00  0.00     0.010 A 
ATOM     37  C   UNL     1      -5.596   2.692   4.613  1.00  0.00     0.010 A 
ATOM     38  C   UNL     1      -5.978   3.188   3.352  1.00  0.00    -0.014 A 
BRANCH  38  39
ATOM     39  C   UNL     1      -6.822   4.407   3.255  1.00  0.00     0.031 A 
ATOM     40  C   UNL     1      -6.183   5.732   3.569  1.00  0.00     0.074 A 
ATOM     41  C   UNL     1      -8.110   4.363   2.869  1.00  0.00     0.049 A 
ATOM     42  N   UNL     1      -6.719   6.923   3.646  1.00  0.00    -0.248 NA
ATOM     43  C   UNL     1      -4.735   5.706   3.834  1.00  0.00     0.031 C 
ATOM     44  C   UNL     1      -8.836   3.163   2.466  1.00  0.00     0.029 A 
ATOM     45  N   UNL     1      -9.039   5.372   2.762  1.00  0.00    -0.354 N 
ATOM     46  C   UNL     1      -5.681   7.781   3.987  1.00  0.00     0.074 A 
ATOM     47  C   UNL     1      -4.489   6.973   4.125  1.00  0.00     0.031 C 
ATOM     48  C   UNL     1     -10.105   3.500   2.173  1.00  0.00     0.029 A 
ATOM     49  C   UNL     1     -10.291   4.933   2.406  1.00  0.00     0.049 A 
ATOM     50  H   UNL     1      -8.826   6.319   2.925  1.00  0.00     0.167 HD
ATOM     51  C   UNL     1      -5.715   9.122   4.165  1.00  0.00     0.037 A 
ATOM     52  C   UNL     1     -11.456   5.606   2.313  1.00  0.00     0.037 A 
ATOM     53  C   UNL     1      -6.896   9.931   4.021  1.00  0.00     0.049 A 
ATOM     54  C   UNL     1     -11.489   7.088   2.603  1.00  0.00     0.074 A 
ATOM     55  C   UNL     1      -7.026  11.300   4.170  1.00  0.00     0.029 A 
ATOM     56  N   UNL     1      -8.153   9.442   3.699  1.00  0.00    -0.354 N 
ATOM     57  N   UNL     1     -10.505   7.894   2.924  1.00  0.00    -0.248 NA
ATOM     58  C   UNL     1     -12.798   7.753   2.518  1.00  0.00     0.031 C 
ATOM     59  C   UNL     1      -8.372  11.633   3.997  1.00  0.00     0.029 A 
ATOM     60  C   UNL     1      -9.070  10.481   3.674  1.00  0.00     0.049 A 
ATOM     61  H   UNL     1      -8.363   8.498   3.515  1.00  0.00     0.167 HD
ATOM     62  C   UNL     1     -11.069   9.159   3.046  1.00  0.00     0.074 A 
ATOM     63  C   UNL     1     -12.479   9.018   2.755  1.00  0.00     0.031 C 
ATOM     64  C   UNL     1     -10.471  10.333   3.369  1.00  0.00     0.037 A 
BRANCH  51  65
ATOM     65  C   UNL     1      -4.440   9.795   4.581  1.00  0.00     0.064 A 
ATOM     66  C   UNL     1      -3.354   9.934   3.704  1.00  0.00     0.173 A 
ATOM     67  C   UNL     1      -4.314  10.327   5.873  1.00  0.00     0.173 A 
ATOM     68  F   UNL     1      -3.417   9.425   2.465  1.00  0.00    -0.203 F 
ATOM     69  C   UNL     1      -2.178  10.556   4.116  1.00  0.00     0.198 A 
ATOM     70  C   UNL     1      -3.150  10.978   6.270  1.00  0.00     0.198 A 
ATOM     71  F   UNL     1      -5.324  10.222   6.750  1.00  0.00    -0.203 F 
ATOM     72  F   UNL     1      -1.133  10.630   3.280  1.00  0.00    -0.200 F 
ATOM     73  C   UNL     1      -2.080  11.085   5.394  1.00  0.00     0.200 A 
ATOM     74  F   UNL     1      -3.062  11.499   7.502  1.00  0.00    -0.200 F 
ATOM     75  F   UNL     1      -0.950  11.689   5.787  1.00  0.00    -0.200 F 
ENDBRANCH  51  65
BRANCH  52  76
ATOM     76  C   UNL     1     -12.709   4.884   1.960  1.00  0.00     0.064 A 
ATOM     77  C   UNL     1     -13.381   5.139   0.756  1.00  0.00     0.173 A 
ATOM     78  C   UNL     1     -13.283   3.953   2.840  1.00  0.00     0.173 A 
ATOM     79  F   UNL     1     -12.893   6.045  -0.103  1.00  0.00    -0.203 F 
ATOM     80  C   UNL     1     -14.586   4.506   0.455  1.00  0.00     0.198 A 
ATOM     81  C   UNL     1     -14.471   3.298   2.524  1.00  0.00     0.198 A 
ATOM     82  F   UNL     1     -12.688   3.681   4.011  1.00  0.00    -0.203 F 
ATOM     83  F   UNL     1     -15.235   4.811  -0.677  1.00  0.00    -0.200 F 
ATOM     84  C   UNL     1     -15.126   3.581   1.336  1.00  0.00     0.200 A 
ATOM     85  F   UNL     1     -14.986   2.401   3.376  1.00  0.00    -0.200 F 
ATOM     86  F   UNL     1     -16.285   2.974   1.046  1.00  0.00    -0.200 F 
ENDBRANCH  52  76
BRANCH  64  87
ATOM     87  C   UNL     1     -11.320  11.573   3.377  1.00  0.00     0.064 A 
ATOM     88  C   UNL     1     -12.286  11.804   4.369  1.00  0.00     0.173 A 
ATOM     89  C   UNL     1     -11.126  12.570   2.408  1.00  0.00     0.173 A 
ATOM     90  F   UNL     1     -12.519  10.879   5.312  1.00  0.00    -0.203 F 
ATOM     91  C   UNL     1     -13.041  12.975   4.374  1.00  0.00     0.198 A 
ATOM     92  C   UNL     1     -11.860  13.753   2.436  1.00  0.00     0.198 A 
ATOM     93  F   UNL     1     -10.209  12.406   1.443  1.00  0.00    -0.203 F 
ATOM     94  F   UNL     1     -13.990  13.153   5.304  1.00  0.00    -0.200 F 
ATOM     95  C   UNL     1     -12.822  13.951   3.414  1.00  0.00     0.200 A 
ATOM     96  F   UNL     1     -11.634  14.703   1.518  1.00  0.00    -0.200 F 
ATOM     97  F   UNL     1     -13.543  15.081   3.428  1.00  0.00    -0.200 F 
ENDBRANCH  64  87
ENDBRANCH  38  39
ENDBRANCH  31  33
ENDBRANCH  30  31
ENDBRANCH  29  30
ENDBRANCH  28  29
ENDBRANCH  27  28
ENDBRANCH  26  27
ENDBRANCH   1  26
TORSDOF 20
