REMARK SMILES O=C(CSc1cccs1)N[C@H]1CCCCC[C@H]1C(=O)OCCOCCOCCOC(=O)c1ccc(-c2c3nc(c(-c4c(F)c(F)c(F)c(F)c4F)c4ccc([nH]4)c(-c4c(F)c(F)c(F)c(F)c4F)c4nc(c(-c5c(F)c(F)c(F)c(F)c5F)c5ccc2[nH]5)C=C4)C=C3)cc1
REMARK SMILES IDX 23 1 22 2 21 3 20 4 18 5 19 6 17 7 11 8 10 10 1 11 2 12 3 14
REMARK SMILES IDX 4 15 5 16 6 17 9 18 7 19 8 20 16 21 15 22 14 23 13 24 12 25
REMARK SMILES IDX 24 27 25 28 26 29 27 30 28 31 29 32 30 33 31 34 32 35 33 36
REMARK SMILES IDX 94 37 34 38 93 39 35 40 36 41 37 42 87 43 38 44 92 45 86 46
REMARK SMILES IDX 88 47 39 48 91 49 85 50 84 51 40 53 72 54 52 55 71 56 53 57
REMARK SMILES IDX 56 58 70 59 89 60 54 61 55 62 69 64 90 65 57 66 41 67 42 68
REMARK SMILES IDX 50 69 43 70 44 71 48 72 51 73 45 74 46 75 49 76 47 77 73 78
REMARK SMILES IDX 74 79 82 80 75 81 76 82 80 83 83 84 77 85 78 86 81 87 79 88
REMARK SMILES IDX 58 89 59 90 67 91 60 92 61 93 65 94 68 95 62 96 63 97 66 98
REMARK SMILES IDX 64 99
REMARK H PARENT 10 13 88 52 56 63
REMARK Flexibility Score: 100.00
ROOT
ATOM      1  O   UNL     1       1.563   0.213  -7.453  1.00  0.00    -0.376 OA
ENDROOT
BRANCH   1   2
ATOM      2  C   UNL     1       0.136   0.240  -7.419  1.00  0.00     0.202 C 
BRANCH   2   3
ATOM      3  C   UNL     1      -0.506  -0.742  -6.429  1.00  0.00     0.261 C 
BRANCH   3   4
ATOM      4  O   UNL     1      -0.133  -0.467  -5.059  1.00  0.00    -0.463 OA
BRANCH   4   5
ATOM      5  C   UNL     1       0.067  -1.555  -4.268  1.00  0.00     0.311 C 
ATOM      6  O   UNL     1      -0.005  -2.711  -4.672  1.00  0.00    -0.252 OA
BRANCH   5   7
ATOM      7  C   UNL     1       0.216  -1.226  -2.783  1.00  0.00     0.121 C 
BRANCH   7   8
ATOM      8  C   UNL     1       1.162  -0.104  -2.323  1.00  0.00     0.096 CG0
ATOM      9  G   UNL     1       0.582   1.302  -2.080  1.00  0.00     0.000 G0
BRANCH   8  10
ATOM     10  N   UNL     1       2.416  -0.044  -3.055  1.00  0.00    -0.352 N 
ATOM     11  O   UNL     1       3.120  -2.139  -2.415  1.00  0.00    -0.274 OA
ATOM     12  C   UNL     1       3.330  -1.086  -3.005  1.00  0.00     0.230 C 
ATOM     13  H   UNL     1       2.621   0.752  -3.597  1.00  0.00     0.163 HD
BRANCH  12  14
ATOM     14  C   UNL     1       4.649  -0.758  -3.623  1.00  0.00     0.175 C 
BRANCH  14  15
ATOM     15  S   UNL     1       5.149  -1.601  -5.094  1.00  0.00    -0.105 SA
BRANCH  15  16
ATOM     16  C   UNL     1       3.989  -2.599  -5.892  1.00  0.00     0.060 A 
ATOM     17  C   UNL     1       3.833  -2.568  -7.265  1.00  0.00     0.027 A 
ATOM     18  S   UNL     1       3.204  -3.946  -5.209  1.00  0.00    -0.137 S 
ATOM     19  C   UNL     1       3.108  -3.686  -7.763  1.00  0.00     0.013 A 
ATOM     20  C   UNL     1       2.705  -4.518  -6.745  1.00  0.00     0.066 A 
ENDBRANCH  15  16
ENDBRANCH  14  15
ENDBRANCH  12  14
ENDBRANCH   8  10
ENDBRANCH   7   8
BRANCH   7  21
ATOM     21  C   UNL     1      -1.144  -1.174  -2.087  1.00  0.00     0.017 C 
BRANCH  21  22
ATOM     22  C   UNL     1      -2.173  -0.244  -2.719  1.00  0.00     0.001 C 
BRANCH  22  23
ATOM     23  C   UNL     1      -1.909   1.256  -2.634  1.00  0.00     0.000 C 
BRANCH  23  24
ATOM     24  C   UNL     1      -0.524   1.778  -3.008  1.00  0.00     0.002 C 
BRANCH  24  25
ATOM     25  C   UNL     1       0.582   1.302  -2.080  1.00  0.00     0.026 CG0
ATOM     26  G   UNL     1       1.162  -0.104  -2.323  1.00  0.00     0.000 G0
ENDBRANCH  24  25
ENDBRANCH  23  24
ENDBRANCH  22  23
ENDBRANCH  21  22
ENDBRANCH   7  21
ENDBRANCH   5   7
ENDBRANCH   4   5
ENDBRANCH   3   4
ENDBRANCH   2   3
ENDBRANCH   1   2
BRANCH   1  27
ATOM     27  C   UNL     1       2.147   0.702  -6.246  1.00  0.00     0.188 C 
BRANCH  27  28
ATOM     28  C   UNL     1       3.520   1.291  -6.523  1.00  0.00     0.188 C 
BRANCH  28  29
ATOM     29  O   UNL     1       3.382   2.586  -7.103  1.00  0.00    -0.376 OA
BRANCH  29  30
ATOM     30  C   UNL     1       4.460   2.910  -7.986  1.00  0.00     0.202 C 
BRANCH  30  31
ATOM     31  C   UNL     1       5.818   3.047  -7.284  1.00  0.00     0.261 C 
BRANCH  31  32
ATOM     32  O   UNL     1       6.410   1.757  -6.994  1.00  0.00    -0.460 OA
BRANCH  32  33
ATOM     33  C   UNL     1       7.320   1.778  -5.985  1.00  0.00     0.338 C 
ATOM     34  O   UNL     1       7.649   2.763  -5.338  1.00  0.00    -0.246 OA
BRANCH  33  35
ATOM     35  C   UNL     1       7.799   0.415  -5.638  1.00  0.00     0.060 A 
ATOM     36  C   UNL     1       7.954   0.115  -4.277  1.00  0.00     0.016 A 
ATOM     37  C   UNL     1       8.072  -0.572  -6.594  1.00  0.00     0.016 A 
ATOM     38  C   UNL     1       8.315  -1.177  -3.872  1.00  0.00     0.010 A 
ATOM     39  C   UNL     1       8.482  -1.859  -6.186  1.00  0.00     0.010 A 
ATOM     40  C   UNL     1       8.594  -2.179  -4.820  1.00  0.00    -0.014 A 
BRANCH  40  41
ATOM     41  C   UNL     1       9.187  -3.469  -4.352  1.00  0.00     0.031 A 
ATOM     42  C   UNL     1      10.597  -3.426  -3.832  1.00  0.00     0.074 A 
ATOM     43  C   UNL     1       8.514  -4.637  -4.303  1.00  0.00     0.049 A 
ATOM     44  N   UNL     1      11.310  -4.366  -3.267  1.00  0.00    -0.248 NA
ATOM     45  C   UNL     1      11.285  -2.129  -3.940  1.00  0.00     0.031 C 
ATOM     46  C   UNL     1       7.127  -4.837  -4.698  1.00  0.00     0.029 A 
ATOM     47  N   UNL     1       8.911  -5.886  -3.873  1.00  0.00    -0.354 N 
ATOM     48  C   UNL     1      12.503  -3.760  -2.905  1.00  0.00     0.074 A 
ATOM     49  C   UNL     1      12.427  -2.377  -3.322  1.00  0.00     0.031 C 
ATOM     50  C   UNL     1       6.777  -6.118  -4.481  1.00  0.00     0.029 A 
ATOM     51  C   UNL     1       7.933  -6.851  -3.972  1.00  0.00     0.049 A 
ATOM     52  H   UNL     1       9.814  -6.072  -3.527  1.00  0.00     0.167 HD
ATOM     53  C   UNL     1      13.584  -4.302  -2.300  1.00  0.00     0.037 A 
ATOM     54  C   UNL     1       7.971  -8.174  -3.705  1.00  0.00     0.037 A 
ATOM     55  C   UNL     1      13.737  -5.696  -2.001  1.00  0.00     0.049 A 
ATOM     56  C   UNL     1       9.255  -8.790  -3.201  1.00  0.00     0.074 A 
ATOM     57  C   UNL     1      14.845  -6.353  -1.500  1.00  0.00     0.029 A 
ATOM     58  N   UNL     1      12.761  -6.656  -2.217  1.00  0.00    -0.354 N 
ATOM     59  N   UNL     1      10.376  -8.206  -2.855  1.00  0.00    -0.248 NA
ATOM     60  C   UNL     1       9.284 -10.257  -3.066  1.00  0.00     0.031 C 
ATOM     61  C   UNL     1      14.560  -7.723  -1.467  1.00  0.00     0.029 A 
ATOM     62  C   UNL     1      13.255  -7.909  -1.895  1.00  0.00     0.049 A 
ATOM     63  H   UNL     1      11.853  -6.475  -2.551  1.00  0.00     0.167 HD
ATOM     64  C   UNL     1      11.229  -9.223  -2.444  1.00  0.00     0.074 A 
ATOM     65  C   UNL     1      10.494 -10.463  -2.564  1.00  0.00     0.031 C 
ATOM     66  C   UNL     1      12.511  -9.136  -2.010  1.00  0.00     0.037 A 
BRANCH  53  67
ATOM     67  C   UNL     1      14.715  -3.365  -2.024  1.00  0.00     0.064 A 
ATOM     68  C   UNL     1      14.651  -2.437  -0.974  1.00  0.00     0.173 A 
ATOM     69  C   UNL     1      15.832  -3.338  -2.868  1.00  0.00     0.173 A 
ATOM     70  F   UNL     1      13.581  -2.403  -0.165  1.00  0.00    -0.203 F 
ATOM     71  C   UNL     1      15.657  -1.491  -0.800  1.00  0.00     0.198 A 
ATOM     72  C   UNL     1      16.845  -2.404  -2.679  1.00  0.00     0.198 A 
ATOM     73  F   UNL     1      15.923  -4.195  -3.896  1.00  0.00    -0.203 F 
ATOM     74  F   UNL     1      15.549  -0.571   0.168  1.00  0.00    -0.200 F 
ATOM     75  C   UNL     1      16.751  -1.476  -1.652  1.00  0.00     0.200 A 
ATOM     76  F   UNL     1      17.897  -2.383  -3.508  1.00  0.00    -0.200 F 
ATOM     77  F   UNL     1      17.707  -0.549  -1.498  1.00  0.00    -0.200 F 
ENDBRANCH  53  67
BRANCH  54  78
ATOM     78  C   UNL     1       6.784  -9.045  -3.954  1.00  0.00     0.064 A 
ATOM     79  C   UNL     1       6.146  -9.723  -2.904  1.00  0.00     0.173 A 
ATOM     80  C   UNL     1       6.325  -9.293  -5.256  1.00  0.00     0.173 A 
ATOM     81  F   UNL     1       6.573  -9.561  -1.643  1.00  0.00    -0.203 F 
ATOM     82  C   UNL     1       5.115 -10.632  -3.150  1.00  0.00     0.198 A 
ATOM     83  C   UNL     1       5.276 -10.179  -5.498  1.00  0.00     0.198 A 
ATOM     84  F   UNL     1       6.914  -8.695  -6.302  1.00  0.00    -0.203 F 
ATOM     85  F   UNL     1       4.574 -11.321  -2.135  1.00  0.00    -0.200 F 
ATOM     86  C   UNL     1       4.679 -10.857  -4.447  1.00  0.00     0.200 A 
ATOM     87  F   UNL     1       4.862 -10.398  -6.754  1.00  0.00    -0.200 F 
ATOM     88  F   UNL     1       3.704 -11.745  -4.685  1.00  0.00    -0.200 F 
ENDBRANCH  54  78
BRANCH  66  89
ATOM     89  C   UNL     1      13.201 -10.407  -1.610  1.00  0.00     0.064 A 
ATOM     90  C   UNL     1      13.627 -11.345  -2.562  1.00  0.00     0.173 A 
ATOM     91  C   UNL     1      13.504 -10.654  -0.262  1.00  0.00     0.173 A 
ATOM     92  F   UNL     1      13.352 -11.161  -3.861  1.00  0.00    -0.203 F 
ATOM     93  C   UNL     1      14.318 -12.491  -2.177  1.00  0.00     0.198 A 
ATOM     94  C   UNL     1      14.218 -11.787   0.116  1.00  0.00     0.198 A 
ATOM     95  F   UNL     1      13.125  -9.784   0.687  1.00  0.00    -0.203 F 
ATOM     96  F   UNL     1      14.688 -13.390  -3.099  1.00  0.00    -0.200 F 
ATOM     97  C   UNL     1      14.621 -12.707  -0.840  1.00  0.00     0.200 A 
ATOM     98  F   UNL     1      14.523 -11.986   1.406  1.00  0.00    -0.200 F 
ATOM     99  F   UNL     1      15.300 -13.802  -0.474  1.00  0.00    -0.200 F 
ENDBRANCH  66  89
ENDBRANCH  40  41
ENDBRANCH  33  35
ENDBRANCH  32  33
ENDBRANCH  31  32
ENDBRANCH  30  31
ENDBRANCH  29  30
ENDBRANCH  28  29
ENDBRANCH  27  28
ENDBRANCH   1  27
TORSDOF 21
