REMARK SMILES CC[C@@H](C(=O)OCCOCCOCCOC(=O)c1ccc(-c2c3nc(c(-c4c(F)c(F)c(F)c(F)c4F)c4ccc([nH]4)c(-c4c(F)c(F)c(F)c(F)c4F)c4nc(c(-c5c(F)c(F)c(F)c(F)c5F)c5ccc2[nH]5)C=C4)C=C3)cc1)N1C(=O)/C(=C/c2ccccc2[N+](=O)[O-])SC1=S
REMARK SMILES IDX 10 1 9 2 8 3 7 4 6 5 4 6 5 7 3 8 2 9 1 10 81 11 82 12 96 13
REMARK SMILES IDX 83 14 84 15 95 16 97 17 85 18 86 19 87 20 91 21 88 22 90 23
REMARK SMILES IDX 89 24 92 25 93 26 94 27 11 28 12 29 13 30 14 31 15 32 16 33
REMARK SMILES IDX 17 34 18 35 19 36 80 37 20 38 79 39 21 40 22 41 23 42 73 43
REMARK SMILES IDX 24 44 78 45 72 46 74 47 25 48 77 49 71 50 70 51 26 53 58 54
REMARK SMILES IDX 38 55 57 56 39 57 42 58 56 59 75 60 40 61 41 62 55 64 76 65
REMARK SMILES IDX 43 66 27 67 28 68 36 69 29 70 30 71 34 72 37 73 31 74 32 75
REMARK SMILES IDX 35 76 33 77 59 78 60 79 68 80 61 81 62 82 66 83 69 84 63 85
REMARK SMILES IDX 64 86 67 87 65 88 44 89 45 90 53 91 46 92 47 93 51 94 54 95
REMARK SMILES IDX 48 96 49 97 52 98 50 99
REMARK H PARENT 74 52 42 63
REMARK Flexibility Score: inf
ROOT
ATOM      1  C   UNL     1      -1.623  -1.968   3.084  1.00  0.00     0.188 C 
ENDROOT
BRANCH   1   2
ATOM      2  O   UNL     1      -1.390  -1.512   4.410  1.00  0.00    -0.376 OA
BRANCH   2   3
ATOM      3  C   UNL     1      -0.428  -0.491   4.651  1.00  0.00     0.202 C 
BRANCH   3   4
ATOM      4  C   UNL     1       1.016  -0.700   4.169  1.00  0.00     0.261 C 
BRANCH   4   5
ATOM      5  O   UNL     1       1.192  -0.906   2.748  1.00  0.00    -0.462 OA
BRANCH   5   6
ATOM      6  C   UNL     1       1.606  -2.145   2.379  1.00  0.00     0.329 C 
ATOM      7  O   UNL     1       1.727  -3.063   3.186  1.00  0.00    -0.250 OA
BRANCH   6   8
ATOM      8  C   UNL     1       1.903  -2.328   0.859  1.00  0.00     0.201 C 
BRANCH   8   9
ATOM      9  C   UNL     1       1.587  -1.171  -0.109  1.00  0.00     0.034 C 
ATOM     10  C   UNL     1       2.237   0.175   0.165  1.00  0.00     0.007 C 
ENDBRANCH   8   9
BRANCH   8  11
ATOM     11  N   UNL     1       1.283  -3.657   0.505  1.00  0.00    -0.278 N 
ATOM     12  C   UNL     1       1.935  -4.794   0.986  1.00  0.00     0.267 C 
ATOM     13  C   UNL     1       0.128  -3.934  -0.198  1.00  0.00     0.149 C 
ATOM     14  O   UNL     1       3.069  -4.838   1.443  1.00  0.00    -0.268 OA
ATOM     15  C   UNL     1       1.094  -6.005   0.786  1.00  0.00     0.081 C 
ATOM     16  S   UNL     1      -0.445  -5.550   0.201  1.00  0.00    -0.054 SA
ATOM     17  S   UNL     1      -0.690  -3.063  -1.358  1.00  0.00    -0.052 S 
ATOM     18  C   UNL     1       1.571  -7.247   0.942  1.00  0.00     0.036 C 
BRANCH  18  19
ATOM     19  C   UNL     1       0.897  -8.489   0.524  1.00  0.00     0.054 A 
ATOM     20  C   UNL     1       0.694  -9.462   1.512  1.00  0.00     0.015 A 
ATOM     21  C   UNL     1       0.504  -8.802  -0.797  1.00  0.00     0.276 A 
ATOM     22  C   UNL     1       0.120 -10.694   1.189  1.00  0.00     0.001 A 
ATOM     23  C   UNL     1      -0.125 -10.018  -1.107  1.00  0.00     0.086 A 
ATOM     24  C   UNL     1      -0.314 -10.965  -0.107  1.00  0.00     0.007 A 
BRANCH  21  25
ATOM     25  N   UNL     1       0.792  -7.907  -1.918  1.00  0.00     0.063 N 
ATOM     26  O   UNL     1      -0.069  -7.812  -2.804  1.00  0.00    -0.258 OA
ATOM     27  O   UNL     1       1.882  -7.318  -1.928  1.00  0.00    -0.258 OA
ENDBRANCH  21  25
ENDBRANCH  18  19
ENDBRANCH   8  11
ENDBRANCH   6   8
ENDBRANCH   5   6
ENDBRANCH   4   5
ENDBRANCH   3   4
ENDBRANCH   2   3
ENDBRANCH   1   2
BRANCH   1  28
ATOM     28  C   UNL     1      -1.609  -0.965   1.921  1.00  0.00     0.188 C 
BRANCH  28  29
ATOM     29  O   UNL     1      -1.498   0.383   2.316  1.00  0.00    -0.376 OA
BRANCH  29  30
ATOM     30  C   UNL     1      -2.566   1.253   1.984  1.00  0.00     0.202 C 
BRANCH  30  31
ATOM     31  C   UNL     1      -3.961   0.908   2.532  1.00  0.00     0.261 C 
BRANCH  31  32
ATOM     32  O   UNL     1      -4.392  -0.454   2.349  1.00  0.00    -0.460 OA
BRANCH  32  33
ATOM     33  C   UNL     1      -4.831  -0.803   1.124  1.00  0.00     0.338 C 
ATOM     34  O   UNL     1      -4.912  -0.076   0.135  1.00  0.00    -0.246 OA
BRANCH  33  35
ATOM     35  C   UNL     1      -4.992  -2.271   1.094  1.00  0.00     0.060 A 
ATOM     36  C   UNL     1      -4.165  -3.018   0.247  1.00  0.00     0.016 A 
ATOM     37  C   UNL     1      -5.940  -2.916   1.889  1.00  0.00     0.016 A 
ATOM     38  C   UNL     1      -4.273  -4.408   0.193  1.00  0.00     0.010 A 
ATOM     39  C   UNL     1      -6.076  -4.308   1.806  1.00  0.00     0.010 A 
ATOM     40  C   UNL     1      -5.254  -5.061   0.946  1.00  0.00    -0.014 A 
BRANCH  40  41
ATOM     41  C   UNL     1      -5.568  -6.486   0.664  1.00  0.00     0.031 A 
ATOM     42  C   UNL     1      -6.667  -6.780  -0.321  1.00  0.00     0.074 A 
ATOM     43  C   UNL     1      -4.888  -7.497   1.235  1.00  0.00     0.049 A 
ATOM     44  N   UNL     1      -7.209  -7.924  -0.651  1.00  0.00    -0.248 NA
ATOM     45  C   UNL     1      -7.224  -5.620  -1.035  1.00  0.00     0.031 C 
ATOM     46  C   UNL     1      -3.742  -7.351   2.127  1.00  0.00     0.029 A 
ATOM     47  N   UNL     1      -5.078  -8.858   1.151  1.00  0.00    -0.354 N 
ATOM     48  C   UNL     1      -8.177  -7.619  -1.599  1.00  0.00     0.074 A 
ATOM     49  C   UNL     1      -8.160  -6.184  -1.782  1.00  0.00     0.031 C 
ATOM     50  C   UNL     1      -3.345  -8.573   2.530  1.00  0.00     0.029 A 
ATOM     51  C   UNL     1      -4.241  -9.583   1.966  1.00  0.00     0.049 A 
ATOM     52  H   UNL     1      -5.749  -9.273   0.563  1.00  0.00     0.167 HD
ATOM     53  C   UNL     1      -9.007  -8.460  -2.259  1.00  0.00     0.037 A 
ATOM     54  C   UNL     1      -4.234 -10.903   2.251  1.00  0.00     0.037 A 
ATOM     55  C   UNL     1      -9.025  -9.886  -2.078  1.00  0.00     0.049 A 
ATOM     56  C   UNL     1      -5.248 -11.804   1.580  1.00  0.00     0.074 A 
ATOM     57  C   UNL     1      -9.844 -10.824  -2.682  1.00  0.00     0.029 A 
ATOM     58  N   UNL     1      -8.181 -10.580  -1.225  1.00  0.00    -0.354 N 
ATOM     59  N   UNL     1      -6.150 -11.514   0.673  1.00  0.00    -0.248 NA
ATOM     60  C   UNL     1      -5.239 -13.223   1.971  1.00  0.00     0.031 C 
ATOM     61  C   UNL     1      -9.529 -12.081  -2.157  1.00  0.00     0.029 A 
ATOM     62  C   UNL     1      -8.476 -11.933  -1.269  1.00  0.00     0.049 A 
ATOM     63  H   UNL     1      -7.478 -10.173  -0.670  1.00  0.00     0.167 HD
ATOM     64  C   UNL     1      -6.777 -12.713   0.356  1.00  0.00     0.074 A 
ATOM     65  C   UNL     1      -6.138 -13.741   1.148  1.00  0.00     0.031 C 
ATOM     66  C   UNL     1      -7.796 -12.947  -0.507  1.00  0.00     0.037 A 
BRANCH  53  67
ATOM     67  C   UNL     1      -9.998  -7.852  -3.207  1.00  0.00     0.064 A 
ATOM     68  C   UNL     1      -9.605  -7.309  -4.439  1.00  0.00     0.173 A 
ATOM     69  C   UNL     1     -11.363  -7.838  -2.886  1.00  0.00     0.173 A 
ATOM     70  F   UNL     1      -8.309  -7.282  -4.783  1.00  0.00    -0.203 F 
ATOM     71  C   UNL     1     -10.543  -6.755  -5.307  1.00  0.00     0.198 A 
ATOM     72  C   UNL     1     -12.301  -7.310  -3.769  1.00  0.00     0.198 A 
ATOM     73  F   UNL     1     -11.790  -8.345  -1.720  1.00  0.00    -0.203 F 
ATOM     74  F   UNL     1     -10.142  -6.201  -6.460  1.00  0.00    -0.200 F 
ATOM     75  C   UNL     1     -11.890  -6.763  -4.975  1.00  0.00     0.200 A 
ATOM     76  F   UNL     1     -13.603  -7.329  -3.451  1.00  0.00    -0.200 F 
ATOM     77  F   UNL     1     -12.792  -6.237  -5.815  1.00  0.00    -0.200 F 
ENDBRANCH  53  67
BRANCH  54  78
ATOM     78  C   UNL     1      -3.267 -11.473   3.234  1.00  0.00     0.064 A 
ATOM     79  C   UNL     1      -2.353 -12.468   2.856  1.00  0.00     0.173 A 
ATOM     80  C   UNL     1      -3.268 -11.087   4.582  1.00  0.00     0.173 A 
ATOM     81  F   UNL     1      -2.316 -12.898   1.586  1.00  0.00    -0.203 F 
ATOM     82  C   UNL     1      -1.487 -13.053   3.780  1.00  0.00     0.198 A 
ATOM     83  C   UNL     1      -2.381 -11.649   5.500  1.00  0.00     0.198 A 
ATOM     84  F   UNL     1      -4.136 -10.161   5.016  1.00  0.00    -0.203 F 
ATOM     85  F   UNL     1      -0.644 -14.015   3.383  1.00  0.00    -0.200 F 
ATOM     86  C   UNL     1      -1.494 -12.636   5.100  1.00  0.00     0.200 A 
ATOM     87  F   UNL     1      -2.389 -11.237   6.775  1.00  0.00    -0.200 F 
ATOM     88  F   UNL     1      -0.651 -13.187   5.983  1.00  0.00    -0.200 F 
ENDBRANCH  54  78
BRANCH  66  89
ATOM     89  C   UNL     1      -8.237 -14.371  -0.694  1.00  0.00     0.064 A 
ATOM     90  C   UNL     1      -8.924 -15.073   0.307  1.00  0.00     0.173 A 
ATOM     91  C   UNL     1      -8.004 -15.028  -1.913  1.00  0.00     0.173 A 
ATOM     92  F   UNL     1      -9.158 -14.497   1.496  1.00  0.00    -0.203 F 
ATOM     93  C   UNL     1      -9.335 -16.388   0.106  1.00  0.00     0.198 A 
ATOM     94  C   UNL     1      -8.447 -16.331  -2.123  1.00  0.00     0.198 A 
ATOM     95  F   UNL     1      -7.359 -14.400  -2.908  1.00  0.00    -0.203 F 
ATOM     96  F   UNL     1      -9.941 -17.057   1.097  1.00  0.00    -0.200 F 
ATOM     97  C   UNL     1      -9.104 -17.013  -1.111  1.00  0.00     0.200 A 
ATOM     98  F   UNL     1      -8.237 -16.926  -3.305  1.00  0.00    -0.200 F 
ATOM     99  F   UNL     1      -9.508 -18.276  -1.305  1.00  0.00    -0.200 F 
ENDBRANCH  66  89
ENDBRANCH  40  41
ENDBRANCH  33  35
ENDBRANCH  32  33
ENDBRANCH  31  32
ENDBRANCH  30  31
ENDBRANCH  29  30
ENDBRANCH  28  29
ENDBRANCH   1  28
TORSDOF 21
