REMARK SMILES Cc1nc(-c2ccc(S(=O)(=O)N3CC[NH2+][C@H](C(=O)OCCOCCOCCOC(=O)c4ccc(-c5c6nc(c(-c7c(F)c(F)c(F)c(F)c7F)c7ccc([nH]7)c(-c7c(F)c(F)c(F)c(F)c7F)c7nc(c(-c8c(F)c(F)c(F)c(F)c8F)c8ccc5[nH]8)C=C7)C=C6)cc4)C3)s2)cs1
REMARK SMILES IDX 23 1 22 2 21 3 20 4 19 5 17 6 18 7 16 8 12 9 13 10 94 11
REMARK SMILES IDX 14 12 15 13 9 16 10 17 11 18 8 19 5 20 6 21 95 22 7 23 4 24
REMARK SMILES IDX 1 25 2 26 3 27 97 28 96 29 24 30 25 31 26 32 27 33 28 34
REMARK SMILES IDX 29 35 30 36 31 37 32 38 93 39 33 40 92 41 34 42 35 43 36 44
REMARK SMILES IDX 86 45 37 46 91 47 85 48 87 49 38 50 90 51 84 52 83 53 39 55
REMARK SMILES IDX 71 56 51 57 70 58 52 59 55 60 69 61 88 62 53 63 54 64 68 66
REMARK SMILES IDX 89 67 56 68 40 69 41 70 49 71 42 72 43 73 47 74 50 75 44 76
REMARK SMILES IDX 45 77 48 78 46 79 72 80 73 81 81 82 74 83 75 84 79 85 82 86
REMARK SMILES IDX 76 87 77 88 80 89 78 90 57 91 58 92 66 93 59 94 60 95 64 96
REMARK SMILES IDX 67 97 61 98 62 99 65 100 63 101
REMARK H PARENT 15 14 15 15 87 54 55 65
REMARK Flexibility Score: inf
ROOT
ATOM      1  C   UNL     1       4.602  -5.969  -5.750  1.00  0.00     0.188 C 
ENDROOT
BRANCH   1   2
ATOM      2  O   UNL     1       5.239  -4.918  -6.465  1.00  0.00    -0.376 OA
BRANCH   2   3
ATOM      3  C   UNL     1       6.521  -4.477  -6.042  1.00  0.00     0.202 C 
BRANCH   3   4
ATOM      4  C   UNL     1       6.564  -3.684  -4.736  1.00  0.00     0.261 C 
BRANCH   4   5
ATOM      5  O   UNL     1       6.194  -4.479  -3.592  1.00  0.00    -0.459 OA
BRANCH   5   6
ATOM      6  C   UNL     1       5.004  -4.155  -3.025  1.00  0.00     0.366 C 
ATOM      7  O   UNL     1       4.264  -3.261  -3.423  1.00  0.00    -0.245 OA
BRANCH   6   8
ATOM      8  C   UNL     1       4.628  -5.051  -1.851  1.00  0.00     0.308 C 
ATOM      9  N   UNL     1       5.180  -5.870   0.373  1.00  0.00    -0.185 NA
ATOM     10  C   UNL     1       4.418  -7.128   0.167  1.00  0.00     0.164 C 
ATOM     11  C   UNL     1       5.774  -5.352  -0.889  1.00  0.00     0.180 C 
ATOM     12  C   UNL     1       3.473  -7.080  -1.057  1.00  0.00     0.278 C 
ATOM     13  N   UNL     1       3.900  -6.300  -2.244  1.00  0.00    -0.332 N 
ATOM     14  H   UNL     1       3.075  -6.045  -2.787  1.00  0.00     0.347 HD
ATOM     15  H   UNL     1       4.534  -6.879  -2.794  1.00  0.00     0.347 HD
BRANCH   9  16
ATOM     16  S   UNL     1       4.689  -4.739   1.548  1.00  0.00     0.253 S 
ATOM     17  O   UNL     1       5.781  -3.799   1.680  1.00  0.00    -0.206 OA
ATOM     18  O   UNL     1       4.175  -5.478   2.682  1.00  0.00    -0.206 OA
BRANCH  16  19
ATOM     19  C   UNL     1       3.283  -3.762   0.994  1.00  0.00     0.135 A 
ATOM     20  C   UNL     1       1.770  -1.826   0.650  1.00  0.00     0.055 A 
ATOM     21  C   UNL     1       1.316  -2.958   0.018  1.00  0.00     0.023 A 
ATOM     22  S   UNL     1       3.263  -2.091   1.429  1.00  0.00    -0.121 S 
ATOM     23  C   UNL     1       2.141  -4.075   0.280  1.00  0.00     0.034 A 
BRANCH  20  24
ATOM     24  C   UNL     1       0.947  -0.578   0.635  1.00  0.00     0.091 A 
ATOM     25  C   UNL     1      -2.406   0.711   0.024  1.00  0.00     0.079 C 
ATOM     26  C   UNL     1      -0.966   0.499   0.328  1.00  0.00     0.090 A 
ATOM     27  N   UNL     1      -0.356  -0.651   0.165  1.00  0.00    -0.241 NA
ATOM     28  S   UNL     1       0.019   1.767   0.937  1.00  0.00    -0.127 S 
ATOM     29  C   UNL     1       1.336   0.666   1.081  1.00  0.00     0.096 A 
ENDBRANCH  20  24
ENDBRANCH  16  19
ENDBRANCH   9  16
ENDBRANCH   6   8
ENDBRANCH   5   6
ENDBRANCH   4   5
ENDBRANCH   3   4
ENDBRANCH   2   3
ENDBRANCH   1   2
BRANCH   1  30
ATOM     30  C   UNL     1       5.463  -7.081  -5.120  1.00  0.00     0.188 C 
BRANCH  30  31
ATOM     31  O   UNL     1       6.542  -7.640  -5.850  1.00  0.00    -0.376 OA
BRANCH  31  32
ATOM     32  C   UNL     1       6.349  -7.910  -7.230  1.00  0.00     0.202 C 
BRANCH  32  33
ATOM     33  C   UNL     1       5.400  -9.068  -7.540  1.00  0.00     0.261 C 
BRANCH  33  34
ATOM     34  O   UNL     1       4.023  -8.704  -7.327  1.00  0.00    -0.460 OA
BRANCH  34  35
ATOM     35  C   UNL     1       3.386  -9.341  -6.316  1.00  0.00     0.338 C 
ATOM     36  O   UNL     1       3.842 -10.193  -5.572  1.00  0.00    -0.246 OA
BRANCH  35  37
ATOM     37  C   UNL     1       2.049  -8.745  -6.119  1.00  0.00     0.060 A 
ATOM     38  C   UNL     1       1.638  -8.444  -4.813  1.00  0.00     0.016 A 
ATOM     39  C   UNL     1       1.181  -8.552  -7.196  1.00  0.00     0.016 A 
ATOM     40  C   UNL     1       0.337  -7.996  -4.573  1.00  0.00     0.010 A 
ATOM     41  C   UNL     1      -0.124  -8.118  -6.952  1.00  0.00     0.010 A 
ATOM     42  C   UNL     1      -0.562  -7.873  -5.639  1.00  0.00    -0.014 A 
BRANCH  42  43
ATOM     43  C   UNL     1      -2.009  -7.662  -5.396  1.00  0.00     0.031 A 
ATOM     44  C   UNL     1      -2.913  -8.861  -5.371  1.00  0.00     0.074 A 
ATOM     45  C   UNL     1      -2.520  -6.428  -5.252  1.00  0.00     0.049 A 
ATOM     46  N   UNL     1      -4.220  -8.920  -5.373  1.00  0.00    -0.248 NA
ATOM     47  C   UNL     1      -2.250 -10.175  -5.346  1.00  0.00     0.031 C 
ATOM     48  C   UNL     1      -1.744  -5.192  -5.193  1.00  0.00     0.029 A 
ATOM     49  N   UNL     1      -3.826  -6.015  -5.158  1.00  0.00    -0.354 N 
ATOM     50  C   UNL     1      -4.535 -10.272  -5.370  1.00  0.00     0.074 A 
ATOM     51  C   UNL     1      -3.285 -11.001  -5.372  1.00  0.00     0.031 C 
ATOM     52  C   UNL     1      -2.592  -4.152  -5.106  1.00  0.00     0.029 A 
ATOM     53  C   UNL     1      -3.967  -4.650  -5.151  1.00  0.00     0.049 A 
ATOM     54  H   UNL     1      -4.587  -6.638  -5.102  1.00  0.00     0.167 HD
ATOM     55  C   UNL     1      -5.758 -10.851  -5.372  1.00  0.00     0.037 A 
ATOM     56  C   UNL     1      -5.080  -3.893  -5.220  1.00  0.00     0.037 A 
ATOM     57  C   UNL     1      -6.999 -10.125  -5.376  1.00  0.00     0.049 A 
ATOM     58  C   UNL     1      -6.429  -4.559  -5.316  1.00  0.00     0.074 A 
ATOM     59  C   UNL     1      -8.290 -10.622  -5.378  1.00  0.00     0.029 A 
ATOM     60  N   UNL     1      -7.100  -8.742  -5.385  1.00  0.00    -0.354 N 
ATOM     61  N   UNL     1      -6.725  -5.836  -5.320  1.00  0.00    -0.248 NA
ATOM     62  C   UNL     1      -7.601  -3.676  -5.430  1.00  0.00     0.031 C 
ATOM     63  C   UNL     1      -9.173  -9.539  -5.431  1.00  0.00     0.029 A 
ATOM     64  C   UNL     1      -8.432  -8.368  -5.415  1.00  0.00     0.049 A 
ATOM     65  H   UNL     1      -6.337  -8.120  -5.372  1.00  0.00     0.167 HD
ATOM     66  C   UNL     1      -8.110  -5.910  -5.403  1.00  0.00     0.074 A 
ATOM     67  C   UNL     1      -8.600  -4.548  -5.449  1.00  0.00     0.031 C 
ATOM     68  C   UNL     1      -8.903  -7.007  -5.435  1.00  0.00     0.037 A 
BRANCH  55  69
ATOM     69  C   UNL     1      -5.812 -12.348  -5.409  1.00  0.00     0.064 A 
ATOM     70  C   UNL     1      -5.496 -13.124  -4.285  1.00  0.00     0.173 A 
ATOM     71  C   UNL     1      -6.214 -13.013  -6.577  1.00  0.00     0.173 A 
ATOM     72  F   UNL     1      -5.090 -12.535  -3.150  1.00  0.00    -0.203 F 
ATOM     73  C   UNL     1      -5.561 -14.514  -4.336  1.00  0.00     0.198 A 
ATOM     74  C   UNL     1      -6.301 -14.401  -6.617  1.00  0.00     0.198 A 
ATOM     75  F   UNL     1      -6.528 -12.314  -7.679  1.00  0.00    -0.203 F 
ATOM     76  F   UNL     1      -5.216 -15.239  -3.263  1.00  0.00    -0.200 F 
ATOM     77  C   UNL     1      -5.970 -15.151  -5.499  1.00  0.00     0.200 A 
ATOM     78  F   UNL     1      -6.704 -15.014  -7.739  1.00  0.00    -0.200 F 
ATOM     79  F   UNL     1      -6.036 -16.489  -5.544  1.00  0.00    -0.200 F 
ENDBRANCH  55  69
BRANCH  56  80
ATOM     80  C   UNL     1      -4.967  -2.412  -5.241  1.00  0.00     0.064 A 
ATOM     81  C   UNL     1      -5.400  -1.641  -4.153  1.00  0.00     0.173 A 
ATOM     82  C   UNL     1      -4.445  -1.736  -6.354  1.00  0.00     0.173 A 
ATOM     83  F   UNL     1      -5.936  -2.240  -3.079  1.00  0.00    -0.203 F 
ATOM     84  C   UNL     1      -5.325  -0.250  -4.182  1.00  0.00     0.198 A 
ATOM     85  C   UNL     1      -4.349  -0.347  -6.372  1.00  0.00     0.198 A 
ATOM     86  F   UNL     1      -4.026  -2.428  -7.423  1.00  0.00    -0.203 F 
ATOM     87  F   UNL     1      -5.784   0.465  -3.146  1.00  0.00    -0.200 F 
ATOM     88  C   UNL     1      -4.795   0.396  -5.290  1.00  0.00     0.200 A 
ATOM     89  F   UNL     1      -3.832   0.273  -7.442  1.00  0.00    -0.200 F 
ATOM     90  F   UNL     1      -4.726   1.733  -5.317  1.00  0.00    -0.200 F 
ENDBRANCH  56  80
BRANCH  68  91
ATOM     91  C   UNL     1     -10.388  -6.796  -5.471  1.00  0.00     0.064 A 
ATOM     92  C   UNL     1     -11.048  -6.403  -6.643  1.00  0.00     0.173 A 
ATOM     93  C   UNL     1     -11.167  -7.076  -4.337  1.00  0.00     0.173 A 
ATOM     94  F   UNL     1     -10.345  -6.112  -7.748  1.00  0.00    -0.203 F 
ATOM     95  C   UNL     1     -12.435  -6.290  -6.677  1.00  0.00     0.198 A 
ATOM     96  C   UNL     1     -12.555  -6.985  -4.381  1.00  0.00     0.198 A 
ATOM     97  F   UNL     1     -10.581  -7.463  -3.194  1.00  0.00    -0.203 F 
ATOM     98  F   UNL     1     -13.046  -5.889  -7.801  1.00  0.00    -0.200 F 
ATOM     99  C   UNL     1     -13.188  -6.590  -5.550  1.00  0.00     0.200 A 
ATOM    100  F   UNL     1     -13.280  -7.288  -3.296  1.00  0.00    -0.200 F 
ATOM    101  F   UNL     1     -14.524  -6.499  -5.591  1.00  0.00    -0.200 F 
ENDBRANCH  68  91
ENDBRANCH  42  43
ENDBRANCH  35  37
ENDBRANCH  34  35
ENDBRANCH  33  34
ENDBRANCH  32  33
ENDBRANCH  31  32
ENDBRANCH  30  31
ENDBRANCH   1  30
TORSDOF 20
