REMARK SMILES C[N@H+](CC(=O)OCCOCCOCCOC(=O)c1ccc(-c2c3nc(c(-c4c(F)c(F)c(F)c(F)c4F)c4ccc([nH]4)c(-c4c(F)c(F)c(F)c(F)c4F)c4nc(c(-c5c(F)c(F)c(F)c(F)c5F)c5ccc2[nH]5)C=C4)C=C3)cc1)Cc1nc(-c2ccsc2)no1
REMARK SMILES IDX 10 1 9 2 8 3 7 4 6 5 4 6 5 7 3 8 2 9 1 10 81 12 82 13 83 14
REMARK SMILES IDX 91 15 84 16 90 17 85 18 86 19 89 20 87 21 88 22 11 23 12 24
REMARK SMILES IDX 13 25 14 26 15 27 16 28 17 29 18 30 19 31 80 32 20 33 79 34
REMARK SMILES IDX 21 35 22 36 23 37 73 38 24 39 78 40 72 41 74 42 25 43 77 44
REMARK SMILES IDX 71 45 70 46 26 48 58 49 38 50 57 51 39 52 42 53 56 54 75 55
REMARK SMILES IDX 40 56 41 57 55 59 76 60 43 61 27 62 28 63 36 64 29 65 30 66
REMARK SMILES IDX 34 67 37 68 31 69 32 70 35 71 33 72 59 73 60 74 68 75 61 76
REMARK SMILES IDX 62 77 66 78 69 79 63 80 64 81 67 82 65 83 44 84 45 85 53 86
REMARK SMILES IDX 46 87 47 88 51 89 54 90 48 91 49 92 52 93 50 94
REMARK H PARENT 2 11 74 47 42 58
REMARK Flexibility Score: inf
ROOT
ATOM      1  C   UNL     1      -1.403  -3.430  -0.654  1.00  0.00     0.188 C 
ENDROOT
BRANCH   1   2
ATOM      2  O   UNL     1      -2.705  -3.500  -1.253  1.00  0.00    -0.376 OA
BRANCH   2   3
ATOM      3  C   UNL     1      -3.154  -2.556  -2.233  1.00  0.00     0.202 C 
BRANCH   3   4
ATOM      4  C   UNL     1      -3.335  -1.052  -1.963  1.00  0.00     0.261 C 
BRANCH   4   5
ATOM      5  O   UNL     1      -2.242  -0.443  -1.304  1.00  0.00    -0.459 OA
BRANCH   5   6
ATOM      6  C   UNL     1      -2.306  -0.306   0.042  1.00  0.00     0.361 C 
ATOM      7  O   UNL     1      -3.269  -0.599   0.738  1.00  0.00    -0.245 OA
BRANCH   6   8
ATOM      8  C   UNL     1      -0.968   0.202   0.590  1.00  0.00     0.386 C 
BRANCH   8   9
ATOM      9  N   UNL     1      -0.050   0.627  -0.506  1.00  0.00    -0.320 N 
ATOM     10  C   UNL     1       0.832   1.711  -0.109  1.00  0.00     0.333 C 
ATOM     11  H   UNL     1      -0.665   0.988  -1.236  1.00  0.00     0.348 HD
BRANCH   9  12
ATOM     12  C   UNL     1       0.704  -0.492  -1.116  1.00  0.00     0.364 C 
BRANCH  12  13
ATOM     13  C   UNL     1       0.278  -0.902  -2.516  1.00  0.00     0.282 A 
ATOM     14  N   UNL     1      -0.383  -1.977  -2.899  1.00  0.00    -0.186 NA
ATOM     15  O   UNL     1       0.885  -0.283  -3.575  1.00  0.00    -0.333 OA
ATOM     16  C   UNL     1      -0.127  -2.079  -4.242  1.00  0.00     0.203 A 
ATOM     17  N   UNL     1       0.617  -1.070  -4.715  1.00  0.00    -0.057 NA
BRANCH  16  18
ATOM     18  C   UNL     1      -0.463  -3.333  -4.974  1.00  0.00     0.033 A 
ATOM     19  C   UNL     1       0.120  -3.674  -6.236  1.00  0.00     0.024 A 
ATOM     20  C   UNL     1      -1.281  -4.366  -4.548  1.00  0.00     0.077 A 
ATOM     21  C   UNL     1      -0.246  -4.931  -6.676  1.00  0.00     0.065 A 
ATOM     22  S   UNL     1      -1.303  -5.716  -5.595  1.00  0.00    -0.152 S 
ENDBRANCH  16  18
ENDBRANCH  12  13
ENDBRANCH   9  12
ENDBRANCH   8   9
ENDBRANCH   6   8
ENDBRANCH   5   6
ENDBRANCH   4   5
ENDBRANCH   3   4
ENDBRANCH   2   3
ENDBRANCH   1   2
BRANCH   1  23
ATOM     23  C   UNL     1      -0.199  -4.215  -1.278  1.00  0.00     0.188 C 
BRANCH  23  24
ATOM     24  O   UNL     1       1.087  -3.628  -0.987  1.00  0.00    -0.376 OA
BRANCH  24  25
ATOM     25  C   UNL     1       2.118  -3.553  -2.000  1.00  0.00     0.202 C 
BRANCH  25  26
ATOM     26  C   UNL     1       2.441  -4.755  -2.903  1.00  0.00     0.261 C 
BRANCH  26  27
ATOM     27  O   UNL     1       2.183  -5.996  -2.275  1.00  0.00    -0.460 OA
BRANCH  27  28
ATOM     28  C   UNL     1       2.800  -6.110  -1.077  1.00  0.00     0.338 C 
ATOM     29  O   UNL     1       3.835  -5.592  -0.721  1.00  0.00    -0.246 OA
BRANCH  28  30
ATOM     30  C   UNL     1       1.798  -6.718  -0.190  1.00  0.00     0.060 A 
ATOM     31  C   UNL     1       1.666  -6.168   1.089  1.00  0.00     0.016 A 
ATOM     32  C   UNL     1       0.935  -7.724  -0.650  1.00  0.00     0.016 A 
ATOM     33  C   UNL     1       0.748  -6.718   1.965  1.00  0.00     0.010 A 
ATOM     34  C   UNL     1       0.018  -8.283   0.229  1.00  0.00     0.010 A 
ATOM     35  C   UNL     1       0.008  -7.839   1.560  1.00  0.00    -0.014 A 
BRANCH  35  36
ATOM     36  C   UNL     1      -0.364  -8.786   2.624  1.00  0.00     0.031 A 
ATOM     37  C   UNL     1       0.671  -9.818   2.985  1.00  0.00     0.074 A 
ATOM     38  C   UNL     1      -1.498  -8.641   3.321  1.00  0.00     0.049 A 
ATOM     39  N   UNL     1       0.666 -10.711   3.937  1.00  0.00    -0.248 NA
ATOM     40  C   UNL     1       1.898  -9.833   2.164  1.00  0.00     0.031 C 
ATOM     41  C   UNL     1      -2.518  -7.622   3.085  1.00  0.00     0.029 A 
ATOM     42  N   UNL     1      -1.961  -9.351   4.394  1.00  0.00    -0.354 N 
ATOM     43  C   UNL     1       1.882 -11.374   3.830  1.00  0.00     0.074 A 
ATOM     44  C   UNL     1       2.586 -10.822   2.701  1.00  0.00     0.031 C 
ATOM     45  C   UNL     1      -3.493  -7.771   3.999  1.00  0.00     0.029 A 
ATOM     46  C   UNL     1      -3.171  -8.907   4.859  1.00  0.00     0.049 A 
ATOM     47  H   UNL     1      -1.472 -10.106   4.794  1.00  0.00     0.167 HD
ATOM     48  C   UNL     1       2.379 -12.350   4.620  1.00  0.00     0.037 A 
ATOM     49  C   UNL     1      -3.923  -9.390   5.865  1.00  0.00     0.037 A 
ATOM     50  C   UNL     1       1.660 -12.901   5.730  1.00  0.00     0.049 A 
ATOM     51  C   UNL     1      -3.391 -10.551   6.668  1.00  0.00     0.074 A 
ATOM     52  C   UNL     1       2.038 -13.915   6.588  1.00  0.00     0.029 A 
ATOM     53  N   UNL     1       0.397 -12.482   6.126  1.00  0.00    -0.354 N 
ATOM     54  N   UNL     1      -2.241 -11.177   6.569  1.00  0.00    -0.248 NA
ATOM     55  C   UNL     1      -4.262 -11.068   7.731  1.00  0.00     0.031 C 
ATOM     56  C   UNL     1       0.976 -14.151   7.466  1.00  0.00     0.029 A 
ATOM     57  C   UNL     1      -0.034 -13.237   7.201  1.00  0.00     0.049 A 
ATOM     58  H   UNL     1      -0.116 -11.755   5.703  1.00  0.00     0.167 HD
ATOM     59  C   UNL     1      -2.238 -12.140   7.571  1.00  0.00     0.074 A 
ATOM     60  C   UNL     1      -3.493 -11.995   8.281  1.00  0.00     0.031 C 
ATOM     61  C   UNL     1      -1.292 -13.063   7.881  1.00  0.00     0.037 A 
BRANCH  48  62
ATOM     62  C   UNL     1       3.727 -12.903   4.263  1.00  0.00     0.064 A 
ATOM     63  C   UNL     1       4.903 -12.150   4.407  1.00  0.00     0.173 A 
ATOM     64  C   UNL     1       3.839 -14.202   3.745  1.00  0.00     0.173 A 
ATOM     65  F   UNL     1       4.848 -10.890   4.863  1.00  0.00    -0.203 F 
ATOM     66  C   UNL     1       6.138 -12.669   4.022  1.00  0.00     0.198 A 
ATOM     67  C   UNL     1       5.078 -14.729   3.393  1.00  0.00     0.198 A 
ATOM     68  F   UNL     1       2.745 -14.957   3.572  1.00  0.00    -0.203 F 
ATOM     69  F   UNL     1       7.239 -11.911   4.110  1.00  0.00    -0.200 F 
ATOM     70  C   UNL     1       6.225 -13.960   3.524  1.00  0.00     0.200 A 
ATOM     71  F   UNL     1       5.161 -15.979   2.917  1.00  0.00    -0.200 F 
ATOM     72  F   UNL     1       7.413 -14.460   3.158  1.00  0.00    -0.200 F 
ENDBRANCH  48  62
BRANCH  49  73
ATOM     73  C   UNL     1      -5.253  -8.794   6.156  1.00  0.00     0.064 A 
ATOM     74  C   UNL     1      -5.513  -8.143   7.370  1.00  0.00     0.173 A 
ATOM     75  C   UNL     1      -6.306  -8.897   5.234  1.00  0.00     0.173 A 
ATOM     76  F   UNL     1      -4.548  -8.039   8.295  1.00  0.00    -0.203 F 
ATOM     77  C   UNL     1      -6.782  -7.644   7.662  1.00  0.00     0.198 A 
ATOM     78  C   UNL     1      -7.564  -8.367   5.513  1.00  0.00     0.198 A 
ATOM     79  F   UNL     1      -6.114  -9.513   4.059  1.00  0.00    -0.203 F 
ATOM     80  F   UNL     1      -7.019  -7.081   8.854  1.00  0.00    -0.200 F 
ATOM     81  C   UNL     1      -7.804  -7.752   6.731  1.00  0.00     0.200 A 
ATOM     82  F   UNL     1      -8.546  -8.465   4.606  1.00  0.00    -0.200 F 
ATOM     83  F   UNL     1      -9.024  -7.275   7.015  1.00  0.00    -0.200 F 
ENDBRANCH  49  73
BRANCH  61  84
ATOM     84  C   UNL     1      -1.570 -13.957   9.055  1.00  0.00     0.064 A 
ATOM     85  C   UNL     1      -2.575 -14.935   9.017  1.00  0.00     0.173 A 
ATOM     86  C   UNL     1      -0.801 -13.849  10.224  1.00  0.00     0.173 A 
ATOM     87  F   UNL     1      -3.342 -15.074   7.925  1.00  0.00    -0.203 F 
ATOM     88  C   UNL     1      -2.832 -15.738  10.125  1.00  0.00     0.198 A 
ATOM     89  C   UNL     1      -1.033 -14.682  11.313  1.00  0.00     0.198 A 
ATOM     90  F   UNL     1       0.184 -12.943  10.306  1.00  0.00    -0.203 F 
ATOM     91  F   UNL     1      -3.844 -16.616  10.092  1.00  0.00    -0.200 F 
ATOM     92  C   UNL     1      -2.058 -15.615  11.269  1.00  0.00     0.200 A 
ATOM     93  F   UNL     1      -0.269 -14.578  12.409  1.00  0.00    -0.200 F 
ATOM     94  F   UNL     1      -2.305 -16.391  12.333  1.00  0.00    -0.200 F 
ENDBRANCH  61  84
ENDBRANCH  35  36
ENDBRANCH  28  30
ENDBRANCH  27  28
ENDBRANCH  26  27
ENDBRANCH  25  26
ENDBRANCH  24  25
ENDBRANCH  23  24
ENDBRANCH   1  23
TORSDOF 21
