REMARK SMILES O=C(OCCOCCOCCOC(=O)[C@H]1[C@H]2CC[C@H](CC2)[C@@H]1C(=O)Nc1sc2c(c1C(=O)N1CCCCC1)CCCC2)c1ccc(-c2c3nc(c(-c4c(F)c(F)c(F)c(F)c4F)c4ccc([nH]4)c(-c4c(F)c(F)c(F)c(F)c4F)c4nc(c(-c5c(F)c(F)c(F)c(F)c5F)c5ccc2[nH]5)C=C4)C=C3)cc1
REMARK SMILES IDX 8 1 7 2 6 3 5 4 4 5 3 6 2 7 1 8 43 9 44 10 105 11 45 12
REMARK SMILES IDX 104 13 46 14 47 15 48 16 98 17 49 18 103 19 97 20 99 21
REMARK SMILES IDX 50 22 102 23 96 24 95 25 51 27 83 28 63 29 82 30 64 31 67 32
REMARK SMILES IDX 81 33 100 34 65 35 66 36 80 38 101 39 68 40 52 41 53 42
REMARK SMILES IDX 61 43 54 44 55 45 59 46 62 47 56 48 57 49 60 50 58 51 84 52
REMARK SMILES IDX 85 53 93 54 86 55 87 56 91 57 94 58 88 59 89 60 92 61 90 62
REMARK SMILES IDX 69 63 70 64 78 65 71 66 72 67 76 68 79 69 73 70 74 71 77 72
REMARK SMILES IDX 75 73 9 74 10 75 11 76 12 77 13 78 14 79 15 80 16 81 22 82
REMARK SMILES IDX 21 83 17 84 19 85 20 86 18 87 23 88 24 89 25 90 26 92 27 93
REMARK SMILES IDX 30 94 28 95 29 96 42 97 39 98 41 99 40 100 31 101 32 102
REMARK SMILES IDX 33 103 34 104 38 105 35 106 37 107 36 108
REMARK H PARENT 99 26 67 37 25 91
REMARK Flexibility Score: inf
ROOT
ATOM      1  C   UNL     1       1.966   2.188  -2.211  1.00  0.00     0.188 C 
ENDROOT
BRANCH   1   2
ATOM      2  C   UNL     1       2.479   0.889  -1.587  1.00  0.00     0.188 C 
BRANCH   2   3
ATOM      3  O   UNL     1       3.828   0.982  -1.103  1.00  0.00    -0.376 OA
BRANCH   3   4
ATOM      4  C   UNL     1       4.650  -0.110  -1.536  1.00  0.00     0.202 C 
BRANCH   4   5
ATOM      5  C   UNL     1       4.491  -1.405  -0.728  1.00  0.00     0.261 C 
BRANCH   5   6
ATOM      6  O   UNL     1       3.162  -1.593  -0.220  1.00  0.00    -0.460 OA
BRANCH   6   7
ATOM      7  C   UNL     1       2.617  -1.144   0.937  1.00  0.00     0.338 C 
ATOM      8  O   UNL     1       1.439  -1.425   1.160  1.00  0.00    -0.246 OA
BRANCH   7   9
ATOM      9  C   UNL     1       3.353  -0.359   1.986  1.00  0.00     0.060 A 
ATOM     10  C   UNL     1       4.607   0.234   1.842  1.00  0.00     0.016 A 
ATOM     11  C   UNL     1       2.708  -0.210   3.229  1.00  0.00     0.016 A 
ATOM     12  C   UNL     1       5.265   0.818   2.922  1.00  0.00     0.010 A 
ATOM     13  C   UNL     1       3.334   0.432   4.304  1.00  0.00     0.010 A 
ATOM     14  C   UNL     1       4.645   0.897   4.166  1.00  0.00    -0.014 A 
BRANCH  14  15
ATOM     15  C   UNL     1       5.439   1.353   5.326  1.00  0.00     0.031 A 
ATOM     16  C   UNL     1       5.973   0.331   6.269  1.00  0.00     0.074 A 
ATOM     17  C   UNL     1       5.789   2.643   5.458  1.00  0.00     0.049 A 
ATOM     18  N   UNL     1       6.770   0.499   7.288  1.00  0.00    -0.248 NA
ATOM     19  C   UNL     1       5.616  -1.069   5.994  1.00  0.00     0.031 C 
ATOM     20  C   UNL     1       5.466   3.666   4.484  1.00  0.00     0.029 A 
ATOM     21  N   UNL     1       6.484   3.321   6.422  1.00  0.00    -0.354 N 
ATOM     22  C   UNL     1       7.045  -0.775   7.751  1.00  0.00     0.074 A 
ATOM     23  C   UNL     1       6.288  -1.704   6.940  1.00  0.00     0.031 C 
ATOM     24  C   UNL     1       5.875   4.862   4.925  1.00  0.00     0.029 A 
ATOM     25  C   UNL     1       6.529   4.679   6.206  1.00  0.00     0.049 A 
ATOM     26  H   UNL     1       6.909   2.882   7.194  1.00  0.00     0.167 HD
ATOM     27  C   UNL     1       7.880  -1.126   8.753  1.00  0.00     0.037 A 
ATOM     28  C   UNL     1       7.048   5.669   6.951  1.00  0.00     0.037 A 
ATOM     29  C   UNL     1       8.581  -0.175   9.572  1.00  0.00     0.049 A 
ATOM     30  C   UNL     1       7.818   5.267   8.169  1.00  0.00     0.074 A 
ATOM     31  C   UNL     1       9.399  -0.406  10.661  1.00  0.00     0.029 A 
ATOM     32  N   UNL     1       8.523   1.205   9.397  1.00  0.00    -0.354 N 
ATOM     33  N   UNL     1       8.072   4.058   8.609  1.00  0.00    -0.248 NA
ATOM     34  C   UNL     1       8.404   6.343   8.972  1.00  0.00     0.031 C 
ATOM     35  C   UNL     1       9.790   0.836  11.178  1.00  0.00     0.029 A 
ATOM     36  C   UNL     1       9.261   1.841  10.382  1.00  0.00     0.049 A 
ATOM     37  H   UNL     1       8.029   1.662   8.679  1.00  0.00     0.167 HD
ATOM     38  C   UNL     1       8.882   4.218   9.717  1.00  0.00     0.074 A 
ATOM     39  C   UNL     1       9.077   5.648   9.879  1.00  0.00     0.031 C 
ATOM     40  C   UNL     1       9.425   3.268  10.517  1.00  0.00     0.037 A 
BRANCH  27  41
ATOM     41  C   UNL     1       7.999  -2.593   9.027  1.00  0.00     0.064 A 
ATOM     42  C   UNL     1       8.668  -3.457   8.144  1.00  0.00     0.173 A 
ATOM     43  C   UNL     1       7.356  -3.156  10.137  1.00  0.00     0.173 A 
ATOM     44  F   UNL     1       9.265  -2.970   7.045  1.00  0.00    -0.203 F 
ATOM     45  C   UNL     1       8.656  -4.835   8.345  1.00  0.00     0.198 A 
ATOM     46  C   UNL     1       7.367  -4.532  10.348  1.00  0.00     0.198 A 
ATOM     47  F   UNL     1       6.689  -2.375  10.999  1.00  0.00    -0.203 F 
ATOM     48  F   UNL     1       9.238  -5.646   7.451  1.00  0.00    -0.200 F 
ATOM     49  C   UNL     1       8.005  -5.370   9.446  1.00  0.00     0.200 A 
ATOM     50  F   UNL     1       6.734  -5.049  11.410  1.00  0.00    -0.200 F 
ATOM     51  F   UNL     1       7.974  -6.698   9.627  1.00  0.00    -0.200 F 
ENDBRANCH  27  41
BRANCH  28  52
ATOM     52  C   UNL     1       6.886   7.089   6.536  1.00  0.00     0.064 A 
ATOM     53  C   UNL     1       7.975   7.854   6.098  1.00  0.00     0.173 A 
ATOM     54  C   UNL     1       5.622   7.704   6.540  1.00  0.00     0.173 A 
ATOM     55  F   UNL     1       9.204   7.319   6.078  1.00  0.00    -0.203 F 
ATOM     56  C   UNL     1       7.811   9.181   5.700  1.00  0.00     0.198 A 
ATOM     57  C   UNL     1       5.456   9.022   6.119  1.00  0.00     0.198 A 
ATOM     58  F   UNL     1       4.542   7.016   6.938  1.00  0.00    -0.203 F 
ATOM     59  F   UNL     1       8.876   9.899   5.316  1.00  0.00    -0.200 F 
ATOM     60  C   UNL     1       6.552   9.762   5.705  1.00  0.00     0.200 A 
ATOM     61  F   UNL     1       4.235   9.575   6.111  1.00  0.00    -0.200 F 
ATOM     62  F   UNL     1       6.396  11.036   5.317  1.00  0.00    -0.200 F 
ENDBRANCH  28  52
BRANCH  40  63
ATOM     63  C   UNL     1      10.303   3.764  11.622  1.00  0.00     0.064 A 
ATOM     64  C   UNL     1       9.771   4.412  12.746  1.00  0.00     0.173 A 
ATOM     65  C   UNL     1      11.691   3.581  11.555  1.00  0.00     0.173 A 
ATOM     66  F   UNL     1       8.451   4.630  12.838  1.00  0.00    -0.203 F 
ATOM     67  C   UNL     1      10.605   4.885  13.754  1.00  0.00     0.198 A 
ATOM     68  C   UNL     1      12.518   4.027  12.579  1.00  0.00     0.198 A 
ATOM     69  F   UNL     1      12.243   2.968  10.497  1.00  0.00    -0.203 F 
ATOM     70  F   UNL     1      10.084   5.552  14.792  1.00  0.00    -0.200 F 
ATOM     71  C   UNL     1      11.976   4.686  13.673  1.00  0.00     0.200 A 
ATOM     72  F   UNL     1      13.841   3.827  12.505  1.00  0.00    -0.200 F 
ATOM     73  F   UNL     1      12.777   5.141  14.645  1.00  0.00    -0.200 F 
ENDBRANCH  40  63
ENDBRANCH  14  15
ENDBRANCH   7   9
ENDBRANCH   6   7
ENDBRANCH   5   6
ENDBRANCH   4   5
ENDBRANCH   3   4
ENDBRANCH   2   3
ENDBRANCH   1   2
BRANCH   1  74
ATOM     74  O   UNL     1       2.603   2.635  -3.406  1.00  0.00    -0.376 OA
BRANCH  74  75
ATOM     75  C   UNL     1       4.007   2.858  -3.377  1.00  0.00     0.202 C 
BRANCH  75  76
ATOM     76  C   UNL     1       4.539   4.040  -2.559  1.00  0.00     0.261 C 
BRANCH  76  77
ATOM     77  O   UNL     1       4.018   4.128  -1.227  1.00  0.00    -0.463 OA
BRANCH  77  78
ATOM     78  C   UNL     1       3.054   5.079  -1.066  1.00  0.00     0.310 C 
ATOM     79  O   UNL     1       2.607   5.760  -1.972  1.00  0.00    -0.252 OA
BRANCH  78  80
ATOM     80  C   UNL     1       2.523   5.149   0.365  1.00  0.00     0.115 C 
ATOM     81  C   UNL     1       3.474   4.649   1.474  1.00  0.00     0.004 C 
ATOM     82  C   UNL     1       2.157   6.626   0.672  1.00  0.00     0.096 C 
ATOM     83  C   UNL     1       4.766   5.495   1.441  1.00  0.00     0.005 C 
ATOM     84  C   UNL     1       2.710   4.849   2.810  1.00  0.00     0.005 C 
ATOM     85  C   UNL     1       2.943   7.159   1.903  1.00  0.00     0.002 C 
ATOM     86  C   UNL     1       4.445   6.982   1.613  1.00  0.00     0.005 C 
ATOM     87  C   UNL     1       2.607   6.336   3.151  1.00  0.00     0.005 C 
BRANCH  82  88
ATOM     88  C   UNL     1       0.643   6.808   0.865  1.00  0.00     0.229 C 
ATOM     89  O   UNL     1      -0.055   5.898   1.323  1.00  0.00    -0.274 OA
ATOM     90  N   UNL     1       0.087   8.052   0.719  1.00  0.00    -0.317 N 
ATOM     91  H   UNL     1      -0.817   8.180   1.086  1.00  0.00     0.170 HD
BRANCH  90  92
ATOM     92  C   UNL     1       0.670   9.139   0.110  1.00  0.00     0.108 A 
ATOM     93  S   UNL     1       1.298   8.938  -1.456  1.00  0.00    -0.122 S 
ATOM     94  C   UNL     1       0.713  10.457   0.547  1.00  0.00     0.078 A 
ATOM     95  C   UNL     1       2.157  10.383  -1.310  1.00  0.00     0.011 A 
ATOM     96  C   UNL     1       1.629  11.196  -0.319  1.00  0.00    -0.019 A 
ATOM     97  C   UNL     1       3.296  10.707  -2.225  1.00  0.00     0.047 C 
ATOM     98  C   UNL     1       2.113  12.608  -0.190  1.00  0.00     0.037 C 
ATOM     99  C   UNL     1       4.017  11.971  -1.746  1.00  0.00     0.006 C 
ATOM    100  C   UNL     1       3.007  13.051  -1.359  1.00  0.00     0.005 C 
BRANCH  94 101
ATOM    101  C   UNL     1       0.057  10.830   1.817  1.00  0.00     0.257 C 
ATOM    102  O   UNL     1      -0.578  10.007   2.480  1.00  0.00    -0.269 OA
ATOM    103  N   UNL     1       0.285  12.106   2.315  1.00  0.00    -0.339 N 
ATOM    104  C   UNL     1       0.570  12.205   3.739  1.00  0.00     0.120 C 
ATOM    105  C   UNL     1      -0.482  13.223   1.783  1.00  0.00     0.120 C 
ATOM    106  C   UNL     1       1.391  13.456   4.011  1.00  0.00     0.022 C 
ATOM    107  C   UNL     1       0.229  14.553   2.042  1.00  0.00     0.022 C 
ATOM    108  C   UNL     1       0.672  14.704   3.498  1.00  0.00     0.004 C 
ENDBRANCH  94 101
ENDBRANCH  90  92
ENDBRANCH  82  88
ENDBRANCH  78  80
ENDBRANCH  77  78
ENDBRANCH  76  77
ENDBRANCH  75  76
ENDBRANCH  74  75
ENDBRANCH   1  74
TORSDOF 20
