REMARK SMILES [NH3+][C@H](c1ccc(C(=O)OCCOCCOCCOC(=O)c2ccc(-c3c4nc(c(-c5c(F)c(F)c(F)c(F)c5F)c5ccc([nH]5)c(-c5c(F)c(F)c(F)c(F)c5F)c5nc(c(-c6c(F)c(F)c(F)c(F)c6F)c6ccc3[nH]6)C=C5)C=C4)cc2)cc1Cl)C(F)(F)F
REMARK SMILES IDX 13 1 12 2 11 3 10 4 9 5 7 6 8 7 6 8 3 9 4 10 85 11 5 12
REMARK SMILES IDX 84 13 86 14 2 15 1 16 87 20 88 21 89 22 90 23 14 24 15 25
REMARK SMILES IDX 16 26 17 27 18 28 19 29 20 30 21 31 22 32 83 33 23 34 82 35
REMARK SMILES IDX 24 36 25 37 26 38 76 39 27 40 81 41 75 42 77 43 28 44 80 45
REMARK SMILES IDX 74 46 73 47 29 49 61 50 41 51 60 52 42 53 45 54 59 55 78 56
REMARK SMILES IDX 43 57 44 58 58 60 79 61 46 62 30 63 31 64 39 65 32 66 33 67
REMARK SMILES IDX 37 68 40 69 34 70 35 71 38 72 36 73 62 74 63 75 71 76 64 77
REMARK SMILES IDX 65 78 69 79 72 80 66 81 67 82 70 83 68 84 47 85 48 86 56 87
REMARK SMILES IDX 49 88 50 89 54 90 57 91 51 92 52 93 55 94 53 95
REMARK H PARENT 1 17 1 18 1 19 77 48 45 59
REMARK Flexibility Score: inf
ROOT
ATOM      1  C   UNL     1       2.649  -5.111  -1.958  1.00  0.00     0.188 C 
ENDROOT
BRANCH   1   2
ATOM      2  O   UNL     1       3.762  -5.938  -2.251  1.00  0.00    -0.376 OA
BRANCH   2   3
ATOM      3  C   UNL     1       4.897  -5.945  -1.397  1.00  0.00     0.202 C 
BRANCH   3   4
ATOM      4  C   UNL     1       5.533  -4.635  -0.907  1.00  0.00     0.261 C 
BRANCH   4   5
ATOM      5  O   UNL     1       4.613  -3.670  -0.376  1.00  0.00    -0.460 OA
BRANCH   5   6
ATOM      6  C   UNL     1       4.480  -2.542  -1.114  1.00  0.00     0.338 C 
ATOM      7  O   UNL     1       5.087  -2.256  -2.133  1.00  0.00    -0.246 OA
BRANCH   6   8
ATOM      8  C   UNL     1       3.343  -1.728  -0.634  1.00  0.00     0.061 A 
ATOM      9  C   UNL     1       1.337   0.097   0.113  1.00  0.00     0.037 A 
ATOM     10  C   UNL     1       1.491  -0.292  -1.232  1.00  0.00     0.013 A 
ATOM     11  C   UNL     1       2.109  -0.569   1.087  1.00  0.00     0.051 A 
ATOM     12  C   UNL     1       2.500  -1.177  -1.603  1.00  0.00     0.016 A 
ATOM     13  C   UNL     1       3.110  -1.478   0.718  1.00  0.00     0.036 A 
ATOM     14  Cl  UNL     1       1.896  -0.281   2.777  1.00  0.00    -0.084 Cl
BRANCH   9  15
ATOM     15  C   UNL     1       0.439   1.292   0.443  1.00  0.00     0.320 C 
BRANCH  15  16
ATOM     16  N   UNL     1       0.859   2.459  -0.395  1.00  0.00    -0.344 N 
ATOM     17  H   UNL     1       0.266   3.262  -0.181  1.00  0.00     0.345 HD
ATOM     18  H   UNL     1       0.765   2.220  -1.382  1.00  0.00     0.345 HD
ATOM     19  H   UNL     1       1.831   2.692  -0.192  1.00  0.00     0.345 HD
ENDBRANCH  15  16
BRANCH  15  20
ATOM     20  C   UNL     1      -1.078   0.947   0.387  1.00  0.00     0.445 C 
ATOM     21  F   UNL     1      -1.390  -0.088   1.198  1.00  0.00    -0.165 F 
ATOM     22  F   UNL     1      -1.834   2.003   0.773  1.00  0.00    -0.165 F 
ATOM     23  F   UNL     1      -1.462   0.615  -0.871  1.00  0.00    -0.165 F 
ENDBRANCH  15  20
ENDBRANCH   9  15
ENDBRANCH   6   8
ENDBRANCH   5   6
ENDBRANCH   4   5
ENDBRANCH   3   4
ENDBRANCH   2   3
ENDBRANCH   1   2
BRANCH   1  24
ATOM     24  C   UNL     1       2.020  -5.105  -0.549  1.00  0.00     0.188 C 
BRANCH  24  25
ATOM     25  O   UNL     1       2.656  -5.890   0.427  1.00  0.00    -0.376 OA
BRANCH  25  26
ATOM     26  C   UNL     1       2.342  -7.265   0.566  1.00  0.00     0.202 C 
BRANCH  26  27
ATOM     27  C   UNL     1       1.432  -8.094  -0.364  1.00  0.00     0.261 C 
BRANCH  27  28
ATOM     28  O   UNL     1       0.882  -7.467  -1.525  1.00  0.00    -0.460 OA
BRANCH  28  29
ATOM     29  C   UNL     1      -0.425  -7.112  -1.451  1.00  0.00     0.338 C 
ATOM     30  O   UNL     1      -1.171  -7.218  -0.497  1.00  0.00    -0.246 OA
BRANCH  29  31
ATOM     31  C   UNL     1      -0.777  -6.398  -2.694  1.00  0.00     0.060 A 
ATOM     32  C   UNL     1      -1.005  -5.016  -2.642  1.00  0.00     0.016 A 
ATOM     33  C   UNL     1      -0.886  -7.091  -3.899  1.00  0.00     0.016 A 
ATOM     34  C   UNL     1      -1.335  -4.319  -3.805  1.00  0.00     0.010 A 
ATOM     35  C   UNL     1      -1.241  -6.396  -5.058  1.00  0.00     0.010 A 
ATOM     36  C   UNL     1      -1.476  -5.009  -5.017  1.00  0.00    -0.014 A 
BRANCH  36  37
ATOM     37  C   UNL     1      -1.979  -4.313  -6.226  1.00  0.00     0.031 A 
ATOM     38  C   UNL     1      -3.431  -4.437  -6.588  1.00  0.00     0.074 A 
ATOM     39  C   UNL     1      -1.148  -3.599  -7.006  1.00  0.00     0.049 A 
ATOM     40  N   UNL     1      -4.062  -4.016  -7.654  1.00  0.00    -0.248 NA
ATOM     41  C   UNL     1      -4.286  -5.133  -5.614  1.00  0.00     0.031 C 
ATOM     42  C   UNL     1       0.270  -3.367  -6.739  1.00  0.00     0.029 A 
ATOM     43  N   UNL     1      -1.378  -2.955  -8.197  1.00  0.00    -0.354 N 
ATOM     44  C   UNL     1      -5.384  -4.404  -7.486  1.00  0.00     0.074 A 
ATOM     45  C   UNL     1      -5.461  -5.113  -6.226  1.00  0.00     0.031 C 
ATOM     46  C   UNL     1       0.791  -2.653  -7.751  1.00  0.00     0.029 A 
ATOM     47  C   UNL     1      -0.245  -2.416  -8.756  1.00  0.00     0.049 A 
ATOM     48  H   UNL     1      -2.269  -2.887  -8.611  1.00  0.00     0.167 HD
ATOM     49  C   UNL     1      -6.438  -4.184  -8.307  1.00  0.00     0.037 A 
ATOM     50  C   UNL     1      -0.060  -1.836  -9.959  1.00  0.00     0.037 A 
ATOM     51  C   UNL     1      -6.355  -3.485  -9.563  1.00  0.00     0.049 A 
ATOM     52  C   UNL     1      -1.228  -1.696 -10.902  1.00  0.00     0.074 A 
ATOM     53  C   UNL     1      -7.372  -3.186 -10.453  1.00  0.00     0.029 A 
ATOM     54  N   UNL     1      -5.183  -2.991 -10.117  1.00  0.00    -0.354 N 
ATOM     55  N   UNL     1      -2.483  -2.033 -10.725  1.00  0.00    -0.248 NA
ATOM     56  C   UNL     1      -0.951  -1.101 -12.219  1.00  0.00     0.031 C 
ATOM     57  C   UNL     1      -6.806  -2.569 -11.573  1.00  0.00     0.029 A 
ATOM     58  C   UNL     1      -5.445  -2.428 -11.356  1.00  0.00     0.049 A 
ATOM     59  H   UNL     1      -4.296  -3.034  -9.692  1.00  0.00     0.167 HD
ATOM     60  C   UNL     1      -3.145  -1.676 -11.894  1.00  0.00     0.074 A 
ATOM     61  C   UNL     1      -2.159  -1.075 -12.766  1.00  0.00     0.031 C 
ATOM     62  C   UNL     1      -4.453  -1.835 -12.217  1.00  0.00     0.037 A 
BRANCH  49  63
ATOM     63  C   UNL     1      -7.770  -4.738  -7.892  1.00  0.00     0.064 A 
ATOM     64  C   UNL     1      -8.490  -4.201  -6.814  1.00  0.00     0.173 A 
ATOM     65  C   UNL     1      -8.350  -5.797  -8.606  1.00  0.00     0.173 A 
ATOM     66  F   UNL     1      -7.975  -3.195  -6.091  1.00  0.00    -0.203 F 
ATOM     67  C   UNL     1      -9.730  -4.721  -6.452  1.00  0.00     0.198 A 
ATOM     68  C   UNL     1      -9.604  -6.294  -8.260  1.00  0.00     0.198 A 
ATOM     69  F   UNL     1      -7.706  -6.344  -9.648  1.00  0.00    -0.203 F 
ATOM     70  F   UNL     1     -10.379  -4.224  -5.390  1.00  0.00    -0.200 F 
ATOM     71  C   UNL     1     -10.289  -5.761  -7.179  1.00  0.00     0.200 A 
ATOM     72  F   UNL     1     -10.148  -7.290  -8.973  1.00  0.00    -0.200 F 
ATOM     73  F   UNL     1     -11.486  -6.255  -6.834  1.00  0.00    -0.200 F 
ENDBRANCH  49  63
BRANCH  50  74
ATOM     74  C   UNL     1       1.295  -1.373 -10.362  1.00  0.00     0.064 A 
ATOM     75  C   UNL     1       1.571  -0.011 -10.540  1.00  0.00     0.173 A 
ATOM     76  C   UNL     1       2.334  -2.285 -10.604  1.00  0.00     0.173 A 
ATOM     77  F   UNL     1       0.602   0.898 -10.351  1.00  0.00    -0.203 F 
ATOM     78  C   UNL     1       2.827   0.421 -10.961  1.00  0.00     0.198 A 
ATOM     79  C   UNL     1       3.599  -1.849 -10.994  1.00  0.00     0.198 A 
ATOM     80  F   UNL     1       2.122  -3.601 -10.457  1.00  0.00    -0.203 F 
ATOM     81  F   UNL     1       3.047   1.726 -11.173  1.00  0.00    -0.200 F 
ATOM     82  C   UNL     1       3.842  -0.497 -11.181  1.00  0.00     0.200 A 
ATOM     83  F   UNL     1       4.579  -2.740 -11.196  1.00  0.00    -0.200 F 
ATOM     84  F   UNL     1       5.050  -0.081 -11.583  1.00  0.00    -0.200 F 
ENDBRANCH  50  74
BRANCH  62  85
ATOM     85  C   UNL     1      -4.901  -1.342 -13.564  1.00  0.00     0.064 A 
ATOM     86  C   UNL     1      -4.532  -1.999 -14.747  1.00  0.00     0.173 A 
ATOM     87  C   UNL     1      -5.752  -0.230 -13.670  1.00  0.00     0.173 A 
ATOM     88  F   UNL     1      -3.708  -3.057 -14.703  1.00  0.00    -0.203 F 
ATOM     89  C   UNL     1      -4.982  -1.551 -15.987  1.00  0.00     0.198 A 
ATOM     90  C   UNL     1      -6.226   0.195 -14.908  1.00  0.00     0.198 A 
ATOM     91  F   UNL     1      -6.141   0.431 -12.570  1.00  0.00    -0.203 F 
ATOM     92  F   UNL     1      -4.581  -2.168 -17.107  1.00  0.00    -0.200 F 
ATOM     93  C   UNL     1      -5.836  -0.461 -16.066  1.00  0.00     0.200 A 
ATOM     94  F   UNL     1      -7.064   1.239 -14.981  1.00  0.00    -0.200 F 
ATOM     95  F   UNL     1      -6.278  -0.039 -17.258  1.00  0.00    -0.200 F 
ENDBRANCH  62  85
ENDBRANCH  36  37
ENDBRANCH  29  31
ENDBRANCH  28  29
ENDBRANCH  27  28
ENDBRANCH  26  27
ENDBRANCH  25  26
ENDBRANCH  24  25
ENDBRANCH   1  24
TORSDOF 20
