REMARK SMILES Cc1cc(C(=O)N[C@H]2C=C[C@H](C(=O)OCCOCCOCCOC(=O)c3ccc(-c4c5nc(c(-c6c(F)c(F)c(F)c(F)c6F)c6ccc([nH]6)c(-c6c(F)c(F)c(F)c(F)c6F)c6nc(c(-c7c(F)c(F)c(F)c(F)c7F)c7ccc4[nH]7)C=C6)C=C5)cc3)C2)ccc1F
REMARK SMILES IDX 18 1 17 2 16 3 15 4 14 5 12 6 13 7 11 8 8 9 9 10 89 11 10 12
REMARK SMILES IDX 7 13 5 14 6 15 4 17 1 18 2 19 3 20 92 21 91 22 93 23 90 24
REMARK SMILES IDX 19 25 20 26 21 27 22 28 23 29 24 30 25 31 26 32 27 33 88 34
REMARK SMILES IDX 28 35 87 36 29 37 30 38 31 39 81 40 32 41 86 42 80 43 82 44
REMARK SMILES IDX 33 45 85 46 79 47 78 48 34 50 66 51 46 52 65 53 47 54 50 55
REMARK SMILES IDX 64 56 83 57 48 58 49 59 63 61 84 62 51 63 35 64 36 65 44 66
REMARK SMILES IDX 37 67 38 68 42 69 45 70 39 71 40 72 43 73 41 74 67 75 68 76
REMARK SMILES IDX 76 77 69 78 70 79 74 80 77 81 71 82 72 83 75 84 73 85 52 86
REMARK SMILES IDX 53 87 61 88 54 89 55 90 59 91 62 92 56 93 57 94 60 95 58 96
REMARK H PARENT 7 16 82 49 50 60
REMARK Flexibility Score: inf
ROOT
ATOM      1  C   UNL     1       1.418   4.312   2.714  1.00  0.00     0.188 C 
ENDROOT
BRANCH   1   2
ATOM      2  O   UNL     1       2.737   4.181   2.192  1.00  0.00    -0.376 OA
BRANCH   2   3
ATOM      3  C   UNL     1       3.148   5.106   1.180  1.00  0.00     0.202 C 
BRANCH   3   4
ATOM      4  C   UNL     1       2.200   5.343  -0.013  1.00  0.00     0.261 C 
BRANCH   4   5
ATOM      5  O   UNL     1       0.894   5.781   0.407  1.00  0.00    -0.463 OA
BRANCH   5   6
ATOM      6  C   UNL     1      -0.170   5.280  -0.271  1.00  0.00     0.312 C 
ATOM      7  O   UNL     1      -0.095   4.744  -1.369  1.00  0.00    -0.252 OA
BRANCH   6   8
ATOM      8  C   UNL     1      -1.427   5.288   0.617  1.00  0.00     0.124 C 
ATOM      9  C   UNL     1      -2.695   3.493  -0.346  1.00  0.00     0.106 C 
ATOM     10  C   UNL     1      -3.414   4.794  -0.531  1.00  0.00    -0.006 C 
ATOM     11  C   UNL     1      -1.847   3.833   0.883  1.00  0.00     0.048 C 
ATOM     12  C   UNL     1      -2.670   5.802  -0.049  1.00  0.00    -0.014 C 
BRANCH   9  13
ATOM     13  N   UNL     1      -3.580   2.382  -0.175  1.00  0.00    -0.346 N 
ATOM     14  C   UNL     1      -3.339   1.028  -0.229  1.00  0.00     0.251 C 
ATOM     15  O   UNL     1      -4.330   0.294  -0.207  1.00  0.00    -0.269 OA
ATOM     16  H   UNL     1      -4.516   2.626   0.012  1.00  0.00     0.164 HD
BRANCH  14  17
ATOM     17  C   UNL     1      -1.975   0.390  -0.243  1.00  0.00     0.040 A 
ATOM     18  C   UNL     1       1.767   1.107  -0.556  1.00  0.00     0.047 C 
ATOM     19  C   UNL     1       0.476   0.360  -0.393  1.00  0.00    -0.015 A 
ATOM     20  C   UNL     1      -0.759   1.022  -0.538  1.00  0.00     0.020 A 
ATOM     21  C   UNL     1       0.479  -0.980  -0.015  1.00  0.00     0.126 A 
ATOM     22  C   UNL     1      -0.711  -1.658   0.207  1.00  0.00     0.040 A 
ATOM     23  F   UNL     1       1.640  -1.631   0.140  1.00  0.00    -0.207 F 
ATOM     24  C   UNL     1      -1.927  -0.974   0.103  1.00  0.00     0.017 A 
ENDBRANCH  14  17
ENDBRANCH   9  13
ENDBRANCH   6   8
ENDBRANCH   5   6
ENDBRANCH   4   5
ENDBRANCH   3   4
ENDBRANCH   2   3
ENDBRANCH   1   2
BRANCH   1  25
ATOM     25  C   UNL     1       0.988   5.655   3.359  1.00  0.00     0.188 C 
BRANCH  25  26
ATOM     26  O   UNL     1       1.583   6.781   2.744  1.00  0.00    -0.376 OA
BRANCH  26  27
ATOM     27  C   UNL     1       2.414   7.636   3.519  1.00  0.00     0.202 C 
BRANCH  27  28
ATOM     28  C   UNL     1       3.550   7.082   4.403  1.00  0.00     0.261 C 
BRANCH  28  29
ATOM     29  O   UNL     1       3.521   5.676   4.620  1.00  0.00    -0.460 OA
BRANCH  29  30
ATOM     30  C   UNL     1       2.914   5.337   5.770  1.00  0.00     0.338 C 
ATOM     31  O   UNL     1       2.483   6.073   6.641  1.00  0.00    -0.246 OA
BRANCH  30  32
ATOM     32  C   UNL     1       2.708   3.884   5.827  1.00  0.00     0.060 A 
ATOM     33  C   UNL     1       1.386   3.511   6.150  1.00  0.00     0.016 A 
ATOM     34  C   UNL     1       3.819   3.204   6.307  1.00  0.00     0.016 A 
ATOM     35  C   UNL     1       1.176   2.724   7.253  1.00  0.00     0.010 A 
ATOM     36  C   UNL     1       3.612   2.445   7.428  1.00  0.00     0.010 A 
ATOM     37  C   UNL     1       2.308   2.350   7.954  1.00  0.00    -0.014 A 
BRANCH  37  38
ATOM     38  C   UNL     1       2.254   2.090   9.372  1.00  0.00     0.031 A 
ATOM     39  C   UNL     1       2.273   0.706   9.828  1.00  0.00     0.074 A 
ATOM     40  C   UNL     1       2.396   3.156  10.188  1.00  0.00     0.049 A 
ATOM     41  N   UNL     1       2.191   0.350  11.059  1.00  0.00    -0.248 NA
ATOM     42  C   UNL     1       2.291  -0.414   8.890  1.00  0.00     0.031 C 
ATOM     43  C   UNL     1       2.898   3.175  11.554  1.00  0.00     0.029 A 
ATOM     44  N   UNL     1       1.909   4.458   9.970  1.00  0.00    -0.354 N 
ATOM     45  C   UNL     1       2.472  -0.992  11.099  1.00  0.00     0.074 A 
ATOM     46  C   UNL     1       2.344  -1.442   9.739  1.00  0.00     0.031 C 
ATOM     47  C   UNL     1       2.508   4.318  12.143  1.00  0.00     0.029 A 
ATOM     48  C   UNL     1       1.557   4.956  11.246  1.00  0.00     0.049 A 
ATOM     49  H   UNL     1       1.830   4.926   9.107  1.00  0.00     0.167 HD
ATOM     50  C   UNL     1       2.950  -1.498  12.267  1.00  0.00     0.037 A 
ATOM     51  C   UNL     1       0.239   5.160  11.558  1.00  0.00     0.037 A 
ATOM     52  C   UNL     1       2.686  -0.564  13.366  1.00  0.00     0.049 A 
ATOM     53  C   UNL     1      -0.292   4.262  12.662  1.00  0.00     0.074 A 
ATOM     54  C   UNL     1       3.441   0.365  14.062  1.00  0.00     0.029 A 
ATOM     55  N   UNL     1       1.361  -0.272  13.658  1.00  0.00    -0.354 N 
ATOM     56  N   UNL     1       0.344   3.229  13.142  1.00  0.00    -0.248 NA
ATOM     57  C   UNL     1      -1.629   4.408  13.241  1.00  0.00     0.031 C 
ATOM     58  C   UNL     1       2.538   1.283  14.687  1.00  0.00     0.029 A 
ATOM     59  C   UNL     1       1.243   0.888  14.397  1.00  0.00     0.049 A 
ATOM     60  H   UNL     1       0.599  -0.826  13.373  1.00  0.00     0.167 HD
ATOM     61  C   UNL     1      -0.457   2.572  14.029  1.00  0.00     0.074 A 
ATOM     62  C   UNL     1      -1.688   3.343  14.059  1.00  0.00     0.031 C 
ATOM     63  C   UNL     1      -0.084   1.424  14.657  1.00  0.00     0.037 A 
BRANCH  50  64
ATOM     64  C   UNL     1       3.824  -2.729  12.387  1.00  0.00     0.064 A 
ATOM     65  C   UNL     1       4.367  -3.072  13.644  1.00  0.00     0.173 A 
ATOM     66  C   UNL     1       4.277  -3.537  11.319  1.00  0.00     0.173 A 
ATOM     67  F   UNL     1       4.032  -2.398  14.753  1.00  0.00    -0.203 F 
ATOM     68  C   UNL     1       5.296  -4.107  13.806  1.00  0.00     0.198 A 
ATOM     69  C   UNL     1       5.176  -4.592  11.489  1.00  0.00     0.198 A 
ATOM     70  F   UNL     1       3.923  -3.329  10.050  1.00  0.00    -0.203 F 
ATOM     71  F   UNL     1       5.816  -4.347  15.018  1.00  0.00    -0.200 F 
ATOM     72  C   UNL     1       5.698  -4.869  12.729  1.00  0.00     0.200 A 
ATOM     73  F   UNL     1       5.550  -5.317  10.424  1.00  0.00    -0.200 F 
ATOM     74  F   UNL     1       6.592  -5.854  12.881  1.00  0.00    -0.200 F 
ENDBRANCH  50  64
BRANCH  51  75
ATOM     75  C   UNL     1      -0.570   5.602  10.389  1.00  0.00     0.064 A 
ATOM     76  C   UNL     1      -0.264   6.831   9.771  1.00  0.00     0.173 A 
ATOM     77  C   UNL     1      -1.357   4.693   9.671  1.00  0.00     0.173 A 
ATOM     78  F   UNL     1       0.473   7.744  10.424  1.00  0.00    -0.203 F 
ATOM     79  C   UNL     1      -0.630   7.087   8.451  1.00  0.00     0.198 A 
ATOM     80  C   UNL     1      -1.724   4.956   8.351  1.00  0.00     0.198 A 
ATOM     81  F   UNL     1      -1.689   3.509  10.205  1.00  0.00    -0.203 F 
ATOM     82  F   UNL     1      -0.255   8.230   7.858  1.00  0.00    -0.200 F 
ATOM     83  C   UNL     1      -1.332   6.134   7.732  1.00  0.00     0.200 A 
ATOM     84  F   UNL     1      -2.395   4.031   7.650  1.00  0.00    -0.200 F 
ATOM     85  F   UNL     1      -1.606   6.333   6.434  1.00  0.00    -0.200 F 
ENDBRANCH  51  75
BRANCH  63  86
ATOM     86  C   UNL     1      -0.996   0.713  15.598  1.00  0.00     0.064 A 
ATOM     87  C   UNL     1      -1.525   1.350  16.727  1.00  0.00     0.173 A 
ATOM     88  C   UNL     1      -1.264  -0.660  15.450  1.00  0.00     0.173 A 
ATOM     89  F   UNL     1      -1.303   2.656  16.939  1.00  0.00    -0.203 F 
ATOM     90  C   UNL     1      -2.288   0.649  17.660  1.00  0.00     0.198 A 
ATOM     91  C   UNL     1      -1.986  -1.367  16.405  1.00  0.00     0.198 A 
ATOM     92  F   UNL     1      -0.843  -1.333  14.368  1.00  0.00    -0.203 F 
ATOM     93  F   UNL     1      -2.811   1.294  18.712  1.00  0.00    -0.200 F 
ATOM     94  C   UNL     1      -2.502  -0.712  17.508  1.00  0.00     0.200 A 
ATOM     95  F   UNL     1      -2.179  -2.685  16.252  1.00  0.00    -0.200 F 
ATOM     96  F   UNL     1      -3.212  -1.389  18.420  1.00  0.00    -0.200 F 
ENDBRANCH  63  86
ENDBRANCH  37  38
ENDBRANCH  30  32
ENDBRANCH  29  30
ENDBRANCH  28  29
ENDBRANCH  27  28
ENDBRANCH  26  27
ENDBRANCH  25  26
ENDBRANCH   1  25
TORSDOF 19
