REMARK SMILES O=C(CN1C(=O)/C(=C\c2cccs2)SC1=S)Nc1ccccc1C(=O)OCCOCCOCCOC(=O)c1ccc(-c2c3nc(c(-c4c(F)c(F)c(F)c(F)c4F)c4ccc([nH]4)c(-c4c(F)c(F)c(F)c(F)c4F)c4nc(c(-c5c(F)c(F)c(F)c(F)c5F)c5ccc2[nH]5)C=C4)C=C3)cc1
REMARK SMILES IDX 30 1 29 2 28 3 27 4 26 5 24 6 25 7 23 8 18 9 19 10 20 11
REMARK SMILES IDX 22 12 21 13 17 14 1 15 2 16 3 18 4 19 5 20 15 21 6 22 7 23
REMARK SMILES IDX 14 24 16 25 8 26 9 27 10 28 13 29 11 30 12 31 31 32 32 33
REMARK SMILES IDX 33 34 34 35 35 36 36 37 37 38 38 39 39 40 100 41 40 42 99 43
REMARK SMILES IDX 41 44 42 45 43 46 93 47 44 48 98 49 92 50 94 51 45 52 97 53
REMARK SMILES IDX 91 54 90 55 46 57 78 58 58 59 77 60 59 61 62 62 76 63 95 64
REMARK SMILES IDX 60 65 61 66 75 68 96 69 63 70 47 71 48 72 56 73 49 74 50 75
REMARK SMILES IDX 54 76 57 77 51 78 52 79 55 80 53 81 79 82 80 83 88 84 81 85
REMARK SMILES IDX 82 86 86 87 89 88 83 89 84 90 87 91 85 92 64 93 65 94 73 95
REMARK SMILES IDX 66 96 67 97 71 98 74 99 68 100 69 101 72 102 70 103
REMARK H PARENT 17 17 94 56 62 67
REMARK Flexibility Score: inf
ROOT
ATOM      1  C   UNL     1       0.382   4.013   1.576  1.00  0.00     0.188 C 
ENDROOT
BRANCH   1   2
ATOM      2  O   UNL     1      -0.202   3.534   2.777  1.00  0.00    -0.376 OA
BRANCH   2   3
ATOM      3  C   UNL     1      -0.081   2.159   3.119  1.00  0.00     0.202 C 
BRANCH   3   4
ATOM      4  C   UNL     1      -0.264   1.063   2.060  1.00  0.00     0.261 C 
BRANCH   4   5
ATOM      5  O   UNL     1       0.438   1.308   0.837  1.00  0.00    -0.460 OA
BRANCH   5   6
ATOM      6  C   UNL     1      -0.310   1.366  -0.297  1.00  0.00     0.340 C 
ATOM      7  O   UNL     1      -1.528   1.304  -0.361  1.00  0.00    -0.246 OA
BRANCH   6   8
ATOM      8  C   UNL     1       0.540   1.791  -1.444  1.00  0.00     0.083 A 
ATOM      9  C   UNL     1       1.873   1.396  -1.663  1.00  0.00     0.055 A 
ATOM     10  C   UNL     1       2.614   2.029  -2.678  1.00  0.00     0.027 A 
ATOM     11  C   UNL     1       2.044   3.023  -3.475  1.00  0.00     0.002 A 
ATOM     12  C   UNL     1      -0.015   2.810  -2.245  1.00  0.00     0.018 A 
ATOM     13  C   UNL     1       0.732   3.423  -3.252  1.00  0.00     0.001 A 
BRANCH   9  14
ATOM     14  N   UNL     1       2.587   0.469  -0.880  1.00  0.00    -0.324 N 
ATOM     15  O   UNL     1       0.986  -1.156  -0.502  1.00  0.00    -0.273 OA
ATOM     16  C   UNL     1       2.059  -0.628  -0.221  1.00  0.00     0.244 C 
ATOM     17  H   UNL     1       3.557   0.615  -0.792  1.00  0.00     0.170 HD
BRANCH  16  18
ATOM     18  C   UNL     1       3.017  -1.243   0.800  1.00  0.00     0.227 C 
BRANCH  18  19
ATOM     19  N   UNL     1       3.909  -2.121   0.049  1.00  0.00    -0.283 N 
ATOM     20  C   UNL     1       4.928  -1.514  -0.655  1.00  0.00     0.266 C 
ATOM     21  C   UNL     1       3.757  -3.476  -0.115  1.00  0.00     0.148 C 
ATOM     22  O   UNL     1       5.179  -0.318  -0.578  1.00  0.00    -0.268 OA
ATOM     23  C   UNL     1       5.576  -2.479  -1.579  1.00  0.00     0.081 C 
ATOM     24  S   UNL     1       4.956  -4.061  -1.270  1.00  0.00    -0.054 SA
ATOM     25  S   UNL     1       2.665  -4.487   0.632  1.00  0.00    -0.052 S 
ATOM     26  C   UNL     1       6.414  -2.191  -2.586  1.00  0.00     0.040 C 
BRANCH  26  27
ATOM     27  C   UNL     1       6.832  -0.862  -2.876  1.00  0.00     0.028 A 
ATOM     28  C   UNL     1       7.593   0.008  -2.113  1.00  0.00     0.020 A 
ATOM     29  S   UNL     1       6.359  -0.117  -4.352  1.00  0.00    -0.144 S 
ATOM     30  C   UNL     1       7.696   1.306  -2.690  1.00  0.00     0.012 A 
ATOM     31  C   UNL     1       7.063   1.376  -3.909  1.00  0.00     0.065 A 
ENDBRANCH  26  27
ENDBRANCH  18  19
ENDBRANCH  16  18
ENDBRANCH   9  14
ENDBRANCH   6   8
ENDBRANCH   5   6
ENDBRANCH   4   5
ENDBRANCH   3   4
ENDBRANCH   2   3
ENDBRANCH   1   2
BRANCH   1  32
ATOM     32  C   UNL     1       1.886   3.786   1.307  1.00  0.00     0.188 C 
BRANCH  32  33
ATOM     33  O   UNL     1       2.555   2.952   2.221  1.00  0.00    -0.376 OA
BRANCH  33  34
ATOM     34  C   UNL     1       3.133   3.512   3.389  1.00  0.00     0.202 C 
BRANCH  34  35
ATOM     35  C   UNL     1       2.897   4.941   3.931  1.00  0.00     0.261 C 
BRANCH  35  36
ATOM     36  O   UNL     1       2.030   5.822   3.210  1.00  0.00    -0.460 OA
BRANCH  36  37
ATOM     37  C   UNL     1       2.627   6.759   2.429  1.00  0.00     0.338 C 
ATOM     38  O   UNL     1       3.814   6.914   2.237  1.00  0.00    -0.246 OA
BRANCH  37  39
ATOM     39  C   UNL     1       1.568   7.467   1.676  1.00  0.00     0.060 A 
ATOM     40  C   UNL     1       1.465   7.259   0.293  1.00  0.00     0.016 A 
ATOM     41  C   UNL     1       0.675   8.315   2.331  1.00  0.00     0.016 A 
ATOM     42  C   UNL     1       0.458   7.894  -0.437  1.00  0.00     0.010 A 
ATOM     43  C   UNL     1      -0.316   8.971   1.593  1.00  0.00     0.010 A 
ATOM     44  C   UNL     1      -0.424   8.773   0.204  1.00  0.00    -0.014 A 
BRANCH  44  45
ATOM     45  C   UNL     1      -1.391   9.578  -0.586  1.00  0.00     0.031 A 
ATOM     46  C   UNL     1      -1.056  11.007  -0.909  1.00  0.00     0.074 A 
ATOM     47  C   UNL     1      -2.557   9.051  -1.000  1.00  0.00     0.049 A 
ATOM     48  N   UNL     1      -1.784  11.920  -1.500  1.00  0.00    -0.248 NA
ATOM     49  C   UNL     1       0.282  11.467  -0.508  1.00  0.00     0.031 C 
ATOM     50  C   UNL     1      -2.982   7.670  -0.790  1.00  0.00     0.029 A 
ATOM     51  N   UNL     1      -3.607   9.629  -1.672  1.00  0.00    -0.354 N 
ATOM     52  C   UNL     1      -0.997  13.064  -1.535  1.00  0.00     0.074 A 
ATOM     53  C   UNL     1       0.253  12.738  -0.881  1.00  0.00     0.031 C 
ATOM     54  C   UNL     1      -4.213   7.510  -1.305  1.00  0.00     0.029 A 
ATOM     55  C   UNL     1      -4.680   8.788  -1.842  1.00  0.00     0.049 A 
ATOM     56  H   UNL     1      -3.592  10.558  -1.999  1.00  0.00     0.167 HD
ATOM     57  C   UNL     1      -1.291  14.274  -2.067  1.00  0.00     0.037 A 
ATOM     58  C   UNL     1      -5.908   9.033  -2.341  1.00  0.00     0.037 A 
ATOM     59  C   UNL     1      -2.540  14.600  -2.706  1.00  0.00     0.049 A 
ATOM     60  C   UNL     1      -6.245  10.418  -2.838  1.00  0.00     0.074 A 
ATOM     61  C   UNL     1      -2.922  15.792  -3.296  1.00  0.00     0.029 A 
ATOM     62  N   UNL     1      -3.617  13.733  -2.825  1.00  0.00    -0.354 N 
ATOM     63  N   UNL     1      -5.487  11.486  -2.899  1.00  0.00    -0.248 NA
ATOM     64  C   UNL     1      -7.614  10.630  -3.333  1.00  0.00     0.031 C 
ATOM     65  C   UNL     1      -4.252  15.669  -3.710  1.00  0.00     0.029 A 
ATOM     66  C   UNL     1      -4.678  14.379  -3.442  1.00  0.00     0.049 A 
ATOM     67  H   UNL     1      -3.627  12.799  -2.515  1.00  0.00     0.167 HD
ATOM     68  C   UNL     1      -6.275  12.484  -3.461  1.00  0.00     0.074 A 
ATOM     69  C   UNL     1      -7.564  11.889  -3.742  1.00  0.00     0.031 C 
ATOM     70  C   UNL     1      -5.958  13.777  -3.720  1.00  0.00     0.037 A 
BRANCH  57  71
ATOM     71  C   UNL     1      -0.253  15.354  -1.952  1.00  0.00     0.064 A 
ATOM     72  C   UNL     1       0.949  15.305  -2.676  1.00  0.00     0.173 A 
ATOM     73  C   UNL     1      -0.481  16.473  -1.136  1.00  0.00     0.173 A 
ATOM     74  F   UNL     1       1.222  14.253  -3.461  1.00  0.00    -0.203 F 
ATOM     75  C   UNL     1       1.894  16.322  -2.564  1.00  0.00     0.198 A 
ATOM     76  C   UNL     1       0.451  17.503  -1.053  1.00  0.00     0.198 A 
ATOM     77  F   UNL     1      -1.615  16.573  -0.427  1.00  0.00    -0.203 F 
ATOM     78  F   UNL     1       3.056  16.230  -3.226  1.00  0.00    -0.200 F 
ATOM     79  C   UNL     1       1.641  17.424  -1.760  1.00  0.00     0.200 A 
ATOM     80  F   UNL     1       0.198  18.574  -0.288  1.00  0.00    -0.200 F 
ATOM     81  F   UNL     1       2.547  18.406  -1.662  1.00  0.00    -0.200 F 
ENDBRANCH  57  71
BRANCH  58  82
ATOM     82  C   UNL     1      -6.929   7.951  -2.376  1.00  0.00     0.064 A 
ATOM     83  C   UNL     1      -7.405   7.443  -3.592  1.00  0.00     0.173 A 
ATOM     84  C   UNL     1      -7.475   7.426  -1.194  1.00  0.00     0.173 A 
ATOM     85  F   UNL     1      -6.939   7.934  -4.750  1.00  0.00    -0.203 F 
ATOM     86  C   UNL     1      -8.401   6.468  -3.627  1.00  0.00     0.198 A 
ATOM     87  C   UNL     1      -8.447   6.428  -1.229  1.00  0.00     0.198 A 
ATOM     88  F   UNL     1      -7.063   7.884  -0.002  1.00  0.00    -0.203 F 
ATOM     89  F   UNL     1      -8.879   6.044  -4.805  1.00  0.00    -0.200 F 
ATOM     90  C   UNL     1      -8.916   5.957  -2.445  1.00  0.00     0.200 A 
ATOM     91  F   UNL     1      -8.936   5.931  -0.085  1.00  0.00    -0.200 F 
ATOM     92  F   UNL     1      -9.874   5.021  -2.479  1.00  0.00    -0.200 F 
ENDBRANCH  58  82
BRANCH  70  93
ATOM     93  C   UNL     1      -7.010  14.636  -4.368  1.00  0.00     0.064 A 
ATOM     94  C   UNL     1      -8.160  15.043  -3.675  1.00  0.00     0.173 A 
ATOM     95  C   UNL     1      -6.842  15.095  -5.684  1.00  0.00     0.173 A 
ATOM     96  F   UNL     1      -8.377  14.623  -2.420  1.00  0.00    -0.203 F 
ATOM     97  C   UNL     1      -9.115  15.855  -4.285  1.00  0.00     0.198 A 
ATOM     98  C   UNL     1      -7.781  15.935  -6.278  1.00  0.00     0.198 A 
ATOM     99  F   UNL     1      -5.757  14.744  -6.390  1.00  0.00    -0.203 F 
ATOM    100  F   UNL     1     -10.229  16.189  -3.621  1.00  0.00    -0.200 F 
ATOM    101  C   UNL     1      -8.920  16.307  -5.581  1.00  0.00     0.200 A 
ATOM    102  F   UNL     1      -7.581  16.386  -7.524  1.00  0.00    -0.200 F 
ATOM    103  F   UNL     1      -9.834  17.098  -6.162  1.00  0.00    -0.200 F 
ENDBRANCH  70  93
ENDBRANCH  44  45
ENDBRANCH  37  39
ENDBRANCH  36  37
ENDBRANCH  35  36
ENDBRANCH  34  35
ENDBRANCH  33  34
ENDBRANCH  32  33
ENDBRANCH   1  32
TORSDOF 21
