REMARK SMILES COc1cc(OC)cc(-c2ccc([C@@H](C)C(=O)OCCOCCOCCOC(=O)c3ccc(-c4c5nc(c(-c6c(F)c(F)c(F)c(F)c6F)c6ccc([nH]6)c(-c6c(F)c(F)c(F)c(F)c6F)c6nc(c(-c7c(F)c(F)c(F)c(F)c7F)c7ccc4[nH]7)C=C6)C=C5)cc3)cc2F)c1
REMARK SMILES IDX 22 1 21 2 20 3 19 4 18 5 16 6 17 7 14 8 15 9 13 10 10 11
REMARK SMILES IDX 11 12 94 13 12 14 93 15 95 16 9 17 3 18 4 19 96 20 5 21 8 22
REMARK SMILES IDX 2 23 1 24 6 25 7 26 23 27 24 28 25 29 26 30 27 31 28 32
REMARK SMILES IDX 29 33 30 34 31 35 92 36 32 37 91 38 33 39 34 40 35 41 85 42
REMARK SMILES IDX 36 43 90 44 84 45 86 46 37 47 89 48 83 49 82 50 38 52 70 53
REMARK SMILES IDX 50 54 69 55 51 56 54 57 68 58 87 59 52 60 53 61 67 63 88 64
REMARK SMILES IDX 55 65 39 66 40 67 48 68 41 69 42 70 46 71 49 72 43 73 44 74
REMARK SMILES IDX 47 75 45 76 71 77 72 78 80 79 73 80 74 81 78 82 81 83 75 84
REMARK SMILES IDX 76 85 79 86 77 87 56 88 57 89 65 90 58 91 59 92 63 93 66 94
REMARK SMILES IDX 60 95 61 96 64 97 62 98
REMARK H PARENT 86 51 54 62
REMARK Flexibility Score: inf
ROOT
ATOM      1  C   UNL     1       8.909   2.835  -0.532  1.00  0.00     0.188 C 
ENDROOT
BRANCH   1   2
ATOM      2  O   UNL     1       9.586   3.884   0.149  1.00  0.00    -0.376 OA
BRANCH   2   3
ATOM      3  C   UNL     1       9.222   5.235  -0.111  1.00  0.00     0.202 C 
BRANCH   3   4
ATOM      4  C   UNL     1       9.275   5.742  -1.562  1.00  0.00     0.261 C 
BRANCH   4   5
ATOM      5  O   UNL     1       8.502   4.984  -2.523  1.00  0.00    -0.463 OA
BRANCH   5   6
ATOM      6  C   UNL     1       9.189   4.426  -3.552  1.00  0.00     0.313 C 
ATOM      7  O   UNL     1      10.400   4.572  -3.712  1.00  0.00    -0.252 OA
BRANCH   6   8
ATOM      8  C   UNL     1       8.376   3.562  -4.522  1.00  0.00     0.126 C 
ATOM      9  C   UNL     1       8.488   4.154  -5.925  1.00  0.00     0.025 C 
BRANCH   8  10
ATOM     10  C   UNL     1       6.928   3.179  -4.219  1.00  0.00    -0.031 A 
ATOM     11  C   UNL     1       4.245   2.341  -3.646  1.00  0.00     0.018 A 
ATOM     12  C   UNL     1       4.609   3.700  -3.656  1.00  0.00     0.012 A 
ATOM     13  C   UNL     1       5.254   1.414  -3.926  1.00  0.00     0.131 A 
ATOM     14  C   UNL     1       5.923   4.115  -3.947  1.00  0.00     0.005 A 
ATOM     15  C   UNL     1       6.563   1.817  -4.218  1.00  0.00     0.044 A 
ATOM     16  F   UNL     1       4.982   0.100  -3.943  1.00  0.00    -0.206 F 
BRANCH  11  17
ATOM     17  C   UNL     1       2.839   1.931  -3.456  1.00  0.00    -0.008 A 
ATOM     18  C   UNL     1       1.085   0.689  -2.307  1.00  0.00     0.123 A 
ATOM     19  C   UNL     1       0.154   1.127  -3.250  1.00  0.00     0.092 A 
ATOM     20  C   UNL     1       2.426   1.078  -2.415  1.00  0.00     0.055 A 
ATOM     21  C   UNL     1       0.539   1.967  -4.291  1.00  0.00     0.123 A 
ATOM     22  C   UNL     1       1.871   2.373  -4.380  1.00  0.00     0.055 A 
BRANCH  18  23
ATOM     23  O   UNL     1       0.593  -0.181  -1.371  1.00  0.00    -0.497 OA
ATOM     24  C   UNL     1       1.113  -0.015  -0.057  1.00  0.00     0.278 C 
ENDBRANCH  18  23
BRANCH  21  25
ATOM     25  O   UNL     1      -0.461   2.321  -5.156  1.00  0.00    -0.497 OA
ATOM     26  C   UNL     1      -0.060   2.967  -6.358  1.00  0.00     0.278 C 
ENDBRANCH  21  25
ENDBRANCH  11  17
ENDBRANCH   8  10
ENDBRANCH   6   8
ENDBRANCH   5   6
ENDBRANCH   4   5
ENDBRANCH   3   4
ENDBRANCH   2   3
ENDBRANCH   1   2
BRANCH   1  27
ATOM     27  C   UNL     1       7.408   2.970  -0.824  1.00  0.00     0.188 C 
BRANCH  27  28
ATOM     28  O   UNL     1       6.784   4.063  -0.190  1.00  0.00    -0.376 OA
BRANCH  28  29
ATOM     29  C   UNL     1       5.678   3.781   0.643  1.00  0.00     0.202 C 
BRANCH  29  30
ATOM     30  C   UNL     1       5.981   2.934   1.888  1.00  0.00     0.261 C 
BRANCH  30  31
ATOM     31  O   UNL     1       6.739   1.731   1.666  1.00  0.00    -0.460 OA
BRANCH  31  32
ATOM     32  C   UNL     1       6.100   0.693   1.070  1.00  0.00     0.338 C 
ATOM     33  O   UNL     1       4.943   0.654   0.713  1.00  0.00    -0.246 OA
BRANCH  32  34
ATOM     34  C   UNL     1       7.130  -0.323   0.728  1.00  0.00     0.060 A 
ATOM     35  C   UNL     1       7.317  -0.684  -0.614  1.00  0.00     0.016 A 
ATOM     36  C   UNL     1       7.912  -0.904   1.727  1.00  0.00     0.016 A 
ATOM     37  C   UNL     1       8.271  -1.649  -0.956  1.00  0.00     0.010 A 
ATOM     38  C   UNL     1       8.850  -1.885   1.386  1.00  0.00     0.010 A 
ATOM     39  C   UNL     1       9.015  -2.285   0.047  1.00  0.00    -0.014 A 
BRANCH  39  40
ATOM     40  C   UNL     1       9.828  -3.490  -0.265  1.00  0.00     0.031 A 
ATOM     41  C   UNL     1       9.243  -4.844   0.034  1.00  0.00     0.074 A 
ATOM     42  C   UNL     1      11.064  -3.397  -0.787  1.00  0.00     0.049 A 
ATOM     43  N   UNL     1       9.792  -6.030  -0.051  1.00  0.00    -0.248 NA
ATOM     44  C   UNL     1       7.848  -4.858   0.501  1.00  0.00     0.031 C 
ATOM     45  C   UNL     1      11.735  -2.155  -1.159  1.00  0.00     0.029 A 
ATOM     46  N   UNL     1      11.984  -4.378  -1.075  1.00  0.00    -0.354 N 
ATOM     47  C   UNL     1       8.816  -6.926   0.367  1.00  0.00     0.074 A 
ATOM     48  C   UNL     1       7.653  -6.147   0.731  1.00  0.00     0.031 C 
ATOM     49  C   UNL     1      12.969  -2.445  -1.608  1.00  0.00     0.029 A 
ATOM     50  C   UNL     1      13.189  -3.888  -1.518  1.00  0.00     0.049 A 
ATOM     51  H   UNL     1      11.797  -5.339  -0.975  1.00  0.00     0.167 HD
ATOM     52  C   UNL     1       8.882  -8.277   0.436  1.00  0.00     0.037 A 
ATOM     53  C   UNL     1      14.345  -4.529  -1.786  1.00  0.00     0.037 A 
ATOM     54  C   UNL     1      10.040  -9.053   0.073  1.00  0.00     0.049 A 
ATOM     55  C   UNL     1      14.419  -6.029  -1.632  1.00  0.00     0.074 A 
ATOM     56  C   UNL     1      10.193 -10.428   0.081  1.00  0.00     0.029 A 
ATOM     57  N   UNL     1      11.247  -8.519  -0.352  1.00  0.00    -0.354 N 
ATOM     58  N   UNL     1      13.486  -6.874  -1.265  1.00  0.00    -0.248 NA
ATOM     59  C   UNL     1      15.711  -6.665  -1.934  1.00  0.00     0.031 C 
ATOM     60  C   UNL     1      11.513 -10.723  -0.274  1.00  0.00     0.029 A 
ATOM     61  C   UNL     1      12.161  -9.537  -0.576  1.00  0.00     0.049 A 
ATOM     62  H   UNL     1      11.428  -7.559  -0.476  1.00  0.00     0.167 HD
ATOM     63  C   UNL     1      14.064  -8.137  -1.323  1.00  0.00     0.074 A 
ATOM     64  C   UNL     1      15.427  -7.950  -1.773  1.00  0.00     0.031 C 
ATOM     65  C   UNL     1      13.515  -9.342  -1.033  1.00  0.00     0.037 A 
BRANCH  52  66
ATOM     66  C   UNL     1       7.678  -9.005   0.962  1.00  0.00     0.064 A 
ATOM     67  C   UNL     1       6.478  -9.076   0.237  1.00  0.00     0.173 A 
ATOM     68  C   UNL     1       7.735  -9.665   2.198  1.00  0.00     0.173 A 
ATOM     69  F   UNL     1       6.365  -8.451  -0.945  1.00  0.00    -0.203 F 
ATOM     70  C   UNL     1       5.373  -9.755   0.744  1.00  0.00     0.198 A 
ATOM     71  C   UNL     1       6.640 -10.373   2.687  1.00  0.00     0.198 A 
ATOM     72  F   UNL     1       8.858  -9.633   2.931  1.00  0.00    -0.203 F 
ATOM     73  F   UNL     1       4.221  -9.764   0.059  1.00  0.00    -0.200 F 
ATOM     74  C   UNL     1       5.457 -10.409   1.964  1.00  0.00     0.200 A 
ATOM     75  F   UNL     1       6.729 -11.017   3.858  1.00  0.00    -0.200 F 
ATOM     76  F   UNL     1       4.396 -11.069   2.448  1.00  0.00    -0.200 F 
ENDBRANCH  52  66
BRANCH  53  77
ATOM     77  C   UNL     1      15.543  -3.756  -2.211  1.00  0.00     0.064 A 
ATOM     78  C   UNL     1      16.075  -3.891  -3.501  1.00  0.00     0.173 A 
ATOM     79  C   UNL     1      16.198  -2.885  -1.327  1.00  0.00     0.173 A 
ATOM     80  F   UNL     1      15.505  -4.734  -4.375  1.00  0.00    -0.203 F 
ATOM     81  C   UNL     1      17.224  -3.201  -3.884  1.00  0.00     0.198 A 
ATOM     82  C   UNL     1      17.328  -2.171  -1.721  1.00  0.00     0.198 A 
ATOM     83  F   UNL     1      15.737  -2.724  -0.077  1.00  0.00    -0.203 F 
ATOM     84  F   UNL     1      17.740  -3.391  -5.106  1.00  0.00    -0.200 F 
ATOM     85  C   UNL     1      17.845  -2.336  -2.997  1.00  0.00     0.200 A 
ATOM     86  F   UNL     1      17.919  -1.329  -0.863  1.00  0.00    -0.200 F 
ATOM     87  F   UNL     1      18.948  -1.671  -3.366  1.00  0.00    -0.200 F 
ENDBRANCH  53  77
BRANCH  65  88
ATOM     88  C   UNL     1      14.366 -10.566  -1.237  1.00  0.00     0.064 A 
ATOM     89  C   UNL     1      15.459 -10.857  -0.408  1.00  0.00     0.173 A 
ATOM     90  C   UNL     1      14.051 -11.486  -2.250  1.00  0.00     0.173 A 
ATOM     91  F   UNL     1      15.812 -10.008   0.569  1.00  0.00    -0.203 F 
ATOM     92  C   UNL     1      16.221 -12.007  -0.604  1.00  0.00     0.198 A 
ATOM     93  C   UNL     1      14.793 -12.652  -2.420  1.00  0.00     0.198 A 
ATOM     94  F   UNL     1      13.010 -11.263  -3.066  1.00  0.00    -0.203 F 
ATOM     95  F   UNL     1      17.293 -12.238   0.168  1.00  0.00    -0.200 F 
ATOM     96  C   UNL     1      15.883 -12.907  -1.603  1.00  0.00     0.200 A 
ATOM     97  F   UNL     1      14.451 -13.528  -3.375  1.00  0.00    -0.200 F 
ATOM     98  F   UNL     1      16.611 -14.018  -1.783  1.00  0.00    -0.200 F 
ENDBRANCH  65  88
ENDBRANCH  39  40
ENDBRANCH  32  34
ENDBRANCH  31  32
ENDBRANCH  30  31
ENDBRANCH  29  30
ENDBRANCH  28  29
ENDBRANCH  27  28
ENDBRANCH   1  27
TORSDOF 21
