REMARK SMILES O=C(C[N@@H+]1CCC[C@@H]1c1ccccc1Cl)OCCOCCOCCOC(=O)c1ccc(-c2c3nc(c(-c4c(F)c(F)c(F)c(F)c4F)c4ccc([nH]4)c(-c4c(F)c(F)c(F)c(F)c4F)c4nc(c(-c5c(F)c(F)c(F)c(F)c5F)c5ccc2[nH]5)C=C4)C=C3)cc1
REMARK SMILES IDX 20 1 19 2 18 3 17 4 16 5 2 6 1 7 3 8 4 9 5 10 8 11 6 13 7 14
REMARK SMILES IDX 9 15 10 16 14 17 11 18 13 19 15 20 12 21 21 22 22 23 23 24
REMARK SMILES IDX 24 25 25 26 26 27 27 28 28 29 29 30 90 31 30 32 89 33 31 34
REMARK SMILES IDX 32 35 33 36 83 37 34 38 88 39 82 40 84 41 35 42 87 43 81 44
REMARK SMILES IDX 80 45 36 47 68 48 48 49 67 50 49 51 52 52 66 53 85 54 50 55
REMARK SMILES IDX 51 56 65 58 86 59 53 60 37 61 38 62 46 63 39 64 40 65 44 66
REMARK SMILES IDX 47 67 41 68 42 69 45 70 43 71 69 72 70 73 78 74 71 75 72 76
REMARK SMILES IDX 76 77 79 78 73 79 74 80 77 81 75 82 54 83 55 84 63 85 56 86
REMARK SMILES IDX 57 87 61 88 64 89 58 90 59 91 62 92 60 93
REMARK H PARENT 4 12 84 46 52 57
REMARK Flexibility Score: inf
ROOT
ATOM      1  C   UNL     1       2.536   1.804  -0.647  1.00  0.00     0.188 C 
ENDROOT
BRANCH   1   2
ATOM      2  O   UNL     1       3.474   1.323   0.316  1.00  0.00    -0.376 OA
BRANCH   2   3
ATOM      3  C   UNL     1       4.647   0.700  -0.196  1.00  0.00     0.202 C 
BRANCH   3   4
ATOM      4  C   UNL     1       4.477  -0.407  -1.243  1.00  0.00     0.261 C 
BRANCH   4   5
ATOM      5  O   UNL     1       3.171  -0.993  -1.393  1.00  0.00    -0.459 OA
BRANCH   5   6
ATOM      6  C   UNL     1       2.557  -1.804  -0.502  1.00  0.00     0.361 C 
ATOM      7  O   UNL     1       1.568  -2.454  -0.844  1.00  0.00    -0.245 OA
BRANCH   6   8
ATOM      8  C   UNL     1       3.043  -1.817   0.938  1.00  0.00     0.387 C 
BRANCH   8   9
ATOM      9  N   UNL     1       4.302  -2.553   1.117  1.00  0.00    -0.319 N 
ATOM     10  C   UNL     1       4.052  -4.006   0.998  1.00  0.00     0.263 C 
ATOM     11  C   UNL     1       5.018  -2.428   2.429  1.00  0.00     0.217 C 
ATOM     12  H   UNL     1       4.888  -2.127   0.400  1.00  0.00     0.349 HD
ATOM     13  C   UNL     1       3.724  -4.463   2.409  1.00  0.00     0.068 C 
ATOM     14  C   UNL     1       4.665  -3.653   3.277  1.00  0.00     0.076 C 
BRANCH  11  15
ATOM     15  C   UNL     1       5.004  -1.133   3.222  1.00  0.00     0.028 A 
ATOM     16  C   UNL     1       3.805  -0.473   3.522  1.00  0.00     0.011 A 
ATOM     17  C   UNL     1       6.186  -0.556   3.731  1.00  0.00     0.050 A 
ATOM     18  C   UNL     1       3.804   0.809   4.057  1.00  0.00     0.001 A 
ATOM     19  C   UNL     1       6.177   0.706   4.336  1.00  0.00     0.021 A 
ATOM     20  Cl  UNL     1       7.710  -1.376   3.700  1.00  0.00    -0.084 Cl
ATOM     21  C   UNL     1       4.990   1.413   4.446  1.00  0.00     0.002 A 
ENDBRANCH  11  15
ENDBRANCH   8   9
ENDBRANCH   6   8
ENDBRANCH   5   6
ENDBRANCH   4   5
ENDBRANCH   3   4
ENDBRANCH   2   3
ENDBRANCH   1   2
BRANCH   1  22
ATOM     22  C   UNL     1       1.852   3.055  -0.088  1.00  0.00     0.188 C 
BRANCH  22  23
ATOM     23  O   UNL     1       2.491   4.279  -0.464  1.00  0.00    -0.376 OA
BRANCH  23  24
ATOM     24  C   UNL     1       3.837   4.446  -0.029  1.00  0.00     0.202 C 
BRANCH  24  25
ATOM     25  C   UNL     1       3.997   5.097   1.345  1.00  0.00     0.261 C 
BRANCH  25  26
ATOM     26  O   UNL     1       3.426   4.330   2.416  1.00  0.00    -0.460 OA
BRANCH  26  27
ATOM     27  C   UNL     1       2.264   4.809   2.922  1.00  0.00     0.338 C 
ATOM     28  O   UNL     1       1.608   5.761   2.538  1.00  0.00    -0.246 OA
BRANCH  27  29
ATOM     29  C   UNL     1       1.870   3.967   4.062  1.00  0.00     0.060 A 
ATOM     30  C   UNL     1       0.668   3.253   4.018  1.00  0.00     0.016 A 
ATOM     31  C   UNL     1       2.685   3.915   5.196  1.00  0.00     0.016 A 
ATOM     32  C   UNL     1       0.274   2.485   5.120  1.00  0.00     0.010 A 
ATOM     33  C   UNL     1       2.308   3.121   6.282  1.00  0.00     0.010 A 
ATOM     34  C   UNL     1       1.082   2.429   6.268  1.00  0.00    -0.014 A 
BRANCH  34  35
ATOM     35  C   UNL     1       0.553   1.863   7.537  1.00  0.00     0.031 A 
ATOM     36  C   UNL     1       0.103   2.834   8.598  1.00  0.00     0.074 A 
ATOM     37  C   UNL     1       0.476   0.539   7.769  1.00  0.00     0.049 A 
ATOM     38  N   UNL     1      -0.378   2.606   9.793  1.00  0.00    -0.248 NA
ATOM     39  C   UNL     1       0.245   4.263   8.270  1.00  0.00     0.031 C 
ATOM     40  C   UNL     1       0.893  -0.516   6.850  1.00  0.00     0.029 A 
ATOM     41  N   UNL     1       0.015  -0.141   8.872  1.00  0.00    -0.354 N 
ATOM     42  C   UNL     1      -0.579   3.859  10.357  1.00  0.00     0.074 A 
ATOM     43  C   UNL     1      -0.105   4.838   9.407  1.00  0.00     0.031 C 
ATOM     44  C   UNL     1       0.657  -1.713   7.422  1.00  0.00     0.029 A 
ATOM     45  C   UNL     1       0.083  -1.508   8.751  1.00  0.00     0.049 A 
ATOM     46  H   UNL     1      -0.332   0.311   9.675  1.00  0.00     0.167 HD
ATOM     47  C   UNL     1      -1.141   4.177  11.546  1.00  0.00     0.037 A 
ATOM     48  C   UNL     1      -0.287  -2.475   9.616  1.00  0.00     0.037 A 
ATOM     49  C   UNL     1      -1.644   3.217  12.487  1.00  0.00     0.049 A 
ATOM     50  C   UNL     1      -0.894  -2.098  10.947  1.00  0.00     0.074 A 
ATOM     51  C   UNL     1      -2.274   3.442  13.697  1.00  0.00     0.029 A 
ATOM     52  N   UNL     1      -1.571   1.844  12.318  1.00  0.00    -0.354 N 
ATOM     53  N   UNL     1      -1.157  -0.911  11.436  1.00  0.00    -0.248 NA
ATOM     54  C   UNL     1      -1.268  -3.205  11.842  1.00  0.00     0.031 C 
ATOM     55  C   UNL     1      -2.551   2.201  14.280  1.00  0.00     0.029 A 
ATOM     56  C   UNL     1      -2.132   1.206  13.411  1.00  0.00     0.049 A 
ATOM     57  H   UNL     1      -1.179   1.390  11.538  1.00  0.00     0.167 HD
ATOM     58  C   UNL     1      -1.767  -1.129  12.667  1.00  0.00     0.074 A 
ATOM     59  C   UNL     1      -1.837  -2.562  12.852  1.00  0.00     0.031 C 
ATOM     60  C   UNL     1      -2.228  -0.223  13.564  1.00  0.00     0.037 A 
BRANCH  47  61
ATOM     61  C   UNL     1      -1.234   5.636  11.879  1.00  0.00     0.064 A 
ATOM     62  C   UNL     1      -2.110   6.490  11.190  1.00  0.00     0.173 A 
ATOM     63  C   UNL     1      -0.418   6.191  12.874  1.00  0.00     0.173 A 
ATOM     64  F   UNL     1      -2.894   6.008  10.214  1.00  0.00    -0.203 F 
ATOM     65  C   UNL     1      -2.130   7.856  11.453  1.00  0.00     0.198 A 
ATOM     66  C   UNL     1      -0.465   7.553  13.156  1.00  0.00     0.198 A 
ATOM     67  F   UNL     1       0.435   5.417  13.560  1.00  0.00    -0.203 F 
ATOM     68  F   UNL     1      -2.919   8.664  10.732  1.00  0.00    -0.200 F 
ATOM     69  C   UNL     1      -1.310   8.386  12.438  1.00  0.00     0.200 A 
ATOM     70  F   UNL     1       0.323   8.064  14.113  1.00  0.00    -0.200 F 
ATOM     71  F   UNL     1      -1.323   9.703  12.684  1.00  0.00    -0.200 F 
ENDBRANCH  47  61
BRANCH  48  72
ATOM     72  C   UNL     1      -0.142  -3.911   9.252  1.00  0.00     0.064 A 
ATOM     73  C   UNL     1      -1.274  -4.705   9.012  1.00  0.00     0.173 A 
ATOM     74  C   UNL     1       1.112  -4.534   9.204  1.00  0.00     0.173 A 
ATOM     75  F   UNL     1      -2.498  -4.161   9.078  1.00  0.00    -0.203 F 
ATOM     76  C   UNL     1      -1.158  -6.071   8.765  1.00  0.00     0.198 A 
ATOM     77  C   UNL     1       1.229  -5.897   8.933  1.00  0.00     0.198 A 
ATOM     78  F   UNL     1       2.225  -3.822   9.433  1.00  0.00    -0.203 F 
ATOM     79  F   UNL     1      -2.260  -6.816   8.598  1.00  0.00    -0.200 F 
ATOM     80  C   UNL     1       0.093  -6.666   8.725  1.00  0.00     0.200 A 
ATOM     81  F   UNL     1       2.440  -6.468   8.891  1.00  0.00    -0.200 F 
ATOM     82  F   UNL     1       0.205  -7.982   8.500  1.00  0.00    -0.200 F 
ENDBRANCH  48  72
BRANCH  60  83
ATOM     83  C   UNL     1      -2.910  -0.741  14.797  1.00  0.00     0.064 A 
ATOM     84  C   UNL     1      -2.195  -1.347  15.839  1.00  0.00     0.173 A 
ATOM     85  C   UNL     1      -4.294  -0.570  14.962  1.00  0.00     0.173 A 
ATOM     86  F   UNL     1      -0.873  -1.544  15.725  1.00  0.00    -0.203 F 
ATOM     87  C   UNL     1      -2.842  -1.780  16.994  1.00  0.00     0.198 A 
ATOM     88  C   UNL     1      -4.933  -0.978  16.130  1.00  0.00     0.198 A 
ATOM     89  F   UNL     1      -5.023   0.011  13.998  1.00  0.00    -0.203 F 
ATOM     90  F   UNL     1      -2.144  -2.391  17.962  1.00  0.00    -0.200 F 
ATOM     91  C   UNL     1      -4.208  -1.588  17.142  1.00  0.00     0.200 A 
ATOM     92  F   UNL     1      -6.250  -0.778  16.276  1.00  0.00    -0.200 F 
ATOM     93  F   UNL     1      -4.826  -1.994  18.259  1.00  0.00    -0.200 F 
ENDBRANCH  60  83
ENDBRANCH  34  35
ENDBRANCH  27  29
ENDBRANCH  26  27
ENDBRANCH  25  26
ENDBRANCH  24  25
ENDBRANCH  23  24
ENDBRANCH  22  23
ENDBRANCH   1  22
TORSDOF 19
