REMARK SMILES C[NH2+][C@@]1(C(=O)OCCOCCOCCOC(=O)c2ccc(-c3c4nc(c(-c5c(F)c(F)c(F)c(F)c5F)c5ccc([nH]5)c(-c5c(F)c(F)c(F)c(F)c5F)c5nc(c(-c6c(F)c(F)c(F)c(F)c6F)c6ccc3[nH]6)C=C5)C=C4)cc2)CC[C@H]([NH+]2CC[NH+](C)CC2)C1
REMARK SMILES IDX 11 1 10 2 9 3 8 4 7 5 6 6 4 7 5 8 3 9 81 10 91 11 82 12
REMARK SMILES IDX 83 13 2 14 1 15 84 18 85 19 90 20 86 22 89 23 87 24 88 25
REMARK SMILES IDX 12 27 13 28 14 29 15 30 16 31 17 32 18 33 19 34 80 35 20 36
REMARK SMILES IDX 79 37 21 38 22 39 23 40 73 41 24 42 78 43 72 44 74 45 25 46
REMARK SMILES IDX 77 47 71 48 70 49 26 51 58 52 38 53 57 54 39 55 42 56 56 57
REMARK SMILES IDX 75 58 40 59 41 60 55 62 76 63 43 64 27 65 28 66 36 67 29 68
REMARK SMILES IDX 30 69 34 70 37 71 31 72 32 73 35 74 33 75 59 76 60 77 68 78
REMARK SMILES IDX 61 79 62 80 66 81 69 82 63 83 64 84 67 85 65 86 44 87 45 88
REMARK SMILES IDX 53 89 46 90 47 91 51 92 54 93 48 94 49 95 52 96 50 97
REMARK H PARENT 2 16 2 17 84 21 87 26 74 50 42 61
REMARK Flexibility Score: inf
ROOT
ATOM      1  C   UNL     1      -1.166  -1.376   1.505  1.00  0.00     0.188 C 
ENDROOT
BRANCH   1   2
ATOM      2  C   UNL     1      -0.463  -0.666   2.666  1.00  0.00     0.188 C 
BRANCH   2   3
ATOM      3  O   UNL     1      -1.255  -0.031   3.656  1.00  0.00    -0.376 OA
BRANCH   3   4
ATOM      4  C   UNL     1      -2.288   0.854   3.229  1.00  0.00     0.202 C 
BRANCH   4   5
ATOM      5  C   UNL     1      -1.859   1.976   2.281  1.00  0.00     0.261 C 
BRANCH   5   6
ATOM      6  O   UNL     1      -1.767   1.490   0.924  1.00  0.00    -0.459 OA
BRANCH   6   7
ATOM      7  C   UNL     1      -1.217   2.354   0.035  1.00  0.00     0.368 C 
ATOM      8  O   UNL     1      -0.828   3.476   0.351  1.00  0.00    -0.245 OA
BRANCH   7   9
ATOM      9  C   UNL     1      -1.007   1.763  -1.400  1.00  0.00     0.200 C 
ATOM     10  C   UNL     1      -1.584   2.773  -2.411  1.00  0.00     0.087 C 
ATOM     11  C   UNL     1      -1.752   0.479  -1.814  1.00  0.00     0.146 C 
ATOM     12  C   UNL     1      -3.066   2.422  -2.496  1.00  0.00     0.072 C 
ATOM     13  C   UNL     1      -3.126   0.894  -2.388  1.00  0.00     0.191 C 
BRANCH   9  14
ATOM     14  N   UNL     1       0.461   1.672  -1.643  1.00  0.00    -0.334 N 
ATOM     15  C   UNL     1       1.141   0.640  -0.875  1.00  0.00     0.331 C 
ATOM     16  H   UNL     1       0.608   1.479  -2.634  1.00  0.00     0.347 HD
ATOM     17  H   UNL     1       0.858   2.563  -1.345  1.00  0.00     0.347 HD
ENDBRANCH   9  14
BRANCH  13  18
ATOM     18  N   UNL     1      -4.297   0.234  -1.795  1.00  0.00    -0.323 N 
ATOM     19  C   UNL     1      -5.590   0.598  -2.398  1.00  0.00     0.324 C 
ATOM     20  C   UNL     1      -4.451   0.262  -0.335  1.00  0.00     0.324 C 
ATOM     21  H   UNL     1      -4.047  -0.725  -2.038  1.00  0.00     0.348 HD
ATOM     22  C   UNL     1      -6.232   1.899  -1.856  1.00  0.00     0.324 C 
ATOM     23  C   UNL     1      -4.983   1.587   0.237  1.00  0.00     0.324 C 
ATOM     24  N   UNL     1      -6.237   2.040  -0.386  1.00  0.00    -0.328 N 
ATOM     25  C   UNL     1      -6.517   3.426  -0.007  1.00  0.00     0.333 C 
ATOM     26  H   UNL     1      -6.978   1.434  -0.036  1.00  0.00     0.348 HD
ENDBRANCH  13  18
ENDBRANCH   7   9
ENDBRANCH   6   7
ENDBRANCH   5   6
ENDBRANCH   4   5
ENDBRANCH   3   4
ENDBRANCH   2   3
ENDBRANCH   1   2
BRANCH   1  27
ATOM     27  O   UNL     1      -2.483  -1.881   1.624  1.00  0.00    -0.376 OA
BRANCH  27  28
ATOM     28  C   UNL     1      -2.842  -2.600   2.792  1.00  0.00     0.202 C 
BRANCH  28  29
ATOM     29  C   UNL     1      -2.146  -3.940   3.044  1.00  0.00     0.261 C 
BRANCH  29  30
ATOM     30  O   UNL     1      -0.717  -3.850   2.965  1.00  0.00    -0.460 OA
BRANCH  30  31
ATOM     31  C   UNL     1      -0.157  -4.468   1.895  1.00  0.00     0.338 C 
ATOM     32  O   UNL     1      -0.709  -5.170   1.065  1.00  0.00    -0.246 OA
BRANCH  31  33
ATOM     33  C   UNL     1       1.230  -3.983   1.748  1.00  0.00     0.060 A 
ATOM     34  C   UNL     1       1.634  -3.514   0.488  1.00  0.00     0.016 A 
ATOM     35  C   UNL     1       2.111  -3.964   2.830  1.00  0.00     0.016 A 
ATOM     36  C   UNL     1       2.931  -3.044   0.300  1.00  0.00     0.010 A 
ATOM     37  C   UNL     1       3.421  -3.525   2.634  1.00  0.00     0.010 A 
ATOM     38  C   UNL     1       3.841  -3.093   1.363  1.00  0.00    -0.014 A 
BRANCH  38  39
ATOM     39  C   UNL     1       5.286  -2.928   1.095  1.00  0.00     0.031 A 
ATOM     40  C   UNL     1       6.077  -4.158   0.752  1.00  0.00     0.074 A 
ATOM     41  C   UNL     1       5.883  -1.727   1.161  1.00  0.00     0.049 A 
ATOM     42  N   UNL     1       7.362  -4.296   0.559  1.00  0.00    -0.248 NA
ATOM     43  C   UNL     1       5.307  -5.407   0.612  1.00  0.00     0.031 C 
ATOM     44  C   UNL     1       5.212  -0.459   1.434  1.00  0.00     0.029 A 
ATOM     45  N   UNL     1       7.205  -1.387   1.015  1.00  0.00    -0.354 N 
ATOM     46  C   UNL     1       7.554  -5.641   0.274  1.00  0.00     0.074 A 
ATOM     47  C   UNL     1       6.260  -6.284   0.343  1.00  0.00     0.031 C 
ATOM     48  C   UNL     1       6.132   0.522   1.459  1.00  0.00     0.029 A 
ATOM     49  C   UNL     1       7.457  -0.057   1.237  1.00  0.00     0.049 A 
ATOM     50  H   UNL     1       7.905  -2.036   0.775  1.00  0.00     0.167 HD
ATOM     51  C   UNL     1       8.707  -6.284  -0.020  1.00  0.00     0.037 A 
ATOM     52  C   UNL     1       8.631   0.604   1.282  1.00  0.00     0.037 A 
ATOM     53  C   UNL     1       9.995  -5.648  -0.063  1.00  0.00     0.049 A 
ATOM     54  C   UNL     1       9.914  -0.154   1.045  1.00  0.00     0.074 A 
ATOM     55  C   UNL     1      11.226  -6.211  -0.343  1.00  0.00     0.029 A 
ATOM     56  N   UNL     1      10.216  -4.304   0.197  1.00  0.00    -0.354 N 
ATOM     57  N   UNL     1      10.090  -1.421   0.758  1.00  0.00    -0.248 NA
ATOM     58  C   UNL     1      11.165   0.614   1.143  1.00  0.00     0.031 C 
ATOM     59  C   UNL     1      12.200  -5.216  -0.206  1.00  0.00     0.029 A 
ATOM     60  C   UNL     1      11.568  -4.023   0.108  1.00  0.00     0.049 A 
ATOM     61  H   UNL     1       9.515  -3.647   0.412  1.00  0.00     0.167 HD
ATOM     62  C   UNL     1      11.461  -1.595   0.610  1.00  0.00     0.074 A 
ATOM     63  C   UNL     1      12.071  -0.301   0.831  1.00  0.00     0.031 C 
ATOM     64  C   UNL     1      12.154  -2.724   0.317  1.00  0.00     0.037 A 
BRANCH  51  65
ATOM     65  C   UNL     1       8.622  -7.757  -0.279  1.00  0.00     0.064 A 
ATOM     66  C   UNL     1       8.053  -8.265  -1.456  1.00  0.00     0.173 A 
ATOM     67  C   UNL     1       9.121  -8.671   0.660  1.00  0.00     0.173 A 
ATOM     68  F   UNL     1       7.542  -7.430  -2.373  1.00  0.00    -0.203 F 
ATOM     69  C   UNL     1       7.966  -9.637  -1.673  1.00  0.00     0.198 A 
ATOM     70  C   UNL     1       9.056 -10.042   0.428  1.00  0.00     0.198 A 
ATOM     71  F   UNL     1       9.669  -8.235   1.804  1.00  0.00    -0.203 F 
ATOM     72  F   UNL     1       7.375 -10.102  -2.782  1.00  0.00    -0.200 F 
ATOM     73  C   UNL     1       8.472 -10.524  -0.734  1.00  0.00     0.200 A 
ATOM     74  F   UNL     1       9.551 -10.897   1.333  1.00  0.00    -0.200 F 
ATOM     75  F   UNL     1       8.389 -11.845  -0.945  1.00  0.00    -0.200 F 
ENDBRANCH  51  65
BRANCH  52  76
ATOM     76  C   UNL     1       8.660   2.058   1.587  1.00  0.00     0.064 A 
ATOM     77  C   UNL     1       9.053   2.992   0.619  1.00  0.00     0.173 A 
ATOM     78  C   UNL     1       8.334   2.540   2.864  1.00  0.00     0.173 A 
ATOM     79  F   UNL     1       9.402   2.577  -0.607  1.00  0.00    -0.203 F 
ATOM     80  C   UNL     1       9.139   4.350   0.921  1.00  0.00     0.198 A 
ATOM     81  C   UNL     1       8.394   3.901   3.157  1.00  0.00     0.198 A 
ATOM     82  F   UNL     1       7.958   1.688   3.828  1.00  0.00    -0.203 F 
ATOM     83  F   UNL     1       9.569   5.215  -0.008  1.00  0.00    -0.200 F 
ATOM     84  C   UNL     1       8.806   4.804   2.189  1.00  0.00     0.200 A 
ATOM     85  F   UNL     1       8.064   4.335   4.381  1.00  0.00    -0.200 F 
ATOM     86  F   UNL     1       8.893   6.109   2.480  1.00  0.00    -0.200 F 
ENDBRANCH  52  76
BRANCH  64  87
ATOM     87  C   UNL     1      13.643  -2.606   0.174  1.00  0.00     0.064 A 
ATOM     88  C   UNL     1      14.479  -2.421   1.285  1.00  0.00     0.173 A 
ATOM     89  C   UNL     1      14.245  -2.737  -1.087  1.00  0.00     0.173 A 
ATOM     90  F   UNL     1      13.951  -2.277   2.510  1.00  0.00    -0.203 F 
ATOM     91  C   UNL     1      15.862  -2.352   1.135  1.00  0.00     0.198 A 
ATOM     92  C   UNL     1      15.629  -2.697  -1.229  1.00  0.00     0.198 A 
ATOM     93  F   UNL     1      13.490  -2.925  -2.180  1.00  0.00    -0.203 F 
ATOM     94  F   UNL     1      16.639  -2.134   2.205  1.00  0.00    -0.200 F 
ATOM     95  C   UNL     1      16.436  -2.499  -0.119  1.00  0.00     0.200 A 
ATOM     96  F   UNL     1      16.182  -2.854  -2.439  1.00  0.00    -0.200 F 
ATOM     97  F   UNL     1      17.767  -2.443  -0.259  1.00  0.00    -0.200 F 
ENDBRANCH  64  87
ENDBRANCH  38  39
ENDBRANCH  31  33
ENDBRANCH  30  31
ENDBRANCH  29  30
ENDBRANCH  28  29
ENDBRANCH  27  28
ENDBRANCH   1  27
TORSDOF 19
