REMARK SMILES O=C(OCCOCCOCCOC(=O)[C@H]1CCCCN1C(=O)c1nc(C2CC2)n[nH]1)c1ccc(-c2c3nc(c(-c4c(F)c(F)c(F)c(F)c4F)c4ccc([nH]4)c(-c4c(F)c(F)c(F)c(F)c4F)c4nc(c(-c5c(F)c(F)c(F)c(F)c5F)c5ccc2[nH]5)C=C4)C=C3)cc1
REMARK SMILES IDX 8 1 7 2 6 3 5 4 4 5 3 6 2 7 1 8 31 9 32 10 93 11 33 12 92 13
REMARK SMILES IDX 34 14 35 15 36 16 86 17 37 18 91 19 85 20 87 21 38 22 90 23
REMARK SMILES IDX 84 24 83 25 39 27 71 28 51 29 70 30 52 31 55 32 69 33 88 34
REMARK SMILES IDX 53 35 54 36 68 38 89 39 56 40 40 41 41 42 49 43 42 44 43 45
REMARK SMILES IDX 47 46 50 47 44 48 45 49 48 50 46 51 72 52 73 53 81 54 74 55
REMARK SMILES IDX 75 56 79 57 82 58 76 59 77 60 80 61 78 62 57 63 58 64 66 65
REMARK SMILES IDX 59 66 60 67 64 68 67 69 61 70 62 71 65 72 63 73 9 74 10 75
REMARK SMILES IDX 11 76 12 77 13 78 14 79 15 80 16 81 20 82 17 83 19 84 18 85
REMARK SMILES IDX 21 86 22 87 23 88 24 89 30 90 25 91 29 92 26 94 27 95 28 96
REMARK H PARENT 87 26 55 37 30 93
REMARK Flexibility Score: inf
ROOT
ATOM      1  C   UNL     1       4.932  -1.705  -7.346  1.00  0.00     0.188 C 
ENDROOT
BRANCH   1   2
ATOM      2  C   UNL     1       5.983  -0.614  -7.574  1.00  0.00     0.188 C 
BRANCH   2   3
ATOM      3  O   UNL     1       5.376   0.690  -7.646  1.00  0.00    -0.376 OA
BRANCH   3   4
ATOM      4  C   UNL     1       5.933   1.513  -8.675  1.00  0.00     0.202 C 
BRANCH   4   5
ATOM      5  C   UNL     1       7.237   2.233  -8.309  1.00  0.00     0.261 C 
BRANCH   5   6
ATOM      6  O   UNL     1       8.030   1.524  -7.348  1.00  0.00    -0.460 OA
BRANCH   6   7
ATOM      7  C   UNL     1       7.973   1.535  -5.996  1.00  0.00     0.338 C 
ATOM      8  O   UNL     1       8.792   0.841  -5.393  1.00  0.00    -0.246 OA
BRANCH   7   9
ATOM      9  C   UNL     1       7.003   2.331  -5.165  1.00  0.00     0.060 A 
ATOM     10  C   UNL     1       5.957   3.127  -5.632  1.00  0.00     0.016 A 
ATOM     11  C   UNL     1       7.192   2.272  -3.766  1.00  0.00     0.016 A 
ATOM     12  C   UNL     1       5.202   3.915  -4.760  1.00  0.00     0.010 A 
ATOM     13  C   UNL     1       6.418   3.032  -2.881  1.00  0.00     0.010 A 
ATOM     14  C   UNL     1       5.443   3.890  -3.385  1.00  0.00    -0.014 A 
BRANCH  14  15
ATOM     15  C   UNL     1       4.786   4.904  -2.535  1.00  0.00     0.031 A 
ATOM     16  C   UNL     1       5.418   6.257  -2.453  1.00  0.00     0.074 A 
ATOM     17  C   UNL     1       3.610   4.651  -1.938  1.00  0.00     0.049 A 
ATOM     18  N   UNL     1       4.999   7.333  -1.844  1.00  0.00    -0.248 NA
ATOM     19  C   UNL     1       6.698   6.419  -3.162  1.00  0.00     0.031 C 
ATOM     20  C   UNL     1       2.911   3.375  -1.995  1.00  0.00     0.029 A 
ATOM     21  N   UNL     1       2.779   5.455  -1.203  1.00  0.00    -0.354 N 
ATOM     22  C   UNL     1       5.974   8.291  -2.073  1.00  0.00     0.074 A 
ATOM     23  C   UNL     1       6.990   7.683  -2.904  1.00  0.00     0.031 C 
ATOM     24  C   UNL     1       1.718   3.496  -1.391  1.00  0.00     0.029 A 
ATOM     25  C   UNL     1       1.598   4.846  -0.849  1.00  0.00     0.049 A 
ATOM     26  H   UNL     1       3.005   6.380  -0.953  1.00  0.00     0.167 HD
ATOM     27  C   UNL     1       6.035   9.553  -1.592  1.00  0.00     0.037 A 
ATOM     28  C   UNL     1       0.549   5.334  -0.157  1.00  0.00     0.037 A 
ATOM     29  C   UNL     1       5.050  10.114  -0.711  1.00  0.00     0.049 A 
ATOM     30  C   UNL     1       0.642   6.741   0.375  1.00  0.00     0.074 A 
ATOM     31  C   UNL     1       5.059  11.334  -0.062  1.00  0.00     0.029 A 
ATOM     32  N   UNL     1       3.876   9.469  -0.343  1.00  0.00    -0.354 N 
ATOM     33  N   UNL     1       1.589   7.631   0.191  1.00  0.00    -0.248 NA
ATOM     34  C   UNL     1      -0.453   7.200   1.239  1.00  0.00     0.031 C 
ATOM     35  C   UNL     1       3.908  11.410   0.731  1.00  0.00     0.029 A 
ATOM     36  C   UNL     1       3.159  10.258   0.538  1.00  0.00     0.049 A 
ATOM     37  H   UNL     1       3.596   8.581  -0.662  1.00  0.00     0.167 HD
ATOM     38  C   UNL     1       1.216   8.746   0.926  1.00  0.00     0.074 A 
ATOM     39  C   UNL     1      -0.068   8.437   1.526  1.00  0.00     0.031 C 
ATOM     40  C   UNL     1       1.883   9.912   1.112  1.00  0.00     0.037 A 
BRANCH  27  41
ATOM     41  C   UNL     1       7.269  10.331  -1.927  1.00  0.00     0.064 A 
ATOM     42  C   UNL     1       7.490  10.853  -3.209  1.00  0.00     0.173 A 
ATOM     43  C   UNL     1       8.287  10.472  -0.972  1.00  0.00     0.173 A 
ATOM     44  F   UNL     1       6.561  10.707  -4.167  1.00  0.00    -0.203 F 
ATOM     45  C   UNL     1       8.703  11.456  -3.535  1.00  0.00     0.198 A 
ATOM     46  C   UNL     1       9.489  11.095  -1.295  1.00  0.00     0.198 A 
ATOM     47  F   UNL     1       8.129   9.974   0.263  1.00  0.00    -0.203 F 
ATOM     48  F   UNL     1       8.922  11.884  -4.786  1.00  0.00    -0.200 F 
ATOM     49  C   UNL     1       9.701  11.575  -2.578  1.00  0.00     0.200 A 
ATOM     50  F   UNL     1      10.455  11.202  -0.371  1.00  0.00    -0.200 F 
ATOM     51  F   UNL     1      10.877  12.132  -2.900  1.00  0.00    -0.200 F 
ENDBRANCH  27  41
BRANCH  28  52
ATOM     52  C   UNL     1      -0.659   4.495   0.072  1.00  0.00     0.064 A 
ATOM     53  C   UNL     1      -1.892   4.835  -0.503  1.00  0.00     0.173 A 
ATOM     54  C   UNL     1      -0.609   3.328   0.850  1.00  0.00     0.173 A 
ATOM     55  F   UNL     1      -2.001   5.952  -1.238  1.00  0.00    -0.203 F 
ATOM     56  C   UNL     1      -3.025   4.046  -0.308  1.00  0.00     0.198 A 
ATOM     57  C   UNL     1      -1.734   2.521   1.017  1.00  0.00     0.198 A 
ATOM     58  F   UNL     1       0.541   2.954   1.428  1.00  0.00    -0.203 F 
ATOM     59  F   UNL     1      -4.197   4.415  -0.842  1.00  0.00    -0.200 F 
ATOM     60  C   UNL     1      -2.942   2.883   0.443  1.00  0.00     0.200 A 
ATOM     61  F   UNL     1      -1.642   1.385   1.721  1.00  0.00    -0.200 F 
ATOM     62  F   UNL     1      -4.024   2.112   0.617  1.00  0.00    -0.200 F 
ENDBRANCH  28  52
BRANCH  40  63
ATOM     63  C   UNL     1       1.244  10.931   2.004  1.00  0.00     0.064 A 
ATOM     64  C   UNL     1       1.272  10.792   3.399  1.00  0.00     0.173 A 
ATOM     65  C   UNL     1       0.680  12.095   1.463  1.00  0.00     0.173 A 
ATOM     66  F   UNL     1       1.793   9.690   3.958  1.00  0.00    -0.203 F 
ATOM     67  C   UNL     1       0.751  11.784   4.223  1.00  0.00     0.198 A 
ATOM     68  C   UNL     1       0.178  13.093   2.291  1.00  0.00     0.198 A 
ATOM     69  F   UNL     1       0.639  12.270   0.134  1.00  0.00    -0.203 F 
ATOM     70  F   UNL     1       0.769  11.626   5.553  1.00  0.00    -0.200 F 
ATOM     71  C   UNL     1       0.213  12.937   3.669  1.00  0.00     0.200 A 
ATOM     72  F   UNL     1      -0.331  14.211   1.756  1.00  0.00    -0.200 F 
ATOM     73  F   UNL     1      -0.274  13.899   4.465  1.00  0.00    -0.200 F 
ENDBRANCH  40  63
ENDBRANCH  14  15
ENDBRANCH   7   9
ENDBRANCH   6   7
ENDBRANCH   5   6
ENDBRANCH   4   5
ENDBRANCH   3   4
ENDBRANCH   2   3
ENDBRANCH   1   2
BRANCH   1  74
ATOM     74  O   UNL     1       4.255  -2.150  -8.525  1.00  0.00    -0.376 OA
BRANCH  74  75
ATOM     75  C   UNL     1       3.515  -1.180  -9.259  1.00  0.00     0.202 C 
BRANCH  75  76
ATOM     76  C   UNL     1       2.143  -0.830  -8.686  1.00  0.00     0.261 C 
BRANCH  76  77
ATOM     77  O   UNL     1       2.233  -0.321  -7.349  1.00  0.00    -0.462 OA
BRANCH  77  78
ATOM     78  C   UNL     1       1.636  -1.069  -6.379  1.00  0.00     0.328 C 
ATOM     79  O   UNL     1       1.024  -2.112  -6.580  1.00  0.00    -0.250 OA
BRANCH  78  80
ATOM     80  C   UNL     1       1.717  -0.393  -5.000  1.00  0.00     0.195 C 
ATOM     81  C   UNL     1       2.671   0.795  -4.868  1.00  0.00     0.037 C 
ATOM     82  N   UNL     1       0.360  -0.003  -4.608  1.00  0.00    -0.322 N 
ATOM     83  C   UNL     1       2.129   2.093  -5.475  1.00  0.00     0.005 C 
ATOM     84  C   UNL     1      -0.202   1.141  -5.332  1.00  0.00     0.121 C 
ATOM     85  C   UNL     1       0.677   2.362  -5.101  1.00  0.00     0.022 C 
BRANCH  82  86
ATOM     86  C   UNL     1      -0.305  -0.708  -3.607  1.00  0.00     0.291 C 
ATOM     87  O   UNL     1       0.307  -1.341  -2.747  1.00  0.00    -0.265 OA
BRANCH  86  88
ATOM     88  C   UNL     1      -1.740  -0.601  -3.593  1.00  0.00     0.214 A 
ATOM     89  N   UNL     1      -2.510  -0.562  -4.662  1.00  0.00    -0.207 NA
ATOM     90  N   UNL     1      -2.523  -0.500  -2.485  1.00  0.00    -0.255 N 
ATOM     91  C   UNL     1      -3.751  -0.315  -4.150  1.00  0.00     0.154 A 
ATOM     92  N   UNL     1      -3.796  -0.206  -2.817  1.00  0.00    -0.158 NA
ATOM     93  H   UNL     1      -2.203  -0.626  -1.563  1.00  0.00     0.192 HD
BRANCH  91  94
ATOM     94  C   UNL     1      -4.959  -0.137  -5.051  1.00  0.00     0.060 C 
ATOM     95  C   UNL     1      -4.714   0.224  -6.508  1.00  0.00     0.012 C 
ATOM     96  C   UNL     1      -5.176  -1.149  -6.159  1.00  0.00     0.012 C 
ENDBRANCH  91  94
ENDBRANCH  86  88
ENDBRANCH  82  86
ENDBRANCH  78  80
ENDBRANCH  77  78
ENDBRANCH  76  77
ENDBRANCH  75  76
ENDBRANCH  74  75
ENDBRANCH   1  74
TORSDOF 20
