REMARK SMILES C#CCN(CC(=O)OCCOCCOCCOC(=O)c1ccc(-c2c3nc(c(-c4c(F)c(F)c(F)c(F)c4F)c4ccc([nH]4)c(-c4c(F)c(F)c(F)c(F)c4F)c4nc(c(-c5c(F)c(F)c(F)c(F)c5F)c5ccc2[nH]5)C=C4)C=C3)cc1)C(=O)CCc1ccc(Cl)cc1Cl
REMARK SMILES IDX 11 1 10 2 9 3 8 4 6 5 7 6 5 7 4 8 3 9 2 10 1 11 83 12 84 13
REMARK SMILES IDX 85 14 86 15 87 16 88 17 93 18 89 19 92 20 94 21 90 22 91 23
REMARK SMILES IDX 12 24 13 25 14 26 15 27 16 28 17 29 18 30 19 31 20 32 21 33
REMARK SMILES IDX 82 34 22 35 81 36 23 37 24 38 25 39 75 40 26 41 80 42 74 43
REMARK SMILES IDX 76 44 27 45 79 46 73 47 72 48 28 50 60 51 40 52 59 53 41 54
REMARK SMILES IDX 44 55 58 56 77 57 42 58 43 59 57 61 78 62 45 63 29 64 30 65
REMARK SMILES IDX 38 66 31 67 32 68 36 69 39 70 33 71 34 72 37 73 35 74 61 75
REMARK SMILES IDX 62 76 70 77 63 78 64 79 68 80 71 81 65 82 66 83 69 84 67 85
REMARK SMILES IDX 46 86 47 87 55 88 48 89 49 90 53 91 56 92 50 93 51 94 54 95
REMARK SMILES IDX 52 96
REMARK H PARENT 76 49 44 60
REMARK Flexibility Score: inf
ROOT
ATOM      1  O   UNL     1      -6.504  -2.531  -2.746  1.00  0.00    -0.376 OA
ENDROOT
BRANCH   1   2
ATOM      2  C   UNL     1      -7.165  -1.410  -2.181  1.00  0.00     0.202 C 
BRANCH   2   3
ATOM      3  C   UNL     1      -6.667  -1.018  -0.788  1.00  0.00     0.261 C 
BRANCH   3   4
ATOM      4  O   UNL     1      -5.225  -1.014  -0.681  1.00  0.00    -0.462 OA
BRANCH   4   5
ATOM      5  C   UNL     1      -4.722  -1.762   0.329  1.00  0.00     0.325 C 
ATOM      6  O   UNL     1      -5.405  -2.330   1.178  1.00  0.00    -0.250 OA
BRANCH   5   7
ATOM      7  C   UNL     1      -3.210  -2.001   0.268  1.00  0.00     0.243 C 
BRANCH   7   8
ATOM      8  N   UNL     1      -2.230  -1.242  -0.527  1.00  0.00    -0.320 N 
BRANCH   8   9
ATOM      9  C   UNL     1      -1.727   0.022   0.012  1.00  0.00     0.210 C 
BRANCH   9  10
ATOM     10  C   UNL     1      -0.207   0.022   0.012  1.00  0.00    -0.085 C 
ATOM     11  C   UNL     1       1.097   0.022   0.012  1.00  0.00     0.006 C 
ENDBRANCH   9  10
ENDBRANCH   8   9
BRANCH   8  12
ATOM     12  C   UNL     1      -1.736  -1.625  -1.760  1.00  0.00     0.224 C 
ATOM     13  O   UNL     1      -1.392  -0.795  -2.605  1.00  0.00    -0.275 OA
BRANCH  12  14
ATOM     14  C   UNL     1      -1.546  -3.102  -2.064  1.00  0.00     0.105 C 
BRANCH  14  15
ATOM     15  C   UNL     1      -0.474  -3.821  -1.232  1.00  0.00     0.047 C 
BRANCH  15  16
ATOM     16  C   UNL     1      -0.982  -4.350   0.090  1.00  0.00    -0.029 A 
ATOM     17  C   UNL     1      -0.630  -3.664   1.266  1.00  0.00     0.007 A 
ATOM     18  C   UNL     1      -1.890  -5.422   0.182  1.00  0.00     0.045 A 
ATOM     19  C   UNL     1      -1.247  -3.974   2.479  1.00  0.00     0.021 A 
ATOM     20  C   UNL     1      -2.508  -5.729   1.396  1.00  0.00     0.041 A 
ATOM     21  Cl  UNL     1      -2.342  -6.356  -1.199  1.00  0.00    -0.084 Cl
ATOM     22  C   UNL     1      -2.201  -4.988   2.532  1.00  0.00     0.042 A 
ATOM     23  Cl  UNL     1      -3.032  -5.298   4.004  1.00  0.00    -0.084 Cl
ENDBRANCH  15  16
ENDBRANCH  14  15
ENDBRANCH  12  14
ENDBRANCH   8  12
ENDBRANCH   7   8
ENDBRANCH   5   7
ENDBRANCH   4   5
ENDBRANCH   3   4
ENDBRANCH   2   3
ENDBRANCH   1   2
BRANCH   1  24
ATOM     24  C   UNL     1      -5.224  -2.327  -3.344  1.00  0.00     0.188 C 
BRANCH  24  25
ATOM     25  C   UNL     1      -4.724  -0.911  -3.667  1.00  0.00     0.188 C 
BRANCH  25  26
ATOM     26  O   UNL     1      -5.658  -0.207  -4.487  1.00  0.00    -0.376 OA
BRANCH  26  27
ATOM     27  C   UNL     1      -5.031   0.549  -5.519  1.00  0.00     0.202 C 
BRANCH  27  28
ATOM     28  C   UNL     1      -4.965  -0.289  -6.792  1.00  0.00     0.261 C 
BRANCH  28  29
ATOM     29  O   UNL     1      -4.321  -1.553  -6.529  1.00  0.00    -0.460 OA
BRANCH  29  30
ATOM     30  C   UNL     1      -3.213  -1.832  -7.244  1.00  0.00     0.338 C 
ATOM     31  O   UNL     1      -2.662  -1.127  -8.068  1.00  0.00    -0.246 OA
BRANCH  30  32
ATOM     32  C   UNL     1      -2.780  -3.208  -6.929  1.00  0.00     0.060 A 
ATOM     33  C   UNL     1      -2.359  -3.550  -5.643  1.00  0.00     0.016 A 
ATOM     34  C   UNL     1      -2.699  -4.139  -7.962  1.00  0.00     0.016 A 
ATOM     35  C   UNL     1      -1.790  -4.808  -5.404  1.00  0.00     0.010 A 
ATOM     36  C   UNL     1      -2.165  -5.408  -7.713  1.00  0.00     0.010 A 
ATOM     37  C   UNL     1      -1.662  -5.741  -6.443  1.00  0.00    -0.014 A 
BRANCH  37  38
ATOM     38  C   UNL     1      -0.877  -6.996  -6.266  1.00  0.00     0.031 A 
ATOM     39  C   UNL     1       0.412  -7.163  -7.028  1.00  0.00     0.074 A 
ATOM     40  C   UNL     1      -1.269  -7.977  -5.431  1.00  0.00     0.049 A 
ATOM     41  N   UNL     1       1.134  -8.238  -7.221  1.00  0.00    -0.248 NA
ATOM     42  C   UNL     1       0.957  -5.952  -7.663  1.00  0.00     0.031 C 
ATOM     43  C   UNL     1      -2.434  -7.930  -4.553  1.00  0.00     0.029 A 
ATOM     44  N   UNL     1      -0.715  -9.213  -5.185  1.00  0.00    -0.354 N 
ATOM     45  C   UNL     1       2.172  -7.850  -8.059  1.00  0.00     0.074 A 
ATOM     46  C   UNL     1       2.007  -6.435  -8.312  1.00  0.00     0.031 C 
ATOM     47  C   UNL     1      -2.490  -9.068  -3.840  1.00  0.00     0.029 A 
ATOM     48  C   UNL     1      -1.416  -9.960  -4.271  1.00  0.00     0.049 A 
ATOM     49  H   UNL     1       0.108  -9.531  -5.623  1.00  0.00     0.167 HD
ATOM     50  C   UNL     1       3.159  -8.612  -8.588  1.00  0.00     0.037 A 
ATOM     51  C   UNL     1      -1.240 -11.232  -3.859  1.00  0.00     0.037 A 
ATOM     52  C   UNL     1       3.358 -10.007  -8.296  1.00  0.00     0.049 A 
ATOM     53  C   UNL     1      -0.149 -12.070  -4.478  1.00  0.00     0.074 A 
ATOM     54  C   UNL     1       4.307 -10.872  -8.813  1.00  0.00     0.029 A 
ATOM     55  N   UNL     1       2.607 -10.734  -7.387  1.00  0.00    -0.354 N 
ATOM     56  N   UNL     1       0.762 -11.730  -5.357  1.00  0.00    -0.248 NA
ATOM     57  C   UNL     1      -0.086 -13.483  -4.072  1.00  0.00     0.031 C 
ATOM     58  C   UNL     1       4.112 -12.132  -8.236  1.00  0.00     0.029 A 
ATOM     59  C   UNL     1       3.067 -12.040  -7.332  1.00  0.00     0.049 A 
ATOM     60  H   UNL     1       1.858 -10.376  -6.858  1.00  0.00     0.167 HD
ATOM     61  C   UNL     1       1.498 -12.880  -5.611  1.00  0.00     0.074 A 
ATOM     62  C   UNL     1       0.955 -13.921  -4.766  1.00  0.00     0.031 C 
ATOM     63  C   UNL     1       2.520 -13.064  -6.482  1.00  0.00     0.037 A 
BRANCH  50  64
ATOM     64  C   UNL     1       4.064  -7.968  -9.593  1.00  0.00     0.064 A 
ATOM     65  C   UNL     1       5.088  -7.088  -9.220  1.00  0.00     0.173 A 
ATOM     66  C   UNL     1       3.918  -8.271 -10.956  1.00  0.00     0.173 A 
ATOM     67  F   UNL     1       5.255  -6.754  -7.932  1.00  0.00    -0.203 F 
ATOM     68  C   UNL     1       5.923  -6.520 -10.179  1.00  0.00     0.198 A 
ATOM     69  C   UNL     1       4.769  -7.720 -11.908  1.00  0.00     0.198 A 
ATOM     70  F   UNL     1       2.954  -9.112 -11.362  1.00  0.00    -0.203 F 
ATOM     71  F   UNL     1       6.874  -5.652  -9.806  1.00  0.00    -0.200 F 
ATOM     72  C   UNL     1       5.768  -6.841 -11.520  1.00  0.00     0.200 A 
ATOM     73  F   UNL     1       4.622  -8.040 -13.202  1.00  0.00    -0.200 F 
ATOM     74  F   UNL     1       6.578  -6.298 -12.439  1.00  0.00    -0.200 F 
ENDBRANCH  50  64
BRANCH  51  75
ATOM     75  C   UNL     1      -2.149 -11.826  -2.841  1.00  0.00     0.064 A 
ATOM     76  C   UNL     1      -1.668 -12.196  -1.577  1.00  0.00     0.173 A 
ATOM     77  C   UNL     1      -3.501 -12.073  -3.121  1.00  0.00     0.173 A 
ATOM     78  F   UNL     1      -0.374 -12.016  -1.274  1.00  0.00    -0.203 F 
ATOM     79  C   UNL     1      -2.501 -12.802  -0.638  1.00  0.00     0.198 A 
ATOM     80  C   UNL     1      -4.340 -12.649  -2.170  1.00  0.00     0.198 A 
ATOM     81  F   UNL     1      -4.008 -11.753  -4.320  1.00  0.00    -0.203 F 
ATOM     82  F   UNL     1      -2.002 -13.194   0.542  1.00  0.00    -0.200 F 
ATOM     83  C   UNL     1      -3.838 -13.021  -0.933  1.00  0.00     0.200 A 
ATOM     84  F   UNL     1      -5.633 -12.853  -2.457  1.00  0.00    -0.200 F 
ATOM     85  F   UNL     1      -4.639 -13.603  -0.030  1.00  0.00    -0.200 F 
ENDBRANCH  51  75
BRANCH  63  86
ATOM     86  C   UNL     1       3.123 -14.435  -6.561  1.00  0.00     0.064 A 
ATOM     87  C   UNL     1       2.456 -15.489  -7.202  1.00  0.00     0.173 A 
ATOM     88  C   UNL     1       4.398 -14.686  -6.034  1.00  0.00     0.173 A 
ATOM     89  F   UNL     1       1.229 -15.300  -7.710  1.00  0.00    -0.203 F 
ATOM     90  C   UNL     1       3.036 -16.751  -7.295  1.00  0.00     0.198 A 
ATOM     91  C   UNL     1       4.985 -15.944  -6.149  1.00  0.00     0.198 A 
ATOM     92  F   UNL     1       5.080 -13.709  -5.417  1.00  0.00    -0.203 F 
ATOM     93  F   UNL     1       2.366 -17.753  -7.880  1.00  0.00    -0.200 F 
ATOM     94  C   UNL     1       4.302 -16.976  -6.775  1.00  0.00     0.200 A 
ATOM     95  F   UNL     1       6.212 -16.157  -5.654  1.00  0.00    -0.200 F 
ATOM     96  F   UNL     1       4.862 -18.189  -6.871  1.00  0.00    -0.200 F 
ENDBRANCH  63  86
ENDBRANCH  37  38
ENDBRANCH  30  32
ENDBRANCH  29  30
ENDBRANCH  28  29
ENDBRANCH  27  28
ENDBRANCH  26  27
ENDBRANCH  25  26
ENDBRANCH  24  25
ENDBRANCH   1  24
TORSDOF 24
