REMARK SMILES O=C(OCCOCCOCCOC(=O)c1cccc(N2C(=O)C[C@H]([NH+]3CCOCC3)C2=O)c1)c1ccc(-c2c3nc(c(-c4c(F)c(F)c(F)c(F)c4F)c4ccc([nH]4)c(-c4c(F)c(F)c(F)c(F)c4F)c4nc(c(-c5c(F)c(F)c(F)c(F)c5F)c5ccc2[nH]5)C=C4)C=C3)cc1
REMARK SMILES IDX 7 1 6 2 5 3 4 4 3 5 2 6 1 7 34 8 35 9 96 10 36 11 95 12
REMARK SMILES IDX 37 13 38 14 39 15 89 16 40 17 94 18 88 19 90 20 41 21 93 22
REMARK SMILES IDX 87 23 86 24 42 26 74 27 54 28 73 29 55 30 58 31 72 32 91 33
REMARK SMILES IDX 56 34 57 35 71 37 92 38 59 39 43 40 44 41 52 42 45 43 46 44
REMARK SMILES IDX 50 45 53 46 47 47 48 48 51 49 49 50 75 51 76 52 84 53 77 54
REMARK SMILES IDX 78 55 82 56 85 57 79 58 80 59 83 60 81 61 60 62 61 63 69 64
REMARK SMILES IDX 62 65 63 66 67 67 70 68 64 69 65 70 68 71 66 72 8 73 9 74
REMARK SMILES IDX 10 75 11 76 12 77 13 78 14 79 15 80 16 81 33 82 17 83 19 84
REMARK SMILES IDX 18 85 20 86 21 87 31 88 22 89 23 90 24 91 32 92 25 93 26 94
REMARK SMILES IDX 30 95 27 97 29 98 28 99
REMARK H PARENT 90 25 58 36 25 96
REMARK Flexibility Score: inf
ROOT
ATOM      1  C   UNL     1       2.389   1.521  -0.908  1.00  0.00     0.188 C 
ENDROOT
BRANCH   1   2
ATOM      2  O   UNL     1       3.752   1.361  -0.501  1.00  0.00    -0.376 OA
BRANCH   2   3
ATOM      3  C   UNL     1       4.554   0.721  -1.499  1.00  0.00     0.202 C 
BRANCH   3   4
ATOM      4  C   UNL     1       4.540  -0.814  -1.393  1.00  0.00     0.261 C 
BRANCH   4   5
ATOM      5  O   UNL     1       3.254  -1.354  -1.036  1.00  0.00    -0.460 OA
BRANCH   5   6
ATOM      6  C   UNL     1       2.659  -1.449   0.178  1.00  0.00     0.338 C 
ATOM      7  O   UNL     1       1.490  -1.838   0.211  1.00  0.00    -0.246 OA
BRANCH   6   8
ATOM      8  C   UNL     1       3.318  -1.147   1.495  1.00  0.00     0.060 A 
ATOM      9  C   UNL     1       4.533  -0.485   1.679  1.00  0.00     0.016 A 
ATOM     10  C   UNL     1       2.629  -1.561   2.654  1.00  0.00     0.016 A 
ATOM     11  C   UNL     1       5.085  -0.305   2.946  1.00  0.00     0.010 A 
ATOM     12  C   UNL     1       3.168  -1.375   3.934  1.00  0.00     0.010 A 
ATOM     13  C   UNL     1       4.425  -0.782   4.075  1.00  0.00    -0.014 A 
BRANCH  13  14
ATOM     14  C   UNL     1       5.178  -0.828   5.344  1.00  0.00     0.031 A 
ATOM     15  C   UNL     1       5.854  -2.115   5.719  1.00  0.00     0.074 A 
ATOM     16  C   UNL     1       5.356   0.279   6.084  1.00  0.00     0.049 A 
ATOM     17  N   UNL     1       6.604  -2.390   6.755  1.00  0.00    -0.248 NA
ATOM     18  C   UNL     1       5.673  -3.242   4.789  1.00  0.00     0.031 C 
ATOM     19  C   UNL     1       4.793   1.597   5.797  1.00  0.00     0.029 A 
ATOM     20  N   UNL     1       6.063   0.458   7.245  1.00  0.00    -0.354 N 
ATOM     21  C   UNL     1       6.985  -3.715   6.598  1.00  0.00     0.074 A 
ATOM     22  C   UNL     1       6.365  -4.200   5.385  1.00  0.00     0.031 C 
ATOM     23  C   UNL     1       5.133   2.434   6.793  1.00  0.00     0.029 A 
ATOM     24  C   UNL     1       5.918   1.712   7.783  1.00  0.00     0.049 A 
ATOM     25  H   UNL     1       6.621  -0.244   7.652  1.00  0.00     0.167 HD
ATOM     26  C   UNL     1       7.789  -4.461   7.391  1.00  0.00     0.037 A 
ATOM     27  C   UNL     1       6.346   2.193   8.962  1.00  0.00     0.037 A 
ATOM     28  C   UNL     1       8.395  -3.988   8.605  1.00  0.00     0.049 A 
ATOM     29  C   UNL     1       7.207   1.326   9.838  1.00  0.00     0.074 A 
ATOM     30  C   UNL     1       9.209  -4.670   9.493  1.00  0.00     0.029 A 
ATOM     31  N   UNL     1       8.239  -2.707   9.107  1.00  0.00    -0.354 N 
ATOM     32  N   UNL     1       7.596   0.088   9.661  1.00  0.00    -0.248 NA
ATOM     33  C   UNL     1       7.712   1.944  11.074  1.00  0.00     0.031 C 
ATOM     34  C   UNL     1       9.513  -3.811  10.556  1.00  0.00     0.029 A 
ATOM     35  C   UNL     1       8.922  -2.585  10.306  1.00  0.00     0.049 A 
ATOM     36  H   UNL     1       7.720  -1.989   8.677  1.00  0.00     0.167 HD
ATOM     37  C   UNL     1       8.385  -0.215  10.759  1.00  0.00     0.074 A 
ATOM     38  C   UNL     1       8.471   0.981  11.566  1.00  0.00     0.031 C 
ATOM     39  C   UNL     1       8.973  -1.387  11.092  1.00  0.00     0.037 A 
BRANCH  26  40
ATOM     40  C   UNL     1       8.016  -5.883   6.982  1.00  0.00     0.064 A 
ATOM     41  C   UNL     1       8.834  -6.214   5.892  1.00  0.00     0.173 A 
ATOM     42  C   UNL     1       7.401  -6.925   7.690  1.00  0.00     0.173 A 
ATOM     43  F   UNL     1       9.421  -5.248   5.169  1.00  0.00    -0.203 F 
ATOM     44  C   UNL     1       9.008  -7.541   5.510  1.00  0.00     0.198 A 
ATOM     45  C   UNL     1       7.598  -8.252   7.320  1.00  0.00     0.198 A 
ATOM     46  F   UNL     1       6.605  -6.656   8.735  1.00  0.00    -0.203 F 
ATOM     47  F   UNL     1       9.752  -7.835   4.435  1.00  0.00    -0.200 F 
ATOM     48  C   UNL     1       8.395  -8.558   6.227  1.00  0.00     0.200 A 
ATOM     49  F   UNL     1       7.009  -9.233   8.016  1.00  0.00    -0.200 F 
ATOM     50  F   UNL     1       8.563  -9.835   5.857  1.00  0.00    -0.200 F 
ENDBRANCH  26  40
BRANCH  27  51
ATOM     51  C   UNL     1       5.914   3.511   9.485  1.00  0.00     0.064 A 
ATOM     52  C   UNL     1       6.831   4.554   9.658  1.00  0.00     0.173 A 
ATOM     53  C   UNL     1       4.641   3.646  10.058  1.00  0.00     0.173 A 
ATOM     54  F   UNL     1       8.073   4.447   9.165  1.00  0.00    -0.203 F 
ATOM     55  C   UNL     1       6.513   5.649  10.458  1.00  0.00     0.198 A 
ATOM     56  C   UNL     1       4.304   4.779  10.793  1.00  0.00     0.198 A 
ATOM     57  F   UNL     1       3.754   2.645   9.967  1.00  0.00    -0.203 F 
ATOM     58  F   UNL     1       7.444   6.580  10.716  1.00  0.00    -0.200 F 
ATOM     59  C   UNL     1       5.247   5.771  11.009  1.00  0.00     0.200 A 
ATOM     60  F   UNL     1       3.086   4.890  11.340  1.00  0.00    -0.200 F 
ATOM     61  F   UNL     1       4.944   6.840  11.757  1.00  0.00    -0.200 F 
ENDBRANCH  27  51
BRANCH  39  62
ATOM     62  C   UNL     1       9.742  -1.394  12.376  1.00  0.00     0.064 A 
ATOM     63  C   UNL     1       9.087  -1.327  13.616  1.00  0.00     0.173 A 
ATOM     64  C   UNL     1      11.143  -1.397  12.365  1.00  0.00     0.173 A 
ATOM     65  F   UNL     1       7.747  -1.284  13.670  1.00  0.00    -0.203 F 
ATOM     66  C   UNL     1       9.810  -1.216  14.798  1.00  0.00     0.198 A 
ATOM     67  C   UNL     1      11.863  -1.318  13.553  1.00  0.00     0.198 A 
ATOM     68  F   UNL     1      11.811  -1.449  11.203  1.00  0.00    -0.203 F 
ATOM     69  F   UNL     1       9.166  -1.070  15.964  1.00  0.00    -0.200 F 
ATOM     70  C   UNL     1      11.197  -1.214  14.766  1.00  0.00     0.200 A 
ATOM     71  F   UNL     1      13.202  -1.315  13.522  1.00  0.00    -0.200 F 
ATOM     72  F   UNL     1      11.893  -1.090  15.904  1.00  0.00    -0.200 F 
ENDBRANCH  39  62
ENDBRANCH  13  14
ENDBRANCH   6   8
ENDBRANCH   5   6
ENDBRANCH   4   5
ENDBRANCH   3   4
ENDBRANCH   2   3
ENDBRANCH   1   2
BRANCH   1  73
ATOM     73  C   UNL     1       2.097   2.875  -1.552  1.00  0.00     0.188 C 
BRANCH  73  74
ATOM     74  O   UNL     1       3.223   3.377  -2.269  1.00  0.00    -0.376 OA
BRANCH  74  75
ATOM     75  C   UNL     1       3.705   4.624  -1.761  1.00  0.00     0.202 C 
BRANCH  75  76
ATOM     76  C   UNL     1       4.476   4.503  -0.438  1.00  0.00     0.261 C 
BRANCH  76  77
ATOM     77  O   UNL     1       3.700   4.062   0.694  1.00  0.00    -0.460 OA
BRANCH  77  78
ATOM     78  C   UNL     1       2.751   4.914   1.126  1.00  0.00     0.338 C 
ATOM     79  O   UNL     1       2.402   5.964   0.599  1.00  0.00    -0.246 OA
BRANCH  78  80
ATOM     80  C   UNL     1       2.330   4.509   2.470  1.00  0.00     0.062 A 
ATOM     81  C   UNL     1       1.597   3.360   2.750  1.00  0.00     0.016 A 
ATOM     82  C   UNL     1       2.704   5.377   3.491  1.00  0.00     0.042 A 
ATOM     83  C   UNL     1       1.277   3.075   4.081  1.00  0.00     0.003 A 
ATOM     84  C   UNL     1       2.373   5.118   4.823  1.00  0.00     0.053 A 
ATOM     85  C   UNL     1       1.687   3.934   5.116  1.00  0.00     0.027 A 
BRANCH  84  86
ATOM     86  N   UNL     1       2.766   6.060   5.803  1.00  0.00    -0.245 N 
ATOM     87  C   UNL     1       2.853   7.411   5.558  1.00  0.00     0.240 C 
ATOM     88  C   UNL     1       3.153   5.768   7.089  1.00  0.00     0.292 C 
ATOM     89  O   UNL     1       2.574   8.031   4.542  1.00  0.00    -0.274 OA
ATOM     90  C   UNL     1       3.275   8.100   6.810  1.00  0.00     0.176 C 
ATOM     91  C   UNL     1       3.906   6.990   7.618  1.00  0.00     0.284 C 
ATOM     92  O   UNL     1       3.021   4.724   7.709  1.00  0.00    -0.267 OA
BRANCH  91  93
ATOM     93  N   UNL     1       5.377   6.804   7.564  1.00  0.00    -0.320 N 
ATOM     94  C   UNL     1       6.154   7.910   8.170  1.00  0.00     0.291 C 
ATOM     95  C   UNL     1       6.012   6.420   6.286  1.00  0.00     0.291 C 
ATOM     96  H   UNL     1       5.428   5.963   8.138  1.00  0.00     0.348 HD
ATOM     97  C   UNL     1       6.598   9.040   7.230  1.00  0.00     0.221 C 
ATOM     98  C   UNL     1       6.416   7.592   5.376  1.00  0.00     0.221 C 
ATOM     99  O   UNL     1       7.250   8.524   6.068  1.00  0.00    -0.370 OA
ENDBRANCH  91  93
ENDBRANCH  84  86
ENDBRANCH  78  80
ENDBRANCH  77  78
ENDBRANCH  76  77
ENDBRANCH  75  76
ENDBRANCH  74  75
ENDBRANCH  73  74
ENDBRANCH   1  73
TORSDOF 19
