REMARK SMILES [NH3+][C@H]1CCCCC[C@H]1C(=O)N1CCCC[C@@H]1C(=O)OCCOCCOCCOC(=O)c1ccc(-c2c3nc(c(-c4c(F)c(F)c(F)c(F)c4F)c4ccc([nH]4)c(-c4c(F)c(F)c(F)c(F)c4F)c4nc(c(-c5c(F)c(F)c(F)c(F)c5F)c5ccc2[nH]5)C=C4)C=C3)cc1
REMARK SMILES IDX 22 1 21 2 20 3 19 4 17 5 18 6 16 7 11 8 12 9 13 10 15 11
REMARK SMILES IDX 14 12 9 13 10 14 8 15 2 16 1 17 3 21 4 22 7 24 6 25 5 26
REMARK SMILES IDX 23 28 24 29 25 30 26 31 27 32 28 33 29 34 30 35 31 36 32 37
REMARK SMILES IDX 93 38 33 39 92 40 34 41 35 42 36 43 86 44 37 45 91 46 85 47
REMARK SMILES IDX 87 48 38 49 90 50 84 51 83 52 39 54 71 55 51 56 70 57 52 58
REMARK SMILES IDX 55 59 69 60 88 61 53 62 54 63 68 65 89 66 56 67 40 68 41 69
REMARK SMILES IDX 49 70 42 71 43 72 47 73 50 74 44 75 45 76 48 77 46 78 72 79
REMARK SMILES IDX 73 80 81 81 74 82 75 83 79 84 82 85 76 86 77 87 80 88 78 89
REMARK SMILES IDX 57 90 58 91 66 92 59 93 60 94 64 95 67 96 61 97 62 98 65 99
REMARK SMILES IDX 63 100
REMARK H PARENT 1 18 1 19 1 20 87 53 55 64
REMARK Flexibility Score: 90.00
ROOT
ATOM      1  O   UNL     1       3.236  -2.958  -0.617  1.00  0.00    -0.376 OA
ENDROOT
BRANCH   1   2
ATOM      2  C   UNL     1       2.003  -2.277  -0.710  1.00  0.00     0.202 C 
BRANCH   2   3
ATOM      3  C   UNL     1       2.011  -0.762  -1.006  1.00  0.00     0.261 C 
BRANCH   3   4
ATOM      4  O   UNL     1       2.777   0.203  -0.245  1.00  0.00    -0.462 OA
BRANCH   4   5
ATOM      5  C   UNL     1       2.812   0.134   1.100  1.00  0.00     0.328 C 
ATOM      6  O   UNL     1       2.452  -0.844   1.744  1.00  0.00    -0.250 OA
BRANCH   5   7
ATOM      7  C   UNL     1       3.283   1.403   1.804  1.00  0.00     0.195 C 
ATOM      8  N   UNL     1       2.260   2.336   2.352  1.00  0.00    -0.328 N 
ATOM      9  C   UNL     1       2.824   3.462   3.110  1.00  0.00     0.120 C 
ATOM     10  C   UNL     1       4.091   4.090   2.504  1.00  0.00     0.022 C 
ATOM     11  C   UNL     1       4.496   2.065   1.141  1.00  0.00     0.037 C 
ATOM     12  C   UNL     1       5.128   3.038   2.131  1.00  0.00     0.005 C 
BRANCH   8  13
ATOM     13  C   UNL     1       1.067   2.594   1.672  1.00  0.00     0.232 C 
ATOM     14  O   UNL     1       0.990   3.539   0.884  1.00  0.00    -0.274 OA
BRANCH  13  15
ATOM     15  C   UNL     1      -0.225   1.790   2.073  1.00  0.00     0.136 C 
BRANCH  15  16
ATOM     16  C   UNL     1      -0.024   0.281   2.175  1.00  0.00     0.193 C 
BRANCH  16  17
ATOM     17  N   UNL     1       0.682  -0.112   3.405  1.00  0.00    -0.354 N 
ATOM     18  H   UNL     1       0.791  -1.126   3.425  1.00  0.00     0.344 HD
ATOM     19  H   UNL     1       0.142   0.188   4.217  1.00  0.00     0.344 HD
ATOM     20  H   UNL     1       1.601   0.329   3.426  1.00  0.00     0.344 HD
ENDBRANCH  16  17
BRANCH  16  21
ATOM     21  C   UNL     1      -1.263  -0.591   1.987  1.00  0.00     0.066 C 
BRANCH  21  22
ATOM     22  C   UNL     1      -2.028  -0.901   3.260  1.00  0.00     0.006 CG0
ATOM     23  G   UNL     1      -2.384   0.297   4.141  1.00  0.00     0.000 G0
ENDBRANCH  21  22
ENDBRANCH  16  21
ENDBRANCH  15  16
BRANCH  15  24
ATOM     24  C   UNL     1      -0.960   2.333   3.303  1.00  0.00     0.020 C 
BRANCH  24  25
ATOM     25  C   UNL     1      -2.353   1.696   3.508  1.00  0.00     0.001 C 
BRANCH  25  26
ATOM     26  C   UNL     1      -2.384   0.297   4.141  1.00  0.00     0.000 CG0
ATOM     27  G   UNL     1      -2.028  -0.901   3.260  1.00  0.00     0.000 G0
ENDBRANCH  25  26
ENDBRANCH  24  25
ENDBRANCH  15  24
ENDBRANCH  13  15
ENDBRANCH   8  13
ENDBRANCH   5   7
ENDBRANCH   4   5
ENDBRANCH   3   4
ENDBRANCH   2   3
ENDBRANCH   1   2
BRANCH   1  28
ATOM     28  C   UNL     1       3.929  -2.841   0.613  1.00  0.00     0.188 C 
BRANCH  28  29
ATOM     29  C   UNL     1       5.062  -1.800   0.549  1.00  0.00     0.188 C 
BRANCH  29  30
ATOM     30  O   UNL     1       5.568  -1.411  -0.716  1.00  0.00    -0.376 OA
BRANCH  30  31
ATOM     31  C   UNL     1       5.777  -2.445  -1.667  1.00  0.00     0.202 C 
BRANCH  31  32
ATOM     32  C   UNL     1       6.557  -3.722  -1.263  1.00  0.00     0.261 C 
BRANCH  32  33
ATOM     33  O   UNL     1       6.349  -4.249   0.071  1.00  0.00    -0.460 OA
BRANCH  33  34
ATOM     34  C   UNL     1       7.290  -3.971   1.007  1.00  0.00     0.338 C 
ATOM     35  O   UNL     1       8.366  -3.412   0.806  1.00  0.00    -0.246 OA
BRANCH  34  36
ATOM     36  C   UNL     1       6.769  -4.194   2.389  1.00  0.00     0.060 A 
ATOM     37  C   UNL     1       6.710  -3.099   3.275  1.00  0.00     0.016 A 
ATOM     38  C   UNL     1       6.413  -5.460   2.850  1.00  0.00     0.016 A 
ATOM     39  C   UNL     1       6.342  -3.265   4.613  1.00  0.00     0.010 A 
ATOM     40  C   UNL     1       6.092  -5.636   4.209  1.00  0.00     0.010 A 
ATOM     41  C   UNL     1       6.100  -4.549   5.108  1.00  0.00    -0.014 A 
BRANCH  41  42
ATOM     42  C   UNL     1       6.129  -4.783   6.580  1.00  0.00     0.031 A 
ATOM     43  C   UNL     1       7.420  -5.266   7.193  1.00  0.00     0.074 A 
ATOM     44  C   UNL     1       5.069  -4.546   7.375  1.00  0.00     0.049 A 
ATOM     45  N   UNL     1       7.681  -5.631   8.423  1.00  0.00    -0.248 NA
ATOM     46  C   UNL     1       8.576  -5.350   6.285  1.00  0.00     0.031 C 
ATOM     47  C   UNL     1       3.785  -4.007   6.939  1.00  0.00     0.029 A 
ATOM     48  N   UNL     1       4.909  -4.748   8.727  1.00  0.00    -0.354 N 
ATOM     49  C   UNL     1       9.019  -6.008   8.430  1.00  0.00     0.074 A 
ATOM     50  C   UNL     1       9.510  -5.850   7.079  1.00  0.00     0.031 C 
ATOM     51  C   UNL     1       2.957  -3.945   7.998  1.00  0.00     0.029 A 
ATOM     52  C   UNL     1       3.641  -4.474   9.179  1.00  0.00     0.049 A 
ATOM     53  H   UNL     1       5.635  -5.059   9.314  1.00  0.00     0.167 HD
ATOM     54  C   UNL     1       9.774  -6.443   9.467  1.00  0.00     0.037 A 
ATOM     55  C   UNL     1       3.090  -4.659  10.396  1.00  0.00     0.037 A 
ATOM     56  C   UNL     1       9.292  -6.600  10.814  1.00  0.00     0.049 A 
ATOM     57  C   UNL     1       3.926  -5.227  11.519  1.00  0.00     0.074 A 
ATOM     58  C   UNL     1       9.984  -7.027  11.934  1.00  0.00     0.029 A 
ATOM     59  N   UNL     1       7.992  -6.341  11.223  1.00  0.00    -0.354 N 
ATOM     60  N   UNL     1       5.190  -5.579  11.520  1.00  0.00    -0.248 NA
ATOM     61  C   UNL     1       3.257  -5.417  12.815  1.00  0.00     0.031 C 
ATOM     62  C   UNL     1       9.088  -7.086  13.007  1.00  0.00     0.029 A 
ATOM     63  C   UNL     1       7.856  -6.625  12.573  1.00  0.00     0.049 A 
ATOM     64  H   UNL     1       7.273  -6.006  10.640  1.00  0.00     0.167 HD
ATOM     65  C   UNL     1       5.474  -5.992  12.817  1.00  0.00     0.074 A 
ATOM     66  C   UNL     1       4.254  -5.837  13.580  1.00  0.00     0.031 C 
ATOM     67  C   UNL     1       6.641  -6.455  13.330  1.00  0.00     0.037 A 
BRANCH  54  68
ATOM     68  C   UNL     1      11.200  -6.822   9.176  1.00  0.00     0.064 A 
ATOM     69  C   UNL     1      12.170  -5.864   8.845  1.00  0.00     0.173 A 
ATOM     70  C   UNL     1      11.606  -8.163   9.258  1.00  0.00     0.173 A 
ATOM     71  F   UNL     1      11.833  -4.569   8.738  1.00  0.00    -0.203 F 
ATOM     72  C   UNL     1      13.485  -6.238   8.577  1.00  0.00     0.198 A 
ATOM     73  C   UNL     1      12.929  -8.528   9.025  1.00  0.00     0.198 A 
ATOM     74  F   UNL     1      10.721  -9.120   9.575  1.00  0.00    -0.203 F 
ATOM     75  F   UNL     1      14.381  -5.312   8.209  1.00  0.00    -0.200 F 
ATOM     76  C   UNL     1      13.865  -7.568   8.675  1.00  0.00     0.200 A 
ATOM     77  F   UNL     1      13.297  -9.812   9.136  1.00  0.00    -0.200 F 
ATOM     78  F   UNL     1      15.132  -7.925   8.426  1.00  0.00    -0.200 F 
ENDBRANCH  54  68
BRANCH  55  79
ATOM     79  C   UNL     1       1.657  -4.324  10.627  1.00  0.00     0.064 A 
ATOM     80  C   UNL     1       1.284  -3.286  11.492  1.00  0.00     0.173 A 
ATOM     81  C   UNL     1       0.630  -5.063  10.019  1.00  0.00     0.173 A 
ATOM     82  F   UNL     1       2.227  -2.572  12.126  1.00  0.00    -0.203 F 
ATOM     83  C   UNL     1      -0.057  -3.013  11.757  1.00  0.00     0.198 A 
ATOM     84  C   UNL     1      -0.711  -4.767  10.259  1.00  0.00     0.198 A 
ATOM     85  F   UNL     1       0.929  -6.075   9.192  1.00  0.00    -0.203 F 
ATOM     86  F   UNL     1      -0.382  -2.054  12.635  1.00  0.00    -0.200 F 
ATOM     87  C   UNL     1      -1.054  -3.749  11.135  1.00  0.00     0.200 A 
ATOM     88  F   UNL     1      -1.671  -5.477   9.649  1.00  0.00    -0.200 F 
ATOM     89  F   UNL     1      -2.343  -3.486  11.390  1.00  0.00    -0.200 F 
ENDBRANCH  55  79
BRANCH  67  90
ATOM     90  C   UNL     1       6.681  -6.769  14.802  1.00  0.00     0.064 A 
ATOM     91  C   UNL     1       5.985  -7.856  15.351  1.00  0.00     0.173 A 
ATOM     92  C   UNL     1       7.455  -5.984  15.671  1.00  0.00     0.173 A 
ATOM     93  F   UNL     1       5.222  -8.635  14.569  1.00  0.00    -0.203 F 
ATOM     94  C   UNL     1       6.033  -8.122  16.718  1.00  0.00     0.198 A 
ATOM     95  C   UNL     1       7.530  -6.274  17.031  1.00  0.00     0.198 A 
ATOM     96  F   UNL     1       8.151  -4.938  15.200  1.00  0.00    -0.203 F 
ATOM     97  F   UNL     1       5.311  -9.130  17.229  1.00  0.00    -0.200 F 
ATOM     98  C   UNL     1       6.810  -7.336  17.555  1.00  0.00     0.200 A 
ATOM     99  F   UNL     1       8.298  -5.524  17.834  1.00  0.00    -0.200 F 
ATOM    100  F   UNL     1       6.858  -7.596  18.869  1.00  0.00    -0.200 F 
ENDBRANCH  67  90
ENDBRANCH  41  42
ENDBRANCH  34  36
ENDBRANCH  33  34
ENDBRANCH  32  33
ENDBRANCH  31  32
ENDBRANCH  30  31
ENDBRANCH  29  30
ENDBRANCH  28  29
ENDBRANCH   1  28
TORSDOF 20
