REMARK SMILES C[C@@H]1CCc2c(C(=O)NNC(=O)[C@@H]3[C@@H]4CC[C@@H](C4)[C@@H]3C(=O)OCCOCCOCCOC(=O)c3ccc(-c4c5nc(c(-c6c(F)c(F)c(F)c(F)c6F)c6ccc([nH]6)c(-c6c(F)c(F)c(F)c(F)c6F)c6nc(c(-c7c(F)c(F)c(F)c(F)c7F)c7ccc4[nH]7)C=C6)C=C5)cc3)csc2C1
REMARK SMILES IDX 26 1 25 2 24 3 23 4 22 5 20 6 21 7 19 8 13 9 14 10 15 11
REMARK SMILES IDX 18 12 17 13 16 14 11 15 10 16 12 18 9 19 7 20 8 21 6 23 1 24
REMARK SMILES IDX 2 25 3 26 100 27 4 28 99 29 5 30 98 31 97 32 27 33 28 34
REMARK SMILES IDX 29 35 30 36 31 37 32 38 33 39 34 40 35 41 96 42 36 43 95 44
REMARK SMILES IDX 37 45 38 46 39 47 89 48 40 49 94 50 88 51 90 52 41 53 93 54
REMARK SMILES IDX 87 55 86 56 42 58 74 59 54 60 73 61 55 62 58 63 72 64 91 65
REMARK SMILES IDX 56 66 57 67 71 69 92 70 59 71 43 72 44 73 52 74 45 75 46 76
REMARK SMILES IDX 50 77 53 78 47 79 48 80 51 81 49 82 75 83 76 84 84 85 77 86
REMARK SMILES IDX 78 87 82 88 85 89 79 90 80 91 83 92 81 93 60 94 61 95 69 96
REMARK SMILES IDX 62 97 63 98 67 99 70 100 64 101 65 102 68 103 66 104
REMARK H PARENT 10 17 9 22 90 57 58 68
REMARK Flexibility Score: inf
ROOT
ATOM      1  C   UNL     1      -6.687   0.580   3.844  1.00  0.00     0.188 C 
ENDROOT
BRANCH   1   2
ATOM      2  O   UNL     1      -7.613   0.219   4.858  1.00  0.00    -0.376 OA
BRANCH   2   3
ATOM      3  C   UNL     1      -8.283   1.327   5.460  1.00  0.00     0.202 C 
BRANCH   3   4
ATOM      4  C   UNL     1      -9.314   2.046   4.571  1.00  0.00     0.261 C 
BRANCH   4   5
ATOM      5  O   UNL     1      -8.847   2.354   3.246  1.00  0.00    -0.463 OA
BRANCH   5   6
ATOM      6  C   UNL     1      -8.160   3.506   3.036  1.00  0.00     0.310 C 
ATOM      7  O   UNL     1      -7.966   4.382   3.866  1.00  0.00    -0.252 OA
BRANCH   6   8
ATOM      8  C   UNL     1      -7.623   3.510   1.616  1.00  0.00     0.115 C 
ATOM      9  C   UNL     1      -6.240   4.145   1.411  1.00  0.00     0.098 C 
ATOM     10  C   UNL     1      -6.525   5.252   0.375  1.00  0.00     0.003 C 
ATOM     11  C   UNL     1      -7.492   6.340   0.884  1.00  0.00     0.005 C 
ATOM     12  C   UNL     1      -7.462   4.474  -0.563  1.00  0.00     0.009 C 
ATOM     13  C   UNL     1      -8.492   4.202   0.545  1.00  0.00     0.004 C 
ATOM     14  C   UNL     1      -8.844   5.626   0.966  1.00  0.00     0.005 C 
BRANCH   9  15
ATOM     15  C   UNL     1      -5.342   4.409   2.609  1.00  0.00     0.242 C 
ATOM     16  N   UNL     1      -5.065   5.723   2.899  1.00  0.00    -0.267 N 
ATOM     17  H   UNL     1      -5.710   6.296   3.374  1.00  0.00     0.191 HD
ATOM     18  O   UNL     1      -4.785   3.472   3.183  1.00  0.00    -0.273 OA
BRANCH  16  19
ATOM     19  N   UNL     1      -3.825   6.202   2.486  1.00  0.00    -0.263 N 
ATOM     20  C   UNL     1      -3.161   7.301   2.977  1.00  0.00     0.270 C 
ATOM     21  O   UNL     1      -2.357   7.837   2.208  1.00  0.00    -0.267 OA
ATOM     22  H   UNL     1      -3.376   5.700   1.767  1.00  0.00     0.191 HD
BRANCH  20  23
ATOM     23  C   UNL     1      -3.382   7.835   4.329  1.00  0.00     0.055 A 
ATOM     24  C   UNL     1      -5.395   6.158   9.517  1.00  0.00     0.008 C 
ATOM     25  C   UNL     1      -5.144   6.609   8.082  1.00  0.00    -0.009 C 
ATOM     26  C   UNL     1      -4.583   5.455   7.230  1.00  0.00     0.008 C 
ATOM     27  C   UNL     1      -4.173   7.802   8.041  1.00  0.00     0.050 C 
ATOM     28  C   UNL     1      -4.459   5.856   5.752  1.00  0.00     0.038 C 
ATOM     29  C   UNL     1      -3.803   8.114   6.622  1.00  0.00     0.009 A 
ATOM     30  C   UNL     1      -3.897   7.238   5.549  1.00  0.00    -0.021 A 
ATOM     31  S   UNL     1      -3.154   9.623   6.206  1.00  0.00    -0.148 S 
ATOM     32  C   UNL     1      -2.959   9.135   4.590  1.00  0.00     0.079 A 
ENDBRANCH  20  23
ENDBRANCH  16  19
ENDBRANCH   9  15
ENDBRANCH   6   8
ENDBRANCH   5   6
ENDBRANCH   4   5
ENDBRANCH   3   4
ENDBRANCH   2   3
ENDBRANCH   1   2
BRANCH   1  33
ATOM     33  C   UNL     1      -7.011   0.013   2.448  1.00  0.00     0.188 C 
BRANCH  33  34
ATOM     34  O   UNL     1      -8.303  -0.481   2.111  1.00  0.00    -0.376 OA
BRANCH  34  35
ATOM     35  C   UNL     1      -9.033  -1.325   3.000  1.00  0.00     0.202 C 
BRANCH  35  36
ATOM     36  C   UNL     1      -8.442  -2.657   3.464  1.00  0.00     0.261 C 
BRANCH  36  37
ATOM     37  O   UNL     1      -7.103  -2.528   3.900  1.00  0.00    -0.460 OA
BRANCH  37  38
ATOM     38  C   UNL     1      -6.205  -2.794   2.941  1.00  0.00     0.338 C 
ATOM     39  O   UNL     1      -6.421  -3.221   1.805  1.00  0.00    -0.246 OA
BRANCH  38  40
ATOM     40  C   UNL     1      -4.864  -2.470   3.428  1.00  0.00     0.060 A 
ATOM     41  C   UNL     1      -3.843  -2.542   2.477  1.00  0.00     0.016 A 
ATOM     42  C   UNL     1      -4.627  -2.509   4.806  1.00  0.00     0.016 A 
ATOM     43  C   UNL     1      -2.649  -3.070   2.882  1.00  0.00     0.010 A 
ATOM     44  C   UNL     1      -3.446  -3.064   5.209  1.00  0.00     0.010 A 
ATOM     45  C   UNL     1      -2.553  -3.466   4.215  1.00  0.00    -0.014 A 
BRANCH  45  46
ATOM     46  C   UNL     1      -1.614  -4.520   4.511  1.00  0.00     0.031 A 
ATOM     47  C   UNL     1      -0.274  -4.056   4.892  1.00  0.00     0.074 A 
ATOM     48  C   UNL     1      -2.046  -5.796   4.547  1.00  0.00     0.049 A 
ATOM     49  N   UNL     1       0.855  -4.342   4.337  1.00  0.00    -0.248 NA
ATOM     50  C   UNL     1      -0.194  -3.047   5.958  1.00  0.00     0.031 C 
ATOM     51  C   UNL     1      -3.432  -6.282   4.495  1.00  0.00     0.029 A 
ATOM     52  N   UNL     1      -1.341  -6.927   4.795  1.00  0.00    -0.354 N 
ATOM     53  C   UNL     1       1.810  -3.684   5.101  1.00  0.00     0.074 A 
ATOM     54  C   UNL     1       1.106  -2.765   5.953  1.00  0.00     0.031 C 
ATOM     55  C   UNL     1      -3.471  -7.547   4.967  1.00  0.00     0.029 A 
ATOM     56  C   UNL     1      -2.115  -7.977   5.260  1.00  0.00     0.049 A 
ATOM     57  H   UNL     1      -0.368  -6.996   4.657  1.00  0.00     0.167 HD
ATOM     58  C   UNL     1       3.086  -4.141   5.173  1.00  0.00     0.037 A 
ATOM     59  C   UNL     1      -1.655  -9.032   5.977  1.00  0.00     0.037 A 
ATOM     60  C   UNL     1       3.415  -4.980   4.050  1.00  0.00     0.049 A 
ATOM     61  C   UNL     1      -0.175  -9.086   5.791  1.00  0.00     0.074 A 
ATOM     62  C   UNL     1       3.370  -4.803   2.678  1.00  0.00     0.029 A 
ATOM     63  N   UNL     1       3.519  -6.337   4.239  1.00  0.00    -0.354 N 
ATOM     64  N   UNL     1       0.415  -9.391   4.666  1.00  0.00    -0.248 NA
ATOM     65  C   UNL     1       0.649  -8.346   6.740  1.00  0.00     0.031 C 
ATOM     66  C   UNL     1       2.949  -6.059   2.153  1.00  0.00     0.029 A 
ATOM     67  C   UNL     1       2.804  -6.932   3.231  1.00  0.00     0.049 A 
ATOM     68  H   UNL     1       4.012  -6.794   4.959  1.00  0.00     0.167 HD
ATOM     69  C   UNL     1       1.517  -8.547   4.598  1.00  0.00     0.074 A 
ATOM     70  C   UNL     1       1.656  -7.989   5.939  1.00  0.00     0.031 C 
ATOM     71  C   UNL     1       2.038  -8.144   3.401  1.00  0.00     0.037 A 
BRANCH  58  72
ATOM     72  C   UNL     1       3.889  -4.107   6.446  1.00  0.00     0.064 A 
ATOM     73  C   UNL     1       5.256  -4.428   6.398  1.00  0.00     0.173 A 
ATOM     74  C   UNL     1       3.321  -4.046   7.740  1.00  0.00     0.173 A 
ATOM     75  F   UNL     1       5.888  -4.543   5.220  1.00  0.00    -0.203 F 
ATOM     76  C   UNL     1       5.980  -4.731   7.552  1.00  0.00     0.198 A 
ATOM     77  C   UNL     1       4.062  -4.284   8.893  1.00  0.00     0.198 A 
ATOM     78  F   UNL     1       2.009  -3.870   7.943  1.00  0.00    -0.203 F 
ATOM     79  F   UNL     1       7.245  -5.160   7.447  1.00  0.00    -0.200 F 
ATOM     80  C   UNL     1       5.383  -4.660   8.798  1.00  0.00     0.200 A 
ATOM     81  F   UNL     1       3.458  -4.226  10.089  1.00  0.00    -0.200 F 
ATOM     82  F   UNL     1       6.061  -5.005   9.900  1.00  0.00    -0.200 F 
ENDBRANCH  58  72
BRANCH  59  83
ATOM     83  C   UNL     1      -2.365  -9.724   7.083  1.00  0.00     0.064 A 
ATOM     84  C   UNL     1      -1.925 -10.967   7.561  1.00  0.00     0.173 A 
ATOM     85  C   UNL     1      -3.367  -9.086   7.848  1.00  0.00     0.173 A 
ATOM     86  F   UNL     1      -0.931 -11.614   6.938  1.00  0.00    -0.203 F 
ATOM     87  C   UNL     1      -2.460 -11.539   8.723  1.00  0.00     0.198 A 
ATOM     88  C   UNL     1      -3.915  -9.667   8.991  1.00  0.00     0.198 A 
ATOM     89  F   UNL     1      -3.777  -7.843   7.560  1.00  0.00    -0.203 F 
ATOM     90  F   UNL     1      -1.977 -12.704   9.177  1.00  0.00    -0.200 F 
ATOM     91  C   UNL     1      -3.456 -10.890   9.434  1.00  0.00     0.200 A 
ATOM     92  F   UNL     1      -4.851  -9.006   9.688  1.00  0.00    -0.200 F 
ATOM     93  F   UNL     1      -3.942 -11.420  10.565  1.00  0.00    -0.200 F 
ENDBRANCH  59  83
BRANCH  71  94
ATOM     94  C   UNL     1       1.560  -8.816   2.146  1.00  0.00     0.064 A 
ATOM     95  C   UNL     1       0.224  -8.782   1.709  1.00  0.00     0.173 A 
ATOM     96  C   UNL     1       2.510  -9.353   1.266  1.00  0.00     0.173 A 
ATOM     97  F   UNL     1      -0.723  -8.179   2.437  1.00  0.00    -0.203 F 
ATOM     98  C   UNL     1      -0.147  -9.305   0.472  1.00  0.00     0.198 A 
ATOM     99  C   UNL     1       2.143  -9.841   0.015  1.00  0.00     0.198 A 
ATOM    100  F   UNL     1       3.811  -9.354   1.600  1.00  0.00    -0.203 F 
ATOM    101  F   UNL     1      -1.430  -9.267   0.085  1.00  0.00    -0.200 F 
ATOM    102  C   UNL     1       0.814  -9.827  -0.377  1.00  0.00     0.200 A 
ATOM    103  F   UNL     1       3.083 -10.294  -0.827  1.00  0.00    -0.200 F 
ATOM    104  F   UNL     1       0.464 -10.286  -1.587  1.00  0.00    -0.200 F 
ENDBRANCH  71  94
ENDBRANCH  45  46
ENDBRANCH  38  40
ENDBRANCH  37  38
ENDBRANCH  36  37
ENDBRANCH  35  36
ENDBRANCH  34  35
ENDBRANCH  33  34
ENDBRANCH   1  33
TORSDOF 20
