REMARK SMILES Cc1cc(C(=O)N2CC[NH2+]C[C@H]2C(=O)OCCOCCOCCOC(=O)c2ccc(-c3c4nc(c(-c5c(F)c(F)c(F)c(F)c5F)c5ccc([nH]5)c(-c5c(F)c(F)c(F)c(F)c5F)c5nc(c(-c6c(F)c(F)c(F)c(F)c6F)c6ccc3[nH]6)C=C5)C=C4)cc2)sc1Br
REMARK SMILES IDX 19 1 18 2 17 3 16 4 15 5 13 6 14 7 12 8 7 9 8 10 9 11 11 12
REMARK SMILES IDX 10 13 5 16 6 17 4 18 1 19 2 20 3 21 91 22 90 23 92 24 20 25
REMARK SMILES IDX 21 26 22 27 23 28 24 29 25 30 26 31 27 32 28 33 89 34 29 35
REMARK SMILES IDX 88 36 30 37 31 38 32 39 82 40 33 41 87 42 81 43 83 44 34 45
REMARK SMILES IDX 86 46 80 47 79 48 35 50 67 51 47 52 66 53 48 54 51 55 65 56
REMARK SMILES IDX 84 57 49 58 50 59 64 61 85 62 52 63 36 64 37 65 45 66 38 67
REMARK SMILES IDX 39 68 43 69 46 70 40 71 41 72 44 73 42 74 68 75 69 76 77 77
REMARK SMILES IDX 70 78 71 79 75 80 78 81 72 82 73 83 76 84 74 85 53 86 54 87
REMARK SMILES IDX 62 88 55 89 56 90 60 91 63 92 57 93 58 94 61 95 59 96
REMARK H PARENT 10 14 10 15 83 49 51 60
REMARK Flexibility Score: inf
ROOT
ATOM      1  C   UNL     1      -0.506  -4.501   3.522  1.00  0.00     0.188 C 
ENDROOT
BRANCH   1   2
ATOM      2  O   UNL     1      -0.973  -3.248   4.000  1.00  0.00    -0.376 OA
BRANCH   2   3
ATOM      3  C   UNL     1      -0.465  -2.081   3.345  1.00  0.00     0.202 C 
BRANCH   3   4
ATOM      4  C   UNL     1       1.047  -2.018   3.146  1.00  0.00     0.261 C 
BRANCH   4   5
ATOM      5  O   UNL     1       1.486  -2.936   2.113  1.00  0.00    -0.462 OA
BRANCH   5   6
ATOM      6  C   UNL     1       2.611  -3.625   2.395  1.00  0.00     0.334 C 
ATOM      7  O   UNL     1       3.202  -3.509   3.469  1.00  0.00    -0.250 OA
BRANCH   6   8
ATOM      8  C   UNL     1       3.055  -4.682   1.354  1.00  0.00     0.251 C 
ATOM      9  N   UNL     1       2.618  -4.997  -0.042  1.00  0.00    -0.314 N 
ATOM     10  C   UNL     1       3.316  -6.172  -0.585  1.00  0.00     0.182 C 
ATOM     11  C   UNL     1       4.821  -5.910  -0.647  1.00  0.00     0.282 C 
ATOM     12  C   UNL     1       4.614  -4.484   1.293  1.00  0.00     0.298 C 
ATOM     13  N   UNL     1       5.380  -5.584   0.671  1.00  0.00    -0.343 N 
ATOM     14  H   UNL     1       6.353  -5.299   0.564  1.00  0.00     0.346 HD
ATOM     15  H   UNL     1       5.324  -6.409   1.269  1.00  0.00     0.346 HD
BRANCH   9  16
ATOM     16  C   UNL     1       1.388  -4.753  -0.654  1.00  0.00     0.265 C 
ATOM     17  O   UNL     1       0.773  -5.706  -1.139  1.00  0.00    -0.268 OA
BRANCH  16  18
ATOM     18  C   UNL     1       1.010  -3.368  -0.894  1.00  0.00     0.093 A 
ATOM     19  C   UNL     1       1.125   0.337  -0.292  1.00  0.00     0.046 C 
ATOM     20  C   UNL     1       0.792  -1.028  -0.787  1.00  0.00    -0.025 A 
ATOM     21  C   UNL     1       1.638  -2.175  -0.587  1.00  0.00     0.030 A 
ATOM     22  C   UNL     1      -0.353  -1.405  -1.453  1.00  0.00     0.074 A 
ATOM     23  S   UNL     1      -0.400  -3.051  -1.831  1.00  0.00    -0.123 S 
ATOM     24  Br  UNL     1      -1.757  -0.246  -1.915  1.00  0.00    -0.039 Br
ENDBRANCH  16  18
ENDBRANCH   9  16
ENDBRANCH   6   8
ENDBRANCH   5   6
ENDBRANCH   4   5
ENDBRANCH   3   4
ENDBRANCH   2   3
ENDBRANCH   1   2
BRANCH   1  25
ATOM     25  C   UNL     1      -1.007  -4.926   2.142  1.00  0.00     0.188 C 
BRANCH  25  26
ATOM     26  O   UNL     1      -1.234  -3.895   1.192  1.00  0.00    -0.376 OA
BRANCH  26  27
ATOM     27  C   UNL     1      -2.558  -3.343   1.165  1.00  0.00     0.202 C 
BRANCH  27  28
ATOM     28  C   UNL     1      -3.475  -3.983   0.127  1.00  0.00     0.261 C 
BRANCH  28  29
ATOM     29  O   UNL     1      -3.854  -5.263   0.595  1.00  0.00    -0.460 OA
BRANCH  29  30
ATOM     30  C   UNL     1      -3.014  -6.285   0.295  1.00  0.00     0.338 C 
ATOM     31  O   UNL     1      -2.199  -6.367  -0.586  1.00  0.00    -0.246 OA
BRANCH  30  32
ATOM     32  C   UNL     1      -3.385  -7.340   1.252  1.00  0.00     0.060 A 
ATOM     33  C   UNL     1      -3.437  -8.621   0.724  1.00  0.00     0.016 A 
ATOM     34  C   UNL     1      -4.068  -6.960   2.425  1.00  0.00     0.016 A 
ATOM     35  C   UNL     1      -4.478  -9.404   1.149  1.00  0.00     0.010 A 
ATOM     36  C   UNL     1      -5.128  -7.718   2.816  1.00  0.00     0.010 A 
ATOM     37  C   UNL     1      -5.377  -8.867   2.082  1.00  0.00    -0.014 A 
BRANCH  37  38
ATOM     38  C   UNL     1      -6.598  -9.584   2.312  1.00  0.00     0.031 A 
ATOM     39  C   UNL     1      -6.392 -10.701   3.239  1.00  0.00     0.074 A 
ATOM     40  C   UNL     1      -7.764  -9.209   1.764  1.00  0.00     0.049 A 
ATOM     41  N   UNL     1      -6.320 -11.954   2.945  1.00  0.00    -0.248 NA
ATOM     42  C   UNL     1      -5.980 -10.366   4.611  1.00  0.00     0.031 C 
ATOM     43  C   UNL     1      -8.099  -7.945   1.102  1.00  0.00     0.029 A 
ATOM     44  N   UNL     1      -8.943  -9.880   1.770  1.00  0.00    -0.354 N 
ATOM     45  C   UNL     1      -6.068 -12.584   4.153  1.00  0.00     0.074 A 
ATOM     46  C   UNL     1      -5.624 -11.567   5.065  1.00  0.00     0.031 C 
ATOM     47  C   UNL     1      -9.444  -7.862   0.967  1.00  0.00     0.029 A 
ATOM     48  C   UNL     1     -10.038  -9.113   1.410  1.00  0.00     0.049 A 
ATOM     49  H   UNL     1      -9.014 -10.832   2.011  1.00  0.00     0.167 HD
ATOM     50  C   UNL     1      -6.576 -13.820   4.389  1.00  0.00     0.037 A 
ATOM     51  C   UNL     1     -11.332  -9.478   1.573  1.00  0.00     0.037 A 
ATOM     52  C   UNL     1      -6.917 -14.480   3.150  1.00  0.00     0.049 A 
ATOM     53  C   UNL     1     -11.359 -10.955   1.754  1.00  0.00     0.074 A 
ATOM     54  C   UNL     1      -6.211 -14.880   2.033  1.00  0.00     0.029 A 
ATOM     55  N   UNL     1      -8.239 -14.472   2.781  1.00  0.00    -0.354 N 
ATOM     56  N   UNL     1     -11.067 -11.812   0.814  1.00  0.00    -0.248 NA
ATOM     57  C   UNL     1     -11.295 -11.481   3.110  1.00  0.00     0.031 C 
ATOM     58  C   UNL     1      -7.105 -14.707   0.934  1.00  0.00     0.029 A 
ATOM     59  C   UNL     1      -8.324 -14.246   1.433  1.00  0.00     0.049 A 
ATOM     60  H   UNL     1      -9.003 -14.606   3.388  1.00  0.00     0.167 HD
ATOM     61  C   UNL     1     -10.386 -12.835   1.461  1.00  0.00     0.074 A 
ATOM     62  C   UNL     1     -10.666 -12.636   2.878  1.00  0.00     0.031 C 
ATOM     63  C   UNL     1      -9.433 -13.560   0.804  1.00  0.00     0.037 A 
BRANCH  50  64
ATOM     64  C   UNL     1      -7.185 -14.213   5.716  1.00  0.00     0.064 A 
ATOM     65  C   UNL     1      -7.628 -15.539   5.876  1.00  0.00     0.173 A 
ATOM     66  C   UNL     1      -7.630 -13.303   6.704  1.00  0.00     0.173 A 
ATOM     67  F   UNL     1      -7.277 -16.486   4.994  1.00  0.00    -0.203 F 
ATOM     68  C   UNL     1      -8.524 -15.899   6.885  1.00  0.00     0.198 A 
ATOM     69  C   UNL     1      -8.479 -13.679   7.740  1.00  0.00     0.198 A 
ATOM     70  F   UNL     1      -7.368 -11.993   6.662  1.00  0.00    -0.203 F 
ATOM     71  F   UNL     1      -9.025 -17.141   6.912  1.00  0.00    -0.200 F 
ATOM     72  C   UNL     1      -8.956 -14.967   7.810  1.00  0.00     0.200 A 
ATOM     73  F   UNL     1      -8.896 -12.753   8.616  1.00  0.00    -0.200 F 
ATOM     74  F   UNL     1      -9.867 -15.293   8.734  1.00  0.00    -0.200 F 
ENDBRANCH  50  64
BRANCH  51  75
ATOM     75  C   UNL     1     -12.475  -8.610   1.933  1.00  0.00     0.064 A 
ATOM     76  C   UNL     1     -13.798  -9.040   1.747  1.00  0.00     0.173 A 
ATOM     77  C   UNL     1     -12.296  -7.452   2.716  1.00  0.00     0.173 A 
ATOM     78  F   UNL     1     -14.050 -10.163   1.060  1.00  0.00    -0.203 F 
ATOM     79  C   UNL     1     -14.877  -8.359   2.321  1.00  0.00     0.198 A 
ATOM     80  C   UNL     1     -13.373  -6.768   3.281  1.00  0.00     0.198 A 
ATOM     81  F   UNL     1     -11.068  -7.015   3.028  1.00  0.00    -0.203 F 
ATOM     82  F   UNL     1     -16.122  -8.832   2.172  1.00  0.00    -0.200 F 
ATOM     83  C   UNL     1     -14.662  -7.228   3.094  1.00  0.00     0.200 A 
ATOM     84  F   UNL     1     -13.147  -5.700   4.059  1.00  0.00    -0.200 F 
ATOM     85  F   UNL     1     -15.690  -6.609   3.691  1.00  0.00    -0.200 F 
ENDBRANCH  51  75
BRANCH  63  86
ATOM     86  C   UNL     1      -9.406 -13.461  -0.696  1.00  0.00     0.064 A 
ATOM     87  C   UNL     1      -9.124 -12.280  -1.405  1.00  0.00     0.173 A 
ATOM     88  C   UNL     1      -9.562 -14.639  -1.440  1.00  0.00     0.173 A 
ATOM     89  F   UNL     1      -8.865 -11.134  -0.762  1.00  0.00    -0.203 F 
ATOM     90  C   UNL     1      -9.052 -12.275  -2.798  1.00  0.00     0.198 A 
ATOM     91  C   UNL     1      -9.449 -14.638  -2.827  1.00  0.00     0.198 A 
ATOM     92  F   UNL     1      -9.780 -15.805  -0.812  1.00  0.00    -0.203 F 
ATOM     93  F   UNL     1      -8.802 -11.133  -3.455  1.00  0.00    -0.200 F 
ATOM     94  C   UNL     1      -9.207 -13.456  -3.507  1.00  0.00     0.200 A 
ATOM     95  F   UNL     1      -9.551 -15.791  -3.503  1.00  0.00    -0.200 F 
ATOM     96  F   UNL     1      -9.100 -13.459  -4.843  1.00  0.00    -0.200 F 
ENDBRANCH  63  86
ENDBRANCH  37  38
ENDBRANCH  30  32
ENDBRANCH  29  30
ENDBRANCH  28  29
ENDBRANCH  27  28
ENDBRANCH  26  27
ENDBRANCH  25  26
ENDBRANCH   1  25
TORSDOF 19
