REMARK SMILES C[C@@H](SCC(=O)N1c2ccccc2SC[C@H]1c1ccccc1)C(=O)OCCOCCOCCOC(=O)c1ccc(-c2c3nc(c(-c4c(F)c(F)c(F)c(F)c4F)c4ccc([nH]4)c(-c4c(F)c(F)c(F)c(F)c4F)c4nc(c(-c5c(F)c(F)c(F)c(F)c5F)c5ccc2[nH]5)C=C4)C=C3)cc1
REMARK SMILES IDX 28 1 27 2 26 3 25 4 23 5 24 6 2 7 1 8 3 9 4 10 5 11 6 12
REMARK SMILES IDX 7 13 8 14 16 15 9 16 13 17 15 18 10 19 12 20 14 21 11 22
REMARK SMILES IDX 17 23 18 24 22 25 19 26 21 27 20 28 29 29 30 30 31 31 32 32
REMARK SMILES IDX 33 33 34 34 35 35 36 36 37 37 38 38 99 39 39 40 98 41 40 42
REMARK SMILES IDX 41 43 42 44 92 45 43 46 97 47 91 48 93 49 44 50 96 51 90 52
REMARK SMILES IDX 89 53 45 55 77 56 57 57 76 58 58 59 61 60 75 61 94 62 59 63
REMARK SMILES IDX 60 64 74 66 95 67 62 68 46 69 47 70 55 71 48 72 49 73 53 74
REMARK SMILES IDX 56 75 50 76 51 77 54 78 52 79 78 80 79 81 87 82 80 83 81 84
REMARK SMILES IDX 85 85 88 86 82 87 83 88 86 89 84 90 63 91 64 92 72 93 65 94
REMARK SMILES IDX 66 95 70 96 73 97 67 98 68 99 71 100 69 101
REMARK H PARENT 93 54 61 65
REMARK Flexibility Score: inf
ROOT
ATOM      1  O   UNL     1      -3.791   0.927  -0.425  1.00  0.00    -0.376 OA
ENDROOT
BRANCH   1   2
ATOM      2  C   UNL     1      -3.680  -0.479  -0.585  1.00  0.00     0.202 C 
BRANCH   2   3
ATOM      3  C   UNL     1      -2.469  -1.181  -1.219  1.00  0.00     0.261 C 
BRANCH   3   4
ATOM      4  O   UNL     1      -1.167  -1.031  -0.619  1.00  0.00    -0.462 OA
BRANCH   4   5
ATOM      5  C   UNL     1      -0.227  -0.413  -1.399  1.00  0.00     0.318 C 
ATOM      6  O   UNL     1      -0.499   0.196  -2.432  1.00  0.00    -0.251 OA
BRANCH   5   7
ATOM      7  C   UNL     1       1.206  -0.468  -0.864  1.00  0.00     0.154 C 
ATOM      8  C   UNL     1       1.384  -0.313   0.639  1.00  0.00     0.032 C 
BRANCH   7   9
ATOM      9  S   UNL     1       2.001  -2.015  -1.429  1.00  0.00    -0.137 SA
BRANCH   9  10
ATOM     10  C   UNL     1       3.345  -1.409  -2.506  1.00  0.00     0.170 C 
BRANCH  10  11
ATOM     11  C   UNL     1       2.974  -0.332  -3.525  1.00  0.00     0.237 C 
ATOM     12  O   UNL     1       2.792   0.842  -3.195  1.00  0.00    -0.274 OA
BRANCH  11  13
ATOM     13  N   UNL     1       3.046  -0.723  -4.870  1.00  0.00    -0.302 N 
ATOM     14  C   UNL     1       4.128  -0.130  -5.668  1.00  0.00     0.058 A 
ATOM     15  C   UNL     1       1.761  -0.931  -5.582  1.00  0.00     0.131 C 
ATOM     16  C   UNL     1       5.289   0.356  -5.029  1.00  0.00     0.027 A 
ATOM     17  C   UNL     1       4.074   0.001  -7.077  1.00  0.00     0.031 A 
ATOM     18  C   UNL     1       1.940  -1.627  -6.937  1.00  0.00     0.105 C 
ATOM     19  C   UNL     1       6.333   0.956  -5.748  1.00  0.00     0.002 A 
ATOM     20  C   UNL     1       5.127   0.607  -7.786  1.00  0.00     0.017 A 
ATOM     21  S   UNL     1       2.717  -0.518  -8.110  1.00  0.00    -0.121 SA
ATOM     22  C   UNL     1       6.253   1.082  -7.127  1.00  0.00     0.001 A 
BRANCH  15  23
ATOM     23  C   UNL     1       0.691  -1.766  -4.883  1.00  0.00    -0.024 A 
ATOM     24  C   UNL     1       0.936  -3.040  -4.354  1.00  0.00     0.006 A 
ATOM     25  C   UNL     1      -0.640  -1.316  -4.943  1.00  0.00     0.006 A 
ATOM     26  C   UNL     1      -0.109  -3.799  -3.818  1.00  0.00     0.000 A 
ATOM     27  C   UNL     1      -1.687  -2.099  -4.463  1.00  0.00     0.000 A 
ATOM     28  C   UNL     1      -1.419  -3.329  -3.873  1.00  0.00     0.000 A 
ENDBRANCH  15  23
ENDBRANCH  11  13
ENDBRANCH  10  11
ENDBRANCH   9  10
ENDBRANCH   7   9
ENDBRANCH   5   7
ENDBRANCH   4   5
ENDBRANCH   3   4
ENDBRANCH   2   3
ENDBRANCH   1   2
BRANCH   1  29
ATOM     29  C   UNL     1      -2.660   1.751  -0.569  1.00  0.00     0.188 C 
BRANCH  29  30
ATOM     30  C   UNL     1      -1.567   1.647   0.496  1.00  0.00     0.188 C 
BRANCH  30  31
ATOM     31  O   UNL     1      -1.732   0.852   1.654  1.00  0.00    -0.376 OA
BRANCH  31  32
ATOM     32  C   UNL     1      -2.898   1.054   2.439  1.00  0.00     0.202 C 
BRANCH  32  33
ATOM     33  C   UNL     1      -3.176   2.440   3.043  1.00  0.00     0.261 C 
BRANCH  33  34
ATOM     34  O   UNL     1      -2.971   3.543   2.148  1.00  0.00    -0.460 OA
BRANCH  34  35
ATOM     35  C   UNL     1      -1.828   4.262   2.356  1.00  0.00     0.338 C 
ATOM     36  O   UNL     1      -1.020   4.123   3.243  1.00  0.00    -0.246 OA
BRANCH  35  37
ATOM     37  C   UNL     1      -1.589   5.082   1.140  1.00  0.00     0.060 A 
ATOM     38  C   UNL     1      -2.581   5.919   0.632  1.00  0.00     0.016 A 
ATOM     39  C   UNL     1      -0.368   4.932   0.461  1.00  0.00     0.016 A 
ATOM     40  C   UNL     1      -2.340   6.624  -0.549  1.00  0.00     0.010 A 
ATOM     41  C   UNL     1      -0.144   5.604  -0.741  1.00  0.00     0.010 A 
ATOM     42  C   UNL     1      -1.121   6.477  -1.237  1.00  0.00    -0.014 A 
BRANCH  42  43
ATOM     43  C   UNL     1      -0.790   7.412  -2.335  1.00  0.00     0.031 A 
ATOM     44  C   UNL     1      -0.989   7.071  -3.775  1.00  0.00     0.074 A 
ATOM     45  C   UNL     1      -0.312   8.618  -1.983  1.00  0.00     0.049 A 
ATOM     46  N   UNL     1      -0.902   7.857  -4.820  1.00  0.00    -0.248 NA
ATOM     47  C   UNL     1      -1.319   5.677  -4.089  1.00  0.00     0.031 C 
ATOM     48  C   UNL     1      -0.047   9.037  -0.606  1.00  0.00     0.029 A 
ATOM     49  N   UNL     1       0.010   9.713  -2.739  1.00  0.00    -0.354 N 
ATOM     50  C   UNL     1      -1.208   7.066  -5.916  1.00  0.00     0.074 A 
ATOM     51  C   UNL     1      -1.421   5.722  -5.413  1.00  0.00     0.031 C 
ATOM     52  C   UNL     1       0.356  10.315  -0.611  1.00  0.00     0.029 A 
ATOM     53  C   UNL     1       0.389  10.796  -1.989  1.00  0.00     0.049 A 
ATOM     54  H   UNL     1      -0.027   9.722  -3.723  1.00  0.00     0.167 HD
ATOM     55  C   UNL     1      -1.319   7.439  -7.216  1.00  0.00     0.037 A 
ATOM     56  C   UNL     1       0.704  12.048  -2.364  1.00  0.00     0.037 A 
ATOM     57  C   UNL     1      -1.051   8.770  -7.709  1.00  0.00     0.049 A 
ATOM     58  C   UNL     1       0.630  12.421  -3.814  1.00  0.00     0.074 A 
ATOM     59  C   UNL     1      -1.157   9.251  -9.003  1.00  0.00     0.029 A 
ATOM     60  N   UNL     1      -0.598   9.828  -6.931  1.00  0.00    -0.354 N 
ATOM     61  N   UNL     1       0.254  11.692  -4.836  1.00  0.00    -0.248 NA
ATOM     62  C   UNL     1       1.014  13.794  -4.159  1.00  0.00     0.031 C 
ATOM     63  C   UNL     1      -0.716  10.580  -9.018  1.00  0.00     0.029 A 
ATOM     64  C   UNL     1      -0.389  10.949  -7.724  1.00  0.00     0.049 A 
ATOM     65  H   UNL     1      -0.447   9.789  -5.960  1.00  0.00     0.167 HD
ATOM     66  C   UNL     1       0.343  12.518  -5.946  1.00  0.00     0.074 A 
ATOM     67  C   UNL     1       0.787  13.813  -5.465  1.00  0.00     0.031 C 
ATOM     68  C   UNL     1       0.080  12.228  -7.244  1.00  0.00     0.037 A 
BRANCH  55  69
ATOM     69  C   UNL     1      -1.759   6.391  -8.199  1.00  0.00     0.064 A 
ATOM     70  C   UNL     1      -3.069   5.886  -8.185  1.00  0.00     0.173 A 
ATOM     71  C   UNL     1      -0.890   5.925  -9.197  1.00  0.00     0.173 A 
ATOM     72  F   UNL     1      -3.942   6.299  -7.254  1.00  0.00    -0.203 F 
ATOM     73  C   UNL     1      -3.482   4.931  -9.111  1.00  0.00     0.198 A 
ATOM     74  C   UNL     1      -1.316   4.991 -10.140  1.00  0.00     0.198 A 
ATOM     75  F   UNL     1       0.367   6.385  -9.269  1.00  0.00    -0.203 F 
ATOM     76  F   UNL     1      -4.725   4.434  -9.050  1.00  0.00    -0.200 F 
ATOM     77  C   UNL     1      -2.607   4.489 -10.092  1.00  0.00     0.200 A 
ATOM     78  F   UNL     1      -0.475   4.579 -11.100  1.00  0.00    -0.200 F 
ATOM     79  F   UNL     1      -3.009   3.578 -10.988  1.00  0.00    -0.200 F 
ENDBRANCH  55  69
BRANCH  56  80
ATOM     80  C   UNL     1       1.039  13.043  -1.318  1.00  0.00     0.064 A 
ATOM     81  C   UNL     1       0.125  14.047  -0.973  1.00  0.00     0.173 A 
ATOM     82  C   UNL     1       2.233  12.959  -0.588  1.00  0.00     0.173 A 
ATOM     83  F   UNL     1      -1.024  14.169  -1.653  1.00  0.00    -0.203 F 
ATOM     84  C   UNL     1       0.393  14.931   0.069  1.00  0.00     0.198 A 
ATOM     85  C   UNL     1       2.488  13.829   0.469  1.00  0.00     0.198 A 
ATOM     86  F   UNL     1       3.130  12.005  -0.875  1.00  0.00    -0.203 F 
ATOM     87  F   UNL     1      -0.491  15.892   0.372  1.00  0.00    -0.200 F 
ATOM     88  C   UNL     1       1.568  14.814   0.796  1.00  0.00     0.200 A 
ATOM     89  F   UNL     1       3.615  13.700   1.183  1.00  0.00    -0.200 F 
ATOM     90  F   UNL     1       1.813  15.649   1.815  1.00  0.00    -0.200 F 
ENDBRANCH  56  80
BRANCH  68  91
ATOM     91  C   UNL     1       0.274  13.333  -8.244  1.00  0.00     0.064 A 
ATOM     92  C   UNL     1       1.553  13.801  -8.582  1.00  0.00     0.173 A 
ATOM     93  C   UNL     1      -0.827  13.915  -8.892  1.00  0.00     0.173 A 
ATOM     94  F   UNL     1       2.639  13.292  -7.979  1.00  0.00    -0.203 F 
ATOM     95  C   UNL     1       1.721  14.827  -9.509  1.00  0.00     0.198 A 
ATOM     96  C   UNL     1      -0.653  14.918  -9.842  1.00  0.00     0.198 A 
ATOM     97  F   UNL     1      -2.072  13.504  -8.611  1.00  0.00    -0.203 F 
ATOM     98  F   UNL     1       2.950  15.292  -9.775  1.00  0.00    -0.200 F 
ATOM     99  C   UNL     1       0.619  15.379 -10.143  1.00  0.00     0.200 A 
ATOM    100  F   UNL     1      -1.719  15.443 -10.463  1.00  0.00    -0.200 F 
ATOM    101  F   UNL     1       0.783  16.363 -11.039  1.00  0.00    -0.200 F 
ENDBRANCH  68  91
ENDBRANCH  42  43
ENDBRANCH  35  37
ENDBRANCH  34  35
ENDBRANCH  33  34
ENDBRANCH  32  33
ENDBRANCH  31  32
ENDBRANCH  30  31
ENDBRANCH  29  30
ENDBRANCH   1  29
TORSDOF 22
