REMARK SMILES O=C(OCCOCCOCCOC(=O)c1cc2c(c(S(=O)(=O)Nc3cc(C(F)(F)F)ccc3-n3cccn3)c1)CCC2)c1ccc(-c2c3nc(c(-c4c(F)c(F)c(F)c(F)c4F)c4ccc([nH]4)c(-c4c(F)c(F)c(F)c(F)c4F)c4nc(c(-c5c(F)c(F)c(F)c(F)c5F)c5ccc2[nH]5)C=C4)C=C3)cc1
REMARK SMILES IDX 8 1 7 2 6 3 5 4 4 5 3 6 2 7 1 8 43 9 44 10 105 11 45 12
REMARK SMILES IDX 104 13 46 14 47 15 48 16 98 17 49 18 103 19 97 20 99 21
REMARK SMILES IDX 50 22 102 23 96 24 95 25 51 27 83 28 63 29 82 30 64 31 67 32
REMARK SMILES IDX 81 33 100 34 65 35 66 36 80 38 101 39 68 40 52 41 53 42
REMARK SMILES IDX 61 43 54 44 55 45 59 46 62 47 56 48 57 49 60 50 58 51 84 52
REMARK SMILES IDX 85 53 93 54 86 55 87 56 91 57 94 58 88 59 89 60 92 61 90 62
REMARK SMILES IDX 69 63 70 64 78 65 71 66 72 67 76 68 79 69 73 70 74 71 77 72
REMARK SMILES IDX 75 73 9 74 10 75 11 76 12 77 13 78 14 79 15 80 16 81 39 82
REMARK SMILES IDX 17 83 19 84 18 85 42 86 40 87 41 88 20 89 21 90 22 91 23 92
REMARK SMILES IDX 24 94 25 95 33 96 26 97 32 98 31 99 34 100 35 101 38 102
REMARK SMILES IDX 36 103 37 104 27 105 28 106 29 107 30 108
REMARK H PARENT 99 26 67 37 23 93
REMARK Flexibility Score: inf
ROOT
ATOM      1  C   UNL     1       2.395   2.501   0.117  1.00  0.00     0.188 C 
ENDROOT
BRANCH   1   2
ATOM      2  C   UNL     1       3.331   1.445   0.748  1.00  0.00     0.188 C 
BRANCH   2   3
ATOM      3  O   UNL     1       4.713   1.512   0.507  1.00  0.00    -0.376 OA
BRANCH   3   4
ATOM      4  C   UNL     1       5.381   0.784  -0.504  1.00  0.00     0.202 C 
BRANCH   4   5
ATOM      5  C   UNL     1       4.717   0.026  -1.660  1.00  0.00     0.261 C 
BRANCH   5   6
ATOM      6  O   UNL     1       3.324   0.243  -1.849  1.00  0.00    -0.460 OA
BRANCH   6   7
ATOM      7  C   UNL     1       2.303  -0.562  -1.493  1.00  0.00     0.338 C 
ATOM      8  O   UNL     1       1.208  -0.405  -2.030  1.00  0.00    -0.246 OA
BRANCH   7   9
ATOM      9  C   UNL     1       2.378  -1.539  -0.366  1.00  0.00     0.060 A 
ATOM     10  C   UNL     1       3.526  -2.183   0.109  1.00  0.00     0.016 A 
ATOM     11  C   UNL     1       1.141  -1.820   0.244  1.00  0.00     0.016 A 
ATOM     12  C   UNL     1       3.403  -3.296   0.912  1.00  0.00     0.010 A 
ATOM     13  C   UNL     1       1.017  -2.892   1.097  1.00  0.00     0.010 A 
ATOM     14  C   UNL     1       2.129  -3.702   1.278  1.00  0.00    -0.014 A 
BRANCH  14  15
ATOM     15  C   UNL     1       1.972  -5.061   1.752  1.00  0.00     0.031 A 
ATOM     16  C   UNL     1       2.573  -5.329   3.081  1.00  0.00     0.074 A 
ATOM     17  C   UNL     1       1.259  -5.912   0.985  1.00  0.00     0.049 A 
ATOM     18  N   UNL     1       3.409  -6.254   3.425  1.00  0.00    -0.248 NA
ATOM     19  C   UNL     1       2.310  -4.341   4.139  1.00  0.00     0.031 C 
ATOM     20  C   UNL     1       0.516  -5.613  -0.250  1.00  0.00     0.029 A 
ATOM     21  N   UNL     1       0.938  -7.210   1.219  1.00  0.00    -0.354 N 
ATOM     22  C   UNL     1       3.619  -6.078   4.793  1.00  0.00     0.074 A 
ATOM     23  C   UNL     1       3.059  -4.801   5.138  1.00  0.00     0.031 C 
ATOM     24  C   UNL     1      -0.363  -6.605  -0.499  1.00  0.00     0.029 A 
ATOM     25  C   UNL     1      -0.146  -7.659   0.467  1.00  0.00     0.049 A 
ATOM     26  H   UNL     1       1.423  -7.779   1.859  1.00  0.00     0.167 HD
ATOM     27  C   UNL     1       3.994  -7.118   5.585  1.00  0.00     0.037 A 
ATOM     28  C   UNL     1      -0.877  -8.763   0.755  1.00  0.00     0.037 A 
ATOM     29  C   UNL     1       4.675  -8.132   4.825  1.00  0.00     0.049 A 
ATOM     30  C   UNL     1      -0.033  -9.610   1.644  1.00  0.00     0.074 A 
ATOM     31  C   UNL     1       5.853  -8.160   4.103  1.00  0.00     0.029 A 
ATOM     32  N   UNL     1       3.963  -9.231   4.413  1.00  0.00    -0.354 N 
ATOM     33  N   UNL     1       1.085 -10.165   1.252  1.00  0.00    -0.248 NA
ATOM     34  C   UNL     1      -0.155  -9.397   3.081  1.00  0.00     0.031 C 
ATOM     35  C   UNL     1       5.564  -8.962   2.960  1.00  0.00     0.029 A 
ATOM     36  C   UNL     1       4.258  -9.434   3.088  1.00  0.00     0.049 A 
ATOM     37  H   UNL     1       3.354  -9.773   4.965  1.00  0.00     0.167 HD
ATOM     38  C   UNL     1       1.958 -10.003   2.320  1.00  0.00     0.074 A 
ATOM     39  C   UNL     1       1.123  -9.559   3.434  1.00  0.00     0.031 C 
ATOM     40  C   UNL     1       3.311  -9.957   2.132  1.00  0.00     0.037 A 
BRANCH  27  41
ATOM     41  C   UNL     1       3.375  -7.385   6.938  1.00  0.00     0.064 A 
ATOM     42  C   UNL     1       3.864  -8.454   7.713  1.00  0.00     0.173 A 
ATOM     43  C   UNL     1       2.134  -6.851   7.356  1.00  0.00     0.173 A 
ATOM     44  F   UNL     1       5.033  -9.038   7.410  1.00  0.00    -0.203 F 
ATOM     45  C   UNL     1       3.117  -9.011   8.754  1.00  0.00     0.198 A 
ATOM     46  C   UNL     1       1.415  -7.379   8.424  1.00  0.00     0.198 A 
ATOM     47  F   UNL     1       1.508  -5.873   6.691  1.00  0.00    -0.203 F 
ATOM     48  F   UNL     1       3.562 -10.111   9.376  1.00  0.00    -0.200 F 
ATOM     49  C   UNL     1       1.886  -8.482   9.099  1.00  0.00     0.200 A 
ATOM     50  F   UNL     1       0.219  -6.856   8.733  1.00  0.00    -0.200 F 
ATOM     51  F   UNL     1       1.135  -9.060  10.045  1.00  0.00    -0.200 F 
ENDBRANCH  27  41
BRANCH  28  52
ATOM     52  C   UNL     1      -2.354  -8.871   0.673  1.00  0.00     0.064 A 
ATOM     53  C   UNL     1      -2.995 -10.117   0.664  1.00  0.00     0.173 A 
ATOM     54  C   UNL     1      -3.184  -7.742   0.845  1.00  0.00     0.173 A 
ATOM     55  F   UNL     1      -2.273 -11.243   0.564  1.00  0.00    -0.203 F 
ATOM     56  C   UNL     1      -4.383 -10.228   0.816  1.00  0.00     0.198 A 
ATOM     57  C   UNL     1      -4.567  -7.853   0.987  1.00  0.00     0.198 A 
ATOM     58  F   UNL     1      -2.663  -6.513   0.969  1.00  0.00    -0.203 F 
ATOM     59  F   UNL     1      -4.957 -11.439   0.851  1.00  0.00    -0.200 F 
ATOM     60  C   UNL     1      -5.166  -9.097   0.982  1.00  0.00     0.200 A 
ATOM     61  F   UNL     1      -5.305  -6.751   1.187  1.00  0.00    -0.200 F 
ATOM     62  F   UNL     1      -6.488  -9.206   1.177  1.00  0.00    -0.200 F 
ENDBRANCH  28  52
BRANCH  40  63
ATOM     63  C   UNL     1       3.838 -10.245   0.753  1.00  0.00     0.064 A 
ATOM     64  C   UNL     1       3.608  -9.410  -0.355  1.00  0.00     0.173 A 
ATOM     65  C   UNL     1       4.750 -11.292   0.587  1.00  0.00     0.173 A 
ATOM     66  F   UNL     1       2.837  -8.322  -0.246  1.00  0.00    -0.203 F 
ATOM     67  C   UNL     1       4.232  -9.639  -1.581  1.00  0.00     0.198 A 
ATOM     68  C   UNL     1       5.399 -11.500  -0.628  1.00  0.00     0.198 A 
ATOM     69  F   UNL     1       5.062 -12.080   1.628  1.00  0.00    -0.203 F 
ATOM     70  F   UNL     1       3.995  -8.824  -2.621  1.00  0.00    -0.200 F 
ATOM     71  C   UNL     1       5.133 -10.680  -1.714  1.00  0.00     0.200 A 
ATOM     72  F   UNL     1       6.313 -12.473  -0.735  1.00  0.00    -0.200 F 
ATOM     73  F   UNL     1       5.773 -10.873  -2.876  1.00  0.00    -0.200 F 
ENDBRANCH  40  63
ENDBRANCH  14  15
ENDBRANCH   7   9
ENDBRANCH   6   7
ENDBRANCH   5   6
ENDBRANCH   4   5
ENDBRANCH   3   4
ENDBRANCH   2   3
ENDBRANCH   1   2
BRANCH   1  74
ATOM     74  O   UNL     1       2.893   3.586  -0.645  1.00  0.00    -0.376 OA
BRANCH  74  75
ATOM     75  C   UNL     1       4.167   4.124  -0.351  1.00  0.00     0.202 C 
BRANCH  75  76
ATOM     76  C   UNL     1       4.426   4.702   1.048  1.00  0.00     0.261 C 
BRANCH  76  77
ATOM     77  O   UNL     1       4.103   3.854   2.167  1.00  0.00    -0.460 OA
BRANCH  77  78
ATOM     78  C   UNL     1       2.947   4.107   2.821  1.00  0.00     0.338 C 
ATOM     79  O   UNL     1       2.094   4.947   2.539  1.00  0.00    -0.246 OA
BRANCH  78  80
ATOM     80  C   UNL     1       2.829   3.207   3.983  1.00  0.00     0.061 A 
ATOM     81  C   UNL     1       3.655   3.482   5.066  1.00  0.00     0.019 A 
ATOM     82  C   UNL     1       1.883   2.148   4.036  1.00  0.00     0.038 A 
ATOM     83  C   UNL     1       3.523   2.685   6.183  1.00  0.00    -0.043 A 
ATOM     84  C   UNL     1       1.798   1.298   5.165  1.00  0.00     0.092 A 
ATOM     85  C   UNL     1       2.666   1.562   6.216  1.00  0.00    -0.024 A 
ATOM     86  C   UNL     1       4.209   2.888   7.501  1.00  0.00     0.036 C 
ATOM     87  C   UNL     1       2.932   0.840   7.498  1.00  0.00     0.037 C 
ATOM     88  C   UNL     1       3.309   2.028   8.387  1.00  0.00     0.010 C 
BRANCH  84  89
ATOM     89  S   UNL     1       0.790  -0.174   5.082  1.00  0.00     0.262 S 
ATOM     90  O   UNL     1       0.135  -0.169   3.787  1.00  0.00    -0.201 OA
ATOM     91  O   UNL     1       1.653  -1.287   5.423  1.00  0.00    -0.201 OA
BRANCH  89  92
ATOM     92  N   UNL     1      -0.496  -0.249   6.210  1.00  0.00    -0.277 N 
ATOM     93  H   UNL     1      -1.315  -0.732   5.955  1.00  0.00     0.180 HD
BRANCH  92  94
ATOM     94  C   UNL     1      -0.437   0.360   7.510  1.00  0.00     0.075 A 
ATOM     95  C   UNL     1      -0.104  -0.439   8.620  1.00  0.00     0.042 A 
ATOM     96  C   UNL     1      -0.592   1.741   7.686  1.00  0.00     0.089 A 
ATOM     97  C   UNL     1       0.174   0.144   9.876  1.00  0.00     0.058 A 
ATOM     98  C   UNL     1      -0.339   2.326   8.935  1.00  0.00     0.031 A 
ATOM     99  C   UNL     1       0.039   1.532  10.022  1.00  0.00     0.015 A 
BRANCH  96 100
ATOM    100  N   UNL     1      -0.959   2.575   6.606  1.00  0.00    -0.239 N 
ATOM    101  C   UNL     1      -1.792   2.275   5.552  1.00  0.00     0.115 A 
ATOM    102  N   UNL     1      -0.363   3.780   6.440  1.00  0.00    -0.177 NA
ATOM    103  C   UNL     1      -1.570   3.226   4.588  1.00  0.00     0.042 A 
ATOM    104  C   UNL     1      -0.655   4.112   5.178  1.00  0.00     0.135 A 
ENDBRANCH  96 100
BRANCH  97 105
ATOM    105  C   UNL     1       0.697  -0.704  11.015  1.00  0.00     0.416 C 
ATOM    106  F   UNL     1      -0.245  -1.538  11.528  1.00  0.00    -0.166 F 
ATOM    107  F   UNL     1       1.732  -1.500  10.624  1.00  0.00    -0.166 F 
ATOM    108  F   UNL     1       1.172   0.025  12.063  1.00  0.00    -0.166 F 
ENDBRANCH  97 105
ENDBRANCH  92  94
ENDBRANCH  89  92
ENDBRANCH  84  89
ENDBRANCH  78  80
ENDBRANCH  77  78
ENDBRANCH  76  77
ENDBRANCH  75  76
ENDBRANCH  74  75
ENDBRANCH   1  74
TORSDOF 22
