REMARK SMILES CCn1ncc(NC(=O)[C@@H]2CCCC[C@@H]2C(=O)OCCOCCOCCOC(=O)c2ccc(-c3c4nc(c(-c5c(F)c(F)c(F)c(F)c5F)c5ccc([nH]5)c(-c5c(F)c(F)c(F)c(F)c5F)c5nc(c(-c6c(F)c(F)c(F)c(F)c6F)c6ccc3[nH]6)C=C5)C=C4)cc2)c1C(=O)Nc1cnn(C)c1C
REMARK SMILES IDX 22 1 21 2 20 3 19 4 18 5 16 6 17 7 15 8 10 9 11 10 12 11
REMARK SMILES IDX 14 12 13 13 8 14 7 15 9 17 6 18 3 19 4 20 93 21 5 22 2 23
REMARK SMILES IDX 1 24 94 25 95 26 96 27 97 29 98 30 102 31 99 32 100 33
REMARK SMILES IDX 103 34 101 35 23 36 24 37 25 38 26 39 27 40 28 41 29 42
REMARK SMILES IDX 30 43 31 44 92 45 32 46 91 47 33 48 34 49 35 50 85 51 36 52
REMARK SMILES IDX 90 53 84 54 86 55 37 56 89 57 83 58 82 59 38 61 70 62 50 63
REMARK SMILES IDX 69 64 51 65 54 66 68 67 87 68 52 69 53 70 67 72 88 73 55 74
REMARK SMILES IDX 39 75 40 76 48 77 41 78 42 79 46 80 49 81 43 82 44 83 47 84
REMARK SMILES IDX 45 85 71 86 72 87 80 88 73 89 74 90 78 91 81 92 75 93 76 94
REMARK SMILES IDX 79 95 77 96 56 97 57 98 65 99 58 100 59 101 63 102 66 103
REMARK SMILES IDX 60 104 61 105 64 106 62 107
REMARK H PARENT 7 16 96 28 86 60 54 71
REMARK Flexibility Score: inf
ROOT
ATOM      1  C   UNL     1       1.963  -8.402   6.559  1.00  0.00     0.188 C 
ENDROOT
BRANCH   1   2
ATOM      2  O   UNL     1       0.942  -9.046   7.314  1.00  0.00    -0.376 OA
BRANCH   2   3
ATOM      3  C   UNL     1      -0.266  -8.287   7.433  1.00  0.00     0.202 C 
BRANCH   3   4
ATOM      4  C   UNL     1      -1.126  -8.299   6.163  1.00  0.00     0.261 C 
BRANCH   4   5
ATOM      5  O   UNL     1      -0.419  -7.823   5.011  1.00  0.00    -0.463 OA
BRANCH   5   6
ATOM      6  C   UNL     1      -0.122  -6.498   4.991  1.00  0.00     0.309 C 
ATOM      7  O   UNL     1      -0.503  -5.703   5.838  1.00  0.00    -0.252 OA
BRANCH   6   8
ATOM      8  C   UNL     1       0.802  -6.180   3.808  1.00  0.00     0.111 C 
ATOM      9  C   UNL     1       0.875  -4.677   3.506  1.00  0.00     0.093 C 
ATOM     10  C   UNL     1      -0.542  -4.154   3.258  1.00  0.00     0.014 C 
ATOM     11  C   UNL     1      -1.247  -4.960   2.157  1.00  0.00     0.001 C 
ATOM     12  C   UNL     1       0.355  -6.905   2.536  1.00  0.00     0.016 C 
ATOM     13  C   UNL     1      -1.056  -6.477   2.155  1.00  0.00     0.001 C 
BRANCH   9  14
ATOM     14  C   UNL     1       1.740  -3.974   4.547  1.00  0.00     0.228 C 
ATOM     15  N   UNL     1       2.049  -2.654   4.483  1.00  0.00    -0.322 N 
ATOM     16  H   UNL     1       2.594  -2.349   5.244  1.00  0.00     0.170 HD
ATOM     17  O   UNL     1       2.220  -4.598   5.502  1.00  0.00    -0.274 OA
BRANCH  15  18
ATOM     18  C   UNL     1       1.765  -1.647   3.583  1.00  0.00     0.092 A 
ATOM     19  N   UNL     1       1.048  -0.332   2.004  1.00  0.00    -0.258 N 
ATOM     20  N   UNL     1       1.255   0.500   3.047  1.00  0.00    -0.178 NA
ATOM     21  C   UNL     1       1.563  -1.603   2.199  1.00  0.00     0.150 A 
ATOM     22  C   UNL     1       1.685  -0.303   4.006  1.00  0.00     0.162 A 
BRANCH  19  23
ATOM     23  C   UNL     1       0.275   0.237   0.920  1.00  0.00     0.142 C 
ATOM     24  C   UNL     1       1.090   1.161   0.037  1.00  0.00     0.029 C 
ENDBRANCH  19  23
BRANCH  21  25
ATOM     25  C   UNL     1       1.959  -2.603   1.209  1.00  0.00     0.276 C 
ATOM     26  O   UNL     1       3.039  -3.190   1.280  1.00  0.00    -0.267 OA
ATOM     27  N   UNL     1       0.995  -3.134   0.375  1.00  0.00    -0.318 N 
ATOM     28  H   UNL     1       0.595  -3.995   0.636  1.00  0.00     0.170 HD
BRANCH  27  29
ATOM     29  C   UNL     1       0.547  -2.554  -0.793  1.00  0.00     0.082 A 
ATOM     30  C   UNL     1       1.187  -1.637  -1.645  1.00  0.00     0.161 A 
ATOM     31  C   UNL     1      -0.690  -2.780  -1.369  1.00  0.00     0.059 A 
ATOM     32  N   UNL     1       0.352  -1.150  -2.563  1.00  0.00    -0.179 NA
ATOM     33  N   UNL     1      -0.811  -1.780  -2.306  1.00  0.00    -0.271 N 
ATOM     34  C   UNL     1      -1.796  -3.709  -1.028  1.00  0.00     0.068 C 
ATOM     35  C   UNL     1      -2.033  -1.196  -2.815  1.00  0.00     0.174 C 
ENDBRANCH  27  29
ENDBRANCH  21  25
ENDBRANCH  15  18
ENDBRANCH   9  14
ENDBRANCH   6   8
ENDBRANCH   5   6
ENDBRANCH   4   5
ENDBRANCH   3   4
ENDBRANCH   2   3
ENDBRANCH   1   2
BRANCH   1  36
ATOM     36  C   UNL     1       2.347  -9.076   5.222  1.00  0.00     0.188 C 
BRANCH  36  37
ATOM     37  O   UNL     1       1.536 -10.069   4.609  1.00  0.00    -0.376 OA
BRANCH  37  38
ATOM     38  C   UNL     1       1.015 -11.154   5.365  1.00  0.00     0.202 C 
BRANCH  38  39
ATOM     39  C   UNL     1       1.982 -12.108   6.058  1.00  0.00     0.261 C 
BRANCH  39  40
ATOM     40  O   UNL     1       2.853 -11.428   6.951  1.00  0.00    -0.460 OA
BRANCH  40  41
ATOM     41  C   UNL     1       4.093 -11.216   6.464  1.00  0.00     0.338 C 
ATOM     42  O   UNL     1       4.542 -11.588   5.395  1.00  0.00    -0.246 OA
BRANCH  41  43
ATOM     43  C   UNL     1       4.862 -10.416   7.431  1.00  0.00     0.060 A 
ATOM     44  C   UNL     1       6.156 -10.058   7.048  1.00  0.00     0.016 A 
ATOM     45  C   UNL     1       4.393 -10.204   8.737  1.00  0.00     0.016 A 
ATOM     46  C   UNL     1       7.071  -9.776   8.035  1.00  0.00     0.010 A 
ATOM     47  C   UNL     1       5.306  -9.911   9.726  1.00  0.00     0.010 A 
ATOM     48  C   UNL     1       6.651  -9.848   9.366  1.00  0.00    -0.014 A 
BRANCH  48  49
ATOM     49  C   UNL     1       7.679 -10.161  10.339  1.00  0.00     0.031 A 
ATOM     50  C   UNL     1       8.515  -9.052  10.823  1.00  0.00     0.074 A 
ATOM     51  C   UNL     1       7.833 -11.431  10.766  1.00  0.00     0.049 A 
ATOM     52  N   UNL     1       9.803  -8.948  10.771  1.00  0.00    -0.248 NA
ATOM     53  C   UNL     1       7.828  -7.895  11.408  1.00  0.00     0.031 C 
ATOM     54  C   UNL     1       6.921 -12.564  10.559  1.00  0.00     0.029 A 
ATOM     55  N   UNL     1       8.803 -11.954  11.567  1.00  0.00    -0.354 N 
ATOM     56  C   UNL     1      10.110  -7.786  11.464  1.00  0.00     0.074 A 
ATOM     57  C   UNL     1       8.861  -7.125  11.749  1.00  0.00     0.031 C 
ATOM     58  C   UNL     1       7.271 -13.570  11.387  1.00  0.00     0.029 A 
ATOM     59  C   UNL     1       8.490 -13.200  12.085  1.00  0.00     0.049 A 
ATOM     60  H   UNL     1       9.649 -11.489  11.760  1.00  0.00     0.167 HD
ATOM     61  C   UNL     1      11.361  -7.555  11.942  1.00  0.00     0.037 A 
ATOM     62  C   UNL     1       9.140 -13.846  13.079  1.00  0.00     0.037 A 
ATOM     63  C   UNL     1      12.363  -8.305  11.237  1.00  0.00     0.049 A 
ATOM     64  C   UNL     1      10.497 -13.261  13.194  1.00  0.00     0.074 A 
ATOM     65  C   UNL     1      12.777  -8.368   9.920  1.00  0.00     0.029 A 
ATOM     66  N   UNL     1      12.940  -9.386  11.854  1.00  0.00    -0.354 N 
ATOM     67  N   UNL     1      11.453 -13.429  12.323  1.00  0.00    -0.248 NA
ATOM     68  C   UNL     1      10.694 -12.165  14.131  1.00  0.00     0.031 C 
ATOM     69  C   UNL     1      13.205  -9.712   9.717  1.00  0.00     0.029 A 
ATOM     70  C   UNL     1      13.025 -10.389  10.923  1.00  0.00     0.049 A 
ATOM     71  H   UNL     1      13.237  -9.432  12.792  1.00  0.00     0.167 HD
ATOM     72  C   UNL     1      12.154 -12.233  12.336  1.00  0.00     0.074 A 
ATOM     73  C   UNL     1      11.727 -11.553  13.551  1.00  0.00     0.031 C 
ATOM     74  C   UNL     1      12.797 -11.783  11.220  1.00  0.00     0.037 A 
BRANCH  61  75
ATOM     75  C   UNL     1      11.616  -6.878  13.260  1.00  0.00     0.064 A 
ATOM     76  C   UNL     1      12.913  -6.443  13.583  1.00  0.00     0.173 A 
ATOM     77  C   UNL     1      10.688  -6.893  14.326  1.00  0.00     0.173 A 
ATOM     78  F   UNL     1      13.880  -6.433  12.653  1.00  0.00    -0.203 F 
ATOM     79  C   UNL     1      13.266  -6.091  14.888  1.00  0.00     0.198 A 
ATOM     80  C   UNL     1      11.028  -6.487  15.613  1.00  0.00     0.198 A 
ATOM     81  F   UNL     1       9.457  -7.401  14.186  1.00  0.00    -0.203 F 
ATOM     82  F   UNL     1      14.540  -5.792  15.174  1.00  0.00    -0.200 F 
ATOM     83  C   UNL     1      12.323  -6.112  15.901  1.00  0.00     0.200 A 
ATOM     84  F   UNL     1      10.107  -6.537  16.586  1.00  0.00    -0.200 F 
ATOM     85  F   UNL     1      12.673  -5.823  17.161  1.00  0.00    -0.200 F 
ENDBRANCH  61  75
BRANCH  62  86
ATOM     86  C   UNL     1       8.566 -14.756  14.094  1.00  0.00     0.064 A 
ATOM     87  C   UNL     1       9.384 -15.612  14.846  1.00  0.00     0.173 A 
ATOM     88  C   UNL     1       7.228 -14.632  14.522  1.00  0.00     0.173 A 
ATOM     89  F   UNL     1      10.682 -15.746  14.539  1.00  0.00    -0.203 F 
ATOM     90  C   UNL     1       8.896 -16.294  15.965  1.00  0.00     0.198 A 
ATOM     91  C   UNL     1       6.738 -15.326  15.627  1.00  0.00     0.198 A 
ATOM     92  F   UNL     1       6.391 -13.765  13.935  1.00  0.00    -0.203 F 
ATOM     93  F   UNL     1       9.723 -17.055  16.695  1.00  0.00    -0.200 F 
ATOM     94  C   UNL     1       7.575 -16.147  16.357  1.00  0.00     0.200 A 
ATOM     95  F   UNL     1       5.467 -15.147  16.014  1.00  0.00    -0.200 F 
ATOM     96  F   UNL     1       7.121 -16.763  17.457  1.00  0.00    -0.200 F 
ENDBRANCH  62  86
BRANCH  74  97
ATOM     97  C   UNL     1      13.009 -12.763  10.103  1.00  0.00     0.064 A 
ATOM     98  C   UNL     1      11.958 -13.338   9.369  1.00  0.00     0.173 A 
ATOM     99  C   UNL     1      14.318 -13.035   9.683  1.00  0.00     0.173 A 
ATOM    100  F   UNL     1      10.681 -13.039   9.646  1.00  0.00    -0.203 F 
ATOM    101  C   UNL     1      12.211 -14.193   8.298  1.00  0.00     0.198 A 
ATOM    102  C   UNL     1      14.567 -13.861   8.591  1.00  0.00     0.198 A 
ATOM    103  F   UNL     1      15.358 -12.462  10.310  1.00  0.00    -0.203 F 
ATOM    104  F   UNL     1      11.192 -14.746   7.623  1.00  0.00    -0.200 F 
ATOM    105  C   UNL     1      13.515 -14.450   7.907  1.00  0.00     0.200 A 
ATOM    106  F   UNL     1      15.828 -14.069   8.185  1.00  0.00    -0.200 F 
ATOM    107  F   UNL     1      13.758 -15.245   6.856  1.00  0.00    -0.200 F 
ENDBRANCH  74  97
ENDBRANCH  48  49
ENDBRANCH  41  43
ENDBRANCH  40  41
ENDBRANCH  39  40
ENDBRANCH  38  39
ENDBRANCH  37  38
ENDBRANCH  36  37
ENDBRANCH   1  36
TORSDOF 22
