REMARK SMILES O=C(N[C@@H](Cc1ccccc1)C(=O)OCCOCCOCCOC(=O)c1ccc(-c2c3nc(c(-c4c(F)c(F)c(F)c(F)c4F)c4ccc([nH]4)c(-c4c(F)c(F)c(F)c(F)c4F)c4nc(c(-c5c(F)c(F)c(F)c(F)c5F)c5ccc2[nH]5)C=C4)C=C3)cc1)c1ccc2noc(-c3ccccc3)c2c1
REMARK SMILES IDX 18 1 17 2 16 3 15 4 14 5 12 6 13 7 4 8 3 9 1 10 2 11 89 13
REMARK SMILES IDX 90 14 103 15 91 16 102 17 92 18 95 19 93 20 94 21 96 22
REMARK SMILES IDX 97 23 101 24 98 25 100 26 99 27 5 28 6 29 7 30 11 31 8 32
REMARK SMILES IDX 10 33 9 34 19 35 20 36 21 37 22 38 23 39 24 40 25 41 26 42
REMARK SMILES IDX 27 43 88 44 28 45 87 46 29 47 30 48 31 49 81 50 32 51 86 52
REMARK SMILES IDX 80 53 82 54 33 55 85 56 79 57 78 58 34 60 66 61 46 62 65 63
REMARK SMILES IDX 47 64 50 65 64 66 83 67 48 68 49 69 63 71 84 72 51 73 35 74
REMARK SMILES IDX 36 75 44 76 37 77 38 78 42 79 45 80 39 81 40 82 43 83 41 84
REMARK SMILES IDX 67 85 68 86 76 87 69 88 70 89 74 90 77 91 71 92 72 93 75 94
REMARK SMILES IDX 73 95 52 96 53 97 61 98 54 99 55 100 59 101 62 102 56 103
REMARK SMILES IDX 57 104 60 105 58 106
REMARK H PARENT 3 12 82 59 50 70
REMARK Flexibility Score: inf
ROOT
ATOM      1  C   UNL     1       4.691  -3.019  -2.045  1.00  0.00     0.188 C 
ENDROOT
BRANCH   1   2
ATOM      2  O   UNL     1       5.434  -4.231  -2.069  1.00  0.00    -0.376 OA
BRANCH   2   3
ATOM      3  C   UNL     1       5.535  -4.986  -0.868  1.00  0.00     0.202 C 
BRANCH   3   4
ATOM      4  C   UNL     1       5.953  -4.263   0.422  1.00  0.00     0.261 C 
BRANCH   4   5
ATOM      5  O   UNL     1       5.206  -3.070   0.750  1.00  0.00    -0.462 OA
BRANCH   5   6
ATOM      6  C   UNL     1       5.916  -1.930   0.982  1.00  0.00     0.329 C 
ATOM      7  O   UNL     1       7.134  -1.842   0.869  1.00  0.00    -0.250 OA
BRANCH   6   8
ATOM      8  C   UNL     1       5.063  -0.774   1.551  1.00  0.00     0.197 C 
BRANCH   8   9
ATOM      9  N   UNL     1       3.622  -0.821   1.276  1.00  0.00    -0.338 N 
ATOM     10  O   UNL     1       1.615  -0.289   0.426  1.00  0.00    -0.269 OA
ATOM     11  C   UNL     1       2.822  -0.056   0.467  1.00  0.00     0.252 C 
ATOM     12  H   UNL     1       3.143  -1.532   1.760  1.00  0.00     0.164 HD
BRANCH  11  13
ATOM     13  C   UNL     1       3.340   1.069  -0.356  1.00  0.00     0.040 A 
ATOM     14  C   UNL     1       4.509   0.965  -1.182  1.00  0.00     0.016 A 
ATOM     15  C   UNL     1       2.543   2.229  -0.318  1.00  0.00     0.028 A 
ATOM     16  C   UNL     1       5.011   2.030  -1.985  1.00  0.00     0.033 A 
ATOM     17  C   UNL     1       3.078   3.252  -1.090  1.00  0.00     0.050 A 
ATOM     18  C   UNL     1       4.249   3.212  -1.911  1.00  0.00     0.114 A 
ATOM     19  C   UNL     1       2.620   4.538  -1.126  1.00  0.00     0.174 A 
ATOM     20  N   UNL     1       4.410   4.414  -2.495  1.00  0.00    -0.079 NA
ATOM     21  O   UNL     1       3.396   5.239  -1.999  1.00  0.00    -0.355 OA
BRANCH  19  22
ATOM     22  C   UNL     1       1.617   5.242  -0.352  1.00  0.00     0.021 A 
ATOM     23  C   UNL     1       0.538   5.899  -0.943  1.00  0.00     0.012 A 
ATOM     24  C   UNL     1       1.665   5.119   1.048  1.00  0.00     0.012 A 
ATOM     25  C   UNL     1      -0.510   6.367  -0.142  1.00  0.00     0.001 A 
ATOM     26  C   UNL     1       0.619   5.577   1.842  1.00  0.00     0.001 A 
ATOM     27  C   UNL     1      -0.477   6.189   1.244  1.00  0.00     0.000 A 
ENDBRANCH  19  22
ENDBRANCH  11  13
ENDBRANCH   8   9
BRANCH   8  28
ATOM     28  C   UNL     1       5.337  -0.628   3.064  1.00  0.00     0.072 C 
BRANCH  28  29
ATOM     29  C   UNL     1       4.817  -1.733   3.965  1.00  0.00    -0.045 A 
ATOM     30  C   UNL     1       3.900  -1.437   4.983  1.00  0.00     0.004 A 
ATOM     31  C   UNL     1       5.270  -3.054   3.851  1.00  0.00     0.004 A 
ATOM     32  C   UNL     1       3.421  -2.444   5.826  1.00  0.00     0.000 A 
ATOM     33  C   UNL     1       4.755  -4.069   4.659  1.00  0.00     0.000 A 
ATOM     34  C   UNL     1       3.830  -3.763   5.649  1.00  0.00     0.000 A 
ENDBRANCH  28  29
ENDBRANCH   8  28
ENDBRANCH   6   8
ENDBRANCH   5   6
ENDBRANCH   4   5
ENDBRANCH   3   4
ENDBRANCH   2   3
ENDBRANCH   1   2
BRANCH   1  35
ATOM     35  C   UNL     1       3.318  -2.990  -1.342  1.00  0.00     0.188 C 
BRANCH  35  36
ATOM     36  O   UNL     1       2.955  -4.204  -0.732  1.00  0.00    -0.376 OA
BRANCH  36  37
ATOM     37  C   UNL     1       1.869  -4.923  -1.280  1.00  0.00     0.202 C 
BRANCH  37  38
ATOM     38  C   UNL     1       1.761  -5.150  -2.801  1.00  0.00     0.261 C 
BRANCH  38  39
ATOM     39  O   UNL     1       2.337  -4.154  -3.661  1.00  0.00    -0.460 OA
BRANCH  39  40
ATOM     40  C   UNL     1       1.551  -3.108  -4.022  1.00  0.00     0.338 C 
ATOM     41  O   UNL     1       0.402  -2.905  -3.702  1.00  0.00    -0.246 OA
BRANCH  40  42
ATOM     42  C   UNL     1       2.418  -2.128  -4.723  1.00  0.00     0.060 A 
ATOM     43  C   UNL     1       2.653  -0.873  -4.139  1.00  0.00     0.016 A 
ATOM     44  C   UNL     1       3.017  -2.461  -5.939  1.00  0.00     0.016 A 
ATOM     45  C   UNL     1       3.489   0.051  -4.774  1.00  0.00     0.010 A 
ATOM     46  C   UNL     1       3.824  -1.523  -6.587  1.00  0.00     0.010 A 
ATOM     47  C   UNL     1       4.053  -0.256  -6.017  1.00  0.00    -0.014 A 
BRANCH  47  48
ATOM     48  C   UNL     1       4.670   0.803  -6.854  1.00  0.00     0.031 A 
ATOM     49  C   UNL     1       3.784   1.500  -7.846  1.00  0.00     0.074 A 
ATOM     50  C   UNL     1       5.976   1.118  -6.780  1.00  0.00     0.049 A 
ATOM     51  N   UNL     1       4.100   2.272  -8.852  1.00  0.00    -0.248 NA
ATOM     52  C   UNL     1       2.338   1.281  -7.682  1.00  0.00     0.031 C 
ATOM     53  C   UNL     1       6.922   0.594  -5.800  1.00  0.00     0.029 A 
ATOM     54  N   UNL     1       6.734   1.945  -7.575  1.00  0.00    -0.354 N 
ATOM     55  C   UNL     1       2.896   2.606  -9.457  1.00  0.00     0.074 A 
ATOM     56  C   UNL     1       1.845   1.950  -8.711  1.00  0.00     0.031 C 
ATOM     57  C   UNL     1       8.145   1.089  -6.070  1.00  0.00     0.029 A 
ATOM     58  C   UNL     1       8.076   1.911  -7.279  1.00  0.00     0.049 A 
ATOM     59  H   UNL     1       6.353   2.507  -8.287  1.00  0.00     0.167 HD
ATOM     60  C   UNL     1       2.688   3.382 -10.546  1.00  0.00     0.037 A 
ATOM     61  C   UNL     1       9.126   2.437  -7.944  1.00  0.00     0.037 A 
ATOM     62  C   UNL     1       3.739   4.025 -11.285  1.00  0.00     0.049 A 
ATOM     63  C   UNL     1       8.884   3.203  -9.226  1.00  0.00     0.074 A 
ATOM     64  C   UNL     1       3.638   4.818 -12.414  1.00  0.00     0.029 A 
ATOM     65  N   UNL     1       5.087   3.941 -10.971  1.00  0.00    -0.354 N 
ATOM     66  N   UNL     1       7.750   3.490  -9.820  1.00  0.00    -0.248 NA
ATOM     67  C   UNL     1      10.069   3.704  -9.941  1.00  0.00     0.031 C 
ATOM     68  C   UNL     1       4.929   5.161 -12.820  1.00  0.00     0.029 A 
ATOM     69  C   UNL     1       5.830   4.647 -11.901  1.00  0.00     0.049 A 
ATOM     70  H   UNL     1       5.459   3.452 -10.202  1.00  0.00     0.167 HD
ATOM     71  C   UNL     1       8.082   4.241 -10.943  1.00  0.00     0.074 A 
ATOM     72  C   UNL     1       9.523   4.361 -10.955  1.00  0.00     0.031 C 
ATOM     73  C   UNL     1       7.264   4.787 -11.877  1.00  0.00     0.037 A 
BRANCH  60  74
ATOM     74  C   UNL     1       1.277   3.522 -11.035  1.00  0.00     0.064 A 
ATOM     75  C   UNL     1       0.310   4.243 -10.319  1.00  0.00     0.173 A 
ATOM     76  C   UNL     1       0.893   2.934 -12.249  1.00  0.00     0.173 A 
ATOM     77  F   UNL     1       0.621   4.808  -9.143  1.00  0.00    -0.203 F 
ATOM     78  C   UNL     1      -0.998   4.344 -10.787  1.00  0.00     0.198 A 
ATOM     79  C   UNL     1      -0.406   3.067 -12.732  1.00  0.00     0.198 A 
ATOM     80  F   UNL     1       1.779   2.233 -12.973  1.00  0.00    -0.203 F 
ATOM     81  F   UNL     1      -1.920   4.988 -10.059  1.00  0.00    -0.200 F 
ATOM     82  C   UNL     1      -1.352   3.763 -11.996  1.00  0.00     0.200 A 
ATOM     83  F   UNL     1      -0.742   2.517 -13.906  1.00  0.00    -0.200 F 
ATOM     84  F   UNL     1      -2.609   3.867 -12.448  1.00  0.00    -0.200 F 
ENDBRANCH  60  74
BRANCH  61  85
ATOM     85  C   UNL     1      10.516   2.220  -7.453  1.00  0.00     0.064 A 
ATOM     86  C   UNL     1      11.308   3.295  -7.022  1.00  0.00     0.173 A 
ATOM     87  C   UNL     1      11.099   0.944  -7.447  1.00  0.00     0.173 A 
ATOM     88  F   UNL     1      10.812   4.541  -7.040  1.00  0.00    -0.203 F 
ATOM     89  C   UNL     1      12.632   3.105  -6.628  1.00  0.00     0.198 A 
ATOM     90  C   UNL     1      12.412   0.750  -7.021  1.00  0.00     0.198 A 
ATOM     91  F   UNL     1      10.394  -0.120  -7.859  1.00  0.00    -0.203 F 
ATOM     92  F   UNL     1      13.383   4.159  -6.280  1.00  0.00    -0.200 F 
ATOM     93  C   UNL     1      13.181   1.832  -6.621  1.00  0.00     0.200 A 
ATOM     94  F   UNL     1      12.935  -0.484  -7.008  1.00  0.00    -0.200 F 
ATOM     95  F   UNL     1      14.454   1.650  -6.244  1.00  0.00    -0.200 F 
ENDBRANCH  61  85
BRANCH  73  96
ATOM     96  C   UNL     1       7.880   5.636 -12.953  1.00  0.00     0.064 A 
ATOM     97  C   UNL     1       8.611   5.081 -14.012  1.00  0.00     0.173 A 
ATOM     98  C   UNL     1       7.636   7.019 -12.976  1.00  0.00     0.173 A 
ATOM     99  F   UNL     1       8.882   3.768 -14.031  1.00  0.00    -0.203 F 
ATOM    100  C   UNL     1       9.079   5.881 -15.053  1.00  0.00     0.198 A 
ATOM    101  C   UNL     1       8.077   7.809 -14.034  1.00  0.00     0.198 A 
ATOM    102  F   UNL     1       6.933   7.598 -11.991  1.00  0.00    -0.203 F 
ATOM    103  F   UNL     1       9.797   5.335 -16.044  1.00  0.00    -0.200 F 
ATOM    104  C   UNL     1       8.800   7.240 -15.070  1.00  0.00     0.200 A 
ATOM    105  F   UNL     1       7.787   9.117 -14.057  1.00  0.00    -0.200 F 
ATOM    106  F   UNL     1       9.226   8.001 -16.087  1.00  0.00    -0.200 F 
ENDBRANCH  73  96
ENDBRANCH  47  48
ENDBRANCH  40  42
ENDBRANCH  39  40
ENDBRANCH  38  39
ENDBRANCH  37  38
ENDBRANCH  36  37
ENDBRANCH  35  36
ENDBRANCH   1  35
TORSDOF 22
