REMARK SMILES COc1ccc2c(c1)[C@@](NC=O)(C(=O)OCCOCCOCCOC(=O)c1ccc(-c3c4nc(c(-c5c(F)c(F)c(F)c(F)c5F)c5ccc([nH]5)c(-c5c(F)c(F)c(F)c(F)c5F)c5nc(c(-c6c(F)c(F)c(F)c(F)c6F)c6ccc3[nH]6)C=C5)C=C4)cc1)CCC2
REMARK SMILES IDX 20 1 19 2 18 3 17 4 16 5 15 6 13 7 14 8 9 9 3 10 4 11 8 12
REMARK SMILES IDX 5 13 7 14 6 15 92 16 90 17 91 18 2 19 1 20 10 21 11 22 12 24
REMARK SMILES IDX 21 25 22 26 23 27 24 28 25 29 26 30 27 31 28 32 89 33 29 34
REMARK SMILES IDX 88 35 30 36 31 37 32 38 82 39 33 40 87 41 81 42 83 43 34 44
REMARK SMILES IDX 86 45 80 46 79 47 35 49 67 50 47 51 66 52 48 53 51 54 65 55
REMARK SMILES IDX 84 56 49 57 50 58 64 60 85 61 52 62 36 63 37 64 45 65 38 66
REMARK SMILES IDX 39 67 43 68 46 69 40 70 41 71 44 72 42 73 68 74 69 75 77 76
REMARK SMILES IDX 70 77 71 78 75 79 78 80 72 81 73 82 76 83 74 84 53 85 54 86
REMARK SMILES IDX 62 87 55 88 56 89 60 90 63 91 57 92 58 93 61 94 59 95
REMARK H PARENT 10 23 83 48 51 59
REMARK Flexibility Score: inf
ROOT
ATOM      1  C   UNL     1       6.618   1.356   5.273  1.00  0.00     0.188 C 
ENDROOT
BRANCH   1   2
ATOM      2  C   UNL     1       7.363   0.888   4.014  1.00  0.00     0.188 C 
BRANCH   2   3
ATOM      3  O   UNL     1       7.471   1.749   2.886  1.00  0.00    -0.376 OA
BRANCH   3   4
ATOM      4  C   UNL     1       6.519   2.782   2.687  1.00  0.00     0.202 C 
BRANCH   4   5
ATOM      5  C   UNL     1       5.061   2.380   2.424  1.00  0.00     0.261 C 
BRANCH   5   6
ATOM      6  O   UNL     1       4.462   1.433   3.334  1.00  0.00    -0.461 OA
BRANCH   6   7
ATOM      7  C   UNL     1       4.390   0.141   2.898  1.00  0.00     0.336 C 
ATOM      8  O   UNL     1       4.890  -0.241   1.842  1.00  0.00    -0.249 OA
BRANCH   7   9
ATOM      9  C   UNL     1       3.467  -0.774   3.798  1.00  0.00     0.164 C 
ATOM     10  C   UNL     1       0.222   0.402   2.132  1.00  0.00     0.119 A 
ATOM     11  C   UNL     1      -0.648   0.479   3.213  1.00  0.00     0.047 A 
ATOM     12  C   UNL     1       1.537   0.006   2.347  1.00  0.00     0.053 A 
ATOM     13  C   UNL     1      -0.222   0.100   4.487  1.00  0.00     0.008 A 
ATOM     14  C   UNL     1       1.996  -0.379   3.622  1.00  0.00    -0.004 A 
ATOM     15  C   UNL     1       1.088  -0.355   4.702  1.00  0.00    -0.042 A 
ATOM     16  C   UNL     1       1.491  -0.719   6.111  1.00  0.00     0.036 C 
ATOM     17  C   UNL     1       3.836  -0.691   5.301  1.00  0.00     0.046 C 
ATOM     18  C   UNL     1       2.830  -1.442   6.172  1.00  0.00     0.008 C 
BRANCH  10  19
ATOM     19  O   UNL     1      -0.284   0.758   0.912  1.00  0.00    -0.497 OA
ATOM     20  C   UNL     1       0.393   0.192  -0.210  1.00  0.00     0.278 C 
ENDBRANCH  10  19
BRANCH   9  21
ATOM     21  N   UNL     1       3.742  -2.178   3.401  1.00  0.00    -0.339 N 
ATOM     22  C   UNL     1       3.336  -2.823   2.277  1.00  0.00     0.338 C 
ATOM     23  H   UNL     1       4.286  -2.706   4.029  1.00  0.00     0.164 HD
ATOM     24  O   UNL     1       3.812  -3.902   1.947  1.00  0.00    -0.279 OA
ENDBRANCH   9  21
ENDBRANCH   7   9
ENDBRANCH   6   7
ENDBRANCH   5   6
ENDBRANCH   4   5
ENDBRANCH   3   4
ENDBRANCH   2   3
ENDBRANCH   1   2
BRANCH   1  25
ATOM     25  O   UNL     1       6.535   2.755   5.405  1.00  0.00    -0.376 OA
BRANCH  25  26
ATOM     26  C   UNL     1       7.049   3.324   6.589  1.00  0.00     0.202 C 
BRANCH  26  27
ATOM     27  C   UNL     1       8.566   3.192   6.778  1.00  0.00     0.261 C 
BRANCH  27  28
ATOM     28  O   UNL     1       9.134   1.897   6.495  1.00  0.00    -0.460 OA
BRANCH  28  29
ATOM     29  C   UNL     1       8.968   0.924   7.425  1.00  0.00     0.338 C 
ATOM     30  O   UNL     1       8.395   1.026   8.489  1.00  0.00    -0.246 OA
BRANCH  29  31
ATOM     31  C   UNL     1       9.393  -0.368   6.820  1.00  0.00     0.060 A 
ATOM     32  C   UNL     1       8.462  -1.415   6.724  1.00  0.00     0.016 A 
ATOM     33  C   UNL     1      10.691  -0.545   6.340  1.00  0.00     0.016 A 
ATOM     34  C   UNL     1       8.835  -2.647   6.173  1.00  0.00     0.010 A 
ATOM     35  C   UNL     1      11.070  -1.787   5.813  1.00  0.00     0.010 A 
ATOM     36  C   UNL     1      10.155  -2.855   5.753  1.00  0.00    -0.014 A 
BRANCH  36  37
ATOM     37  C   UNL     1      10.643  -4.227   5.445  1.00  0.00     0.031 A 
ATOM     38  C   UNL     1      11.398  -4.971   6.514  1.00  0.00     0.074 A 
ATOM     39  C   UNL     1      10.439  -4.812   4.251  1.00  0.00     0.049 A 
ATOM     40  N   UNL     1      12.017  -6.124   6.457  1.00  0.00    -0.248 NA
ATOM     41  C   UNL     1      11.468  -4.315   7.829  1.00  0.00     0.031 C 
ATOM     42  C   UNL     1       9.681  -4.238   3.144  1.00  0.00     0.029 A 
ATOM     43  N   UNL     1      10.876  -6.025   3.769  1.00  0.00    -0.354 N 
ATOM     44  C   UNL     1      12.563  -6.321   7.719  1.00  0.00     0.074 A 
ATOM     45  C   UNL     1      12.227  -5.158   8.511  1.00  0.00     0.031 C 
ATOM     46  C   UNL     1       9.721  -5.089   2.103  1.00  0.00     0.029 A 
ATOM     47  C   UNL     1      10.543  -6.247   2.455  1.00  0.00     0.049 A 
ATOM     48  H   UNL     1      11.379  -6.672   4.315  1.00  0.00     0.167 HD
ATOM     49  C   UNL     1      13.277  -7.377   8.179  1.00  0.00     0.037 A 
ATOM     50  C   UNL     1      10.890  -7.252   1.624  1.00  0.00     0.037 A 
ATOM     51  C   UNL     1      13.618  -8.533   7.392  1.00  0.00     0.049 A 
ATOM     52  C   UNL     1      11.761  -8.377   2.130  1.00  0.00     0.074 A 
ATOM     53  C   UNL     1      14.322  -9.661   7.777  1.00  0.00     0.029 A 
ATOM     54  N   UNL     1      13.292  -8.704   6.054  1.00  0.00    -0.354 N 
ATOM     55  N   UNL     1      12.262  -8.567   3.327  1.00  0.00    -0.248 NA
ATOM     56  C   UNL     1      12.116  -9.429   1.165  1.00  0.00     0.031 C 
ATOM     57  C   UNL     1      14.481 -10.482   6.656  1.00  0.00     0.029 A 
ATOM     58  C   UNL     1      13.811  -9.903   5.590  1.00  0.00     0.049 A 
ATOM     59  H   UNL     1      12.769  -8.068   5.515  1.00  0.00     0.167 HD
ATOM     60  C   UNL     1      12.959  -9.769   3.268  1.00  0.00     0.074 A 
ATOM     61  C   UNL     1      12.809 -10.271   1.919  1.00  0.00     0.031 C 
ATOM     62  C   UNL     1      13.655 -10.401   4.246  1.00  0.00     0.037 A 
BRANCH  49  63
ATOM     63  C   UNL     1      13.778  -7.305   9.594  1.00  0.00     0.064 A 
ATOM     64  C   UNL     1      12.908  -7.360  10.695  1.00  0.00     0.173 A 
ATOM     65  C   UNL     1      15.152  -7.188   9.852  1.00  0.00     0.173 A 
ATOM     66  F   UNL     1      11.583  -7.457  10.505  1.00  0.00    -0.203 F 
ATOM     67  C   UNL     1      13.392  -7.261  11.997  1.00  0.00     0.198 A 
ATOM     68  C   UNL     1      15.636  -7.128  11.156  1.00  0.00     0.198 A 
ATOM     69  F   UNL     1      16.030  -7.136   8.839  1.00  0.00    -0.203 F 
ATOM     70  F   UNL     1      12.537  -7.251  13.029  1.00  0.00    -0.200 F 
ATOM     71  C   UNL     1      14.755  -7.152  12.227  1.00  0.00     0.200 A 
ATOM     72  F   UNL     1      16.955  -7.037  11.376  1.00  0.00    -0.200 F 
ATOM     73  F   UNL     1      15.220  -7.059  13.480  1.00  0.00    -0.200 F 
ENDBRANCH  49  63
BRANCH  50  74
ATOM     74  C   UNL     1      10.429  -7.235   0.209  1.00  0.00     0.064 A 
ATOM     75  C   UNL     1       9.519  -8.187  -0.271  1.00  0.00     0.173 A 
ATOM     76  C   UNL     1      10.908  -6.278  -0.700  1.00  0.00     0.173 A 
ATOM     77  F   UNL     1       9.063  -9.147   0.547  1.00  0.00    -0.203 F 
ATOM     78  C   UNL     1       9.113  -8.190  -1.604  1.00  0.00     0.198 A 
ATOM     79  C   UNL     1      10.477  -6.263  -2.025  1.00  0.00     0.198 A 
ATOM     80  F   UNL     1      11.793  -5.354  -0.298  1.00  0.00    -0.203 F 
ATOM     81  F   UNL     1       8.283  -9.144  -2.048  1.00  0.00    -0.200 F 
ATOM     82  C   UNL     1       9.585  -7.222  -2.478  1.00  0.00     0.200 A 
ATOM     83  F   UNL     1      10.934  -5.323  -2.865  1.00  0.00    -0.200 F 
ATOM     84  F   UNL     1       9.194  -7.224  -3.760  1.00  0.00    -0.200 F 
ENDBRANCH  50  74
BRANCH  62  85
ATOM     85  C   UNL     1      14.277 -11.731   3.916  1.00  0.00     0.064 A 
ATOM     86  C   UNL     1      15.374 -11.845   3.050  1.00  0.00     0.173 A 
ATOM     87  C   UNL     1      13.795 -12.906   4.516  1.00  0.00     0.173 A 
ATOM     88  F   UNL     1      15.870 -10.758   2.440  1.00  0.00    -0.203 F 
ATOM     89  C   UNL     1      15.947 -13.086   2.776  1.00  0.00     0.198 A 
ATOM     90  C   UNL     1      14.392 -14.140   4.268  1.00  0.00     0.198 A 
ATOM     91  F   UNL     1      12.755 -12.857   5.362  1.00  0.00    -0.203 F 
ATOM     92  F   UNL     1      16.963 -13.176   1.906  1.00  0.00    -0.200 F 
ATOM     93  C   UNL     1      15.461 -14.230   3.391  1.00  0.00     0.200 A 
ATOM     94  F   UNL     1      13.933 -15.240   4.879  1.00  0.00    -0.200 F 
ATOM     95  F   UNL     1      16.021 -15.421   3.135  1.00  0.00    -0.200 F 
ENDBRANCH  62  85
ENDBRANCH  36  37
ENDBRANCH  29  31
ENDBRANCH  28  29
ENDBRANCH  27  28
ENDBRANCH  26  27
ENDBRANCH  25  26
ENDBRANCH   1  25
TORSDOF 19
