REMARK SMILES Cc1nccc(CNC(=O)N2CC[C@@H](C(=O)OCCOCCOCCOC(=O)c3ccc(-c4c5nc(c(-c6c(F)c(F)c(F)c(F)c6F)c6ccc([nH]6)c(-c6c(F)c(F)c(F)c(F)c6F)c6nc(c(-c7c(F)c(F)c(F)c(F)c7F)c7ccc4[nH]7)C=C6)C=C5)cc3)[C@H]2C)n1
REMARK SMILES IDX 21 1 20 2 19 3 18 4 17 5 15 6 16 7 14 8 11 9 12 10 92 11
REMARK SMILES IDX 13 12 93 13 9 14 8 15 10 17 7 18 6 19 1 20 2 21 3 22 94 23
REMARK SMILES IDX 4 24 5 25 22 26 23 27 24 28 25 29 26 30 27 31 28 32 29 33
REMARK SMILES IDX 30 34 91 35 31 36 90 37 32 38 33 39 34 40 84 41 35 42 89 43
REMARK SMILES IDX 83 44 85 45 36 46 88 47 82 48 81 49 37 51 69 52 49 53 68 54
REMARK SMILES IDX 50 55 53 56 67 57 86 58 51 59 52 60 66 62 87 63 54 64 38 65
REMARK SMILES IDX 39 66 47 67 40 68 41 69 45 70 48 71 42 72 43 73 46 74 44 75
REMARK SMILES IDX 70 76 71 77 79 78 72 79 73 80 77 81 80 82 74 83 75 84 78 85
REMARK SMILES IDX 76 86 55 87 56 88 64 89 57 90 58 91 62 92 65 93 59 94 60 95
REMARK SMILES IDX 63 96 61 97
REMARK H PARENT 8 16 85 50 53 61
REMARK Flexibility Score: inf
ROOT
ATOM      1  C   UNL     1       4.547   5.845  -4.924  1.00  0.00     0.188 C 
ENDROOT
BRANCH   1   2
ATOM      2  O   UNL     1       4.287   5.646  -6.305  1.00  0.00    -0.376 OA
BRANCH   2   3
ATOM      3  C   UNL     1       3.929   4.330  -6.731  1.00  0.00     0.202 C 
BRANCH   3   4
ATOM      4  C   UNL     1       4.723   3.139  -6.172  1.00  0.00     0.261 C 
BRANCH   4   5
ATOM      5  O   UNL     1       4.600   3.011  -4.738  1.00  0.00    -0.463 OA
BRANCH   5   6
ATOM      6  C   UNL     1       5.731   2.737  -4.053  1.00  0.00     0.311 C 
ATOM      7  O   UNL     1       6.824   2.562  -4.583  1.00  0.00    -0.252 OA
BRANCH   6   8
ATOM      8  C   UNL     1       5.580   2.780  -2.541  1.00  0.00     0.123 C 
ATOM      9  N   UNL     1       4.688   2.164  -0.424  1.00  0.00    -0.321 N 
ATOM     10  C   UNL     1       6.073   1.716  -0.486  1.00  0.00     0.122 C 
ATOM     11  C   UNL     1       4.239   2.620  -1.774  1.00  0.00     0.098 C 
ATOM     12  C   UNL     1       6.417   1.646  -1.952  1.00  0.00     0.039 C 
ATOM     13  C   UNL     1       3.252   1.652  -2.424  1.00  0.00     0.032 C 
BRANCH   9  14
ATOM     14  C   UNL     1       4.198   2.357   0.832  1.00  0.00     0.317 C 
ATOM     15  N   UNL     1       2.918   2.620   1.109  1.00  0.00    -0.332 N 
ATOM     16  H   UNL     1       2.791   2.930   2.035  1.00  0.00     0.165 HD
ATOM     17  O   UNL     1       4.931   2.255   1.823  1.00  0.00    -0.249 OA
BRANCH  15  18
ATOM     18  C   UNL     1       1.675   2.560   0.374  1.00  0.00     0.174 C 
BRANCH  18  19
ATOM     19  C   UNL     1       1.026   1.191   0.330  1.00  0.00     0.063 A 
ATOM     20  C   UNL     1      -2.426  -0.049   0.060  1.00  0.00     0.089 C 
ATOM     21  C   UNL     1      -0.932  -0.023   0.138  1.00  0.00     0.125 A 
ATOM     22  N   UNL     1      -0.293  -1.204   0.096  1.00  0.00    -0.242 NA
ATOM     23  N   UNL     1      -0.326   1.177   0.242  1.00  0.00    -0.236 NA
ATOM     24  C   UNL     1       1.046  -1.154   0.185  1.00  0.00     0.115 A 
ATOM     25  C   UNL     1       1.757   0.017   0.314  1.00  0.00     0.046 A 
ENDBRANCH  18  19
ENDBRANCH  15  18
ENDBRANCH   9  14
ENDBRANCH   6   8
ENDBRANCH   5   6
ENDBRANCH   4   5
ENDBRANCH   3   4
ENDBRANCH   2   3
ENDBRANCH   1   2
BRANCH   1  26
ATOM     26  C   UNL     1       3.442   5.490  -3.921  1.00  0.00     0.188 C 
BRANCH  26  27
ATOM     27  O   UNL     1       2.430   4.631  -4.380  1.00  0.00    -0.376 OA
BRANCH  27  28
ATOM     28  C   UNL     1       1.106   5.090  -4.613  1.00  0.00     0.202 C 
BRANCH  28  29
ATOM     29  C   UNL     1       0.685   6.551  -4.897  1.00  0.00     0.261 C 
BRANCH  29  30
ATOM     30  O   UNL     1       1.539   7.609  -4.454  1.00  0.00    -0.460 OA
BRANCH  30  31
ATOM     31  C   UNL     1       1.462   7.950  -3.146  1.00  0.00     0.338 C 
ATOM     32  O   UNL     1       0.719   7.473  -2.302  1.00  0.00    -0.246 OA
BRANCH  31  33
ATOM     33  C   UNL     1       2.647   8.788  -2.848  1.00  0.00     0.060 A 
ATOM     34  C   UNL     1       3.538   8.360  -1.850  1.00  0.00     0.016 A 
ATOM     35  C   UNL     1       2.920   9.939  -3.590  1.00  0.00     0.016 A 
ATOM     36  C   UNL     1       4.684   9.102  -1.566  1.00  0.00     0.010 A 
ATOM     37  C   UNL     1       4.054  10.696  -3.287  1.00  0.00     0.010 A 
ATOM     38  C   UNL     1       4.920  10.302  -2.248  1.00  0.00    -0.014 A 
BRANCH  38  39
ATOM     39  C   UNL     1       5.902  11.274  -1.710  1.00  0.00     0.031 A 
ATOM     40  C   UNL     1       5.376  12.385  -0.842  1.00  0.00     0.074 A 
ATOM     41  C   UNL     1       7.219  11.182  -1.963  1.00  0.00     0.049 A 
ATOM     42  N   UNL     1       6.000  13.410  -0.323  1.00  0.00    -0.248 NA
ATOM     43  C   UNL     1       3.939  12.331  -0.525  1.00  0.00     0.031 C 
ATOM     44  C   UNL     1       7.863  10.126  -2.737  1.00  0.00     0.029 A 
ATOM     45  N   UNL     1       8.250  12.011  -1.595  1.00  0.00    -0.354 N 
ATOM     46  C   UNL     1       5.031  14.127   0.367  1.00  0.00     0.074 A 
ATOM     47  C   UNL     1       3.772  13.444   0.170  1.00  0.00     0.031 C 
ATOM     48  C   UNL     1       9.184  10.378  -2.800  1.00  0.00     0.029 A 
ATOM     49  C   UNL     1       9.468  11.632  -2.102  1.00  0.00     0.049 A 
ATOM     50  H   UNL     1       8.127  12.803  -1.022  1.00  0.00     0.167 HD
ATOM     51  C   UNL     1       5.177  15.251   1.108  1.00  0.00     0.037 A 
ATOM     52  C   UNL     1      10.667  12.246  -2.029  1.00  0.00     0.037 A 
ATOM     53  C   UNL     1       6.429  15.934   1.298  1.00  0.00     0.049 A 
ATOM     54  C   UNL     1      10.790  13.548  -1.273  1.00  0.00     0.074 A 
ATOM     55  C   UNL     1       6.684  17.079   2.029  1.00  0.00     0.029 A 
ATOM     56  N   UNL     1       7.636  15.536   0.741  1.00  0.00    -0.354 N 
ATOM     57  N   UNL     1       9.875  14.218  -0.615  1.00  0.00    -0.248 NA
ATOM     58  C   UNL     1      12.120  14.176  -1.249  1.00  0.00     0.031 C 
ATOM     59  C   UNL     1       8.033  17.410   1.865  1.00  0.00     0.029 A 
ATOM     60  C   UNL     1       8.635  16.429   1.094  1.00  0.00     0.049 A 
ATOM     61  H   UNL     1       7.763  14.739   0.178  1.00  0.00     0.167 HD
ATOM     62  C   UNL     1      10.525  15.317  -0.063  1.00  0.00     0.074 A 
ATOM     63  C   UNL     1      11.914  15.220  -0.460  1.00  0.00     0.031 C 
ATOM     64  C   UNL     1      10.019  16.311   0.710  1.00  0.00     0.037 A 
BRANCH  51  65
ATOM     65  C   UNL     1       3.940  15.827   1.735  1.00  0.00     0.064 A 
ATOM     66  C   UNL     1       3.261  15.171   2.774  1.00  0.00     0.173 A 
ATOM     67  C   UNL     1       3.429  17.056   1.292  1.00  0.00     0.173 A 
ATOM     68  F   UNL     1       3.696  13.984   3.222  1.00  0.00    -0.203 F 
ATOM     69  C   UNL     1       2.098  15.707   3.320  1.00  0.00     0.198 A 
ATOM     70  C   UNL     1       2.287  17.607   1.866  1.00  0.00     0.198 A 
ATOM     71  F   UNL     1       4.038  17.725   0.302  1.00  0.00    -0.203 F 
ATOM     72  F   UNL     1       1.431  15.032   4.266  1.00  0.00    -0.200 F 
ATOM     73  C   UNL     1       1.616  16.928   2.871  1.00  0.00     0.200 A 
ATOM     74  F   UNL     1       1.831  18.793   1.440  1.00  0.00    -0.200 F 
ATOM     75  F   UNL     1       0.498  17.444   3.400  1.00  0.00    -0.200 F 
ENDBRANCH  51  65
BRANCH  52  76
ATOM     76  C   UNL     1      11.856  11.645  -2.692  1.00  0.00     0.064 A 
ATOM     77  C   UNL     1      12.936  11.162  -1.939  1.00  0.00     0.173 A 
ATOM     78  C   UNL     1      11.954  11.573  -4.089  1.00  0.00     0.173 A 
ATOM     79  F   UNL     1      12.905  11.236  -0.600  1.00  0.00    -0.203 F 
ATOM     80  C   UNL     1      14.075  10.650  -2.557  1.00  0.00     0.198 A 
ATOM     81  C   UNL     1      13.081  11.031  -4.706  1.00  0.00     0.198 A 
ATOM     82  F   UNL     1      10.954  12.027  -4.858  1.00  0.00    -0.203 F 
ATOM     83  F   UNL     1      15.115  10.248  -1.813  1.00  0.00    -0.200 F 
ATOM     84  C   UNL     1      14.144  10.579  -3.940  1.00  0.00     0.200 A 
ATOM     85  F   UNL     1      13.139  10.956  -6.043  1.00  0.00    -0.200 F 
ATOM     86  F   UNL     1      15.240  10.087  -4.534  1.00  0.00    -0.200 F 
ENDBRANCH  52  76
BRANCH  64  87
ATOM     87  C   UNL     1      10.979  17.340   1.241  1.00  0.00     0.064 A 
ATOM     88  C   UNL     1      11.598  18.286   0.410  1.00  0.00     0.173 A 
ATOM     89  C   UNL     1      11.249  17.405   2.618  1.00  0.00     0.173 A 
ATOM     90  F   UNL     1      11.384  18.264  -0.914  1.00  0.00    -0.203 F 
ATOM     91  C   UNL     1      12.476  19.234   0.932  1.00  0.00     0.198 A 
ATOM     92  C   UNL     1      12.097  18.378   3.141  1.00  0.00     0.198 A 
ATOM     93  F   UNL     1      10.676  16.534   3.462  1.00  0.00    -0.203 F 
ATOM     94  F   UNL     1      13.099  20.090   0.111  1.00  0.00    -0.200 F 
ATOM     95  C   UNL     1      12.718  19.284   2.296  1.00  0.00     0.200 A 
ATOM     96  F   UNL     1      12.312  18.436   4.462  1.00  0.00    -0.200 F 
ATOM     97  F   UNL     1      13.556  20.203   2.797  1.00  0.00    -0.200 F 
ENDBRANCH  64  87
ENDBRANCH  38  39
ENDBRANCH  31  33
ENDBRANCH  30  31
ENDBRANCH  29  30
ENDBRANCH  28  29
ENDBRANCH  27  28
ENDBRANCH  26  27
ENDBRANCH   1  26
TORSDOF 20
