REMARK SMILES C[C@H]1CC[C@@](C[C@@H]2CCCc3ccccc32)(C(=O)OCCOCCOCCOC(=O)c2ccc(-c3c4nc(c(-c5c(F)c(F)c(F)c(F)c5F)c5ccc([nH]5)c(-c5c(F)c(F)c(F)c(F)c5F)c5nc(c(-c6c(F)c(F)c(F)c(F)c6F)c6ccc3[nH]6)C=C5)C=C4)cc2)C1
REMARK SMILES IDX 23 1 22 2 21 3 20 4 19 5 17 6 18 7 5 8 1 9 2 10 3 11 94 12
REMARK SMILES IDX 4 13 6 14 7 15 8 16 16 17 9 18 11 19 15 20 10 21 12 22 14 23
REMARK SMILES IDX 13 24 24 25 25 26 26 27 27 28 28 29 29 30 30 31 31 32 32 33
REMARK SMILES IDX 93 34 33 35 92 36 34 37 35 38 36 39 86 40 37 41 91 42 85 43
REMARK SMILES IDX 87 44 38 45 90 46 84 47 83 48 39 50 71 51 51 52 70 53 52 54
REMARK SMILES IDX 55 55 69 56 88 57 53 58 54 59 68 61 89 62 56 63 40 64 41 65
REMARK SMILES IDX 49 66 42 67 43 68 47 69 50 70 44 71 45 72 48 73 46 74 72 75
REMARK SMILES IDX 73 76 81 77 74 78 75 79 79 80 82 81 76 82 77 83 80 84 78 85
REMARK SMILES IDX 57 86 58 87 66 88 59 89 60 90 64 91 67 92 61 93 62 94 65 95
REMARK SMILES IDX 63 96
REMARK H PARENT 87 49 55 60
REMARK Flexibility Score: inf
ROOT
ATOM      1  C   UNL     1      -3.414   1.126   2.007  1.00  0.00     0.188 C 
ENDROOT
BRANCH   1   2
ATOM      2  O   UNL     1      -4.497   2.022   2.216  1.00  0.00    -0.376 OA
BRANCH   2   3
ATOM      3  C   UNL     1      -5.078   2.466   0.984  1.00  0.00     0.202 C 
BRANCH   3   4
ATOM      4  C   UNL     1      -4.128   3.291   0.091  1.00  0.00     0.261 C 
BRANCH   4   5
ATOM      5  O   UNL     1      -3.157   2.442  -0.579  1.00  0.00    -0.463 OA
BRANCH   5   6
ATOM      6  C   UNL     1      -1.858   2.507  -0.192  1.00  0.00     0.312 C 
ATOM      7  O   UNL     1      -1.454   3.368   0.582  1.00  0.00    -0.252 OA
BRANCH   6   8
ATOM      8  C   UNL     1      -0.964   1.381  -0.812  1.00  0.00     0.069 C 
ATOM      9  C   UNL     1       2.152   0.349   1.232  1.00  0.00     0.007 C 
ATOM     10  C   UNL     1       1.078   0.287   0.154  1.00  0.00    -0.013 C 
ATOM     11  C   UNL     1      -0.140  -0.475   0.639  1.00  0.00     0.004 C 
ATOM     12  C   UNL     1       0.483   1.646  -0.224  1.00  0.00     0.022 C 
ATOM     13  C   UNL     1      -1.202  -0.087  -0.374  1.00  0.00     0.019 C 
BRANCH   8  14
ATOM     14  C   UNL     1      -0.982   1.518  -2.372  1.00  0.00     0.027 C 
BRANCH  14  15
ATOM     15  C   UNL     1      -2.026   0.784  -3.309  1.00  0.00     0.020 C 
ATOM     16  C   UNL     1      -3.516   1.125  -3.131  1.00  0.00     0.009 C 
ATOM     17  C   UNL     1      -1.822  -0.717  -3.478  1.00  0.00    -0.042 A 
ATOM     18  C   UNL     1      -4.246   0.211  -2.153  1.00  0.00     0.005 C 
ATOM     19  C   UNL     1      -2.787  -1.656  -3.058  1.00  0.00    -0.045 A 
ATOM     20  C   UNL     1      -0.627  -1.187  -4.050  1.00  0.00     0.004 A 
ATOM     21  C   UNL     1      -4.145  -1.252  -2.545  1.00  0.00     0.036 C 
ATOM     22  C   UNL     1      -2.511  -3.030  -3.162  1.00  0.00     0.004 A 
ATOM     23  C   UNL     1      -0.373  -2.554  -4.161  1.00  0.00     0.000 A 
ATOM     24  C   UNL     1      -1.307  -3.476  -3.701  1.00  0.00     0.000 A 
ENDBRANCH  14  15
ENDBRANCH   8  14
ENDBRANCH   6   8
ENDBRANCH   5   6
ENDBRANCH   4   5
ENDBRANCH   3   4
ENDBRANCH   2   3
ENDBRANCH   1   2
BRANCH   1  25
ATOM     25  C   UNL     1      -3.630  -0.221   2.635  1.00  0.00     0.188 C 
BRANCH  25  26
ATOM     26  O   UNL     1      -4.467  -1.052   1.826  1.00  0.00    -0.376 OA
BRANCH  26  27
ATOM     27  C   UNL     1      -5.730  -1.326   2.423  1.00  0.00     0.202 C 
BRANCH  27  28
ATOM     28  C   UNL     1      -5.674  -2.397   3.529  1.00  0.00     0.261 C 
BRANCH  28  29
ATOM     29  O   UNL     1      -4.712  -2.071   4.556  1.00  0.00    -0.460 OA
BRANCH  29  30
ATOM     30  C   UNL     1      -3.505  -2.688   4.443  1.00  0.00     0.338 C 
ATOM     31  O   UNL     1      -3.245  -3.657   3.746  1.00  0.00    -0.246 OA
BRANCH  30  32
ATOM     32  C   UNL     1      -2.450  -1.878   5.115  1.00  0.00     0.060 A 
ATOM     33  C   UNL     1      -1.195  -1.797   4.488  1.00  0.00     0.016 A 
ATOM     34  C   UNL     1      -2.683  -1.154   6.288  1.00  0.00     0.016 A 
ATOM     35  C   UNL     1      -0.168  -1.027   5.039  1.00  0.00     0.010 A 
ATOM     36  C   UNL     1      -1.641  -0.411   6.863  1.00  0.00     0.010 A 
ATOM     37  C   UNL     1      -0.369  -0.374   6.261  1.00  0.00    -0.014 A 
BRANCH  37  38
ATOM     38  C   UNL     1       0.814   0.073   7.043  1.00  0.00     0.031 A 
ATOM     39  C   UNL     1       1.411  -0.915   8.011  1.00  0.00     0.074 A 
ATOM     40  C   UNL     1       1.380   1.283   6.892  1.00  0.00     0.049 A 
ATOM     41  N   UNL     1       2.398  -0.770   8.857  1.00  0.00    -0.248 NA
ATOM     42  C   UNL     1       0.804  -2.257   8.020  1.00  0.00     0.031 C 
ATOM     43  C   UNL     1       0.954   2.311   5.948  1.00  0.00     0.029 A 
ATOM     44  N   UNL     1       2.446   1.850   7.552  1.00  0.00    -0.354 N 
ATOM     45  C   UNL     1       2.526  -1.996   9.496  1.00  0.00     0.074 A 
ATOM     46  C   UNL     1       1.501  -2.865   8.964  1.00  0.00     0.031 C 
ATOM     47  C   UNL     1       1.740   3.394   6.101  1.00  0.00     0.029 A 
ATOM     48  C   UNL     1       2.702   3.146   7.176  1.00  0.00     0.049 A 
ATOM     49  H   UNL     1       2.975   1.371   8.229  1.00  0.00     0.167 HD
ATOM     50  C   UNL     1       3.420  -2.371  10.440  1.00  0.00     0.037 A 
ATOM     51  C   UNL     1       3.593   4.034   7.665  1.00  0.00     0.037 A 
ATOM     52  C   UNL     1       4.434  -1.512  10.984  1.00  0.00     0.049 A 
ATOM     53  C   UNL     1       4.521   3.623   8.786  1.00  0.00     0.074 A 
ATOM     54  C   UNL     1       5.376  -1.797  11.957  1.00  0.00     0.029 A 
ATOM     55  N   UNL     1       4.634  -0.194  10.606  1.00  0.00    -0.354 N 
ATOM     56  N   UNL     1       4.635   2.464   9.389  1.00  0.00    -0.248 NA
ATOM     57  C   UNL     1       5.445   4.650   9.294  1.00  0.00     0.031 C 
ATOM     58  C   UNL     1       6.116  -0.636  12.200  1.00  0.00     0.029 A 
ATOM     59  C   UNL     1       5.672   0.355  11.340  1.00  0.00     0.049 A 
ATOM     60  H   UNL     1       4.115   0.282   9.917  1.00  0.00     0.167 HD
ATOM     61  C   UNL     1       5.657   2.613  10.320  1.00  0.00     0.074 A 
ATOM     62  C   UNL     1       6.140   3.971  10.196  1.00  0.00     0.031 C 
ATOM     63  C   UNL     1       6.152   1.706  11.198  1.00  0.00     0.037 A 
BRANCH  50  64
ATOM     64  C   UNL     1       3.307  -3.770  10.968  1.00  0.00     0.064 A 
ATOM     65  C   UNL     1       3.661  -4.883  10.190  1.00  0.00     0.173 A 
ATOM     66  C   UNL     1       2.836  -3.999  12.269  1.00  0.00     0.173 A 
ATOM     67  F   UNL     1       4.093  -4.716   8.931  1.00  0.00    -0.203 F 
ATOM     68  C   UNL     1       3.522  -6.175  10.687  1.00  0.00     0.198 A 
ATOM     69  C   UNL     1       2.727  -5.291  12.773  1.00  0.00     0.198 A 
ATOM     70  F   UNL     1       2.481  -2.968  13.051  1.00  0.00    -0.203 F 
ATOM     71  F   UNL     1       3.814  -7.226   9.908  1.00  0.00    -0.200 F 
ATOM     72  C   UNL     1       3.061  -6.378  11.980  1.00  0.00     0.200 A 
ATOM     73  F   UNL     1       2.289  -5.485  14.025  1.00  0.00    -0.200 F 
ATOM     74  F   UNL     1       2.929  -7.623  12.457  1.00  0.00    -0.200 F 
ENDBRANCH  50  64
BRANCH  51  75
ATOM     75  C   UNL     1       3.641   5.420   7.127  1.00  0.00     0.064 A 
ATOM     76  C   UNL     1       4.753   5.886   6.412  1.00  0.00     0.173 A 
ATOM     77  C   UNL     1       2.593   6.324   7.361  1.00  0.00     0.173 A 
ATOM     78  F   UNL     1       5.798   5.074   6.196  1.00  0.00    -0.203 F 
ATOM     79  C   UNL     1       4.824   7.206   5.969  1.00  0.00     0.198 A 
ATOM     80  C   UNL     1       2.652   7.635   6.891  1.00  0.00     0.198 A 
ATOM     81  F   UNL     1       1.512   5.935   8.053  1.00  0.00    -0.203 F 
ATOM     82  F   UNL     1       5.924   7.641   5.338  1.00  0.00    -0.200 F 
ATOM     83  C   UNL     1       3.772   8.078   6.203  1.00  0.00     0.200 A 
ATOM     84  F   UNL     1       1.632   8.473   7.119  1.00  0.00    -0.200 F 
ATOM     85  F   UNL     1       3.843   9.348   5.781  1.00  0.00    -0.200 F 
ENDBRANCH  51  75
BRANCH  63  86
ATOM     86  C   UNL     1       7.303   2.128  12.066  1.00  0.00     0.064 A 
ATOM     87  C   UNL     1       7.137   3.027  13.129  1.00  0.00     0.173 A 
ATOM     88  C   UNL     1       8.580   1.579  11.866  1.00  0.00     0.173 A 
ATOM     89  F   UNL     1       5.940   3.589  13.357  1.00  0.00    -0.203 F 
ATOM     90  C   UNL     1       8.210   3.379  13.944  1.00  0.00     0.198 A 
ATOM     91  C   UNL     1       9.643   1.909  12.701  1.00  0.00     0.198 A 
ATOM     92  F   UNL     1       8.792   0.705  10.871  1.00  0.00    -0.203 F 
ATOM     93  F   UNL     1       8.037   4.273  14.928  1.00  0.00    -0.200 F 
ATOM     94  C   UNL     1       9.460   2.814  13.735  1.00  0.00     0.200 A 
ATOM     95  F   UNL     1      10.846   1.350  12.508  1.00  0.00    -0.200 F 
ATOM     96  F   UNL     1      10.488   3.147  14.527  1.00  0.00    -0.200 F 
ENDBRANCH  63  86
ENDBRANCH  37  38
ENDBRANCH  30  32
ENDBRANCH  29  30
ENDBRANCH  28  29
ENDBRANCH  27  28
ENDBRANCH  26  27
ENDBRANCH  25  26
ENDBRANCH   1  25
TORSDOF 19
