REMARK SMILES CC[C@@H](C(=O)OCCOCCOCCOC(=O)c1ccc(-c2c3nc(c(-c4c(F)c(F)c(F)c(F)c4F)c4ccc([nH]4)c(-c4c(F)c(F)c(F)c(F)c4F)c4nc(c(-c5c(F)c(F)c(F)c(F)c5F)c5ccc2[nH]5)C=C4)C=C3)cc1)c1cc(Br)ccc1F
REMARK SMILES IDX 11 1 10 2 9 3 8 4 7 5 6 6 4 7 5 8 3 9 2 10 1 11 81 12 82 13
REMARK SMILES IDX 87 14 83 15 86 16 88 17 84 18 85 19 12 20 13 21 14 22 15 23
REMARK SMILES IDX 16 24 17 25 18 26 19 27 80 28 20 29 79 30 21 31 22 32 23 33
REMARK SMILES IDX 73 34 24 35 78 36 72 37 74 38 25 39 77 40 71 41 70 42 26 44
REMARK SMILES IDX 58 45 38 46 57 47 39 48 42 49 56 50 75 51 40 52 41 53 55 55
REMARK SMILES IDX 76 56 43 57 27 58 28 59 36 60 29 61 30 62 34 63 37 64 31 65
REMARK SMILES IDX 32 66 35 67 33 68 59 69 60 70 68 71 61 72 62 73 66 74 69 75
REMARK SMILES IDX 63 76 64 77 67 78 65 79 44 80 45 81 53 82 46 83 47 84 51 85
REMARK SMILES IDX 54 86 48 87 49 88 52 89 50 90
REMARK H PARENT 74 43 42 54
REMARK Flexibility Score: inf
ROOT
ATOM      1  C   UNL     1      -1.714  -1.318  -1.497  1.00  0.00     0.188 C 
ENDROOT
BRANCH   1   2
ATOM      2  C   UNL     1      -1.854  -2.178  -2.763  1.00  0.00     0.188 C 
BRANCH   2   3
ATOM      3  O   UNL     1      -1.655  -3.579  -2.686  1.00  0.00    -0.376 OA
BRANCH   3   4
ATOM      4  C   UNL     1      -0.481  -4.059  -2.040  1.00  0.00     0.202 C 
BRANCH   4   5
ATOM      5  C   UNL     1       0.875  -3.469  -2.451  1.00  0.00     0.261 C 
BRANCH   5   6
ATOM      6  O   UNL     1       0.946  -2.051  -2.217  1.00  0.00    -0.463 OA
BRANCH   6   7
ATOM      7  C   UNL     1       1.924  -1.381  -2.877  1.00  0.00     0.313 C 
ATOM      8  O   UNL     1       2.765  -1.931  -3.583  1.00  0.00    -0.252 OA
BRANCH   7   9
ATOM      9  C   UNL     1       1.848   0.148  -2.718  1.00  0.00     0.132 C 
BRANCH   9  10
ATOM     10  C   UNL     1       1.368   0.718  -1.355  1.00  0.00     0.017 C 
ATOM     11  C   UNL     1       1.716  -0.061  -0.097  1.00  0.00     0.005 C 
ENDBRANCH   9  10
BRANCH   9  12
ATOM     12  C   UNL     1       1.154   0.889  -3.876  1.00  0.00     0.003 A 
ATOM     13  C   UNL     1       1.172   2.302  -3.896  1.00  0.00     0.023 A 
ATOM     14  C   UNL     1       0.503   0.253  -4.941  1.00  0.00     0.127 A 
ATOM     15  C   UNL     1       0.536   3.026  -4.911  1.00  0.00     0.018 A 
ATOM     16  C   UNL     1      -0.122   0.976  -5.962  1.00  0.00     0.041 A 
ATOM     17  F   UNL     1       0.449  -1.082  -5.019  1.00  0.00    -0.207 F 
ATOM     18  Br  UNL     1       0.567   4.915  -4.872  1.00  0.00    -0.051 Br
ATOM     19  C   UNL     1      -0.116   2.367  -5.946  1.00  0.00     0.019 A 
ENDBRANCH   9  12
ENDBRANCH   7   9
ENDBRANCH   6   7
ENDBRANCH   5   6
ENDBRANCH   4   5
ENDBRANCH   3   4
ENDBRANCH   2   3
ENDBRANCH   1   2
BRANCH   1  20
ATOM     20  O   UNL     1      -1.639  -1.885  -0.213  1.00  0.00    -0.376 OA
BRANCH  20  21
ATOM     21  C   UNL     1      -2.712  -2.631   0.325  1.00  0.00     0.202 C 
BRANCH  21  22
ATOM     22  C   UNL     1      -4.193  -2.382  -0.008  1.00  0.00     0.261 C 
BRANCH  22  23
ATOM     23  O   UNL     1      -4.490  -1.733  -1.245  1.00  0.00    -0.460 OA
BRANCH  23  24
ATOM     24  C   UNL     1      -4.790  -0.413  -1.161  1.00  0.00     0.338 C 
ATOM     25  O   UNL     1      -4.814   0.286  -0.162  1.00  0.00    -0.246 OA
BRANCH  24  26
ATOM     26  C   UNL     1      -4.900   0.108  -2.537  1.00  0.00     0.060 A 
ATOM     27  C   UNL     1      -3.988   1.079  -2.975  1.00  0.00     0.016 A 
ATOM     28  C   UNL     1      -5.883  -0.385  -3.395  1.00  0.00     0.016 A 
ATOM     29  C   UNL     1      -4.050   1.553  -4.285  1.00  0.00     0.010 A 
ATOM     30  C   UNL     1      -5.964   0.114  -4.695  1.00  0.00     0.010 A 
ATOM     31  C   UNL     1      -5.056   1.090  -5.143  1.00  0.00    -0.014 A 
BRANCH  31  32
ATOM     32  C   UNL     1      -5.266   1.714  -6.468  1.00  0.00     0.031 A 
ATOM     33  C   UNL     1      -6.284   2.808  -6.593  1.00  0.00     0.074 A 
ATOM     34  C   UNL     1      -4.592   1.287  -7.549  1.00  0.00     0.049 A 
ATOM     35  N   UNL     1      -6.747   3.393  -7.667  1.00  0.00    -0.248 NA
ATOM     36  C   UNL     1      -6.864   3.300  -5.335  1.00  0.00     0.031 C 
ATOM     37  C   UNL     1      -3.550   0.265  -7.544  1.00  0.00     0.029 A 
ATOM     38  N   UNL     1      -4.703   1.652  -8.867  1.00  0.00    -0.354 N 
ATOM     39  C   UNL     1      -7.685   4.311  -7.216  1.00  0.00     0.074 A 
ATOM     40  C   UNL     1      -7.735   4.195  -5.774  1.00  0.00     0.031 C 
ATOM     41  C   UNL     1      -3.117   0.080  -8.803  1.00  0.00     0.029 A 
ATOM     42  C   UNL     1      -3.892   0.929  -9.707  1.00  0.00     0.049 A 
ATOM     43  H   UNL     1      -5.305   2.365  -9.181  1.00  0.00     0.167 HD
ATOM     44  C   UNL     1      -8.440   5.169  -7.942  1.00  0.00     0.037 A 
ATOM     45  C   UNL     1      -3.819   0.928 -11.053  1.00  0.00     0.037 A 
ATOM     46  C   UNL     1      -8.401   5.265  -9.377  1.00  0.00     0.049 A 
ATOM     47  C   UNL     1      -4.747   1.815 -11.845  1.00  0.00     0.074 A 
ATOM     48  C   UNL     1      -9.126   6.102 -10.207  1.00  0.00     0.029 A 
ATOM     49  N   UNL     1      -7.600   4.484 -10.198  1.00  0.00    -0.354 N 
ATOM     50  N   UNL     1      -5.630   2.686 -11.418  1.00  0.00    -0.248 NA
ATOM     51  C   UNL     1      -4.683   1.701 -13.310  1.00  0.00     0.031 C 
ATOM     52  C   UNL     1      -8.806   5.789 -11.531  1.00  0.00     0.029 A 
ATOM     53  C   UNL     1      -7.838   4.797 -11.527  1.00  0.00     0.049 A 
ATOM     54  H   UNL     1      -6.958   3.808  -9.883  1.00  0.00     0.167 HD
ATOM     55  C   UNL     1      -6.207   3.237 -12.556  1.00  0.00     0.074 A 
ATOM     56  C   UNL     1      -5.565   2.614 -13.694  1.00  0.00     0.031 C 
ATOM     57  C   UNL     1      -7.185   4.173 -12.650  1.00  0.00     0.037 A 
BRANCH  44  58
ATOM     58  C   UNL     1      -9.405   6.037  -7.191  1.00  0.00     0.064 A 
ATOM     59  C   UNL     1      -8.969   7.091  -6.374  1.00  0.00     0.173 A 
ATOM     60  C   UNL     1     -10.787   5.817  -7.297  1.00  0.00     0.173 A 
ATOM     61  F   UNL     1      -7.657   7.331  -6.225  1.00  0.00    -0.203 F 
ATOM     62  C   UNL     1      -9.879   7.870  -5.665  1.00  0.00     0.198 A 
ATOM     63  C   UNL     1     -11.695   6.618  -6.612  1.00  0.00     0.198 A 
ATOM     64  F   UNL     1     -11.256   4.824  -8.067  1.00  0.00    -0.203 F 
ATOM     65  F   UNL     1      -9.437   8.835  -4.846  1.00  0.00    -0.200 F 
ATOM     66  C   UNL     1     -11.240   7.638  -5.789  1.00  0.00     0.200 A 
ATOM     67  F   UNL     1     -13.011   6.399  -6.742  1.00  0.00    -0.200 F 
ATOM     68  F   UNL     1     -12.115   8.389  -5.107  1.00  0.00    -0.200 F 
ENDBRANCH  44  58
BRANCH  45  69
ATOM     69  C   UNL     1      -2.852   0.038 -11.748  1.00  0.00     0.064 A 
ATOM     70  C   UNL     1      -1.775   0.575 -12.468  1.00  0.00     0.173 A 
ATOM     71  C   UNL     1      -2.994  -1.357 -11.733  1.00  0.00     0.173 A 
ATOM     72  F   UNL     1      -1.614   1.904 -12.539  1.00  0.00    -0.203 F 
ATOM     73  C   UNL     1      -0.887  -0.249 -13.157  1.00  0.00     0.198 A 
ATOM     74  C   UNL     1      -2.087  -2.181 -12.397  1.00  0.00     0.198 A 
ATOM     75  F   UNL     1      -4.012  -1.922 -11.066  1.00  0.00    -0.203 F 
ATOM     76  F   UNL     1       0.104   0.294 -13.877  1.00  0.00    -0.200 F 
ATOM     77  C   UNL     1      -1.039  -1.626 -13.115  1.00  0.00     0.200 A 
ATOM     78  F   UNL     1      -2.234  -3.512 -12.346  1.00  0.00    -0.200 F 
ATOM     79  F   UNL     1      -0.183  -2.418 -13.775  1.00  0.00    -0.200 F 
ENDBRANCH  45  69
BRANCH  57  80
ATOM     80  C   UNL     1      -7.604   4.607 -14.026  1.00  0.00     0.064 A 
ATOM     81  C   UNL     1      -8.363   3.775 -14.862  1.00  0.00     0.173 A 
ATOM     82  C   UNL     1      -7.298   5.897 -14.487  1.00  0.00     0.173 A 
ATOM     83  F   UNL     1      -8.669   2.527 -14.474  1.00  0.00    -0.203 F 
ATOM     84  C   UNL     1      -8.787   4.213 -16.114  1.00  0.00     0.198 A 
ATOM     85  C   UNL     1      -7.748   6.341 -15.727  1.00  0.00     0.198 A 
ATOM     86  F   UNL     1      -6.580   6.735 -13.724  1.00  0.00    -0.203 F 
ATOM     87  F   UNL     1      -9.479   3.387 -16.911  1.00  0.00    -0.200 F 
ATOM     88  C   UNL     1      -8.488   5.498 -16.541  1.00  0.00     0.200 A 
ATOM     89  F   UNL     1      -7.471   7.589 -16.131  1.00  0.00    -0.200 F 
ATOM     90  F   UNL     1      -8.910   5.923 -17.740  1.00  0.00    -0.200 F 
ENDBRANCH  57  80
ENDBRANCH  31  32
ENDBRANCH  24  26
ENDBRANCH  23  24
ENDBRANCH  22  23
ENDBRANCH  21  22
ENDBRANCH  20  21
ENDBRANCH   1  20
TORSDOF 19
