REMARK SMILES CC[C@@H](C)C[C@@H](C)NC(=O)NC1(CC(=O)OCCOCCOCCOC(=O)c2ccc(-c3c4nc(c(-c5c(F)c(F)c(F)c(F)c5F)c5ccc([nH]5)c(-c5c(F)c(F)c(F)c(F)c5F)c5nc(c(-c6c(F)c(F)c(F)c(F)c6F)c6ccc3[nH]6)C=C5)C=C4)cc2)CCC1
REMARK SMILES IDX 18 1 17 2 16 3 14 4 15 5 13 6 12 7 91 8 93 9 92 10 11 11
REMARK SMILES IDX 8 12 9 13 10 15 6 17 7 18 5 19 3 20 4 21 2 22 1 23 19 24
REMARK SMILES IDX 20 25 21 26 22 27 23 28 24 29 25 30 26 31 27 32 28 33 29 34
REMARK SMILES IDX 90 35 30 36 89 37 31 38 32 39 33 40 83 41 34 42 88 43 82 44
REMARK SMILES IDX 84 45 35 46 87 47 81 48 80 49 36 51 68 52 48 53 67 54 49 55
REMARK SMILES IDX 52 56 66 57 85 58 50 59 51 60 65 62 86 63 53 64 37 65 38 66
REMARK SMILES IDX 46 67 39 68 40 69 44 70 47 71 41 72 42 73 45 74 43 75 69 76
REMARK SMILES IDX 70 77 78 78 71 79 72 80 76 81 79 82 73 83 74 84 77 85 75 86
REMARK SMILES IDX 54 87 55 88 63 89 56 90 57 91 61 92 64 93 58 94 59 95 62 96
REMARK SMILES IDX 60 97
REMARK H PARENT 8 14 11 16 84 50 52 61
REMARK Flexibility Score: inf
ROOT
ATOM      1  C   UNL     1      -4.442  -4.430   4.445  1.00  0.00     0.202 C 
ENDROOT
BRANCH   1   2
ATOM      2  C   UNL     1      -3.774  -4.314   3.078  1.00  0.00     0.261 C 
BRANCH   2   3
ATOM      3  O   UNL     1      -2.453  -3.746   3.108  1.00  0.00    -0.463 OA
BRANCH   3   4
ATOM      4  C   UNL     1      -2.326  -2.525   2.540  1.00  0.00     0.308 C 
ATOM      5  O   UNL     1      -3.253  -1.848   2.109  1.00  0.00    -0.252 OA
BRANCH   4   6
ATOM      6  C   UNL     1      -0.895  -2.103   2.360  1.00  0.00     0.151 C 
BRANCH   6   7
ATOM      7  C   UNL     1       0.077  -2.167   3.551  1.00  0.00     0.052 C 
ATOM      8  C   UNL     1       1.599  -2.084   3.120  1.00  0.00     0.029 C 
ATOM      9  C   UNL     1       0.480  -3.569   4.115  1.00  0.00     0.029 C 
ATOM     10  C   UNL     1       1.599  -3.611   3.053  1.00  0.00     0.005 C 
BRANCH   7  11
ATOM     11  N   UNL     1      -0.290  -1.063   4.492  1.00  0.00    -0.332 N 
ATOM     12  N   UNL     1       0.759   0.806   5.290  1.00  0.00    -0.336 N 
ATOM     13  C   UNL     1       0.491  -0.534   5.486  1.00  0.00     0.315 C 
ATOM     14  H   UNL     1       0.512   1.467   5.977  1.00  0.00     0.165 HD
ATOM     15  O   UNL     1       0.903  -1.149   6.457  1.00  0.00    -0.249 OA
ATOM     16  H   UNL     1      -1.188  -0.675   4.386  1.00  0.00     0.165 HD
BRANCH  12  17
ATOM     17  C   UNL     1       1.414   1.235   4.050  1.00  0.00     0.081 C 
ATOM     18  C   UNL     1       2.865   1.621   4.341  1.00  0.00     0.031 C 
BRANCH  17  19
ATOM     19  C   UNL     1       0.647   2.305   3.249  1.00  0.00     0.028 C 
BRANCH  19  20
ATOM     20  C   UNL     1       1.003   2.271   1.730  1.00  0.00    -0.013 C 
ATOM     21  C   UNL     1       0.509   3.535   1.026  1.00  0.00     0.008 C 
BRANCH  20  22
ATOM     22  C   UNL     1       0.405   1.028   1.042  1.00  0.00    -0.000 C 
ATOM     23  C   UNL     1       1.032   0.667  -0.295  1.00  0.00     0.004 C 
ENDBRANCH  20  22
ENDBRANCH  19  20
ENDBRANCH  17  19
ENDBRANCH  12  17
ENDBRANCH   7  11
ENDBRANCH   6   7
ENDBRANCH   4   6
ENDBRANCH   3   4
ENDBRANCH   2   3
ENDBRANCH   1   2
BRANCH   1  24
ATOM     24  O   UNL     1      -4.608  -3.219   5.165  1.00  0.00    -0.376 OA
BRANCH  24  25
ATOM     25  C   UNL     1      -3.479  -2.619   5.794  1.00  0.00     0.188 C 
BRANCH  25  26
ATOM     26  C   UNL     1      -2.288  -3.484   6.217  1.00  0.00     0.188 C 
BRANCH  26  27
ATOM     27  O   UNL     1      -2.683  -4.737   6.761  1.00  0.00    -0.376 OA
BRANCH  27  28
ATOM     28  C   UNL     1      -1.801  -5.214   7.769  1.00  0.00     0.202 C 
BRANCH  28  29
ATOM     29  C   UNL     1      -2.414  -4.896   9.132  1.00  0.00     0.261 C 
BRANCH  29  30
ATOM     30  O   UNL     1      -2.844  -3.521   9.232  1.00  0.00    -0.460 OA
BRANCH  30  31
ATOM     31  C   UNL     1      -1.903  -2.632   9.601  1.00  0.00     0.338 C 
ATOM     32  O   UNL     1      -0.745  -2.875   9.920  1.00  0.00    -0.246 OA
BRANCH  31  33
ATOM     33  C   UNL     1      -2.448  -1.268   9.467  1.00  0.00     0.060 A 
ATOM     34  C   UNL     1      -1.889  -0.407   8.517  1.00  0.00     0.016 A 
ATOM     35  C   UNL     1      -3.448  -0.808  10.325  1.00  0.00     0.016 A 
ATOM     36  C   UNL     1      -2.296   0.928   8.446  1.00  0.00     0.010 A 
ATOM     37  C   UNL     1      -3.849   0.534  10.262  1.00  0.00     0.010 A 
ATOM     38  C   UNL     1      -3.252   1.420   9.345  1.00  0.00    -0.014 A 
BRANCH  38  39
ATOM     39  C   UNL     1      -3.517   2.883   9.436  1.00  0.00     0.031 A 
ATOM     40  C   UNL     1      -2.925   3.664  10.579  1.00  0.00     0.074 A 
ATOM     41  C   UNL     1      -4.253   3.525   8.510  1.00  0.00     0.049 A 
ATOM     42  N   UNL     1      -3.108   4.916  10.919  1.00  0.00    -0.248 NA
ATOM     43  C   UNL     1      -2.000   2.933  11.457  1.00  0.00     0.031 C 
ATOM     44  C   UNL     1      -4.835   2.914   7.319  1.00  0.00     0.029 A 
ATOM     45  N   UNL     1      -4.644   4.842   8.439  1.00  0.00    -0.354 N 
ATOM     46  C   UNL     1      -2.342   5.115  12.061  1.00  0.00     0.074 A 
ATOM     47  C   UNL     1      -1.703   3.852  12.364  1.00  0.00     0.031 C 
ATOM     48  C   UNL     1      -5.517   3.851   6.638  1.00  0.00     0.029 A 
ATOM     49  C   UNL     1      -5.460   5.116   7.369  1.00  0.00     0.049 A 
ATOM     50  H   UNL     1      -4.364   5.523   9.093  1.00  0.00     0.167 HD
ATOM     51  C   UNL     1      -2.181   6.246  12.789  1.00  0.00     0.037 A 
ATOM     52  C   UNL     1      -6.114   6.247   7.037  1.00  0.00     0.037 A 
ATOM     53  C   UNL     1      -2.800   7.510  12.485  1.00  0.00     0.049 A 
ATOM     54  C   UNL     1      -5.983   7.473   7.907  1.00  0.00     0.074 A 
ATOM     55  C   UNL     1      -2.686   8.713  13.162  1.00  0.00     0.029 A 
ATOM     56  N   UNL     1      -3.653   7.736  11.415  1.00  0.00    -0.354 N 
ATOM     57  N   UNL     1      -5.266   7.650   8.990  1.00  0.00    -0.248 NA
ATOM     58  C   UNL     1      -6.761   8.656   7.508  1.00  0.00     0.031 C 
ATOM     59  C   UNL     1      -3.507   9.653  12.530  1.00  0.00     0.029 A 
ATOM     60  C   UNL     1      -4.089   9.052  11.427  1.00  0.00     0.049 A 
ATOM     61  H   UNL     1      -3.910   7.061  10.746  1.00  0.00     0.167 HD
ATOM     62  C   UNL     1      -5.486   8.965   9.385  1.00  0.00     0.074 A 
ATOM     63  C   UNL     1      -6.389   9.547   8.416  1.00  0.00     0.031 C 
ATOM     64  C   UNL     1      -4.983   9.628  10.455  1.00  0.00     0.037 A 
BRANCH  51  65
ATOM     65  C   UNL     1      -1.323   6.162  14.018  1.00  0.00     0.064 A 
ATOM     66  C   UNL     1       0.072   6.038  13.940  1.00  0.00     0.173 A 
ATOM     67  C   UNL     1      -1.904   6.243  15.293  1.00  0.00     0.173 A 
ATOM     68  F   UNL     1       0.676   5.944  12.745  1.00  0.00    -0.203 F 
ATOM     69  C   UNL     1       0.850   5.972  15.093  1.00  0.00     0.198 A 
ATOM     70  C   UNL     1      -1.121   6.207  16.442  1.00  0.00     0.198 A 
ATOM     71  F   UNL     1      -3.234   6.369  15.423  1.00  0.00    -0.203 F 
ATOM     72  F   UNL     1       2.177   5.808  14.996  1.00  0.00    -0.200 F 
ATOM     73  C   UNL     1       0.255   6.064  16.342  1.00  0.00     0.200 A 
ATOM     74  F   UNL     1      -1.697   6.310  17.648  1.00  0.00    -0.200 F 
ATOM     75  F   UNL     1       1.006   6.008  17.451  1.00  0.00    -0.200 F 
ENDBRANCH  51  65
BRANCH  52  76
ATOM     76  C   UNL     1      -6.988   6.275   5.833  1.00  0.00     0.064 A 
ATOM     77  C   UNL     1      -6.660   7.060   4.719  1.00  0.00     0.173 A 
ATOM     78  C   UNL     1      -8.185   5.545   5.787  1.00  0.00     0.173 A 
ATOM     79  F   UNL     1      -5.544   7.804   4.728  1.00  0.00    -0.203 F 
ATOM     80  C   UNL     1      -7.505   7.127   3.612  1.00  0.00     0.198 A 
ATOM     81  C   UNL     1      -9.013   5.589   4.667  1.00  0.00     0.198 A 
ATOM     82  F   UNL     1      -8.550   4.788   6.831  1.00  0.00    -0.203 F 
ATOM     83  F   UNL     1      -7.194   7.928   2.583  1.00  0.00    -0.200 F 
ATOM     84  C   UNL     1      -8.677   6.386   3.584  1.00  0.00     0.200 A 
ATOM     85  F   UNL     1     -10.141   4.866   4.642  1.00  0.00    -0.200 F 
ATOM     86  F   UNL     1      -9.488   6.451   2.520  1.00  0.00    -0.200 F 
ENDBRANCH  52  76
BRANCH  64  87
ATOM     87  C   UNL     1      -5.365  11.073  10.619  1.00  0.00     0.064 A 
ATOM     88  C   UNL     1      -6.659  11.457  11.000  1.00  0.00     0.173 A 
ATOM     89  C   UNL     1      -4.412  12.085  10.425  1.00  0.00     0.173 A 
ATOM     90  F   UNL     1      -7.612  10.530  11.184  1.00  0.00    -0.203 F 
ATOM     91  C   UNL     1      -6.993  12.801  11.152  1.00  0.00     0.198 A 
ATOM     92  C   UNL     1      -4.741  13.426  10.608  1.00  0.00     0.198 A 
ATOM     93  F   UNL     1      -3.157  11.774  10.068  1.00  0.00    -0.203 F 
ATOM     94  F   UNL     1      -8.249  13.146  11.468  1.00  0.00    -0.200 F 
ATOM     95  C   UNL     1      -6.032  13.783  10.963  1.00  0.00     0.200 A 
ATOM     96  F   UNL     1      -3.808  14.373  10.438  1.00  0.00    -0.200 F 
ATOM     97  F   UNL     1      -6.354  15.075  11.116  1.00  0.00    -0.200 F 
ENDBRANCH  64  87
ENDBRANCH  38  39
ENDBRANCH  31  33
ENDBRANCH  30  31
ENDBRANCH  29  30
ENDBRANCH  28  29
ENDBRANCH  27  28
ENDBRANCH  26  27
ENDBRANCH  25  26
ENDBRANCH  24  25
ENDBRANCH   1  24
TORSDOF 23
