REMARK SMILES C[C@H](C(=O)OCCOCCOCCOC(=O)c1ccc(-c2c3nc(c(-c4c(F)c(F)c(F)c(F)c4F)c4ccc([nH]4)c(-c4c(F)c(F)c(F)c(F)c4F)c4nc(c(-c5c(F)c(F)c(F)c(F)c5F)c5ccc2[nH]5)C=C4)C=C3)cc1)c1ccc2c3cc(Cl)ccc3n(C(=O)c3ccc(Cl)cc3)c2c1
REMARK SMILES IDX 9 1 8 2 7 3 6 4 5 5 3 6 4 7 2 8 1 9 80 10 81 11 102 12 82 13
REMARK SMILES IDX 101 14 83 15 91 16 84 17 90 18 85 19 89 20 86 21 88 22 87 23
REMARK SMILES IDX 92 24 93 25 94 26 95 27 100 28 96 29 99 30 97 31 98 32 10 33
REMARK SMILES IDX 11 34 12 35 13 36 14 37 15 38 16 39 17 40 18 41 79 42 19 43
REMARK SMILES IDX 78 44 20 45 21 46 22 47 72 48 23 49 77 50 71 51 73 52 24 53
REMARK SMILES IDX 76 54 70 55 69 56 25 58 57 59 37 60 56 61 38 62 41 63 55 64
REMARK SMILES IDX 74 65 39 66 40 67 54 69 75 70 42 71 26 72 27 73 35 74 28 75
REMARK SMILES IDX 29 76 33 77 36 78 30 79 31 80 34 81 32 82 58 83 59 84 67 85
REMARK SMILES IDX 60 86 61 87 65 88 68 89 62 90 63 91 66 92 64 93 43 94 44 95
REMARK SMILES IDX 52 96 45 97 46 98 50 99 53 100 47 101 48 102 51 103 49 104
REMARK H PARENT 73 57 41 68
REMARK Flexibility Score: inf
ROOT
ATOM      1  C   UNL     1       3.370   0.038  -1.201  1.00  0.00     0.188 C 
ENDROOT
BRANCH   1   2
ATOM      2  O   UNL     1       3.741  -1.189  -0.580  1.00  0.00    -0.376 OA
BRANCH   2   3
ATOM      3  C   UNL     1       2.710  -2.150  -0.388  1.00  0.00     0.202 C 
BRANCH   3   4
ATOM      4  C   UNL     1       1.630  -1.786   0.641  1.00  0.00     0.261 C 
BRANCH   4   5
ATOM      5  O   UNL     1       0.947  -0.552   0.330  1.00  0.00    -0.463 OA
BRANCH   5   6
ATOM      6  C   UNL     1       0.863   0.374   1.329  1.00  0.00     0.313 C 
ATOM      7  O   UNL     1       1.322   0.222   2.456  1.00  0.00    -0.252 OA
BRANCH   6   8
ATOM      8  C   UNL     1       0.124   1.644   0.905  1.00  0.00     0.126 C 
ATOM      9  C   UNL     1       0.601   2.183  -0.444  1.00  0.00     0.025 C 
BRANCH   8  10
ATOM     10  C   UNL     1      -1.393   1.566   0.871  1.00  0.00    -0.032 A 
ATOM     11  C   UNL     1      -2.114   2.756   0.701  1.00  0.00     0.005 A 
ATOM     12  C   UNL     1      -2.086   0.352   0.922  1.00  0.00     0.032 A 
ATOM     13  C   UNL     1      -3.486   2.742   0.457  1.00  0.00     0.011 A 
ATOM     14  C   UNL     1      -3.490   0.353   0.781  1.00  0.00     0.057 A 
ATOM     15  C   UNL     1      -4.176   1.518   0.472  1.00  0.00     0.008 A 
ATOM     16  N   UNL     1      -4.416  -0.698   0.886  1.00  0.00    -0.276 N 
ATOM     17  C   UNL     1      -5.528   1.164   0.241  1.00  0.00     0.009 A 
ATOM     18  C   UNL     1      -5.689  -0.184   0.595  1.00  0.00     0.057 A 
ATOM     19  C   UNL     1      -6.638   1.929  -0.176  1.00  0.00     0.031 A 
ATOM     20  C   UNL     1      -6.985  -0.728   0.692  1.00  0.00     0.029 A 
ATOM     21  C   UNL     1      -7.904   1.358  -0.153  1.00  0.00     0.041 A 
ATOM     22  C   UNL     1      -8.081   0.059   0.303  1.00  0.00     0.023 A 
ATOM     23  Cl  UNL     1      -9.261   2.297  -0.643  1.00  0.00    -0.084 Cl
BRANCH  16  24
ATOM     24  C   UNL     1      -4.034  -1.996   1.320  1.00  0.00     0.262 C 
ATOM     25  O   UNL     1      -3.078  -2.027   2.102  1.00  0.00    -0.268 OA
BRANCH  24  26
ATOM     26  C   UNL     1      -4.574  -3.333   0.939  1.00  0.00     0.040 A 
ATOM     27  C   UNL     1      -4.002  -4.449   1.590  1.00  0.00     0.015 A 
ATOM     28  C   UNL     1      -5.499  -3.566  -0.080  1.00  0.00     0.015 A 
ATOM     29  C   UNL     1      -4.369  -5.756   1.264  1.00  0.00     0.021 A 
ATOM     30  C   UNL     1      -5.899  -4.879  -0.382  1.00  0.00     0.021 A 
ATOM     31  C   UNL     1      -5.332  -5.965   0.287  1.00  0.00     0.041 A 
ATOM     32  Cl  UNL     1      -5.805  -7.569  -0.111  1.00  0.00    -0.084 Cl
ENDBRANCH  24  26
ENDBRANCH  16  24
ENDBRANCH   8  10
ENDBRANCH   6   8
ENDBRANCH   5   6
ENDBRANCH   4   5
ENDBRANCH   3   4
ENDBRANCH   2   3
ENDBRANCH   1   2
BRANCH   1  33
ATOM     33  C   UNL     1       2.360  -0.032  -2.365  1.00  0.00     0.188 C 
BRANCH  33  34
ATOM     34  O   UNL     1       2.654  -0.944  -3.417  1.00  0.00    -0.376 OA
BRANCH  34  35
ATOM     35  C   UNL     1       3.985  -0.944  -3.921  1.00  0.00     0.202 C 
BRANCH  35  36
ATOM     36  C   UNL     1       4.385   0.324  -4.683  1.00  0.00     0.261 C 
BRANCH  36  37
ATOM     37  O   UNL     1       4.655   1.427  -3.790  1.00  0.00    -0.460 OA
BRANCH  37  38
ATOM     38  C   UNL     1       3.887   2.531  -3.963  1.00  0.00     0.338 C 
ATOM     39  O   UNL     1       3.015   2.697  -4.797  1.00  0.00    -0.246 OA
BRANCH  38  40
ATOM     40  C   UNL     1       4.132   3.509  -2.878  1.00  0.00     0.060 A 
ATOM     41  C   UNL     1       3.016   4.078  -2.253  1.00  0.00     0.016 A 
ATOM     42  C   UNL     1       5.416   3.939  -2.540  1.00  0.00     0.016 A 
ATOM     43  C   UNL     1       3.174   5.094  -1.307  1.00  0.00     0.010 A 
ATOM     44  C   UNL     1       5.573   4.979  -1.610  1.00  0.00     0.010 A 
ATOM     45  C   UNL     1       4.452   5.581  -1.009  1.00  0.00    -0.014 A 
BRANCH  45  46
ATOM     46  C   UNL     1       4.600   6.830  -0.215  1.00  0.00     0.031 A 
ATOM     47  C   UNL     1       4.764   8.137  -0.944  1.00  0.00     0.074 A 
ATOM     48  C   UNL     1       4.554   6.821   1.129  1.00  0.00     0.049 A 
ATOM     49  N   UNL     1       4.988   9.336  -0.468  1.00  0.00    -0.248 NA
ATOM     50  C   UNL     1       4.651   8.082  -2.409  1.00  0.00     0.031 C 
ATOM     51  C   UNL     1       4.323   5.643   1.960  1.00  0.00     0.029 A 
ATOM     52  N   UNL     1       4.703   7.847   2.032  1.00  0.00    -0.354 N 
ATOM     53  C   UNL     1       5.060  10.173  -1.574  1.00  0.00     0.074 A 
ATOM     54  C   UNL     1       4.865   9.345  -2.745  1.00  0.00     0.031 C 
ATOM     55  C   UNL     1       4.356   6.009   3.254  1.00  0.00     0.029 A 
ATOM     56  C   UNL     1       4.653   7.439   3.343  1.00  0.00     0.049 A 
ATOM     57  H   UNL     1       4.834   8.785   1.765  1.00  0.00     0.167 HD
ATOM     58  C   UNL     1       5.271  11.511  -1.612  1.00  0.00     0.037 A 
ATOM     59  C   UNL     1       4.855   8.134   4.481  1.00  0.00     0.037 A 
ATOM     60  C   UNL     1       5.463  12.340  -0.451  1.00  0.00     0.049 A 
ATOM     61  C   UNL     1       5.181   9.606   4.409  1.00  0.00     0.074 A 
ATOM     62  C   UNL     1       5.689  13.705  -0.392  1.00  0.00     0.029 A 
ATOM     63  N   UNL     1       5.456  11.880   0.857  1.00  0.00    -0.354 N 
ATOM     64  N   UNL     1       5.261  10.389   3.360  1.00  0.00    -0.248 NA
ATOM     65  C   UNL     1       5.456  10.289   5.683  1.00  0.00     0.031 C 
ATOM     66  C   UNL     1       5.867  14.062   0.948  1.00  0.00     0.029 A 
ATOM     67  C   UNL     1       5.699  12.930   1.728  1.00  0.00     0.049 A 
ATOM     68  H   UNL     1       5.302  10.946   1.126  1.00  0.00     0.167 HD
ATOM     69  C   UNL     1       5.565  11.655   3.848  1.00  0.00     0.074 A 
ATOM     70  C   UNL     1       5.643  11.540   5.288  1.00  0.00     0.031 C 
ATOM     71  C   UNL     1       5.762  12.808   3.162  1.00  0.00     0.037 A 
BRANCH  58  72
ATOM     72  C   UNL     1       5.351  12.158  -2.963  1.00  0.00     0.064 A 
ATOM     73  C   UNL     1       4.214  12.347  -3.761  1.00  0.00     0.173 A 
ATOM     74  C   UNL     1       6.583  12.616  -3.454  1.00  0.00     0.173 A 
ATOM     75  F   UNL     1       3.016  11.912  -3.344  1.00  0.00    -0.203 F 
ATOM     76  C   UNL     1       4.312  12.949  -5.014  1.00  0.00     0.198 A 
ATOM     77  C   UNL     1       6.673  13.242  -4.694  1.00  0.00     0.198 A 
ATOM     78  F   UNL     1       7.700  12.463  -2.727  1.00  0.00    -0.203 F 
ATOM     79  F   UNL     1       3.220  13.077  -5.781  1.00  0.00    -0.200 F 
ATOM     80  C   UNL     1       5.539  13.400  -5.476  1.00  0.00     0.200 A 
ATOM     81  F   UNL     1       7.858  13.687  -5.134  1.00  0.00    -0.200 F 
ATOM     82  F   UNL     1       5.631  13.982  -6.680  1.00  0.00    -0.200 F 
ENDBRANCH  58  72
BRANCH  59  83
ATOM     83  C   UNL     1       4.790   7.447   5.799  1.00  0.00     0.064 A 
ATOM     84  C   UNL     1       3.782   7.750   6.725  1.00  0.00     0.173 A 
ATOM     85  C   UNL     1       5.760   6.506   6.177  1.00  0.00     0.173 A 
ATOM     86  F   UNL     1       2.853   8.669   6.426  1.00  0.00    -0.203 F 
ATOM     87  C   UNL     1       3.756   7.151   7.984  1.00  0.00     0.198 A 
ATOM     88  C   UNL     1       5.716   5.886   7.424  1.00  0.00     0.198 A 
ATOM     89  F   UNL     1       6.753   6.190   5.333  1.00  0.00    -0.203 F 
ATOM     90  F   UNL     1       2.814   7.500   8.870  1.00  0.00    -0.200 F 
ATOM     91  C   UNL     1       4.720   6.215   8.330  1.00  0.00     0.200 A 
ATOM     92  F   UNL     1       6.647   4.980   7.752  1.00  0.00    -0.200 F 
ATOM     93  F   UNL     1       4.697   5.644   9.541  1.00  0.00    -0.200 F 
ENDBRANCH  59  83
BRANCH  71  94
ATOM     94  C   UNL     1       6.041  14.051   3.958  1.00  0.00     0.064 A 
ATOM     95  C   UNL     1       7.272  14.257   4.597  1.00  0.00     0.173 A 
ATOM     96  C   UNL     1       5.080  15.071   4.040  1.00  0.00     0.173 A 
ATOM     97  F   UNL     1       8.219  13.308   4.561  1.00  0.00    -0.203 F 
ATOM     98  C   UNL     1       7.522  15.430   5.307  1.00  0.00     0.198 A 
ATOM     99  C   UNL     1       5.344  16.253   4.726  1.00  0.00     0.198 A 
ATOM    100  F   UNL     1       3.889  14.928   3.439  1.00  0.00    -0.203 F 
ATOM    101  F   UNL     1       8.690  15.587   5.945  1.00  0.00    -0.200 F 
ATOM    102  C   UNL     1       6.562  16.429   5.365  1.00  0.00     0.200 A 
ATOM    103  F   UNL     1       4.420  17.223   4.769  1.00  0.00    -0.200 F 
ATOM    104  F   UNL     1       6.809  17.559   6.041  1.00  0.00    -0.200 F 
ENDBRANCH  71  94
ENDBRANCH  45  46
ENDBRANCH  38  40
ENDBRANCH  37  38
ENDBRANCH  36  37
ENDBRANCH  35  36
ENDBRANCH  34  35
ENDBRANCH  33  34
ENDBRANCH   1  33
TORSDOF 20
