REMARK SMILES CC[N@@H+](CCC(C)(C)O)C[C@@H](C)C(=O)OCCOCCOCCOC(=O)c1ccc(-c2c3nc(c(-c4c(F)c(F)c(F)c(F)c4F)c4ccc([nH]4)c(-c4c(F)c(F)c(F)c(F)c4F)c4nc(c(-c5c(F)c(F)c(F)c(F)c5F)c5ccc2[nH]5)C=C4)C=C3)cc1
REMARK SMILES IDX 17 1 16 2 15 3 13 4 14 5 11 6 12 7 10 8 3 9 2 11 1 12 4 13
REMARK SMILES IDX 5 14 6 15 7 16 8 17 9 18 18 20 19 21 20 22 21 23 22 24 23 25
REMARK SMILES IDX 24 26 25 27 26 28 27 29 28 30 89 31 29 32 88 33 30 34 31 35
REMARK SMILES IDX 32 36 82 37 33 38 87 39 81 40 83 41 34 42 86 43 80 44 79 45
REMARK SMILES IDX 35 47 67 48 47 49 66 50 48 51 51 52 65 53 84 54 49 55 50 56
REMARK SMILES IDX 64 58 85 59 52 60 36 61 37 62 45 63 38 64 39 65 43 66 46 67
REMARK SMILES IDX 40 68 41 69 44 70 42 71 68 72 69 73 77 74 70 75 71 76 75 77
REMARK SMILES IDX 78 78 72 79 73 80 76 81 74 82 53 83 54 84 62 85 55 86 56 87
REMARK SMILES IDX 60 88 63 89 57 90 58 91 61 92 59 93
REMARK H PARENT 3 10 9 19 83 46 51 57
REMARK Flexibility Score: inf
ROOT
ATOM      1  C   UNL     1       7.622  -2.143  -0.155  1.00  0.00     0.202 C 
ENDROOT
BRANCH   1   2
ATOM      2  C   UNL     1       6.751  -1.189  -0.995  1.00  0.00     0.261 C 
BRANCH   2   3
ATOM      3  O   UNL     1       5.324  -1.198  -0.728  1.00  0.00    -0.463 OA
BRANCH   3   4
ATOM      4  C   UNL     1       4.543  -1.404  -1.827  1.00  0.00     0.314 C 
ATOM      5  O   UNL     1       4.999  -1.585  -2.956  1.00  0.00    -0.252 OA
BRANCH   4   6
ATOM      6  C   UNL     1       3.031  -1.351  -1.610  1.00  0.00     0.151 C 
ATOM      7  C   UNL     1       2.520  -0.141  -2.387  1.00  0.00     0.026 C 
BRANCH   6   8
ATOM      8  C   UNL     1       2.515  -1.456  -0.157  1.00  0.00     0.277 C 
BRANCH   8   9
ATOM      9  N   UNL     1       1.106  -1.838   0.104  1.00  0.00    -0.334 N 
ATOM     10  H   UNL     1       1.174  -1.691   1.111  1.00  0.00     0.348 HD
BRANCH   9  11
ATOM     11  C   UNL     1       0.045  -0.925  -0.325  1.00  0.00     0.258 C 
ATOM     12  C   UNL     1       0.227   0.528   0.106  1.00  0.00     0.071 C 
ENDBRANCH   9  11
BRANCH   9  13
ATOM     13  C   UNL     1       0.718  -3.256  -0.021  1.00  0.00     0.265 C 
BRANCH  13  14
ATOM     14  C   UNL     1       0.819  -3.963  -1.395  1.00  0.00     0.096 C 
BRANCH  14  15
ATOM     15  C   UNL     1       2.051  -4.879  -1.604  1.00  0.00     0.064 C 
ATOM     16  C   UNL     1       1.882  -6.238  -0.926  1.00  0.00     0.042 C 
ATOM     17  C   UNL     1       2.371  -5.076  -3.087  1.00  0.00     0.042 C 
BRANCH  15  18
ATOM     18  O   UNL     1       3.208  -4.298  -1.024  1.00  0.00    -0.390 OA
ATOM     19  H   UNL     1       3.056  -4.152  -0.077  1.00  0.00     0.211 HD
ENDBRANCH  15  18
ENDBRANCH  14  15
ENDBRANCH  13  14
ENDBRANCH   9  13
ENDBRANCH   8   9
ENDBRANCH   6   8
ENDBRANCH   4   6
ENDBRANCH   3   4
ENDBRANCH   2   3
ENDBRANCH   1   2
BRANCH   1  20
ATOM     20  O   UNL     1       7.360  -3.541  -0.166  1.00  0.00    -0.376 OA
BRANCH  20  21
ATOM     21  C   UNL     1       6.005  -3.923  -0.034  1.00  0.00     0.188 C 
BRANCH  21  22
ATOM     22  C   UNL     1       5.385  -3.744   1.349  1.00  0.00     0.188 C 
BRANCH  22  23
ATOM     23  O   UNL     1       5.507  -2.516   2.027  1.00  0.00    -0.376 OA
BRANCH  23  24
ATOM     24  C   UNL     1       6.391  -2.371   3.134  1.00  0.00     0.202 C 
BRANCH  24  25
ATOM     25  C   UNL     1       6.936  -3.503   4.045  1.00  0.00     0.261 C 
BRANCH  25  26
ATOM     26  O   UNL     1       6.606  -4.866   3.762  1.00  0.00    -0.460 OA
BRANCH  26  27
ATOM     27  C   UNL     1       5.379  -5.275   4.163  1.00  0.00     0.338 C 
ATOM     28  O   UNL     1       4.598  -4.651   4.867  1.00  0.00    -0.246 OA
BRANCH  27  29
ATOM     29  C   UNL     1       5.010  -6.502   3.407  1.00  0.00     0.060 A 
ATOM     30  C   UNL     1       3.742  -6.543   2.810  1.00  0.00     0.016 A 
ATOM     31  C   UNL     1       5.889  -7.577   3.240  1.00  0.00     0.016 A 
ATOM     32  C   UNL     1       3.333  -7.671   2.092  1.00  0.00     0.010 A 
ATOM     33  C   UNL     1       5.471  -8.715   2.533  1.00  0.00     0.010 A 
ATOM     34  C   UNL     1       4.180  -8.781   1.978  1.00  0.00    -0.014 A 
BRANCH  34  35
ATOM     35  C   UNL     1       3.628 -10.083   1.515  1.00  0.00     0.031 A 
ATOM     36  C   UNL     1       3.055 -11.007   2.555  1.00  0.00     0.074 A 
ATOM     37  C   UNL     1       3.600 -10.449   0.220  1.00  0.00     0.049 A 
ATOM     38  N   UNL     1       2.610 -12.231   2.436  1.00  0.00    -0.248 NA
ATOM     39  C   UNL     1       2.974 -10.466   3.921  1.00  0.00     0.031 C 
ATOM     40  C   UNL     1       4.040  -9.629  -0.904  1.00  0.00     0.029 A 
ATOM     41  N   UNL     1       3.186 -11.625  -0.363  1.00  0.00    -0.354 N 
ATOM     42  C   UNL     1       2.212 -12.611   3.711  1.00  0.00     0.074 A 
ATOM     43  C   UNL     1       2.478 -11.493   4.590  1.00  0.00     0.031 C 
ATOM     44  C   UNL     1       3.884 -10.331  -2.042  1.00  0.00     0.029 A 
ATOM     45  C   UNL     1       3.388 -11.670  -1.721  1.00  0.00     0.049 A 
ATOM     46  H   UNL     1       2.782 -12.365   0.146  1.00  0.00     0.167 HD
ATOM     47  C   UNL     1       1.680 -13.787   4.119  1.00  0.00     0.037 A 
ATOM     48  C   UNL     1       3.230 -12.687  -2.595  1.00  0.00     0.037 A 
ATOM     49  C   UNL     1       1.434 -14.910   3.255  1.00  0.00     0.049 A 
ATOM     50  C   UNL     1       2.745 -14.031  -2.099  1.00  0.00     0.074 A 
ATOM     51  C   UNL     1       0.915 -16.151   3.580  1.00  0.00     0.029 A 
ATOM     52  N   UNL     1       1.704 -14.934   1.895  1.00  0.00    -0.354 N 
ATOM     53  N   UNL     1       2.383 -14.391  -0.891  1.00  0.00    -0.248 NA
ATOM     54  C   UNL     1       2.656 -15.115  -3.091  1.00  0.00     0.031 C 
ATOM     55  C   UNL     1       0.932 -16.947   2.431  1.00  0.00     0.029 A 
ATOM     56  C   UNL     1       1.390 -16.178   1.373  1.00  0.00     0.049 A 
ATOM     57  H   UNL     1       2.066 -14.178   1.377  1.00  0.00     0.167 HD
ATOM     58  C   UNL     1       1.991 -15.723  -0.987  1.00  0.00     0.074 A 
ATOM     59  C   UNL     1       2.153 -16.108  -2.372  1.00  0.00     0.031 C 
ATOM     60  C   UNL     1       1.534 -16.549  -0.013  1.00  0.00     0.037 A 
BRANCH  47  61
ATOM     61  C   UNL     1       1.391 -13.934   5.584  1.00  0.00     0.064 A 
ATOM     62  C   UNL     1       0.357 -13.223   6.212  1.00  0.00     0.173 A 
ATOM     63  C   UNL     1       2.167 -14.797   6.372  1.00  0.00     0.173 A 
ATOM     64  F   UNL     1      -0.401 -12.368   5.508  1.00  0.00    -0.203 F 
ATOM     65  C   UNL     1       0.137 -13.342   7.582  1.00  0.00     0.198 A 
ATOM     66  C   UNL     1       1.921 -14.941   7.734  1.00  0.00     0.198 A 
ATOM     67  F   UNL     1       3.167 -15.501   5.821  1.00  0.00    -0.203 F 
ATOM     68  F   UNL     1      -0.813 -12.604   8.173  1.00  0.00    -0.200 F 
ATOM     69  C   UNL     1       0.914 -14.206   8.340  1.00  0.00     0.200 A 
ATOM     70  F   UNL     1       2.665 -15.785   8.461  1.00  0.00    -0.200 F 
ATOM     71  F   UNL     1       0.701 -14.319   9.658  1.00  0.00    -0.200 F 
ENDBRANCH  47  61
BRANCH  48  72
ATOM     72  C   UNL     1       3.576 -12.504  -4.032  1.00  0.00     0.064 A 
ATOM     73  C   UNL     1       2.594 -12.573  -5.031  1.00  0.00     0.173 A 
ATOM     74  C   UNL     1       4.904 -12.307  -4.442  1.00  0.00     0.173 A 
ATOM     75  F   UNL     1       1.315 -12.798  -4.698  1.00  0.00    -0.203 F 
ATOM     76  C   UNL     1       2.928 -12.470  -6.381  1.00  0.00     0.198 A 
ATOM     77  C   UNL     1       5.233 -12.171  -5.789  1.00  0.00     0.198 A 
ATOM     78  F   UNL     1       5.886 -12.249  -3.530  1.00  0.00    -0.203 F 
ATOM     79  F   UNL     1       1.977 -12.599  -7.317  1.00  0.00    -0.200 F 
ATOM     80  C   UNL     1       4.246 -12.263  -6.759  1.00  0.00     0.200 A 
ATOM     81  F   UNL     1       6.507 -11.966  -6.148  1.00  0.00    -0.200 F 
ATOM     82  F   UNL     1       4.567 -12.165  -8.056  1.00  0.00    -0.200 F 
ENDBRANCH  48  72
BRANCH  60  83
ATOM     83  C   UNL     1       1.110 -17.938  -0.407  1.00  0.00     0.064 A 
ATOM     84  C   UNL     1       2.035 -18.921  -0.788  1.00  0.00     0.173 A 
ATOM     85  C   UNL     1      -0.244 -18.307  -0.336  1.00  0.00     0.173 A 
ATOM     86  F   UNL     1       3.339 -18.621  -0.883  1.00  0.00    -0.203 F 
ATOM     87  C   UNL     1       1.618 -20.213  -1.105  1.00  0.00     0.198 A 
ATOM     88  C   UNL     1      -0.652 -19.608  -0.620  1.00  0.00     0.198 A 
ATOM     89  F   UNL     1      -1.171 -17.410   0.032  1.00  0.00    -0.203 F 
ATOM     90  F   UNL     1       2.515 -21.124  -1.509  1.00  0.00    -0.200 F 
ATOM     91  C   UNL     1       0.278 -20.558  -1.011  1.00  0.00     0.200 A 
ATOM     92  F   UNL     1      -1.945 -19.942  -0.509  1.00  0.00    -0.200 F 
ATOM     93  F   UNL     1      -0.117 -21.805  -1.301  1.00  0.00    -0.200 F 
ENDBRANCH  60  83
ENDBRANCH  34  35
ENDBRANCH  27  29
ENDBRANCH  26  27
ENDBRANCH  25  26
ENDBRANCH  24  25
ENDBRANCH  23  24
ENDBRANCH  22  23
ENDBRANCH  21  22
ENDBRANCH  20  21
ENDBRANCH   1  20
TORSDOF 24
