REMARK SMILES O=C(CC[N@H+]1CCC[C@H](c2nccn2Cc2cscn2)C1)OCCOCCOCCOC(=O)c1ccc(-c2c3nc(c(-c4c(F)c(F)c(F)c(F)c4F)c4ccc([nH]4)c(-c4c(F)c(F)c(F)c(F)c4F)c4nc(c(-c5c(F)c(F)c(F)c(F)c5F)c5ccc2[nH]5)C=C4)C=C3)cc1
REMARK SMILES IDX 25 1 24 2 23 3 22 4 2 5 1 6 3 7 4 8 5 9 6 10 21 11 7 13 9 14
REMARK SMILES IDX 8 15 10 16 11 17 14 18 12 19 13 20 15 21 16 22 17 23 20 24
REMARK SMILES IDX 18 25 19 26 26 27 27 28 28 29 29 30 30 31 31 32 32 33 33 34
REMARK SMILES IDX 34 35 35 36 96 37 36 38 95 39 37 40 38 41 39 42 89 43 40 44
REMARK SMILES IDX 94 45 88 46 90 47 41 48 93 49 87 50 86 51 42 53 74 54 54 55
REMARK SMILES IDX 73 56 55 57 58 58 72 59 91 60 56 61 57 62 71 64 92 65 59 66
REMARK SMILES IDX 43 67 44 68 52 69 45 70 46 71 50 72 53 73 47 74 48 75 51 76
REMARK SMILES IDX 49 77 75 78 76 79 84 80 77 81 78 82 82 83 85 84 79 85 80 86
REMARK SMILES IDX 83 87 81 88 60 89 61 90 69 91 62 92 63 93 67 94 70 95 64 96
REMARK SMILES IDX 65 97 68 98 66 99
REMARK H PARENT 5 12 90 52 58 63
REMARK Flexibility Score: inf
ROOT
ATOM      1  O   UNL     1       3.121   2.096  -0.995  1.00  0.00    -0.376 OA
ENDROOT
BRANCH   1   2
ATOM      2  C   UNL     1       3.891   0.979  -1.430  1.00  0.00     0.202 C 
BRANCH   2   3
ATOM      3  C   UNL     1       3.221  -0.403  -1.605  1.00  0.00     0.261 C 
BRANCH   3   4
ATOM      4  O   UNL     1       2.015  -0.683  -0.865  1.00  0.00    -0.463 OA
BRANCH   4   5
ATOM      5  C   UNL     1       1.873  -0.996   0.436  1.00  0.00     0.311 C 
ATOM      6  O   UNL     1       0.924  -1.694   0.791  1.00  0.00    -0.252 OA
BRANCH   5   7
ATOM      7  C   UNL     1       2.779  -0.374   1.454  1.00  0.00     0.184 C 
BRANCH   7   8
ATOM      8  C   UNL     1       3.559  -1.413   2.282  1.00  0.00     0.274 C 
BRANCH   8   9
ATOM      9  N   UNL     1       4.765  -2.059   1.703  1.00  0.00    -0.334 N 
ATOM     10  C   UNL     1       4.445  -3.303   1.006  1.00  0.00     0.262 C 
ATOM     11  C   UNL     1       5.530  -1.130   0.875  1.00  0.00     0.273 C 
ATOM     12  H   UNL     1       5.369  -2.322   2.482  1.00  0.00     0.348 HD
ATOM     13  C   UNL     1       5.715  -3.930   0.437  1.00  0.00     0.062 C 
ATOM     14  C   UNL     1       6.652  -1.594  -0.051  1.00  0.00     0.111 C 
ATOM     15  C   UNL     1       6.375  -3.015  -0.589  1.00  0.00     0.023 C 
BRANCH  14  16
ATOM     16  C   UNL     1       8.104  -1.343   0.296  1.00  0.00     0.117 A 
ATOM     17  N   UNL     1       9.061  -1.862  -0.464  1.00  0.00    -0.241 NA
ATOM     18  N   UNL     1       8.672  -0.427   1.170  1.00  0.00    -0.328 N 
ATOM     19  C   UNL     1      10.236  -1.278  -0.108  1.00  0.00     0.131 A 
ATOM     20  C   UNL     1      10.025  -0.381   0.900  1.00  0.00     0.108 A 
BRANCH  18  21
ATOM     21  C   UNL     1       8.084   0.434   2.187  1.00  0.00     0.180 C 
BRANCH  21  22
ATOM     22  C   UNL     1       7.798  -0.331   3.436  1.00  0.00     0.071 A 
ATOM     23  C   UNL     1       8.725  -0.974   4.239  1.00  0.00     0.092 A 
ATOM     24  N   UNL     1       6.493  -0.412   3.895  1.00  0.00    -0.248 NA
ATOM     25  S   UNL     1       7.935  -1.810   5.509  1.00  0.00    -0.130 S 
ATOM     26  C   UNL     1       6.434  -1.227   4.926  1.00  0.00     0.175 A 
ENDBRANCH  21  22
ENDBRANCH  18  21
ENDBRANCH  14  16
ENDBRANCH   8   9
ENDBRANCH   7   8
ENDBRANCH   5   7
ENDBRANCH   4   5
ENDBRANCH   3   4
ENDBRANCH   2   3
ENDBRANCH   1   2
BRANCH   1  27
ATOM     27  C   UNL     1       1.769   2.198  -1.423  1.00  0.00     0.188 C 
BRANCH  27  28
ATOM     28  C   UNL     1       1.479   2.144  -2.936  1.00  0.00     0.188 C 
BRANCH  28  29
ATOM     29  O   UNL     1       2.432   1.367  -3.642  1.00  0.00    -0.376 OA
BRANCH  29  30
ATOM     30  C   UNL     1       3.094   1.929  -4.765  1.00  0.00     0.202 C 
BRANCH  30  31
ATOM     31  C   UNL     1       4.157   3.014  -4.534  1.00  0.00     0.261 C 
BRANCH  31  32
ATOM     32  O   UNL     1       4.111   3.634  -3.257  1.00  0.00    -0.460 OA
BRANCH  32  33
ATOM     33  C   UNL     1       3.225   4.633  -3.179  1.00  0.00     0.338 C 
ATOM     34  O   UNL     1       2.453   4.994  -4.075  1.00  0.00    -0.246 OA
BRANCH  33  35
ATOM     35  C   UNL     1       3.335   5.341  -1.903  1.00  0.00     0.060 A 
ATOM     36  C   UNL     1       2.329   6.280  -1.676  1.00  0.00     0.016 A 
ATOM     37  C   UNL     1       4.597   5.431  -1.298  1.00  0.00     0.016 A 
ATOM     38  C   UNL     1       2.710   7.499  -1.182  1.00  0.00     0.010 A 
ATOM     39  C   UNL     1       4.973   6.652  -0.783  1.00  0.00     0.010 A 
ATOM     40  C   UNL     1       4.064   7.702  -0.885  1.00  0.00    -0.014 A 
BRANCH  40  41
ATOM     41  C   UNL     1       4.493   9.087  -0.866  1.00  0.00     0.031 A 
ATOM     42  C   UNL     1       3.966   9.889   0.252  1.00  0.00     0.074 A 
ATOM     43  C   UNL     1       5.275   9.600  -1.836  1.00  0.00     0.049 A 
ATOM     44  N   UNL     1       3.259  10.970   0.201  1.00  0.00    -0.248 NA
ATOM     45  C   UNL     1       4.187   9.357   1.603  1.00  0.00     0.031 C 
ATOM     46  C   UNL     1       6.040   8.885  -2.862  1.00  0.00     0.029 A 
ATOM     47  N   UNL     1       5.623  10.901  -2.038  1.00  0.00    -0.354 N 
ATOM     48  C   UNL     1       3.073  11.348   1.524  1.00  0.00     0.074 A 
ATOM     49  C   UNL     1       3.565  10.271   2.345  1.00  0.00     0.031 C 
ATOM     50  C   UNL     1       6.932   9.735  -3.418  1.00  0.00     0.029 A 
ATOM     51  C   UNL     1       6.711  11.065  -2.876  1.00  0.00     0.049 A 
ATOM     52  H   UNL     1       5.144  11.655  -1.625  1.00  0.00     0.167 HD
ATOM     53  C   UNL     1       2.725  12.616   1.860  1.00  0.00     0.037 A 
ATOM     54  C   UNL     1       7.440  12.195  -3.024  1.00  0.00     0.037 A 
ATOM     55  C   UNL     1       2.039  13.295   0.795  1.00  0.00     0.049 A 
ATOM     56  C   UNL     1       6.624  13.337  -2.543  1.00  0.00     0.074 A 
ATOM     57  C   UNL     1       0.869  13.059   0.099  1.00  0.00     0.029 A 
ATOM     58  N   UNL     1       2.703  14.256   0.077  1.00  0.00    -0.354 N 
ATOM     59  N   UNL     1       5.574  13.807  -3.158  1.00  0.00    -0.248 NA
ATOM     60  C   UNL     1       6.753  13.726  -1.146  1.00  0.00     0.031 C 
ATOM     61  C   UNL     1       1.108  13.540  -1.221  1.00  0.00     0.029 A 
ATOM     62  C   UNL     1       2.408  14.043  -1.246  1.00  0.00     0.049 A 
ATOM     63  H   UNL     1       3.281  14.965   0.441  1.00  0.00     0.167 HD
ATOM     64  C   UNL     1       4.716  14.202  -2.142  1.00  0.00     0.074 A 
ATOM     65  C   UNL     1       5.536  14.235  -0.938  1.00  0.00     0.031 C 
ATOM     66  C   UNL     1       3.362  14.196  -2.318  1.00  0.00     0.037 A 
BRANCH  53  67
ATOM     67  C   UNL     1       3.310  13.315   3.054  1.00  0.00     0.064 A 
ATOM     68  C   UNL     1       2.761  14.534   3.488  1.00  0.00     0.173 A 
ATOM     69  C   UNL     1       4.562  12.970   3.614  1.00  0.00     0.173 A 
ATOM     70  F   UNL     1       1.598  14.974   2.987  1.00  0.00    -0.203 F 
ATOM     71  C   UNL     1       3.441  15.367   4.380  1.00  0.00     0.198 A 
ATOM     72  C   UNL     1       5.208  13.775   4.547  1.00  0.00     0.198 A 
ATOM     73  F   UNL     1       5.255  11.900   3.201  1.00  0.00    -0.203 F 
ATOM     74  F   UNL     1       2.936  16.572   4.678  1.00  0.00    -0.200 F 
ATOM     75  C   UNL     1       4.662  14.987   4.908  1.00  0.00     0.200 A 
ATOM     76  F   UNL     1       6.401  13.397   5.029  1.00  0.00    -0.200 F 
ATOM     77  F   UNL     1       5.338  15.809   5.721  1.00  0.00    -0.200 F 
ENDBRANCH  53  67
BRANCH  54  78
ATOM     78  C   UNL     1       8.900  12.290  -3.252  1.00  0.00     0.064 A 
ATOM     79  C   UNL     1       9.487  13.476  -3.716  1.00  0.00     0.173 A 
ATOM     80  C   UNL     1       9.782  11.295  -2.784  1.00  0.00     0.173 A 
ATOM     81  F   UNL     1       8.716  14.494  -4.125  1.00  0.00    -0.203 F 
ATOM     82  C   UNL     1      10.873  13.658  -3.705  1.00  0.00     0.198 A 
ATOM     83  C   UNL     1      11.165  11.470  -2.789  1.00  0.00     0.198 A 
ATOM     84  F   UNL     1       9.320  10.167  -2.225  1.00  0.00    -0.203 F 
ATOM     85  F   UNL     1      11.396  14.827  -4.101  1.00  0.00    -0.200 F 
ATOM     86  C   UNL     1      11.710  12.657  -3.239  1.00  0.00     0.200 A 
ATOM     87  F   UNL     1      11.958  10.507  -2.301  1.00  0.00    -0.200 F 
ATOM     88  F   UNL     1      13.035  12.850  -3.183  1.00  0.00    -0.200 F 
ENDBRANCH  54  78
BRANCH  66  89
ATOM     89  C   UNL     1       2.846  14.038  -3.718  1.00  0.00     0.064 A 
ATOM     90  C   UNL     1       3.047  12.879  -4.488  1.00  0.00     0.173 A 
ATOM     91  C   UNL     1       2.013  15.032  -4.249  1.00  0.00     0.173 A 
ATOM     92  F   UNL     1       3.742  11.843  -4.000  1.00  0.00    -0.203 F 
ATOM     93  C   UNL     1       2.484  12.750  -5.756  1.00  0.00     0.198 A 
ATOM     94  C   UNL     1       1.423  14.884  -5.501  1.00  0.00     0.198 A 
ATOM     95  F   UNL     1       1.735  16.132  -3.530  1.00  0.00    -0.203 F 
ATOM     96  F   UNL     1       2.704  11.642  -6.479  1.00  0.00    -0.200 F 
ATOM     97  C   UNL     1       1.668  13.750  -6.259  1.00  0.00     0.200 A 
ATOM     98  F   UNL     1       0.594  15.830  -5.964  1.00  0.00    -0.200 F 
ATOM     99  F   UNL     1       1.096  13.609  -7.463  1.00  0.00    -0.200 F 
ENDBRANCH  66  89
ENDBRANCH  40  41
ENDBRANCH  33  35
ENDBRANCH  32  33
ENDBRANCH  31  32
ENDBRANCH  30  31
ENDBRANCH  29  30
ENDBRANCH  28  29
ENDBRANCH  27  28
ENDBRANCH   1  27
TORSDOF 22
