REMARK SMILES O=CN[C@@H](Cc1cc(Cl)ccc1[N+](=O)[O-])C(=O)OCCOCCOCCOC(=O)c1ccc(-c2c3nc(c(-c4c(F)c(F)c(F)c(F)c4F)c4ccc([nH]4)c(-c4c(F)c(F)c(F)c(F)c4F)c4nc(c(-c5c(F)c(F)c(F)c(F)c5F)c5ccc2[nH]5)C=C4)C=C3)cc1
REMARK SMILES IDX 22 1 21 2 20 3 19 4 18 5 16 6 17 7 4 8 3 9 1 10 2 11 5 13
REMARK SMILES IDX 6 14 7 15 12 16 8 17 11 18 9 19 10 20 13 21 14 22 15 23
REMARK SMILES IDX 23 24 24 25 25 26 26 27 27 28 28 29 29 30 30 31 31 32 92 33
REMARK SMILES IDX 32 34 91 35 33 36 34 37 35 38 85 39 36 40 90 41 84 42 86 43
REMARK SMILES IDX 37 44 89 45 83 46 82 47 38 49 70 50 50 51 69 52 51 53 54 54
REMARK SMILES IDX 68 55 87 56 52 57 53 58 67 60 88 61 55 62 39 63 40 64 48 65
REMARK SMILES IDX 41 66 42 67 46 68 49 69 43 70 44 71 47 72 45 73 71 74 72 75
REMARK SMILES IDX 80 76 73 77 74 78 78 79 81 80 75 81 76 82 79 83 77 84 56 85
REMARK SMILES IDX 57 86 65 87 58 88 59 89 63 90 66 91 60 92 61 93 64 94 62 95
REMARK H PARENT 3 12 86 48 54 59
REMARK Flexibility Score: inf
ROOT
ATOM      1  C   UNL     1       4.683   2.470   2.641  1.00  0.00     0.188 C 
ENDROOT
BRANCH   1   2
ATOM      2  O   UNL     1       5.490   3.604   2.938  1.00  0.00    -0.376 OA
BRANCH   2   3
ATOM      3  C   UNL     1       5.546   4.682   2.014  1.00  0.00     0.202 C 
BRANCH   3   4
ATOM      4  C   UNL     1       5.925   4.378   0.557  1.00  0.00     0.261 C 
BRANCH   4   5
ATOM      5  O   UNL     1       5.159   3.333  -0.081  1.00  0.00    -0.462 OA
BRANCH   5   6
ATOM      6  C   UNL     1       5.848   2.241  -0.514  1.00  0.00     0.329 C 
ATOM      7  O   UNL     1       7.061   2.095  -0.399  1.00  0.00    -0.250 OA
BRANCH   6   8
ATOM      8  C   UNL     1       4.978   1.245  -1.318  1.00  0.00     0.196 C 
BRANCH   8   9
ATOM      9  N   UNL     1       3.535   1.348  -1.113  1.00  0.00    -0.345 N 
ATOM     10  O   UNL     1       1.551   0.426  -0.499  1.00  0.00    -0.279 OA
ATOM     11  C   UNL     1       2.717   0.288  -0.841  1.00  0.00     0.337 C 
ATOM     12  H   UNL     1       3.124   2.240  -1.177  1.00  0.00     0.164 HD
ENDBRANCH   8   9
BRANCH   8  13
ATOM     13  C   UNL     1       5.346   1.374  -2.813  1.00  0.00     0.079 C 
BRANCH  13  14
ATOM     14  C   UNL     1       4.747   2.619  -3.450  1.00  0.00     0.034 A 
ATOM     15  C   UNL     1       5.408   3.841  -3.184  1.00  0.00     0.031 A 
ATOM     16  C   UNL     1       3.541   2.674  -4.186  1.00  0.00     0.272 A 
ATOM     17  C   UNL     1       4.854   5.066  -3.553  1.00  0.00     0.041 A 
ATOM     18  C   UNL     1       3.003   3.918  -4.575  1.00  0.00     0.087 A 
ATOM     19  Cl  UNL     1       5.650   6.525  -3.113  1.00  0.00    -0.084 Cl
ATOM     20  C   UNL     1       3.650   5.110  -4.241  1.00  0.00     0.027 A 
BRANCH  16  21
ATOM     21  N   UNL     1       2.790   1.475  -4.607  1.00  0.00     0.062 N 
ATOM     22  O   UNL     1       2.116   1.569  -5.643  1.00  0.00    -0.258 OA
ATOM     23  O   UNL     1       2.866   0.451  -3.919  1.00  0.00    -0.258 OA
ENDBRANCH  16  21
ENDBRANCH  13  14
ENDBRANCH   8  13
ENDBRANCH   6   8
ENDBRANCH   5   6
ENDBRANCH   4   5
ENDBRANCH   3   4
ENDBRANCH   2   3
ENDBRANCH   1   2
BRANCH   1  24
ATOM     24  C   UNL     1       3.310   2.663   1.972  1.00  0.00     0.188 C 
BRANCH  24  25
ATOM     25  O   UNL     1       2.925   4.006   1.785  1.00  0.00    -0.376 OA
BRANCH  25  26
ATOM     26  C   UNL     1       1.819   4.460   2.547  1.00  0.00     0.202 C 
BRANCH  26  27
ATOM     27  C   UNL     1       1.871   4.291   4.078  1.00  0.00     0.261 C 
BRANCH  27  28
ATOM     28  O   UNL     1       2.345   3.023   4.572  1.00  0.00    -0.460 OA
BRANCH  28  29
ATOM     29  C   UNL     1       1.479   1.981   4.550  1.00  0.00     0.338 C 
ATOM     30  O   UNL     1       0.317   2.006   4.199  1.00  0.00    -0.246 OA
BRANCH  29  31
ATOM     31  C   UNL     1       2.250   0.737   4.816  1.00  0.00     0.060 A 
ATOM     32  C   UNL     1       2.296  -0.257   3.827  1.00  0.00     0.016 A 
ATOM     33  C   UNL     1       2.931   0.552   6.021  1.00  0.00     0.016 A 
ATOM     34  C   UNL     1       2.995  -1.447   4.054  1.00  0.00     0.010 A 
ATOM     35  C   UNL     1       3.611  -0.652   6.257  1.00  0.00     0.010 A 
ATOM     36  C   UNL     1       3.621  -1.672   5.288  1.00  0.00    -0.014 A 
BRANCH  36  37
ATOM     37  C   UNL     1       4.118  -3.034   5.623  1.00  0.00     0.031 A 
ATOM     38  C   UNL     1       3.243  -3.939   6.451  1.00  0.00     0.074 A 
ATOM     39  C   UNL     1       5.303  -3.487   5.173  1.00  0.00     0.049 A 
ATOM     40  N   UNL     1       3.459  -5.163   6.863  1.00  0.00    -0.248 NA
ATOM     41  C   UNL     1       1.948  -3.383   6.873  1.00  0.00     0.031 C 
ATOM     42  C   UNL     1       6.234  -2.732   4.340  1.00  0.00     0.029 A 
ATOM     43  N   UNL     1       5.924  -4.699   5.360  1.00  0.00    -0.354 N 
ATOM     44  C   UNL     1       2.330  -5.521   7.591  1.00  0.00     0.074 A 
ATOM     45  C   UNL     1       1.450  -4.373   7.597  1.00  0.00     0.031 C 
ATOM     46  C   UNL     1       7.313  -3.496   4.090  1.00  0.00     0.029 A 
ATOM     47  C   UNL     1       7.161  -4.784   4.769  1.00  0.00     0.049 A 
ATOM     48  H   UNL     1       5.520  -5.438   5.871  1.00  0.00     0.167 HD
ATOM     49  C   UNL     1       2.046  -6.703   8.189  1.00  0.00     0.037 A 
ATOM     50  C   UNL     1       8.071  -5.779   4.787  1.00  0.00     0.037 A 
ATOM     51  C   UNL     1       2.920  -7.848   8.190  1.00  0.00     0.049 A 
ATOM     52  C   UNL     1       7.761  -7.061   5.521  1.00  0.00     0.074 A 
ATOM     53  C   UNL     1       2.708  -9.095   8.751  1.00  0.00     0.029 A 
ATOM     54  N   UNL     1       4.180  -7.880   7.612  1.00  0.00    -0.354 N 
ATOM     55  N   UNL     1       6.676  -7.404   6.172  1.00  0.00    -0.248 NA
ATOM     56  C   UNL     1       8.803  -8.098   5.513  1.00  0.00     0.031 C 
ATOM     57  C   UNL     1       3.864  -9.861   8.568  1.00  0.00     0.029 A 
ATOM     58  C   UNL     1       4.770  -9.116   7.831  1.00  0.00     0.049 A 
ATOM     59  H   UNL     1       4.595  -7.136   7.119  1.00  0.00     0.167 HD
ATOM     60  C   UNL     1       6.893  -8.701   6.623  1.00  0.00     0.074 A 
ATOM     61  C   UNL     1       8.205  -9.091   6.153  1.00  0.00     0.031 C 
ATOM     62  C   UNL     1       6.078  -9.498   7.360  1.00  0.00     0.037 A 
BRANCH  49  63
ATOM     63  C   UNL     1       0.738  -6.811   8.923  1.00  0.00     0.064 A 
ATOM     64  C   UNL     1      -0.491  -6.831   8.246  1.00  0.00     0.173 A 
ATOM     65  C   UNL     1       0.718  -6.928  10.321  1.00  0.00     0.173 A 
ATOM     66  F   UNL     1      -0.529  -6.710   6.910  1.00  0.00    -0.203 F 
ATOM     67  C   UNL     1      -1.692  -6.936   8.944  1.00  0.00     0.198 A 
ATOM     68  C   UNL     1      -0.483  -7.066  11.012  1.00  0.00     0.198 A 
ATOM     69  F   UNL     1       1.864  -6.919  11.018  1.00  0.00    -0.203 F 
ATOM     70  F   UNL     1      -2.856  -6.901   8.280  1.00  0.00    -0.200 F 
ATOM     71  C   UNL     1      -1.687  -7.061  10.325  1.00  0.00     0.200 A 
ATOM     72  F   UNL     1      -0.474  -7.203  12.346  1.00  0.00    -0.200 F 
ATOM     73  F   UNL     1      -2.843  -7.170  10.994  1.00  0.00    -0.200 F 
ENDBRANCH  49  63
BRANCH  50  74
ATOM     74  C   UNL     1       9.377  -5.609   4.092  1.00  0.00     0.064 A 
ATOM     75  C   UNL     1       9.711  -6.384   2.972  1.00  0.00     0.173 A 
ATOM     76  C   UNL     1      10.332  -4.691   4.554  1.00  0.00     0.173 A 
ATOM     77  F   UNL     1       8.845  -7.298   2.509  1.00  0.00    -0.203 F 
ATOM     78  C   UNL     1      10.955  -6.263   2.356  1.00  0.00     0.198 A 
ATOM     79  C   UNL     1      11.563  -4.548   3.917  1.00  0.00     0.198 A 
ATOM     80  F   UNL     1      10.068  -3.929   5.626  1.00  0.00    -0.203 F 
ATOM     81  F   UNL     1      11.268  -7.056   1.321  1.00  0.00    -0.200 F 
ATOM     82  C   UNL     1      11.877  -5.340   2.824  1.00  0.00     0.200 A 
ATOM     83  F   UNL     1      12.447  -3.647   4.367  1.00  0.00    -0.200 F 
ATOM     84  F   UNL     1      13.072  -5.222   2.229  1.00  0.00    -0.200 F 
ENDBRANCH  50  74
BRANCH  62  85
ATOM     85  C   UNL     1       6.565 -10.886   7.675  1.00  0.00     0.064 A 
ATOM     86  C   UNL     1       7.638 -11.116   8.550  1.00  0.00     0.173 A 
ATOM     87  C   UNL     1       5.934 -12.006   7.109  1.00  0.00     0.173 A 
ATOM     88  F   UNL     1       8.284 -10.083   9.111  1.00  0.00    -0.203 F 
ATOM     89  C   UNL     1       8.085 -12.409   8.814  1.00  0.00     0.198 A 
ATOM     90  C   UNL     1       6.360 -13.299   7.404  1.00  0.00     0.198 A 
ATOM     91  F   UNL     1       4.896 -11.848   6.274  1.00  0.00    -0.203 F 
ATOM     92  F   UNL     1       9.152 -12.598   9.603  1.00  0.00    -0.200 F 
ATOM     93  C   UNL     1       7.443 -13.499   8.246  1.00  0.00     0.200 A 
ATOM     94  F   UNL     1       5.726 -14.351   6.868  1.00  0.00    -0.200 F 
ATOM     95  F   UNL     1       7.873 -14.741   8.503  1.00  0.00    -0.200 F 
ENDBRANCH  62  85
ENDBRANCH  36  37
ENDBRANCH  29  31
ENDBRANCH  28  29
ENDBRANCH  27  28
ENDBRANCH  26  27
ENDBRANCH  25  26
ENDBRANCH  24  25
ENDBRANCH   1  24
TORSDOF 21
