REMARK SMILES Cc1ccccc1NC(=S)NN1C(=O)CS[C@H]1c1ccccc1C(=O)OCCOCCOCCOC(=O)c1ccc(-c2c3nc(c(-c4c(F)c(F)c(F)c(F)c4F)c4ccc([nH]4)c(-c4c(F)c(F)c(F)c(F)c4F)c4nc(c(-c5c(F)c(F)c(F)c(F)c5F)c5ccc2[nH]5)C=C4)C=C3)cc1
REMARK SMILES IDX 29 1 28 2 27 3 26 4 24 5 25 6 23 7 18 8 19 9 20 10 22 11
REMARK SMILES IDX 21 12 17 13 12 14 13 15 14 16 15 17 16 18 11 19 9 21 10 22
REMARK SMILES IDX 8 23 7 25 1 26 2 27 3 28 4 29 6 30 5 31 30 32 31 33 32 34
REMARK SMILES IDX 33 35 34 36 35 37 36 38 37 39 38 40 39 41 100 42 40 43 99 44
REMARK SMILES IDX 41 45 42 46 43 47 93 48 44 49 98 50 92 51 94 52 45 53 97 54
REMARK SMILES IDX 91 55 90 56 46 58 78 59 58 60 77 61 59 62 62 63 76 64 95 65
REMARK SMILES IDX 60 66 61 67 75 69 96 70 63 71 47 72 48 73 56 74 49 75 50 76
REMARK SMILES IDX 54 77 57 78 51 79 52 80 55 81 53 82 79 83 80 84 88 85 81 86
REMARK SMILES IDX 82 87 86 88 89 89 83 90 84 91 87 92 85 93 64 94 65 95 73 96
REMARK SMILES IDX 66 97 67 98 71 99 74 100 68 101 69 102 72 103 70 104
REMARK H PARENT 11 20 8 24 94 57 62 68
REMARK Flexibility Score: inf
ROOT
ATOM      1  O   UNL     1       2.521   5.042  -2.657  1.00  0.00    -0.376 OA
ENDROOT
BRANCH   1   2
ATOM      2  C   UNL     1       2.326   4.126  -1.611  1.00  0.00     0.202 C 
BRANCH   2   3
ATOM      3  C   UNL     1       0.925   3.985  -0.984  1.00  0.00     0.261 C 
BRANCH   3   4
ATOM      4  O   UNL     1      -0.308   5.063  -0.660  1.00  0.00    -0.460 OA
BRANCH   4   5
ATOM      5  C   UNL     1      -1.446   6.113  -0.387  1.00  0.00     0.338 C 
ATOM      6  O   UNL     1      -1.278   7.157  -0.973  1.00  0.00    -0.246 OA
BRANCH   5   7
ATOM      7  C   UNL     1      -3.105   5.736   0.501  1.00  0.00     0.066 A 
ATOM      8  C   UNL     1      -3.987   4.255   0.426  1.00  0.00     0.001 A 
ATOM      9  C   UNL     1      -5.379   4.366   0.238  1.00  0.00     0.008 A 
ATOM     10  C   UNL     1      -5.963   5.644   0.251  1.00  0.00     0.000 A 
ATOM     11  C   UNL     1      -3.841   6.913   0.640  1.00  0.00     0.016 A 
ATOM     12  C   UNL     1      -5.238   6.849   0.476  1.00  0.00     0.001 A 
BRANCH   8  13
ATOM     13  C   UNL     1      -3.368   2.450   0.302  1.00  0.00     0.197 C 
ATOM     14  N   UNL     1      -1.896   1.628   0.802  1.00  0.00    -0.236 N 
ATOM     15  C   UNL     1      -1.989   0.270   1.044  1.00  0.00     0.252 C 
ATOM     16  O   UNL     1      -1.133  -0.416   1.595  1.00  0.00    -0.272 OA
ATOM     17  C   UNL     1      -3.235  -0.292   0.419  1.00  0.00     0.174 C 
ATOM     18  S   UNL     1      -4.570   0.975   0.469  1.00  0.00    -0.120 SA
BRANCH  14  19
ATOM     19  N   UNL     1      -0.441   2.219   1.137  1.00  0.00    -0.270 N 
ATOM     20  H   UNL     1      -0.483   3.193   1.271  1.00  0.00     0.191 HD
BRANCH  19  21
ATOM     21  C   UNL     1       0.853   1.757   1.293  1.00  0.00     0.189 C 
ATOM     22  S   UNL     1       2.257   2.446   2.000  1.00  0.00    -0.039 S 
BRANCH  21  23
ATOM     23  N   UNL     1       1.507   1.040   0.401  1.00  0.00    -0.331 N 
ATOM     24  H   UNL     1       2.475   1.219   0.410  1.00  0.00     0.169 HD
BRANCH  23  25
ATOM     25  C   UNL     1       1.161   0.121  -0.518  1.00  0.00     0.043 A 
ATOM     26  C   UNL     1       3.306  -1.019  -0.040  1.00  0.00     0.046 C 
ATOM     27  C   UNL     1       1.851  -1.054  -0.401  1.00  0.00    -0.028 A 
ATOM     28  C   UNL     1       1.048  -2.168  -0.517  1.00  0.00     0.005 A 
ATOM     29  C   UNL     1      -0.221  -2.054  -1.119  1.00  0.00     0.000 A 
ATOM     30  C   UNL     1       0.047   0.264  -1.281  1.00  0.00     0.026 A 
ATOM     31  C   UNL     1      -0.643  -0.847  -1.662  1.00  0.00     0.002 A 
ENDBRANCH  23  25
ENDBRANCH  21  23
ENDBRANCH  19  21
ENDBRANCH  14  19
ENDBRANCH   8  13
ENDBRANCH   5   7
ENDBRANCH   4   5
ENDBRANCH   3   4
ENDBRANCH   2   3
ENDBRANCH   1   2
BRANCH   1  32
ATOM     32  C   UNL     1       1.439   5.925  -2.717  1.00  0.00     0.188 C 
BRANCH  32  33
ATOM     33  C   UNL     1       0.218   5.259  -3.269  1.00  0.00     0.188 C 
BRANCH  33  34
ATOM     34  O   UNL     1       0.122   3.835  -3.193  1.00  0.00    -0.376 OA
BRANCH  34  35
ATOM     35  C   UNL     1       0.594   2.909  -4.134  1.00  0.00     0.202 C 
BRANCH  35  36
ATOM     36  C   UNL     1       0.687   3.620  -5.424  1.00  0.00     0.261 C 
BRANCH  36  37
ATOM     37  O   UNL     1      -0.626   4.183  -5.880  1.00  0.00    -0.460 OA
BRANCH  37  38
ATOM     38  C   UNL     1      -1.733   4.774  -5.298  1.00  0.00     0.338 C 
ATOM     39  O   UNL     1      -2.138   5.827  -5.799  1.00  0.00    -0.246 OA
BRANCH  38  40
ATOM     40  C   UNL     1      -2.406   4.338  -3.989  1.00  0.00     0.060 A 
ATOM     41  C   UNL     1      -2.984   5.284  -3.206  1.00  0.00     0.016 A 
ATOM     42  C   UNL     1      -2.265   3.130  -3.313  1.00  0.00     0.016 A 
ATOM     43  C   UNL     1      -2.955   5.051  -1.806  1.00  0.00     0.010 A 
ATOM     44  C   UNL     1      -1.976   3.044  -1.841  1.00  0.00     0.010 A 
ATOM     45  C   UNL     1      -2.125   4.052  -0.868  1.00  0.00    -0.014 A 
BRANCH  45  46
ATOM     46  C   UNL     1      -1.524   4.293   1.033  1.00  0.00     0.031 A 
ATOM     47  C   UNL     1      -2.594   3.677   2.399  1.00  0.00     0.074 A 
ATOM     48  C   UNL     1      -0.221   5.126   1.554  1.00  0.00     0.049 A 
ATOM     49  N   UNL     1      -2.080   3.349   3.517  1.00  0.00    -0.248 NA
ATOM     50  C   UNL     1      -4.029   3.059   2.617  1.00  0.00     0.031 C 
ATOM     51  C   UNL     1       0.885   5.142   2.610  1.00  0.00     0.029 A 
ATOM     52  N   UNL     1       0.559   6.233   0.837  1.00  0.00    -0.354 N 
ATOM     53  C   UNL     1      -2.571   2.075   3.884  1.00  0.00     0.074 A 
ATOM     54  C   UNL     1      -3.880   1.984   3.399  1.00  0.00     0.031 C 
ATOM     55  C   UNL     1       1.770   6.188   2.592  1.00  0.00     0.029 A 
ATOM     56  C   UNL     1       1.311   7.099   1.612  1.00  0.00     0.049 A 
ATOM     57  H   UNL     1       0.527   6.325  -0.143  1.00  0.00     0.167 HD
ATOM     58  C   UNL     1      -1.672   1.238   4.452  1.00  0.00     0.037 A 
ATOM     59  C   UNL     1       0.882   8.365   1.838  1.00  0.00     0.037 A 
ATOM     60  C   UNL     1      -0.540   2.078   4.844  1.00  0.00     0.049 A 
ATOM     61  C   UNL     1       0.187   8.190   3.213  1.00  0.00     0.074 A 
ATOM     62  C   UNL     1       0.814   2.120   4.715  1.00  0.00     0.029 A 
ATOM     63  N   UNL     1      -0.860   3.327   5.349  1.00  0.00    -0.354 N 
ATOM     64  N   UNL     1      -0.533   7.131   3.575  1.00  0.00    -0.248 NA
ATOM     65  C   UNL     1       0.743   8.903   4.361  1.00  0.00     0.031 C 
ATOM     66  C   UNL     1       1.231   3.473   5.064  1.00  0.00     0.029 A 
ATOM     67  C   UNL     1       0.107   4.287   5.269  1.00  0.00     0.049 A 
ATOM     68  H   UNL     1      -1.742   3.514   5.746  1.00  0.00     0.167 HD
ATOM     69  C   UNL     1      -0.260   6.839   4.916  1.00  0.00     0.074 A 
ATOM     70  C   UNL     1       0.497   8.026   5.346  1.00  0.00     0.031 C 
ATOM     71  C   UNL     1      -0.300   5.662   5.669  1.00  0.00     0.037 A 
BRANCH  58  72
ATOM     72  C   UNL     1      -1.710  -0.272   4.598  1.00  0.00     0.064 A 
ATOM     73  C   UNL     1      -0.718  -0.836   5.418  1.00  0.00     0.173 A 
ATOM     74  C   UNL     1      -2.534  -1.225   3.946  1.00  0.00     0.173 A 
ATOM     75  F   UNL     1       0.102  -0.060   6.136  1.00  0.00    -0.203 F 
ATOM     76  C   UNL     1      -0.538  -2.207   5.579  1.00  0.00     0.198 A 
ATOM     77  C   UNL     1      -2.330  -2.617   4.080  1.00  0.00     0.198 A 
ATOM     78  F   UNL     1      -3.550  -0.852   3.155  1.00  0.00    -0.203 F 
ATOM     79  F   UNL     1       0.417  -2.642   6.411  1.00  0.00    -0.200 F 
ATOM     80  C   UNL     1      -1.341  -3.103   4.912  1.00  0.00     0.200 A 
ATOM     81  F   UNL     1      -3.100  -3.489   3.407  1.00  0.00    -0.200 F 
ATOM     82  F   UNL     1      -1.183  -4.420   5.107  1.00  0.00    -0.200 F 
ENDBRANCH  58  72
BRANCH  59  83
ATOM     83  C   UNL     1       0.514   9.055   0.540  1.00  0.00     0.064 A 
ATOM     84  C   UNL     1       1.425   9.014  -0.563  1.00  0.00     0.173 A 
ATOM     85  C   UNL     1      -0.796   9.413   0.227  1.00  0.00     0.173 A 
ATOM     86  F   UNL     1       2.723   8.720  -0.363  1.00  0.00    -0.203 F 
ATOM     87  C   UNL     1       0.993   9.083  -1.896  1.00  0.00     0.198 A 
ATOM     88  C   UNL     1      -1.234   9.494  -1.120  1.00  0.00     0.198 A 
ATOM     89  F   UNL     1      -1.718   9.385   1.199  1.00  0.00    -0.203 F 
ATOM     90  F   UNL     1       1.853   8.824  -2.896  1.00  0.00    -0.200 F 
ATOM     91  C   UNL     1      -0.353   9.223  -2.172  1.00  0.00     0.200 A 
ATOM     92  F   UNL     1      -2.558   9.411  -1.362  1.00  0.00    -0.200 F 
ATOM     93  F   UNL     1      -0.824   8.824  -3.369  1.00  0.00    -0.200 F 
ENDBRANCH  59  83
BRANCH  71  94
ATOM     94  C   UNL     1      -0.990   5.751   7.045  1.00  0.00     0.064 A 
ATOM     95  C   UNL     1      -1.375   6.968   7.614  1.00  0.00     0.173 A 
ATOM     96  C   UNL     1      -1.362   4.613   7.827  1.00  0.00     0.173 A 
ATOM     97  F   UNL     1      -1.368   8.120   6.934  1.00  0.00    -0.203 F 
ATOM     98  C   UNL     1      -1.849   7.055   8.917  1.00  0.00     0.198 A 
ATOM     99  C   UNL     1      -1.980   4.700   9.059  1.00  0.00     0.198 A 
ATOM    100  F   UNL     1      -1.200   3.337   7.468  1.00  0.00    -0.203 F 
ATOM    101  F   UNL     1      -2.019   8.264   9.460  1.00  0.00    -0.200 F 
ATOM    102  C   UNL     1      -2.156   5.923   9.637  1.00  0.00     0.200 A 
ATOM    103  F   UNL     1      -2.386   3.577   9.667  1.00  0.00    -0.200 F 
ATOM    104  F   UNL     1      -2.652   6.011  10.874  1.00  0.00    -0.200 F 
ENDBRANCH  71  94
ENDBRANCH  45  46
ENDBRANCH  38  40
ENDBRANCH  37  38
ENDBRANCH  36  37
ENDBRANCH  35  36
ENDBRANCH  34  35
ENDBRANCH  33  34
ENDBRANCH  32  33
ENDBRANCH   1  32
TORSDOF 22
