REMARK SMILES O=C(NC(=S)Nc1ccccc1C(=O)OCCOCCOCCOC(=O)c1ccc(-c2c3nc(c(-c4c(F)c(F)c(F)c(F)c4F)c4ccc([nH]4)c(-c4c(F)c(F)c(F)c(F)c4F)c4nc(c(-c5c(F)c(F)c(F)c(F)c5F)c5ccc2[nH]5)C=C4)C=C3)cc1)c1ccc2ccccc2c1
REMARK SMILES IDX 19 1 18 2 17 3 16 4 15 5 13 6 14 7 12 8 7 9 8 10 9 11 11 12
REMARK SMILES IDX 10 13 6 14 4 16 5 17 3 18 1 19 2 20 90 22 91 23 99 24 92 25
REMARK SMILES IDX 98 26 93 27 97 28 94 29 96 30 95 31 20 32 21 33 22 34 23 35
REMARK SMILES IDX 24 36 25 37 26 38 27 39 28 40 89 41 29 42 88 43 30 44 31 45
REMARK SMILES IDX 32 46 82 47 33 48 87 49 81 50 83 51 34 52 86 53 80 54 79 55
REMARK SMILES IDX 35 57 67 58 47 59 66 60 48 61 51 62 65 63 84 64 49 65 50 66
REMARK SMILES IDX 64 68 85 69 52 70 36 71 37 72 45 73 38 74 39 75 43 76 46 77
REMARK SMILES IDX 40 78 41 79 44 80 42 81 68 82 69 83 77 84 70 85 71 86 75 87
REMARK SMILES IDX 78 88 72 89 73 90 76 91 74 92 53 93 54 94 62 95 55 96 56 97
REMARK SMILES IDX 60 98 63 99 57 100 58 101 61 102 59 103
REMARK H PARENT 6 15 3 21 83 56 51 67
REMARK Flexibility Score: inf
ROOT
ATOM      1  C   UNL     1       3.176   3.463  -2.819  1.00  0.00     0.188 C 
ENDROOT
BRANCH   1   2
ATOM      2  O   UNL     1       3.116   4.621  -2.022  1.00  0.00    -0.376 OA
BRANCH   2   3
ATOM      3  C   UNL     1       2.849   4.509  -0.636  1.00  0.00     0.202 C 
BRANCH   3   4
ATOM      4  C   UNL     1       2.988   3.217   0.193  1.00  0.00     0.261 C 
BRANCH   4   5
ATOM      5  O   UNL     1       3.738   2.115  -0.342  1.00  0.00    -0.460 OA
BRANCH   5   6
ATOM      6  C   UNL     1       2.965   1.171  -0.919  1.00  0.00     0.340 C 
ATOM      7  O   UNL     1       1.751   1.259  -1.074  1.00  0.00    -0.246 OA
BRANCH   6   8
ATOM      8  C   UNL     1       3.671  -0.061  -1.407  1.00  0.00     0.083 A 
ATOM      9  C   UNL     1       4.777  -1.006  -0.078  1.00  0.00     0.055 A 
ATOM     10  C   UNL     1       4.712  -3.018  -0.044  1.00  0.00     0.027 A 
ATOM     11  C   UNL     1       3.517  -3.779  -1.422  1.00  0.00     0.002 A 
ATOM     12  C   UNL     1       2.468  -0.836  -2.770  1.00  0.00     0.018 A 
ATOM     13  C   UNL     1       2.414  -2.841  -2.756  1.00  0.00     0.001 A 
BRANCH   9  14
ATOM     14  N   UNL     1       5.059  -0.374   1.134  1.00  0.00    -0.332 N 
ATOM     15  H   UNL     1       5.996  -0.350   1.435  1.00  0.00     0.169 HD
BRANCH  14  16
ATOM     16  C   UNL     1       4.127   0.209   1.920  1.00  0.00     0.177 C 
ATOM     17  S   UNL     1       4.641   1.229   3.143  1.00  0.00    -0.040 S 
BRANCH  16  18
ATOM     18  N   UNL     1       2.761  -0.051   1.784  1.00  0.00    -0.299 N 
ATOM     19  O   UNL     1       0.604  -0.741   1.519  1.00  0.00    -0.269 OA
ATOM     20  C   UNL     1       1.763  -0.827   1.102  1.00  0.00     0.257 C 
ATOM     21  H   UNL     1       2.288   0.541   2.413  1.00  0.00     0.172 HD
BRANCH  20  22
ATOM     22  C   UNL     1       1.951  -1.772  -0.059  1.00  0.00     0.040 A 
ATOM     23  C   UNL     1       3.182  -1.973  -0.346  1.00  0.00     0.014 A 
ATOM     24  C   UNL     1       2.624  -1.794  -1.204  1.00  0.00     0.022 A 
ATOM     25  C   UNL     1       4.754  -2.083  -1.641  1.00  0.00     0.009 A 
ATOM     26  C   UNL     1       4.049  -1.850  -2.714  1.00  0.00    -0.018 A 
ATOM     27  C   UNL     1       5.289  -2.079  -2.784  1.00  0.00    -0.018 A 
ATOM     28  C   UNL     1       4.159  -1.658  -4.342  1.00  0.00     0.009 A 
ATOM     29  C   UNL     1       6.014  -3.128  -3.448  1.00  0.00     0.009 A 
ATOM     30  C   UNL     1       5.145  -2.119  -5.292  1.00  0.00     0.001 A 
ATOM     31  C   UNL     1       6.062  -3.008  -4.802  1.00  0.00     0.001 A 
ENDBRANCH  20  22
ENDBRANCH  16  18
ENDBRANCH  14  16
ENDBRANCH   9  14
ENDBRANCH   6   8
ENDBRANCH   5   6
ENDBRANCH   4   5
ENDBRANCH   3   4
ENDBRANCH   2   3
ENDBRANCH   1   2
BRANCH   1  32
ATOM     32  C   UNL     1       4.575   2.801  -2.910  1.00  0.00     0.188 C 
BRANCH  32  33
ATOM     33  O   UNL     1       5.628   3.267  -2.091  1.00  0.00    -0.376 OA
BRANCH  33  34
ATOM     34  C   UNL     1       5.928   4.653  -2.149  1.00  0.00     0.202 C 
BRANCH  34  35
ATOM     35  C   UNL     1       5.862   5.450  -3.480  1.00  0.00     0.261 C 
BRANCH  35  36
ATOM     36  O   UNL     1       4.834   5.106  -4.438  1.00  0.00    -0.460 OA
BRANCH  36  37
ATOM     37  C   UNL     1       5.207   4.359  -5.515  1.00  0.00     0.338 C 
ATOM     38  O   UNL     1       6.340   4.012  -5.803  1.00  0.00    -0.246 OA
BRANCH  37  39
ATOM     39  C   UNL     1       3.998   3.792  -6.181  1.00  0.00     0.060 A 
ATOM     40  C   UNL     1       3.752   2.402  -6.138  1.00  0.00     0.016 A 
ATOM     41  C   UNL     1       3.107   4.624  -6.852  1.00  0.00     0.016 A 
ATOM     42  C   UNL     1       2.630   1.849  -6.765  1.00  0.00     0.010 A 
ATOM     43  C   UNL     1       2.013   4.063  -7.524  1.00  0.00     0.010 A 
ATOM     44  C   UNL     1       1.782   2.672  -7.510  1.00  0.00    -0.014 A 
BRANCH  44  45
ATOM     45  C   UNL     1       0.799   2.086  -8.462  1.00  0.00     0.031 A 
ATOM     46  C   UNL     1       1.182   2.025  -9.917  1.00  0.00     0.074 A 
ATOM     47  C   UNL     1      -0.409   1.642  -8.072  1.00  0.00     0.049 A 
ATOM     48  N   UNL     1       0.456   1.720 -10.963  1.00  0.00    -0.248 NA
ATOM     49  C   UNL     1       2.578   2.370 -10.233  1.00  0.00     0.031 C 
ATOM     50  C   UNL     1      -0.886   1.581  -6.694  1.00  0.00     0.029 A 
ATOM     51  N   UNL     1      -1.471   1.183  -8.817  1.00  0.00    -0.354 N 
ATOM     52  C   UNL     1       1.298   1.863 -12.059  1.00  0.00     0.074 A 
ATOM     53  C   UNL     1       2.580   2.305 -11.556  1.00  0.00     0.031 C 
ATOM     54  C   UNL     1      -2.158   1.142  -6.693  1.00  0.00     0.029 A 
ATOM     55  C   UNL     1      -2.599   0.936  -8.073  1.00  0.00     0.049 A 
ATOM     56  H   UNL     1      -1.426   1.045  -9.791  1.00  0.00     0.167 HD
ATOM     57  C   UNL     1       1.026   1.647 -13.368  1.00  0.00     0.037 A 
ATOM     58  C   UNL     1      -3.852   0.622  -8.465  1.00  0.00     0.037 A 
ATOM     59  C   UNL     1      -0.253   1.214 -13.867  1.00  0.00     0.049 A 
ATOM     60  C   UNL     1      -4.158   0.479  -9.938  1.00  0.00     0.074 A 
ATOM     61  C   UNL     1      -0.622   0.949 -15.174  1.00  0.00     0.029 A 
ATOM     62  N   UNL     1      -1.376   0.997 -13.083  1.00  0.00    -0.354 N 
ATOM     63  N   UNL     1      -3.357   0.598 -10.970  1.00  0.00    -0.248 NA
ATOM     64  C   UNL     1      -5.548   0.158 -10.302  1.00  0.00     0.031 C 
ATOM     65  C   UNL     1      -1.987   0.649 -15.190  1.00  0.00     0.029 A 
ATOM     66  C   UNL     1      -2.448   0.637 -13.884  1.00  0.00     0.049 A 
ATOM     67  H   UNL     1      -1.407   1.086 -12.103  1.00  0.00     0.167 HD
ATOM     68  C   UNL     1      -4.132   0.327 -12.093  1.00  0.00     0.074 A 
ATOM     69  C   UNL     1      -5.465   0.027 -11.618  1.00  0.00     0.031 C 
ATOM     70  C   UNL     1      -3.769   0.322 -13.400  1.00  0.00     0.037 A 
BRANCH  57  71
ATOM     71  C   UNL     1       2.121   1.915 -14.362  1.00  0.00     0.064 A 
ATOM     72  C   UNL     1       3.277   1.122 -14.427  1.00  0.00     0.173 A 
ATOM     73  C   UNL     1       1.994   2.962 -15.288  1.00  0.00     0.173 A 
ATOM     74  F   UNL     1       3.455   0.115 -13.559  1.00  0.00    -0.203 F 
ATOM     75  C   UNL     1       4.277   1.387 -15.359  1.00  0.00     0.198 A 
ATOM     76  C   UNL     1       2.978   3.200 -16.244  1.00  0.00     0.198 A 
ATOM     77  F   UNL     1       0.908   3.749 -15.276  1.00  0.00    -0.203 F 
ATOM     78  F   UNL     1       5.397   0.652 -15.365  1.00  0.00    -0.200 F 
ATOM     79  C   UNL     1       4.123   2.420 -16.272  1.00  0.00     0.200 A 
ATOM     80  F   UNL     1       2.816   4.185 -17.138  1.00  0.00    -0.200 F 
ATOM     81  F   UNL     1       5.081   2.666 -17.176  1.00  0.00    -0.200 F 
ENDBRANCH  57  71
BRANCH  58  82
ATOM     82  C   UNL     1      -4.933   0.446  -7.454  1.00  0.00     0.064 A 
ATOM     83  C   UNL     1      -5.558  -0.797  -7.272  1.00  0.00     0.173 A 
ATOM     84  C   UNL     1      -5.396   1.522  -6.682  1.00  0.00     0.173 A 
ATOM     85  F   UNL     1      -5.176  -1.852  -8.007  1.00  0.00    -0.203 F 
ATOM     86  C   UNL     1      -6.618  -0.949  -6.379  1.00  0.00     0.198 A 
ATOM     87  C   UNL     1      -6.430   1.360  -5.762  1.00  0.00     0.198 A 
ATOM     88  F   UNL     1      -4.843   2.736  -6.821  1.00  0.00    -0.203 F 
ATOM     89  F   UNL     1      -7.238  -2.133  -6.275  1.00  0.00    -0.200 F 
ATOM     90  C   UNL     1      -7.048   0.128  -5.619  1.00  0.00     0.200 A 
ATOM     91  F   UNL     1      -6.835   2.401  -5.022  1.00  0.00    -0.200 F 
ATOM     92  F   UNL     1      -8.067  -0.019  -4.761  1.00  0.00    -0.200 F 
ENDBRANCH  58  82
BRANCH  70  93
ATOM     93  C   UNL     1      -4.804  -0.080 -14.417  1.00  0.00     0.064 A 
ATOM     94  C   UNL     1      -5.914   0.725 -14.712  1.00  0.00     0.173 A 
ATOM     95  C   UNL     1      -4.647  -1.268 -15.150  1.00  0.00     0.173 A 
ATOM     96  F   UNL     1      -6.121   1.866 -14.037  1.00  0.00    -0.203 F 
ATOM     97  C   UNL     1      -6.841   0.342 -15.680  1.00  0.00     0.198 A 
ATOM     98  C   UNL     1      -5.553  -1.627 -16.144  1.00  0.00     0.198 A 
ATOM     99  F   UNL     1      -3.598  -2.072 -14.919  1.00  0.00    -0.203 F 
ATOM    100  F   UNL     1      -7.923   1.101 -15.906  1.00  0.00    -0.200 F 
ATOM    101  C   UNL     1      -6.654  -0.827 -16.402  1.00  0.00     0.200 A 
ATOM    102  F   UNL     1      -5.356  -2.746 -16.855  1.00  0.00    -0.200 F 
ATOM    103  F   UNL     1      -7.539  -1.186 -17.342  1.00  0.00    -0.200 F 
ENDBRANCH  70  93
ENDBRANCH  44  45
ENDBRANCH  37  39
ENDBRANCH  36  37
ENDBRANCH  35  36
ENDBRANCH  34  35
ENDBRANCH  33  34
ENDBRANCH  32  33
ENDBRANCH   1  32
TORSDOF 21
