REMARK SMILES NS(=O)(=O)c1ccc(-n2nc(C(=O)OCCOCCOCCOC(=O)c3ccc(-c4c5nc(c(-c6c(F)c(F)c(F)c(F)c6F)c6ccc([nH]6)c(-c6c(F)c(F)c(F)c(F)c6F)c6nc(c(-c7c(F)c(F)c(F)c(F)c7F)c7ccc4[nH]7)C=C6)C=C5)cc3)c(Cl)c2-c2ccc(Cl)cc2)cc1
REMARK SMILES IDX 18 1 17 2 16 3 15 4 14 5 12 6 13 7 11 8 9 9 10 10 91 11
REMARK SMILES IDX 89 12 90 13 8 14 5 15 6 16 100 17 7 18 99 19 2 20 3 21 4 22
REMARK SMILES IDX 1 23 92 26 93 27 98 28 94 29 97 30 95 31 96 32 19 33 20 34
REMARK SMILES IDX 21 35 22 36 23 37 24 38 25 39 26 40 27 41 88 42 28 43 87 44
REMARK SMILES IDX 29 45 30 46 31 47 81 48 32 49 86 50 80 51 82 52 33 53 85 54
REMARK SMILES IDX 79 55 78 56 34 58 66 59 46 60 65 61 47 62 50 63 64 64 83 65
REMARK SMILES IDX 48 66 49 67 63 69 84 70 51 71 35 72 36 73 44 74 37 75 38 76
REMARK SMILES IDX 42 77 45 78 39 79 40 80 43 81 41 82 67 83 68 84 76 85 69 86
REMARK SMILES IDX 70 87 74 88 77 89 71 90 72 91 75 92 73 93 52 94 53 95 61 96
REMARK SMILES IDX 54 97 55 98 59 99 62 100 56 101 57 102 60 103 58 104
REMARK H PARENT 1 24 1 25 82 57 50 68
REMARK Flexibility Score: inf
ROOT
ATOM      1  C   UNL     1       3.709  -9.075   6.365  1.00  0.00     0.188 C 
ENDROOT
BRANCH   1   2
ATOM      2  O   UNL     1       4.662  -9.771   7.163  1.00  0.00    -0.376 OA
BRANCH   2   3
ATOM      3  C   UNL     1       4.769  -9.471   8.552  1.00  0.00     0.202 C 
BRANCH   3   4
ATOM      4  C   UNL     1       4.958  -8.009   8.988  1.00  0.00     0.261 C 
BRANCH   4   5
ATOM      5  O   UNL     1       3.903  -7.127   8.570  1.00  0.00    -0.458 OA
BRANCH   5   6
ATOM      6  C   UNL     1       4.220  -6.148   7.671  1.00  0.00     0.360 C 
ATOM      7  O   UNL     1       5.357  -5.944   7.260  1.00  0.00    -0.244 OA
BRANCH   6   8
ATOM      8  C   UNL     1       3.042  -5.406   7.187  1.00  0.00     0.190 A 
ATOM      9  N   UNL     1       1.877  -4.137   5.914  1.00  0.00    -0.231 N 
ATOM     10  N   UNL     1       3.010  -4.872   5.946  1.00  0.00    -0.159 NA
ATOM     11  C   UNL     1       1.102  -4.293   7.050  1.00  0.00     0.094 A 
ATOM     12  C   UNL     1       1.818  -5.156   7.859  1.00  0.00     0.102 A 
ATOM     13  Cl  UNL     1       1.346  -5.734   9.391  1.00  0.00    -0.079 Cl
BRANCH   9  14
ATOM     14  C   UNL     1       1.687  -3.186   4.886  1.00  0.00     0.065 A 
ATOM     15  C   UNL     1       1.091  -1.289   2.951  1.00  0.00     0.082 A 
ATOM     16  C   UNL     1       1.116  -2.647   2.604  1.00  0.00     0.024 A 
ATOM     17  C   UNL     1       1.409  -0.875   4.248  1.00  0.00     0.024 A 
ATOM     18  C   UNL     1       1.441  -3.605   3.573  1.00  0.00     0.030 A 
ATOM     19  C   UNL     1       1.688  -1.827   5.224  1.00  0.00     0.030 A 
BRANCH  15  20
ATOM     20  S   UNL     1       0.610  -0.067   1.766  1.00  0.00     0.238 S 
ATOM     21  O   UNL     1       1.184   1.206   2.144  1.00  0.00    -0.207 OA
ATOM     22  O   UNL     1      -0.794  -0.236   1.487  1.00  0.00    -0.207 OA
BRANCH  20  23
ATOM     23  N   UNL     1       1.427  -0.513   0.369  1.00  0.00    -0.225 NA
ATOM     24  H   UNL     1       1.206   0.145  -0.379  1.00  0.00     0.137 HD
ATOM     25  H   UNL     1       1.139  -1.451   0.092  1.00  0.00     0.137 HD
ENDBRANCH  20  23
ENDBRANCH  15  20
ENDBRANCH   9  14
BRANCH  11  26
ATOM     26  C   UNL     1      -0.174  -3.620   7.301  1.00  0.00     0.002 A 
ATOM     27  C   UNL     1      -0.303  -2.822   8.447  1.00  0.00     0.012 A 
ATOM     28  C   UNL     1      -1.274  -3.768   6.446  1.00  0.00     0.012 A 
ATOM     29  C   UNL     1      -1.512  -2.196   8.746  1.00  0.00     0.021 A 
ATOM     30  C   UNL     1      -2.486  -3.136   6.744  1.00  0.00     0.021 A 
ATOM     31  C   UNL     1      -2.601  -2.359   7.896  1.00  0.00     0.041 A 
ATOM     32  Cl  UNL     1      -4.098  -1.603   8.279  1.00  0.00    -0.084 Cl
ENDBRANCH  11  26
ENDBRANCH   6   8
ENDBRANCH   5   6
ENDBRANCH   4   5
ENDBRANCH   3   4
ENDBRANCH   2   3
ENDBRANCH   1   2
BRANCH   1  33
ATOM     33  C   UNL     1       2.258  -8.907   6.868  1.00  0.00     0.188 C 
BRANCH  33  34
ATOM     34  O   UNL     1       2.068  -9.290   8.219  1.00  0.00    -0.376 OA
BRANCH  34  35
ATOM     35  C   UNL     1       1.158 -10.348   8.478  1.00  0.00     0.202 C 
BRANCH  35  36
ATOM     36  C   UNL     1       1.527 -11.744   7.971  1.00  0.00     0.261 C 
BRANCH  36  37
ATOM     37  O   UNL     1       2.162 -11.787   6.700  1.00  0.00    -0.460 OA
BRANCH  37  38
ATOM     38  C   UNL     1       1.346 -11.649   5.638  1.00  0.00     0.338 C 
ATOM     39  O   UNL     1       0.182 -11.287   5.649  1.00  0.00    -0.246 OA
BRANCH  38  40
ATOM     40  C   UNL     1       2.069 -12.078   4.433  1.00  0.00     0.060 A 
ATOM     41  C   UNL     1       1.476 -11.796   3.203  1.00  0.00     0.016 A 
ATOM     42  C   UNL     1       3.160 -12.956   4.544  1.00  0.00     0.016 A 
ATOM     43  C   UNL     1       1.839 -12.560   2.115  1.00  0.00     0.010 A 
ATOM     44  C   UNL     1       3.515 -13.727   3.457  1.00  0.00     0.010 A 
ATOM     45  C   UNL     1       2.781 -13.583   2.285  1.00  0.00    -0.014 A 
BRANCH  45  46
ATOM     46  C   UNL     1       2.885 -14.548   1.210  1.00  0.00     0.031 A 
ATOM     47  C   UNL     1       3.584 -14.087   0.001  1.00  0.00     0.074 A 
ATOM     48  C   UNL     1       2.342 -15.776   1.296  1.00  0.00     0.049 A 
ATOM     49  N   UNL     1       3.072 -13.855  -1.162  1.00  0.00    -0.248 NA
ATOM     50  C   UNL     1       5.011 -13.772   0.122  1.00  0.00     0.031 C 
ATOM     51  C   UNL     1       1.872 -16.472   2.496  1.00  0.00     0.029 A 
ATOM     52  N   UNL     1       2.171 -16.695   0.305  1.00  0.00    -0.354 N 
ATOM     53  C   UNL     1       4.143 -13.514  -1.975  1.00  0.00     0.074 A 
ATOM     54  C   UNL     1       5.290 -13.363  -1.116  1.00  0.00     0.031 C 
ATOM     55  C   UNL     1       1.657 -17.772   2.195  1.00  0.00     0.029 A 
ATOM     56  C   UNL     1       1.837 -17.956   0.763  1.00  0.00     0.049 A 
ATOM     57  H   UNL     1       2.275 -16.482  -0.651  1.00  0.00     0.167 HD
ATOM     58  C   UNL     1       4.053 -13.595  -3.328  1.00  0.00     0.037 A 
ATOM     59  C   UNL     1       1.784 -19.085   0.022  1.00  0.00     0.037 A 
ATOM     60  C   UNL     1       2.693 -13.676  -3.781  1.00  0.00     0.049 A 
ATOM     61  C   UNL     1       1.587 -18.700  -1.396  1.00  0.00     0.074 A 
ATOM     62  C   UNL     1       1.609 -12.825  -3.804  1.00  0.00     0.029 A 
ATOM     63  N   UNL     1       2.212 -14.932  -4.042  1.00  0.00    -0.354 N 
ATOM     64  N   UNL     1       0.494 -18.169  -1.869  1.00  0.00    -0.248 NA
ATOM     65  C   UNL     1       2.744 -18.627  -2.279  1.00  0.00     0.031 C 
ATOM     66  C   UNL     1       0.456 -13.663  -3.751  1.00  0.00     0.029 A 
ATOM     67  C   UNL     1       0.888 -14.988  -3.693  1.00  0.00     0.049 A 
ATOM     68  H   UNL     1       2.735 -15.675  -4.419  1.00  0.00     0.167 HD
ATOM     69  C   UNL     1       0.921 -17.346  -2.897  1.00  0.00     0.074 A 
ATOM     70  C   UNL     1       2.265 -17.802  -3.213  1.00  0.00     0.031 C 
ATOM     71  C   UNL     1       0.259 -16.188  -3.184  1.00  0.00     0.037 A 
BRANCH  58  72
ATOM     72  C   UNL     1       5.206 -13.987  -4.209  1.00  0.00     0.064 A 
ATOM     73  C   UNL     1       5.120 -13.783  -5.598  1.00  0.00     0.173 A 
ATOM     74  C   UNL     1       6.252 -14.827  -3.771  1.00  0.00     0.173 A 
ATOM     75  F   UNL     1       4.132 -13.037  -6.117  1.00  0.00    -0.203 F 
ATOM     76  C   UNL     1       5.995 -14.411  -6.486  1.00  0.00     0.198 A 
ATOM     77  C   UNL     1       7.158 -15.407  -4.655  1.00  0.00     0.198 A 
ATOM     78  F   UNL     1       6.363 -15.207  -2.491  1.00  0.00    -0.203 F 
ATOM     79  F   UNL     1       5.810 -14.280  -7.807  1.00  0.00    -0.200 F 
ATOM     80  C   UNL     1       7.013 -15.221  -6.014  1.00  0.00     0.200 A 
ATOM     81  F   UNL     1       8.120 -16.211  -4.182  1.00  0.00    -0.200 F 
ATOM     82  F   UNL     1       7.822 -15.864  -6.867  1.00  0.00    -0.200 F 
ENDBRANCH  58  72
BRANCH  59  83
ATOM     83  C   UNL     1       2.175 -20.450   0.436  1.00  0.00     0.064 A 
ATOM     84  C   UNL     1       1.781 -21.572  -0.307  1.00  0.00     0.173 A 
ATOM     85  C   UNL     1       3.169 -20.659   1.413  1.00  0.00     0.173 A 
ATOM     86  F   UNL     1       0.872 -21.448  -1.285  1.00  0.00    -0.203 F 
ATOM     87  C   UNL     1       2.369 -22.824  -0.106  1.00  0.00     0.198 A 
ATOM     88  C   UNL     1       3.746 -21.910   1.621  1.00  0.00     0.198 A 
ATOM     89  F   UNL     1       3.671 -19.634   2.118  1.00  0.00    -0.203 F 
ATOM     90  F   UNL     1       2.018 -23.859  -0.882  1.00  0.00    -0.200 F 
ATOM     91  C   UNL     1       3.357 -22.990   0.851  1.00  0.00     0.200 A 
ATOM     92  F   UNL     1       4.725 -22.048   2.526  1.00  0.00    -0.200 F 
ATOM     93  F   UNL     1       3.965 -24.175   1.001  1.00  0.00    -0.200 F 
ENDBRANCH  59  83
BRANCH  71  94
ATOM     94  C   UNL     1      -1.161 -16.081  -2.716  1.00  0.00     0.064 A 
ATOM     95  C   UNL     1      -1.545 -16.050  -1.365  1.00  0.00     0.173 A 
ATOM     96  C   UNL     1      -2.165 -15.916  -3.680  1.00  0.00     0.173 A 
ATOM     97  F   UNL     1      -0.631 -16.103  -0.387  1.00  0.00    -0.203 F 
ATOM     98  C   UNL     1      -2.885 -15.920  -1.003  1.00  0.00     0.198 A 
ATOM     99  C   UNL     1      -3.497 -15.746  -3.314  1.00  0.00     0.198 A 
ATOM    100  F   UNL     1      -1.847 -15.882  -4.984  1.00  0.00    -0.203 F 
ATOM    101  F   UNL     1      -3.234 -15.920   0.292  1.00  0.00    -0.200 F 
ATOM    102  C   UNL     1      -3.858 -15.764  -1.977  1.00  0.00     0.200 A 
ATOM    103  F   UNL     1      -4.428 -15.548  -4.258  1.00  0.00    -0.200 F 
ATOM    104  F   UNL     1      -5.143 -15.606  -1.627  1.00  0.00    -0.200 F 
ENDBRANCH  71  94
ENDBRANCH  45  46
ENDBRANCH  38  40
ENDBRANCH  37  38
ENDBRANCH  36  37
ENDBRANCH  35  36
ENDBRANCH  34  35
ENDBRANCH  33  34
ENDBRANCH   1  33
TORSDOF 21
