REMARK SMILES C[C@H]1CCN1c1cc(C(=O)OCCOCCOCCOC(=O)c2ccc(-c3c4nc(c(-c5c(F)c(F)c(F)c(F)c5F)c5ccc([nH]5)c(-c5c(F)c(F)c(F)c(F)c5F)c5nc(c(-c6c(F)c(F)c(F)c(F)c6F)c6ccc3[nH]6)C=C5)C=C4)cc2)ccc1Cl
REMARK SMILES IDX 16 1 15 2 14 3 13 4 12 5 11 6 9 7 10 8 8 9 6 10 7 11 88 12
REMARK SMILES IDX 87 13 89 14 86 15 5 16 1 17 2 18 3 19 4 20 17 21 18 22 19 23
REMARK SMILES IDX 20 24 21 25 22 26 23 27 24 28 85 29 25 30 84 31 26 32 27 33
REMARK SMILES IDX 28 34 78 35 29 36 83 37 77 38 79 39 30 40 82 41 76 42 75 43
REMARK SMILES IDX 31 45 63 46 43 47 62 48 44 49 47 50 61 51 80 52 45 53 46 54
REMARK SMILES IDX 60 56 81 57 48 58 32 59 33 60 41 61 34 62 35 63 39 64 42 65
REMARK SMILES IDX 36 66 37 67 40 68 38 69 64 70 65 71 73 72 66 73 67 74 71 75
REMARK SMILES IDX 74 76 68 77 69 78 72 79 70 80 49 81 50 82 58 83 51 84 52 85
REMARK SMILES IDX 56 86 59 87 53 88 54 89 57 90 55 91
REMARK H PARENT 79 44 47 55
REMARK Flexibility Score: inf
ROOT
ATOM      1  C   UNL     1       0.241  -7.726   1.592  1.00  0.00     0.188 C 
ENDROOT
BRANCH   1   2
ATOM      2  C   UNL     1      -1.071  -7.367   2.321  1.00  0.00     0.188 C 
BRANCH   2   3
ATOM      3  O   UNL     1      -2.185  -8.243   2.289  1.00  0.00    -0.376 OA
BRANCH   3   4
ATOM      4  C   UNL     1      -2.631  -8.773   1.049  1.00  0.00     0.202 C 
BRANCH   4   5
ATOM      5  C   UNL     1      -2.970  -7.824  -0.105  1.00  0.00     0.261 C 
BRANCH   5   6
ATOM      6  O   UNL     1      -1.896  -6.937  -0.452  1.00  0.00    -0.460 OA
BRANCH   6   7
ATOM      7  C   UNL     1      -2.193  -5.616  -0.375  1.00  0.00     0.338 C 
ATOM      8  O   UNL     1      -3.276  -5.120  -0.117  1.00  0.00    -0.246 OA
BRANCH   7   9
ATOM      9  C   UNL     1      -0.950  -4.819  -0.451  1.00  0.00     0.062 A 
ATOM     10  C   UNL     1       0.341  -2.974   0.492  1.00  0.00     0.057 A 
ATOM     11  C   UNL     1      -0.817  -3.761   0.455  1.00  0.00     0.043 A 
ATOM     12  C   UNL     1       1.373  -3.266  -0.418  1.00  0.00     0.064 A 
ATOM     13  C   UNL     1       1.238  -4.323  -1.332  1.00  0.00     0.023 A 
ATOM     14  Cl  UNL     1       2.856  -2.378  -0.446  1.00  0.00    -0.082 Cl
ATOM     15  C   UNL     1       0.080  -5.106  -1.348  1.00  0.00     0.017 A 
BRANCH  10  16
ATOM     16  N   UNL     1       0.365  -1.946   1.455  1.00  0.00    -0.367 N 
ATOM     17  C   UNL     1      -0.908   0.111   1.256  1.00  0.00     0.031 C 
ATOM     18  C   UNL     1       0.466  -0.533   1.222  1.00  0.00     0.081 C 
ATOM     19  C   UNL     1       1.311  -0.424   2.495  1.00  0.00     0.046 C 
ATOM     20  C   UNL     1       1.127  -1.927   2.666  1.00  0.00     0.119 C 
ENDBRANCH  10  16
ENDBRANCH   7   9
ENDBRANCH   6   7
ENDBRANCH   5   6
ENDBRANCH   4   5
ENDBRANCH   3   4
ENDBRANCH   2   3
ENDBRANCH   1   2
BRANCH   1  21
ATOM     21  O   UNL     1       0.336  -8.950   0.905  1.00  0.00    -0.376 OA
BRANCH  21  22
ATOM     22  C   UNL     1       0.514 -10.182   1.579  1.00  0.00     0.202 C 
BRANCH  22  23
ATOM     23  C   UNL     1       0.854 -10.368   3.067  1.00  0.00     0.261 C 
BRANCH  23  24
ATOM     24  O   UNL     1       0.633  -9.266   3.944  1.00  0.00    -0.460 OA
BRANCH  24  25
ATOM     25  C   UNL     1       1.758  -8.645   4.375  1.00  0.00     0.338 C 
ATOM     26  O   UNL     1       2.909  -8.883   4.062  1.00  0.00    -0.246 OA
BRANCH  25  27
ATOM     27  C   UNL     1       1.368  -7.489   5.199  1.00  0.00     0.060 A 
ATOM     28  C   UNL     1       1.713  -6.208   4.752  1.00  0.00     0.016 A 
ATOM     29  C   UNL     1       0.716  -7.673   6.419  1.00  0.00     0.016 A 
ATOM     30  C   UNL     1       1.431  -5.099   5.547  1.00  0.00     0.010 A 
ATOM     31  C   UNL     1       0.449  -6.562   7.222  1.00  0.00     0.010 A 
ATOM     32  C   UNL     1       0.833  -5.275   6.803  1.00  0.00    -0.014 A 
BRANCH  32  33
ATOM     33  C   UNL     1       0.771  -4.139   7.750  1.00  0.00     0.031 A 
ATOM     34  C   UNL     1       1.854  -4.005   8.784  1.00  0.00     0.074 A 
ATOM     35  C   UNL     1      -0.220  -3.234   7.685  1.00  0.00     0.049 A 
ATOM     36  N   UNL     1       1.990  -3.120   9.738  1.00  0.00    -0.248 NA
ATOM     37  C   UNL     1       2.929  -5.009   8.734  1.00  0.00     0.031 C 
ATOM     38  C   UNL     1      -1.304  -3.235   6.706  1.00  0.00     0.029 A 
ATOM     39  N   UNL     1      -0.475  -2.139   8.473  1.00  0.00    -0.354 N 
ATOM     40  C   UNL     1       3.162  -3.459  10.400  1.00  0.00     0.074 A 
ATOM     41  C   UNL     1       3.683  -4.649   9.761  1.00  0.00     0.031 C 
ATOM     42  C   UNL     1      -2.119  -2.197   6.961  1.00  0.00     0.029 A 
ATOM     43  C   UNL     1      -1.629  -1.478   8.136  1.00  0.00     0.049 A 
ATOM     44  H   UNL     1       0.114  -1.856   9.209  1.00  0.00     0.167 HD
ATOM     45  C   UNL     1       3.756  -2.829  11.441  1.00  0.00     0.037 A 
ATOM     46  C   UNL     1      -2.229  -0.427   8.727  1.00  0.00     0.037 A 
ATOM     47  C   UNL     1       3.233  -1.653  12.081  1.00  0.00     0.049 A 
ATOM     48  C   UNL     1      -1.591   0.208   9.937  1.00  0.00     0.074 A 
ATOM     49  C   UNL     1       3.768  -0.933  13.135  1.00  0.00     0.029 A 
ATOM     50  N   UNL     1       2.043  -1.030  11.733  1.00  0.00    -0.354 N 
ATOM     51  N   UNL     1      -0.466  -0.097  10.538  1.00  0.00    -0.248 NA
ATOM     52  C   UNL     1      -2.307   1.338  10.548  1.00  0.00     0.031 C 
ATOM     53  C   UNL     1       2.877   0.097  13.457  1.00  0.00     0.029 A 
ATOM     54  C   UNL     1       1.815   0.052  12.568  1.00  0.00     0.049 A 
ATOM     55  H   UNL     1       1.450  -1.314  11.001  1.00  0.00     0.167 HD
ATOM     56  C   UNL     1      -0.323   0.819  11.573  1.00  0.00     0.074 A 
ATOM     57  C   UNL     1      -1.473   1.698  11.514  1.00  0.00     0.031 C 
ATOM     58  C   UNL     1       0.671   0.925  12.489  1.00  0.00     0.037 A 
BRANCH  45  59
ATOM     59  C   UNL     1       5.030  -3.421  11.967  1.00  0.00     0.064 A 
ATOM     60  C   UNL     1       6.229  -3.352  11.240  1.00  0.00     0.173 A 
ATOM     61  C   UNL     1       5.058  -4.046  13.222  1.00  0.00     0.173 A 
ATOM     62  F   UNL     1       6.251  -2.778  10.027  1.00  0.00    -0.203 F 
ATOM     63  C   UNL     1       7.402  -3.910  11.740  1.00  0.00     0.198 A 
ATOM     64  C   UNL     1       6.240  -4.578  13.731  1.00  0.00     0.198 A 
ATOM     65  F   UNL     1       3.940  -4.138  13.957  1.00  0.00    -0.203 F 
ATOM     66  F   UNL     1       8.524  -3.875  11.008  1.00  0.00    -0.200 F 
ATOM     67  C   UNL     1       7.408  -4.517  12.987  1.00  0.00     0.200 A 
ATOM     68  F   UNL     1       6.246  -5.155  14.941  1.00  0.00    -0.200 F 
ATOM     69  F   UNL     1       8.539  -5.050  13.469  1.00  0.00    -0.200 F 
ENDBRANCH  45  59
BRANCH  46  70
ATOM     70  C   UNL     1      -3.513   0.094   8.191  1.00  0.00     0.064 A 
ATOM     71  C   UNL     1      -3.582   1.353   7.579  1.00  0.00     0.173 A 
ATOM     72  C   UNL     1      -4.700  -0.643   8.302  1.00  0.00     0.173 A 
ATOM     73  F   UNL     1      -2.478   2.108   7.475  1.00  0.00    -0.203 F 
ATOM     74  C   UNL     1      -4.793   1.863   7.115  1.00  0.00     0.198 A 
ATOM     75  C   UNL     1      -5.906  -0.145   7.813  1.00  0.00     0.198 A 
ATOM     76  F   UNL     1      -4.689  -1.851   8.885  1.00  0.00    -0.203 F 
ATOM     77  F   UNL     1      -4.839   3.090   6.579  1.00  0.00    -0.200 F 
ATOM     78  C   UNL     1      -5.953   1.111   7.227  1.00  0.00     0.200 A 
ATOM     79  F   UNL     1      -7.024  -0.877   7.918  1.00  0.00    -0.200 F 
ATOM     80  F   UNL     1      -7.117   1.603   6.782  1.00  0.00    -0.200 F 
ENDBRANCH  46  70
BRANCH  58  81
ATOM     81  C   UNL     1       0.589   2.055  13.475  1.00  0.00     0.064 A 
ATOM     82  C   UNL     1      -0.343   2.056  14.523  1.00  0.00     0.173 A 
ATOM     83  C   UNL     1       1.490   3.129  13.397  1.00  0.00     0.173 A 
ATOM     84  F   UNL     1      -1.234   1.059  14.633  1.00  0.00    -0.203 F 
ATOM     85  C   UNL     1      -0.385   3.101  15.442  1.00  0.00     0.198 A 
ATOM     86  C   UNL     1       1.464   4.157  14.335  1.00  0.00     0.198 A 
ATOM     87  F   UNL     1       2.407   3.173  12.418  1.00  0.00    -0.203 F 
ATOM     88  F   UNL     1      -1.313   3.103  16.409  1.00  0.00    -0.200 F 
ATOM     89  C   UNL     1       0.523   4.146  15.352  1.00  0.00     0.200 A 
ATOM     90  F   UNL     1       2.352   5.158  14.255  1.00  0.00    -0.200 F 
ATOM     91  F   UNL     1       0.486   5.146  16.244  1.00  0.00    -0.200 F 
ENDBRANCH  58  81
ENDBRANCH  32  33
ENDBRANCH  25  27
ENDBRANCH  24  25
ENDBRANCH  23  24
ENDBRANCH  22  23
ENDBRANCH  21  22
ENDBRANCH   1  21
TORSDOF 18
