REMARK SMILES O=C(CCC(=O)OCCOCCOCCOC(=O)c1ccc(-c2c3nc(c(-c4c(F)c(F)c(F)c(F)c4F)c4ccc([nH]4)c(-c4c(F)c(F)c(F)c(F)c4F)c4nc(c(-c5c(F)c(F)c(F)c(F)c5F)c5ccc2[nH]5)C=C4)C=C3)cc1)Nc1ccc2nc(-c3ccccc3)oc2c1
REMARK SMILES IDX 11 1 10 2 9 3 8 4 7 5 5 6 6 7 4 8 3 9 2 10 1 11 82 12 83 14
REMARK SMILES IDX 84 15 97 16 85 17 96 18 86 19 95 20 87 21 88 22 89 23 90 24
REMARK SMILES IDX 94 25 91 26 93 27 92 28 12 29 13 30 14 31 15 32 16 33 17 34
REMARK SMILES IDX 18 35 19 36 20 37 81 38 21 39 80 40 22 41 23 42 24 43 74 44
REMARK SMILES IDX 25 45 79 46 73 47 75 48 26 49 78 50 72 51 71 52 27 54 59 55
REMARK SMILES IDX 39 56 58 57 40 58 43 59 57 60 76 61 41 62 42 63 56 65 77 66
REMARK SMILES IDX 44 67 28 68 29 69 37 70 30 71 31 72 35 73 38 74 32 75 33 76
REMARK SMILES IDX 36 77 34 78 60 79 61 80 69 81 62 82 63 83 67 84 70 85 64 86
REMARK SMILES IDX 65 87 68 88 66 89 45 90 46 91 54 92 47 93 48 94 52 95 55 96
REMARK SMILES IDX 49 97 50 98 53 99 51 100
REMARK H PARENT 82 13 75 53 43 64
REMARK Flexibility Score: inf
ROOT
ATOM      1  C   UNL     1       6.716  -0.426   0.116  1.00  0.00     0.188 C 
ENDROOT
BRANCH   1   2
ATOM      2  O   UNL     1       7.481  -0.392  -1.084  1.00  0.00    -0.376 OA
BRANCH   2   3
ATOM      3  C   UNL     1       6.762  -0.089  -2.283  1.00  0.00     0.202 C 
BRANCH   3   4
ATOM      4  C   UNL     1       5.611  -1.056  -2.597  1.00  0.00     0.261 C 
BRANCH   4   5
ATOM      5  O   UNL     1       4.532  -0.981  -1.625  1.00  0.00    -0.463 OA
BRANCH   5   6
ATOM      6  C   UNL     1       3.964  -2.173  -1.295  1.00  0.00     0.306 C 
ATOM      7  O   UNL     1       4.235  -3.232  -1.851  1.00  0.00    -0.252 OA
BRANCH   6   8
ATOM      8  C   UNL     1       3.035  -2.134  -0.090  1.00  0.00     0.132 C 
BRANCH   8   9
ATOM      9  C   UNL     1       2.550  -0.817   0.512  1.00  0.00     0.112 C 
BRANCH   9  10
ATOM     10  C   UNL     1       1.617  -0.025  -0.387  1.00  0.00     0.224 C 
ATOM     11  O   UNL     1       0.406  -0.002  -0.208  1.00  0.00    -0.275 OA
ATOM     12  N   UNL     1       2.308   0.585  -1.405  1.00  0.00    -0.326 N 
ATOM     13  H   UNL     1       3.289   0.517  -1.359  1.00  0.00     0.169 HD
BRANCH  12  14
ATOM     14  C   UNL     1       1.795   1.292  -2.500  1.00  0.00     0.045 A 
ATOM     15  C   UNL     1       2.632   1.278  -3.627  1.00  0.00     0.028 A 
ATOM     16  C   UNL     1       0.558   1.957  -2.515  1.00  0.00     0.075 A 
ATOM     17  C   UNL     1       2.268   1.884  -4.823  1.00  0.00     0.034 A 
ATOM     18  C   UNL     1       0.246   2.593  -3.720  1.00  0.00     0.157 A 
ATOM     19  C   UNL     1       1.053   2.558  -4.849  1.00  0.00     0.110 A 
ATOM     20  O   UNL     1      -0.872   3.328  -4.047  1.00  0.00    -0.436 OA
ATOM     21  N   UNL     1       0.469   3.217  -5.880  1.00  0.00    -0.209 NA
ATOM     22  C   UNL     1      -0.668   3.643  -5.369  1.00  0.00     0.227 A 
BRANCH  22  23
ATOM     23  C   UNL     1      -1.745   4.254  -6.123  1.00  0.00     0.037 A 
ATOM     24  C   UNL     1      -2.196   5.553  -5.878  1.00  0.00     0.014 A 
ATOM     25  C   UNL     1      -2.218   3.561  -7.250  1.00  0.00     0.014 A 
ATOM     26  C   UNL     1      -3.087   6.157  -6.771  1.00  0.00     0.001 A 
ATOM     27  C   UNL     1      -3.113   4.160  -8.132  1.00  0.00     0.001 A 
ATOM     28  C   UNL     1      -3.538   5.464  -7.898  1.00  0.00     0.000 A 
ENDBRANCH  22  23
ENDBRANCH  12  14
ENDBRANCH   9  10
ENDBRANCH   8   9
ENDBRANCH   6   8
ENDBRANCH   5   6
ENDBRANCH   4   5
ENDBRANCH   3   4
ENDBRANCH   2   3
ENDBRANCH   1   2
BRANCH   1  29
ATOM     29  C   UNL     1       6.114   0.917   0.525  1.00  0.00     0.188 C 
BRANCH  29  30
ATOM     30  O   UNL     1       5.375   1.594  -0.487  1.00  0.00    -0.376 OA
BRANCH  30  31
ATOM     31  C   UNL     1       4.965   2.932  -0.157  1.00  0.00     0.202 C 
BRANCH  31  32
ATOM     32  C   UNL     1       6.087   3.917   0.251  1.00  0.00     0.261 C 
BRANCH  32  33
ATOM     33  O   UNL     1       6.798   3.578   1.464  1.00  0.00    -0.460 OA
BRANCH  33  34
ATOM     34  C   UNL     1       6.056   3.339   2.570  1.00  0.00     0.338 C 
ATOM     35  O   UNL     1       4.887   3.640   2.735  1.00  0.00    -0.246 OA
BRANCH  34  36
ATOM     36  C   UNL     1       6.795   2.387   3.445  1.00  0.00     0.060 A 
ATOM     37  C   UNL     1       6.059   1.359   4.052  1.00  0.00     0.016 A 
ATOM     38  C   UNL     1       8.182   2.439   3.616  1.00  0.00     0.016 A 
ATOM     39  C   UNL     1       6.694   0.421   4.869  1.00  0.00     0.010 A 
ATOM     40  C   UNL     1       8.818   1.503   4.445  1.00  0.00     0.010 A 
ATOM     41  C   UNL     1       8.071   0.512   5.108  1.00  0.00    -0.014 A 
BRANCH  41  42
ATOM     42  C   UNL     1       8.668  -0.290   6.208  1.00  0.00     0.031 A 
ATOM     43  C   UNL     1       8.833   0.359   7.557  1.00  0.00     0.074 A 
ATOM     44  C   UNL     1       9.000  -1.585   6.050  1.00  0.00     0.049 A 
ATOM     45  N   UNL     1       9.261  -0.151   8.684  1.00  0.00    -0.248 NA
ATOM     46  C   UNL     1       8.461   1.780   7.643  1.00  0.00     0.031 C 
ATOM     47  C   UNL     1       8.867  -2.350   4.814  1.00  0.00     0.029 A 
ATOM     48  N   UNL     1       9.513  -2.487   6.952  1.00  0.00    -0.354 N 
ATOM     49  C   UNL     1       9.210   0.884   9.609  1.00  0.00     0.074 A 
ATOM     50  C   UNL     1       8.748   2.059   8.904  1.00  0.00     0.031 C 
ATOM     51  C   UNL     1       9.277  -3.612   5.037  1.00  0.00     0.029 A 
ATOM     52  C   UNL     1       9.721  -3.738   6.425  1.00  0.00     0.049 A 
ATOM     53  H   UNL     1       9.713  -2.257   7.888  1.00  0.00     0.167 HD
ATOM     54  C   UNL     1       9.509   0.860  10.931  1.00  0.00     0.037 A 
ATOM     55  C   UNL     1      10.214  -4.854   6.999  1.00  0.00     0.037 A 
ATOM     56  C   UNL     1       9.972  -0.303  11.641  1.00  0.00     0.049 A 
ATOM     57  C   UNL     1      10.606  -4.837   8.457  1.00  0.00     0.074 A 
ATOM     58  C   UNL     1      10.267  -0.431  12.987  1.00  0.00     0.029 A 
ATOM     59  N   UNL     1      10.223  -1.536  11.059  1.00  0.00    -0.354 N 
ATOM     60  N   UNL     1      10.504  -3.869   9.336  1.00  0.00    -0.248 NA
ATOM     61  C   UNL     1      11.176  -6.079   9.001  1.00  0.00     0.031 C 
ATOM     62  C   UNL     1      10.755  -1.724  13.208  1.00  0.00     0.029 A 
ATOM     63  C   UNL     1      10.704  -2.421  12.013  1.00  0.00     0.049 A 
ATOM     64  H   UNL     1      10.082  -1.752  10.109  1.00  0.00     0.167 HD
ATOM     65  C   UNL     1      10.961  -4.395  10.540  1.00  0.00     0.074 A 
ATOM     66  C   UNL     1      11.326  -5.771  10.281  1.00  0.00     0.031 C 
ATOM     67  C   UNL     1      11.065  -3.792  11.751  1.00  0.00     0.037 A 
BRANCH  54  68
ATOM     68  C   UNL     1       9.376   2.150  11.687  1.00  0.00     0.064 A 
ATOM     69  C   UNL     1       8.125   2.726  11.957  1.00  0.00     0.173 A 
ATOM     70  C   UNL     1      10.519   2.816  12.152  1.00  0.00     0.173 A 
ATOM     71  F   UNL     1       7.001   2.139  11.517  1.00  0.00    -0.203 F 
ATOM     72  C   UNL     1       8.026   3.939  12.634  1.00  0.00     0.198 A 
ATOM     73  C   UNL     1      10.415   4.012  12.858  1.00  0.00     0.198 A 
ATOM     74  F   UNL     1      11.739   2.308  11.923  1.00  0.00    -0.203 F 
ATOM     75  F   UNL     1       6.825   4.502  12.826  1.00  0.00    -0.200 F 
ATOM     76  C   UNL     1       9.170   4.578  13.089  1.00  0.00     0.200 A 
ATOM     77  F   UNL     1      11.521   4.621  13.306  1.00  0.00    -0.200 F 
ATOM     78  F   UNL     1       9.074   5.745  13.740  1.00  0.00    -0.200 F 
ENDBRANCH  54  68
BRANCH  55  79
ATOM     79  C   UNL     1      10.354  -6.105   6.205  1.00  0.00     0.064 A 
ATOM     80  C   UNL     1       9.562  -7.228   6.483  1.00  0.00     0.173 A 
ATOM     81  C   UNL     1      11.308  -6.217   5.184  1.00  0.00     0.173 A 
ATOM     82  F   UNL     1       8.658  -7.182   7.473  1.00  0.00    -0.203 F 
ATOM     83  C   UNL     1       9.731  -8.421   5.782  1.00  0.00     0.198 A 
ATOM     84  C   UNL     1      11.457  -7.401   4.465  1.00  0.00     0.198 A 
ATOM     85  F   UNL     1      12.099  -5.176   4.886  1.00  0.00    -0.203 F 
ATOM     86  F   UNL     1       8.996  -9.495   6.104  1.00  0.00    -0.200 F 
ATOM     87  C   UNL     1      10.674  -8.505   4.769  1.00  0.00     0.200 A 
ATOM     88  F   UNL     1      12.366  -7.476   3.483  1.00  0.00    -0.200 F 
ATOM     89  F   UNL     1      10.838  -9.652   4.096  1.00  0.00    -0.200 F 
ENDBRANCH  55  79
BRANCH  67  90
ATOM     90  C   UNL     1      11.555  -4.629  12.901  1.00  0.00     0.064 A 
ATOM     91  C   UNL     1      12.880  -5.083  12.977  1.00  0.00     0.173 A 
ATOM     92  C   UNL     1      10.686  -4.973  13.949  1.00  0.00     0.173 A 
ATOM     93  F   UNL     1      13.751  -4.793  11.998  1.00  0.00    -0.203 F 
ATOM     94  C   UNL     1      13.305  -5.884  14.035  1.00  0.00     0.198 A 
ATOM     95  C   UNL     1      11.124  -5.744  15.023  1.00  0.00     0.198 A 
ATOM     96  F   UNL     1       9.411  -4.558  13.935  1.00  0.00    -0.203 F 
ATOM     97  F   UNL     1      14.558  -6.360  14.051  1.00  0.00    -0.200 F 
ATOM     98  C   UNL     1      12.429  -6.210  15.059  1.00  0.00     0.200 A 
ATOM     99  F   UNL     1      10.279  -6.044  16.020  1.00  0.00    -0.200 F 
ATOM    100  F   UNL     1      12.839  -6.982  16.074  1.00  0.00    -0.200 F 
ENDBRANCH  67  90
ENDBRANCH  41  42
ENDBRANCH  34  36
ENDBRANCH  33  34
ENDBRANCH  32  33
ENDBRANCH  31  32
ENDBRANCH  30  31
ENDBRANCH  29  30
ENDBRANCH   1  29
TORSDOF 21
