REMARK SMILES C[C@@H](C(=O)OCCOCCOCCOC(=O)c1ccc(-c2c3nc(c(-c4c(F)c(F)c(F)c(F)c4F)c4ccc([nH]4)c(-c4c(F)c(F)c(F)c(F)c4F)c4nc(c(-c5c(F)c(F)c(F)c(F)c5F)c5ccc2[nH]5)C=C4)C=C3)cc1)c1ccc(-c2cccc(OC(=O)NC3CC3)c2)c(F)c1
REMARK SMILES IDX 8 1 7 2 6 3 5 4 3 5 4 6 2 7 1 8 80 9 81 10 99 11 82 12 97 13
REMARK SMILES IDX 83 14 98 15 84 16 85 17 96 18 86 19 88 20 87 21 89 22 90 23
REMARK SMILES IDX 91 24 92 25 93 27 94 28 95 29 9 30 10 31 11 32 12 33 13 34
REMARK SMILES IDX 14 35 15 36 16 37 17 38 18 39 79 40 19 41 78 42 20 43 21 44
REMARK SMILES IDX 22 45 72 46 23 47 77 48 71 49 73 50 24 51 76 52 70 53 69 54
REMARK SMILES IDX 25 56 57 57 37 58 56 59 38 60 41 61 55 62 74 63 39 64 40 65
REMARK SMILES IDX 54 67 75 68 42 69 26 70 27 71 35 72 28 73 29 74 33 75 36 76
REMARK SMILES IDX 30 77 31 78 34 79 32 80 58 81 59 82 67 83 60 84 61 85 65 86
REMARK SMILES IDX 68 87 62 88 63 89 66 90 64 91 43 92 44 93 52 94 45 95 46 96
REMARK SMILES IDX 50 97 53 98 47 99 48 100 51 101 49 102
REMARK H PARENT 92 26 73 55 41 66
REMARK Flexibility Score: inf
ROOT
ATOM      1  O   UNL     1       1.004  -1.748   4.655  1.00  0.00    -0.376 OA
ENDROOT
BRANCH   1   2
ATOM      2  C   UNL     1       2.313  -2.223   4.329  1.00  0.00     0.202 C 
BRANCH   2   3
ATOM      3  C   UNL     1       2.524  -2.972   3.001  1.00  0.00     0.261 C 
BRANCH   3   4
ATOM      4  O   UNL     1       2.218  -2.176   1.835  1.00  0.00    -0.463 OA
BRANCH   4   5
ATOM      5  C   UNL     1       1.797  -2.869   0.745  1.00  0.00     0.313 C 
ATOM      6  O   UNL     1       1.789  -4.096   0.685  1.00  0.00    -0.252 OA
BRANCH   5   7
ATOM      7  C   UNL     1       1.202  -1.984  -0.372  1.00  0.00     0.126 C 
ATOM      8  C   UNL     1       1.948  -0.667  -0.586  1.00  0.00     0.025 C 
BRANCH   7   9
ATOM      9  C   UNL     1      -0.319  -1.907  -0.251  1.00  0.00    -0.031 A 
ATOM     10  C   UNL     1      -1.076  -0.727  -0.146  1.00  0.00     0.005 A 
ATOM     11  C   UNL     1      -1.009  -3.124  -0.215  1.00  0.00     0.044 A 
ATOM     12  C   UNL     1      -2.455  -0.776   0.139  1.00  0.00     0.012 A 
ATOM     13  C   UNL     1      -2.360  -3.167   0.067  1.00  0.00     0.131 A 
ATOM     14  C   UNL     1      -3.097  -2.007   0.326  1.00  0.00     0.018 A 
ATOM     15  F   UNL     1      -2.957  -4.369   0.089  1.00  0.00    -0.206 F 
BRANCH  14  16
ATOM     16  C   UNL     1      -4.504  -2.173   0.697  1.00  0.00    -0.012 A 
ATOM     17  C   UNL     1      -5.499  -1.634  -0.132  1.00  0.00     0.009 A 
ATOM     18  C   UNL     1      -4.856  -3.062   1.762  1.00  0.00     0.056 A 
ATOM     19  C   UNL     1      -6.782  -2.145  -0.060  1.00  0.00     0.004 A 
ATOM     20  C   UNL     1      -6.142  -3.560   1.841  1.00  0.00     0.133 A 
ATOM     21  C   UNL     1      -7.054  -3.173   0.850  1.00  0.00     0.047 A 
BRANCH  20  22
ATOM     22  O   UNL     1      -6.670  -4.331   2.982  1.00  0.00    -0.410 OA
BRANCH  22  23
ATOM     23  C   UNL     1      -6.188  -4.736   4.290  1.00  0.00     0.412 C 
ATOM     24  O   UNL     1      -4.984  -4.813   4.525  1.00  0.00    -0.224 OA
ATOM     25  N   UNL     1      -7.137  -5.244   5.216  1.00  0.00    -0.318 N 
ATOM     26  H   UNL     1      -7.252  -6.220   5.174  1.00  0.00     0.167 HD
BRANCH  25  27
ATOM     27  C   UNL     1      -7.999  -4.573   6.250  1.00  0.00     0.085 C 
ATOM     28  C   UNL     1      -9.435  -4.019   6.326  1.00  0.00     0.027 C 
ATOM     29  C   UNL     1      -9.212  -5.439   6.648  1.00  0.00     0.027 C 
ENDBRANCH  25  27
ENDBRANCH  22  23
ENDBRANCH  20  22
ENDBRANCH  14  16
ENDBRANCH   7   9
ENDBRANCH   5   7
ENDBRANCH   4   5
ENDBRANCH   3   4
ENDBRANCH   2   3
ENDBRANCH   1   2
BRANCH   1  30
ATOM     30  C   UNL     1       0.241  -1.147   3.618  1.00  0.00     0.188 C 
BRANCH  30  31
ATOM     31  C   UNL     1       0.837   0.076   2.907  1.00  0.00     0.188 C 
BRANCH  31  32
ATOM     32  O   UNL     1       2.212   0.286   3.102  1.00  0.00    -0.376 OA
BRANCH  32  33
ATOM     33  C   UNL     1       2.668   1.310   3.969  1.00  0.00     0.202 C 
BRANCH  33  34
ATOM     34  C   UNL     1       1.856   1.903   5.142  1.00  0.00     0.261 C 
BRANCH  34  35
ATOM     35  O   UNL     1       0.424   1.792   5.122  1.00  0.00    -0.460 OA
BRANCH  35  36
ATOM     36  C   UNL     1      -0.254   2.760   4.455  1.00  0.00     0.338 C 
ATOM     37  O   UNL     1       0.222   3.703   3.855  1.00  0.00    -0.246 OA
BRANCH  36  38
ATOM     38  C   UNL     1      -1.691   2.377   4.388  1.00  0.00     0.060 A 
ATOM     39  C   UNL     1      -2.248   2.049   3.145  1.00  0.00     0.016 A 
ATOM     40  C   UNL     1      -2.503   2.399   5.523  1.00  0.00     0.016 A 
ATOM     41  C   UNL     1      -3.616   1.763   3.033  1.00  0.00     0.010 A 
ATOM     42  C   UNL     1      -3.883   2.143   5.401  1.00  0.00     0.010 A 
ATOM     43  C   UNL     1      -4.461   1.849   4.151  1.00  0.00    -0.014 A 
BRANCH  43  44
ATOM     44  C   UNL     1      -5.948   1.848   3.945  1.00  0.00     0.031 A 
ATOM     45  C   UNL     1      -6.667   3.152   3.893  1.00  0.00     0.074 A 
ATOM     46  C   UNL     1      -6.694   0.736   3.793  1.00  0.00     0.049 A 
ATOM     47  N   UNL     1      -7.957   3.360   3.858  1.00  0.00    -0.248 NA
ATOM     48  C   UNL     1      -5.849   4.370   3.949  1.00  0.00     0.031 C 
ATOM     49  C   UNL     1      -6.166  -0.587   4.005  1.00  0.00     0.029 A 
ATOM     50  N   UNL     1      -8.034   0.521   3.477  1.00  0.00    -0.354 N 
ATOM     51  C   UNL     1      -8.114   4.727   3.934  1.00  0.00     0.074 A 
ATOM     52  C   UNL     1      -6.786   5.304   4.016  1.00  0.00     0.031 C 
ATOM     53  C   UNL     1      -7.156  -1.457   3.765  1.00  0.00     0.029 A 
ATOM     54  C   UNL     1      -8.370  -0.816   3.288  1.00  0.00     0.049 A 
ATOM     55  H   UNL     1      -8.687   1.252   3.395  1.00  0.00     0.167 HD
ATOM     56  C   UNL     1      -9.270   5.426   3.953  1.00  0.00     0.037 A 
ATOM     57  C   UNL     1      -9.508  -1.407   2.801  1.00  0.00     0.037 A 
ATOM     58  C   UNL     1     -10.588   4.848   3.898  1.00  0.00     0.049 A 
ATOM     59  C   UNL     1     -10.747  -0.602   3.022  1.00  0.00     0.074 A 
ATOM     60  C   UNL     1     -11.810   5.500   3.882  1.00  0.00     0.029 A 
ATOM     61  N   UNL     1     -10.864   3.490   3.864  1.00  0.00    -0.354 N 
ATOM     62  N   UNL     1     -10.885   0.677   3.223  1.00  0.00    -0.248 NA
ATOM     63  C   UNL     1     -11.996  -1.377   3.121  1.00  0.00     0.031 C 
ATOM     64  C   UNL     1     -12.826   4.540   3.881  1.00  0.00     0.029 A 
ATOM     65  C   UNL     1     -12.238   3.292   3.824  1.00  0.00     0.049 A 
ATOM     66  H   UNL     1     -10.188   2.774   3.868  1.00  0.00     0.167 HD
ATOM     67  C   UNL     1     -12.232   0.863   3.455  1.00  0.00     0.074 A 
ATOM     68  C   UNL     1     -12.880  -0.424   3.344  1.00  0.00     0.031 C 
ATOM     69  C   UNL     1     -12.876   2.013   3.738  1.00  0.00     0.037 A 
BRANCH  56  70
ATOM     70  C   UNL     1      -9.151   6.909   4.073  1.00  0.00     0.064 A 
ATOM     71  C   UNL     1      -8.663   7.691   3.017  1.00  0.00     0.173 A 
ATOM     72  C   UNL     1      -9.556   7.554   5.249  1.00  0.00     0.173 A 
ATOM     73  F   UNL     1      -8.242   7.110   1.883  1.00  0.00    -0.203 F 
ATOM     74  C   UNL     1      -8.565   9.071   3.145  1.00  0.00     0.198 A 
ATOM     75  C   UNL     1      -9.488   8.937   5.360  1.00  0.00     0.198 A 
ATOM     76  F   UNL     1     -10.023   6.842   6.286  1.00  0.00    -0.203 F 
ATOM     77  F   UNL     1      -8.049   9.798   2.144  1.00  0.00    -0.200 F 
ATOM     78  C   UNL     1      -8.987   9.693   4.311  1.00  0.00     0.200 A 
ATOM     79  F   UNL     1      -9.906   9.538   6.482  1.00  0.00    -0.200 F 
ATOM     80  F   UNL     1      -8.903  11.025   4.427  1.00  0.00    -0.200 F 
ENDBRANCH  56  70
BRANCH  57  81
ATOM     81  C   UNL     1      -9.763  -2.832   2.317  1.00  0.00     0.064 A 
ATOM     82  C   UNL     1     -10.469  -3.201   1.157  1.00  0.00     0.173 A 
ATOM     83  C   UNL     1      -9.367  -3.906   3.083  1.00  0.00     0.173 A 
ATOM     84  F   UNL     1     -10.957  -2.254   0.346  1.00  0.00    -0.203 F 
ATOM     85  C   UNL     1     -10.684  -4.555   0.806  1.00  0.00     0.198 A 
ATOM     86  C   UNL     1      -9.550  -5.255   2.759  1.00  0.00     0.198 A 
ATOM     87  F   UNL     1      -8.694  -3.584   4.163  1.00  0.00    -0.203 F 
ATOM     88  F   UNL     1     -11.347  -4.860  -0.317  1.00  0.00    -0.200 F 
ATOM     89  C   UNL     1     -10.205  -5.582   1.601  1.00  0.00     0.200 A 
ATOM     90  F   UNL     1      -9.058  -6.226   3.541  1.00  0.00    -0.200 F 
ATOM     91  F   UNL     1     -10.358  -6.867   1.255  1.00  0.00    -0.200 F 
ENDBRANCH  57  81
BRANCH  69  92
ATOM     92  C   UNL     1     -14.363   1.905   3.796  1.00  0.00     0.064 A 
ATOM     93  C   UNL     1     -15.030   1.308   4.875  1.00  0.00     0.173 A 
ATOM     94  C   UNL     1     -15.112   2.276   2.671  1.00  0.00     0.173 A 
ATOM     95  F   UNL     1     -14.339   0.866   5.938  1.00  0.00    -0.203 F 
ATOM     96  C   UNL     1     -16.397   1.059   4.809  1.00  0.00     0.198 A 
ATOM     97  C   UNL     1     -16.480   2.051   2.621  1.00  0.00     0.198 A 
ATOM     98  F   UNL     1     -14.502   2.809   1.601  1.00  0.00    -0.203 F 
ATOM     99  F   UNL     1     -17.006   0.405   5.809  1.00  0.00    -0.200 F 
ATOM    100  C   UNL     1     -17.120   1.433   3.685  1.00  0.00     0.200 A 
ATOM    101  F   UNL     1     -17.172   2.396   1.527  1.00  0.00    -0.200 F 
ATOM    102  F   UNL     1     -18.432   1.169   3.612  1.00  0.00    -0.200 F 
ENDBRANCH  69  92
ENDBRANCH  43  44
ENDBRANCH  36  38
ENDBRANCH  35  36
ENDBRANCH  34  35
ENDBRANCH  33  34
ENDBRANCH  32  33
ENDBRANCH  31  32
ENDBRANCH  30  31
ENDBRANCH   1  30
TORSDOF 22
