REMARK SMILES C[C@H](CC(=O)NC[C@@]1(C)CCCO1)CC(=O)OCCOCCOCCOC(=O)c1ccc(-c2c3nc(c(-c4c(F)c(F)c(F)c(F)c4F)c4ccc([nH]4)c(-c4c(F)c(F)c(F)c(F)c4F)c4nc(c(-c5c(F)c(F)c(F)c(F)c5F)c5ccc2[nH]5)C=C4)C=C3)cc1
REMARK SMILES IDX 20 1 19 2 18 3 17 4 15 5 16 6 14 7 2 8 1 9 3 10 4 11 5 12
REMARK SMILES IDX 6 13 7 15 8 16 9 17 10 18 13 19 11 20 12 21 21 22 22 23
REMARK SMILES IDX 23 24 24 25 25 26 26 27 27 28 28 29 29 30 30 31 91 32 31 33
REMARK SMILES IDX 90 34 32 35 33 36 34 37 84 38 35 39 89 40 83 41 85 42 36 43
REMARK SMILES IDX 88 44 82 45 81 46 37 48 69 49 49 50 68 51 50 52 53 53 67 54
REMARK SMILES IDX 86 55 51 56 52 57 66 59 87 60 54 61 38 62 39 63 47 64 40 65
REMARK SMILES IDX 41 66 45 67 48 68 42 69 43 70 46 71 44 72 70 73 71 74 79 75
REMARK SMILES IDX 72 76 73 77 77 78 80 79 74 80 75 81 78 82 76 83 55 84 56 85
REMARK SMILES IDX 64 86 57 87 58 88 62 89 65 90 59 91 60 92 63 93 61 94
REMARK H PARENT 6 14 85 47 53 58
REMARK Flexibility Score: inf
ROOT
ATOM      1  O   UNL     1      -2.970   3.792   1.852  1.00  0.00    -0.376 OA
ENDROOT
BRANCH   1   2
ATOM      2  C   UNL     1      -2.591   2.744   2.752  1.00  0.00     0.202 C 
BRANCH   2   3
ATOM      3  C   UNL     1      -2.587   1.319   2.175  1.00  0.00     0.261 C 
BRANCH   3   4
ATOM      4  O   UNL     1      -1.598   1.161   1.137  1.00  0.00    -0.463 OA
BRANCH   4   5
ATOM      5  C   UNL     1      -2.017   0.523   0.013  1.00  0.00     0.306 C 
ATOM      6  O   UNL     1      -3.084  -0.068  -0.101  1.00  0.00    -0.252 OA
BRANCH   5   7
ATOM      7  C   UNL     1      -1.072   0.746  -1.151  1.00  0.00     0.126 C 
BRANCH   7   8
ATOM      8  C   UNL     1       0.430   0.536  -0.924  1.00  0.00     0.006 C 
ATOM      9  C   UNL     1       1.175   0.545  -2.272  1.00  0.00     0.009 C 
BRANCH   8  10
ATOM     10  C   UNL     1       0.802  -0.638   0.000  1.00  0.00     0.104 C 
BRANCH  10  11
ATOM     11  C   UNL     1       1.272  -1.944  -0.609  1.00  0.00     0.220 C 
ATOM     12  O   UNL     1       2.460  -2.270  -0.546  1.00  0.00    -0.275 OA
ATOM     13  N   UNL     1       0.419  -2.813  -1.200  1.00  0.00    -0.353 N 
ATOM     14  H   UNL     1       0.852  -3.633  -1.530  1.00  0.00     0.163 HD
BRANCH  13  15
ATOM     15  C   UNL     1      -1.017  -2.769  -1.442  1.00  0.00     0.151 C 
BRANCH  15  16
ATOM     16  C   UNL     1      -1.430  -2.801  -2.947  1.00  0.00     0.083 C 
ATOM     17  C   UNL     1      -0.243  -3.013  -3.898  1.00  0.00     0.044 C 
ATOM     18  C   UNL     1      -2.539  -3.830  -3.190  1.00  0.00     0.039 C 
ATOM     19  O   UNL     1      -2.018  -1.538  -3.336  1.00  0.00    -0.373 OA
ATOM     20  C   UNL     1      -3.300  -3.249  -4.357  1.00  0.00     0.031 C 
ATOM     21  C   UNL     1      -3.229  -1.768  -4.070  1.00  0.00     0.161 C 
ENDBRANCH  15  16
ENDBRANCH  13  15
ENDBRANCH  10  11
ENDBRANCH   8  10
ENDBRANCH   7   8
ENDBRANCH   5   7
ENDBRANCH   4   5
ENDBRANCH   3   4
ENDBRANCH   2   3
ENDBRANCH   1   2
BRANCH   1  22
ATOM     22  C   UNL     1      -2.219   3.901   0.650  1.00  0.00     0.188 C 
BRANCH  22  23
ATOM     23  C   UNL     1      -0.726   4.229   0.790  1.00  0.00     0.188 C 
BRANCH  23  24
ATOM     24  O   UNL     1      -0.040   3.531   1.822  1.00  0.00    -0.376 OA
BRANCH  24  25
ATOM     25  C   UNL     1       1.382   3.704   1.860  1.00  0.00     0.202 C 
BRANCH  25  26
ATOM     26  C   UNL     1       1.867   5.162   1.963  1.00  0.00     0.261 C 
BRANCH  26  27
ATOM     27  O   UNL     1       1.558   5.960   0.801  1.00  0.00    -0.460 OA
BRANCH  27  28
ATOM     28  C   UNL     1       2.022   5.520  -0.392  1.00  0.00     0.338 C 
ATOM     29  O   UNL     1       2.879   4.673  -0.573  1.00  0.00    -0.246 OA
BRANCH  28  30
ATOM     30  C   UNL     1       1.121   6.040  -1.454  1.00  0.00     0.060 A 
ATOM     31  C   UNL     1       0.803   5.196  -2.528  1.00  0.00     0.016 A 
ATOM     32  C   UNL     1       0.515   7.297  -1.353  1.00  0.00     0.016 A 
ATOM     33  C   UNL     1      -0.101   5.614  -3.509  1.00  0.00     0.010 A 
ATOM     34  C   UNL     1      -0.382   7.717  -2.338  1.00  0.00     0.010 A 
ATOM     35  C   UNL     1      -0.680   6.888  -3.433  1.00  0.00    -0.014 A 
BRANCH  35  36
ATOM     36  C   UNL     1      -1.473   7.430  -4.564  1.00  0.00     0.031 A 
ATOM     37  C   UNL     1      -0.781   8.314  -5.563  1.00  0.00     0.074 A 
ATOM     38  C   UNL     1      -2.786   7.170  -4.698  1.00  0.00     0.049 A 
ATOM     39  N   UNL     1      -1.281   8.982  -6.571  1.00  0.00    -0.248 NA
ATOM     40  C   UNL     1       0.673   8.466  -5.400  1.00  0.00     0.031 C 
ATOM     41  C   UNL     1      -3.571   6.301  -3.827  1.00  0.00     0.029 A 
ATOM     42  N   UNL     1      -3.694   7.637  -5.618  1.00  0.00    -0.354 N 
ATOM     43  C   UNL     1      -0.207   9.636  -7.158  1.00  0.00     0.074 A 
ATOM     44  C   UNL     1       0.969   9.304  -6.382  1.00  0.00     0.031 C 
ATOM     45  C   UNL     1      -4.851   6.312  -4.242  1.00  0.00     0.029 A 
ATOM     46  C   UNL     1      -4.981   7.218  -5.383  1.00  0.00     0.049 A 
ATOM     47  H   UNL     1      -3.446   8.216  -6.375  1.00  0.00     0.167 HD
ATOM     48  C   UNL     1      -0.199  10.437  -8.249  1.00  0.00     0.037 A 
ATOM     49  C   UNL     1      -6.133   7.556  -5.997  1.00  0.00     0.037 A 
ATOM     50  C   UNL     1      -1.362  10.774  -9.023  1.00  0.00     0.049 A 
ATOM     51  C   UNL     1      -6.111   8.532  -7.149  1.00  0.00     0.074 A 
ATOM     52  C   UNL     1      -1.441  11.550 -10.165  1.00  0.00     0.029 A 
ATOM     53  N   UNL     1      -2.653  10.368  -8.725  1.00  0.00    -0.354 N 
ATOM     54  N   UNL     1      -5.088   9.117  -7.721  1.00  0.00    -0.248 NA
ATOM     55  C   UNL     1      -7.411   8.901  -7.733  1.00  0.00     0.031 C 
ATOM     56  C   UNL     1      -2.787  11.661 -10.527  1.00  0.00     0.029 A 
ATOM     57  C   UNL     1      -3.541  10.911  -9.639  1.00  0.00     0.049 A 
ATOM     58  H   UNL     1      -2.902   9.780  -7.975  1.00  0.00     0.167 HD
ATOM     59  C   UNL     1      -5.615   9.903  -8.740  1.00  0.00     0.074 A 
ATOM     60  C   UNL     1      -7.049   9.710  -8.719  1.00  0.00     0.031 C 
ATOM     61  C   UNL     1      -4.967  10.713  -9.613  1.00  0.00     0.037 A 
BRANCH  48  62
ATOM     62  C   UNL     1       1.115  11.032  -8.657  1.00  0.00     0.064 A 
ATOM     63  C   UNL     1       2.118  10.258  -9.257  1.00  0.00     0.173 A 
ATOM     64  C   UNL     1       1.354  12.402  -8.481  1.00  0.00     0.173 A 
ATOM     65  F   UNL     1       1.941   8.940  -9.431  1.00  0.00    -0.203 F 
ATOM     66  C   UNL     1       3.324  10.833  -9.648  1.00  0.00     0.198 A 
ATOM     67  C   UNL     1       2.550  12.979  -8.898  1.00  0.00     0.198 A 
ATOM     68  F   UNL     1       0.423  13.184  -7.913  1.00  0.00    -0.203 F 
ATOM     69  F   UNL     1       4.286  10.068 -10.184  1.00  0.00    -0.200 F 
ATOM     70  C   UNL     1       3.536  12.193  -9.476  1.00  0.00     0.200 A 
ATOM     71  F   UNL     1       2.749  14.294  -8.739  1.00  0.00    -0.200 F 
ATOM     72  F   UNL     1       4.694  12.746  -9.861  1.00  0.00    -0.200 F 
ENDBRANCH  48  62
BRANCH  49  73
ATOM     73  C   UNL     1      -7.426   7.002  -5.514  1.00  0.00     0.064 A 
ATOM     74  C   UNL     1      -8.173   6.114  -6.301  1.00  0.00     0.173 A 
ATOM     75  C   UNL     1      -7.962   7.386  -4.276  1.00  0.00     0.173 A 
ATOM     76  F   UNL     1      -7.719   5.746  -7.508  1.00  0.00    -0.203 F 
ATOM     77  C   UNL     1      -9.414   5.645  -5.875  1.00  0.00     0.198 A 
ATOM     78  C   UNL     1      -9.191   6.895  -3.840  1.00  0.00     0.198 A 
ATOM     79  F   UNL     1      -7.294   8.243  -3.491  1.00  0.00    -0.203 F 
ATOM     80  F   UNL     1     -10.132   4.840  -6.670  1.00  0.00    -0.200 F 
ATOM     81  C   UNL     1      -9.920   6.031  -4.643  1.00  0.00     0.200 A 
ATOM     82  F   UNL     1      -9.673   7.267  -2.646  1.00  0.00    -0.200 F 
ATOM     83  F   UNL     1     -11.115   5.583  -4.237  1.00  0.00    -0.200 F 
ENDBRANCH  49  73
BRANCH  61  84
ATOM     84  C   UNL     1      -5.791  11.444 -10.634  1.00  0.00     0.064 A 
ATOM     85  C   UNL     1      -6.596  12.537 -10.281  1.00  0.00     0.173 A 
ATOM     86  C   UNL     1      -5.723  11.090 -11.990  1.00  0.00     0.173 A 
ATOM     87  F   UNL     1      -6.706  12.906  -8.996  1.00  0.00    -0.203 F 
ATOM     88  C   UNL     1      -7.312  13.240 -11.246  1.00  0.00     0.198 A 
ATOM     89  C   UNL     1      -6.419  11.812 -12.956  1.00  0.00     0.198 A 
ATOM     90  F   UNL     1      -4.962  10.057 -12.382  1.00  0.00    -0.203 F 
ATOM     91  F   UNL     1      -8.101  14.261 -10.882  1.00  0.00    -0.200 F 
ATOM     92  C   UNL     1      -7.216  12.883 -12.583  1.00  0.00     0.200 A 
ATOM     93  F   UNL     1      -6.313  11.475 -14.249  1.00  0.00    -0.200 F 
ATOM     94  F   UNL     1      -7.894  13.571 -13.512  1.00  0.00    -0.200 F 
ENDBRANCH  61  84
ENDBRANCH  35  36
ENDBRANCH  28  30
ENDBRANCH  27  28
ENDBRANCH  26  27
ENDBRANCH  25  26
ENDBRANCH  24  25
ENDBRANCH  23  24
ENDBRANCH  22  23
ENDBRANCH   1  22
TORSDOF 22
