REMARK SMILES Cc1ccc(C(=O)N2C[C@@H](C(=O)OCCOCCOCCOC(=O)c3ccc(-c4c5nc(c(-c6c(F)c(F)c(F)c(F)c6F)c6ccc([nH]6)c(-c6c(F)c(F)c(F)c(F)c6F)c6nc(c(-c7c(F)c(F)c(F)c(F)c7F)c7ccc4[nH]7)C=C6)C=C5)cc3)C[C@H](C(=O)N3CCOCC3)C2)cc1F
REMARK SMILES IDX 17 1 16 2 15 3 14 4 13 5 11 6 12 7 10 8 8 9 9 10 98 11 89 12
REMARK SMILES IDX 88 13 6 14 7 15 5 16 1 17 2 18 3 19 100 20 4 21 99 22 101 23
REMARK SMILES IDX 90 24 91 25 92 26 93 27 97 28 94 29 96 30 95 31 18 32 19 33
REMARK SMILES IDX 20 34 21 35 22 36 23 37 24 38 25 39 26 40 87 41 27 42 86 43
REMARK SMILES IDX 28 44 29 45 30 46 80 47 31 48 85 49 79 50 81 51 32 52 84 53
REMARK SMILES IDX 78 54 77 55 33 57 65 58 45 59 64 60 46 61 49 62 63 63 82 64
REMARK SMILES IDX 47 65 48 66 62 68 83 69 50 70 34 71 35 72 43 73 36 74 37 75
REMARK SMILES IDX 41 76 44 77 38 78 39 79 42 80 40 81 66 82 67 83 75 84 68 85
REMARK SMILES IDX 69 86 73 87 76 88 70 89 71 90 74 91 72 92 51 93 52 94 60 95
REMARK SMILES IDX 53 96 54 97 58 98 61 99 55 100 56 101 59 102 57 103
REMARK H PARENT 81 56 49 67
REMARK Flexibility Score: inf
ROOT
ATOM      1  C   UNL     1      -9.253  -3.349   1.815  1.00  0.00     0.188 C 
ENDROOT
BRANCH   1   2
ATOM      2  O   UNL     1      -9.528  -3.352   3.214  1.00  0.00    -0.376 OA
BRANCH   2   3
ATOM      3  C   UNL     1      -9.928  -2.108   3.788  1.00  0.00     0.202 C 
BRANCH   3   4
ATOM      4  C   UNL     1      -8.858  -1.000   3.866  1.00  0.00     0.261 C 
BRANCH   4   5
ATOM      5  O   UNL     1      -8.054  -0.831   2.676  1.00  0.00    -0.463 OA
BRANCH   5   6
ATOM      6  C   UNL     1      -6.856  -1.455   2.709  1.00  0.00     0.310 C 
ATOM      7  O   UNL     1      -6.397  -2.013   3.701  1.00  0.00    -0.252 OA
BRANCH   6   8
ATOM      8  C   UNL     1      -6.093  -1.439   1.398  1.00  0.00     0.119 C 
ATOM      9  N   UNL     1      -4.002  -0.630   0.500  1.00  0.00    -0.337 N 
ATOM     10  C   UNL     1      -4.938  -0.493   1.593  1.00  0.00     0.135 C 
ATOM     11  C   UNL     1      -4.496  -0.350  -0.845  1.00  0.00     0.133 C 
ATOM     12  C   UNL     1      -5.820  -1.089  -1.156  1.00  0.00     0.099 C 
ATOM     13  C   UNL     1      -6.789  -1.165   0.051  1.00  0.00     0.032 C 
BRANCH   9  14
ATOM     14  C   UNL     1      -2.749  -1.141   0.783  1.00  0.00     0.254 C 
ATOM     15  O   UNL     1      -2.565  -2.049   1.588  1.00  0.00    -0.269 OA
BRANCH  14  16
ATOM     16  C   UNL     1      -1.578  -0.405   0.258  1.00  0.00     0.042 A 
ATOM     17  C   UNL     1       2.019   1.869  -0.271  1.00  0.00     0.047 C 
ATOM     18  C   UNL     1       0.750   1.081  -0.172  1.00  0.00    -0.015 A 
ATOM     19  C   UNL     1      -0.487   1.728  -0.103  1.00  0.00     0.007 A 
ATOM     20  C   UNL     1       0.795  -0.314  -0.069  1.00  0.00     0.126 A 
ATOM     21  C   UNL     1      -1.647   0.989   0.115  1.00  0.00     0.014 A 
ATOM     22  C   UNL     1      -0.354  -1.063   0.150  1.00  0.00     0.053 A 
ATOM     23  F   UNL     1       1.977  -0.945  -0.127  1.00  0.00    -0.207 F 
ENDBRANCH  14  16
ENDBRANCH   9  14
BRANCH  12  24
ATOM     24  C   UNL     1      -5.472  -2.328  -2.011  1.00  0.00     0.227 C 
ATOM     25  O   UNL     1      -5.372  -2.176  -3.235  1.00  0.00    -0.275 OA
ATOM     26  N   UNL     1      -4.999  -3.476  -1.423  1.00  0.00    -0.338 N 
ATOM     27  C   UNL     1      -5.709  -4.307  -0.455  1.00  0.00     0.148 C 
ATOM     28  C   UNL     1      -3.879  -4.188  -2.046  1.00  0.00     0.148 C 
ATOM     29  C   UNL     1      -4.730  -4.846   0.597  1.00  0.00     0.181 C 
ATOM     30  C   UNL     1      -2.943  -4.711  -0.949  1.00  0.00     0.181 C 
ATOM     31  O   UNL     1      -3.657  -5.566  -0.037  1.00  0.00    -0.378 OA
ENDBRANCH  12  24
ENDBRANCH   6   8
ENDBRANCH   5   6
ENDBRANCH   4   5
ENDBRANCH   3   4
ENDBRANCH   2   3
ENDBRANCH   1   2
BRANCH   1  32
ATOM     32  C   UNL     1     -10.207  -2.519   0.950  1.00  0.00     0.188 C 
BRANCH  32  33
ATOM     33  O   UNL     1     -10.274  -1.143   1.299  1.00  0.00    -0.376 OA
BRANCH  33  34
ATOM     34  C   UNL     1     -11.269  -0.293   0.730  1.00  0.00     0.202 C 
BRANCH  34  35
ATOM     35  C   UNL     1     -12.725  -0.782   0.594  1.00  0.00     0.261 C 
BRANCH  35  36
ATOM     36  O   UNL     1     -12.862  -2.086   0.042  1.00  0.00    -0.460 OA
BRANCH  36  37
ATOM     37  C   UNL     1     -12.262  -2.252  -1.144  1.00  0.00     0.338 C 
ATOM     38  O   UNL     1     -11.854  -1.377  -1.909  1.00  0.00    -0.246 OA
BRANCH  37  39
ATOM     39  C   UNL     1     -12.005  -3.674  -1.348  1.00  0.00     0.060 A 
ATOM     40  C   UNL     1     -10.908  -4.025  -2.154  1.00  0.00     0.016 A 
ATOM     41  C   UNL     1     -12.935  -4.609  -0.897  1.00  0.00     0.016 A 
ATOM     42  C   UNL     1     -10.925  -5.235  -2.800  1.00  0.00     0.010 A 
ATOM     43  C   UNL     1     -12.965  -5.806  -1.552  1.00  0.00     0.010 A 
ATOM     44  C   UNL     1     -12.059  -6.005  -2.608  1.00  0.00    -0.014 A 
BRANCH  44  45
ATOM     45  C   UNL     1     -12.617  -6.786  -3.687  1.00  0.00     0.031 A 
ATOM     46  C   UNL     1     -12.547  -8.238  -3.613  1.00  0.00     0.074 A 
ATOM     47  C   UNL     1     -13.450  -6.106  -4.507  1.00  0.00     0.049 A 
ATOM     48  N   UNL     1     -12.980  -9.015  -4.535  1.00  0.00    -0.248 NA
ATOM     49  C   UNL     1     -11.945  -8.935  -2.484  1.00  0.00     0.031 C 
ATOM     50  C   UNL     1     -14.584  -6.611  -5.268  1.00  0.00     0.029 A 
ATOM     51  N   UNL     1     -13.339  -4.760  -4.909  1.00  0.00    -0.354 N 
ATOM     52  C   UNL     1     -12.997 -10.284  -4.016  1.00  0.00     0.074 A 
ATOM     53  C   UNL     1     -12.266 -10.199  -2.773  1.00  0.00     0.031 C 
ATOM     54  C   UNL     1     -14.899  -5.717  -6.221  1.00  0.00     0.029 A 
ATOM     55  C   UNL     1     -13.844  -4.718  -6.231  1.00  0.00     0.049 A 
ATOM     56  H   UNL     1     -12.985  -4.007  -4.382  1.00  0.00     0.167 HD
ATOM     57  C   UNL     1     -13.755 -11.216  -4.656  1.00  0.00     0.037 A 
ATOM     58  C   UNL     1     -12.990  -4.503  -7.280  1.00  0.00     0.037 A 
ATOM     59  C   UNL     1     -14.341 -10.657  -5.874  1.00  0.00     0.049 A 
ATOM     60  C   UNL     1     -12.878  -5.677  -8.237  1.00  0.00     0.074 A 
ATOM     61  C   UNL     1     -15.551 -10.058  -6.183  1.00  0.00     0.029 A 
ATOM     62  N   UNL     1     -13.483 -10.329  -6.902  1.00  0.00    -0.354 N 
ATOM     63  N   UNL     1     -13.361  -6.865  -7.997  1.00  0.00    -0.248 NA
ATOM     64  C   UNL     1     -12.134  -5.627  -9.495  1.00  0.00     0.031 C 
ATOM     65  C   UNL     1     -15.391  -9.351  -7.414  1.00  0.00     0.029 A 
ATOM     66  C   UNL     1     -14.090  -9.534  -7.849  1.00  0.00     0.049 A 
ATOM     67  H   UNL     1     -12.547 -10.628  -6.954  1.00  0.00     0.167 HD
ATOM     68  C   UNL     1     -12.980  -7.725  -8.988  1.00  0.00     0.074 A 
ATOM     69  C   UNL     1     -12.209  -6.906  -9.905  1.00  0.00     0.031 C 
ATOM     70  C   UNL     1     -13.288  -9.053  -8.962  1.00  0.00     0.037 A 
BRANCH  57  71
ATOM     71  C   UNL     1     -14.131 -12.555  -4.091  1.00  0.00     0.064 A 
ATOM     72  C   UNL     1     -15.326 -13.181  -4.505  1.00  0.00     0.173 A 
ATOM     73  C   UNL     1     -13.382 -13.271  -3.140  1.00  0.00     0.173 A 
ATOM     74  F   UNL     1     -16.108 -12.641  -5.450  1.00  0.00    -0.203 F 
ATOM     75  C   UNL     1     -15.767 -14.386  -3.959  1.00  0.00     0.198 A 
ATOM     76  C   UNL     1     -13.850 -14.450  -2.553  1.00  0.00     0.198 A 
ATOM     77  F   UNL     1     -12.148 -12.891  -2.787  1.00  0.00    -0.203 F 
ATOM     78  F   UNL     1     -16.906 -14.936  -4.403  1.00  0.00    -0.200 F 
ATOM     79  C   UNL     1     -15.043 -15.007  -2.963  1.00  0.00     0.200 A 
ATOM     80  F   UNL     1     -13.128 -15.047  -1.595  1.00  0.00    -0.200 F 
ATOM     81  F   UNL     1     -15.481 -16.150  -2.420  1.00  0.00    -0.200 F 
ENDBRANCH  57  71
BRANCH  58  82
ATOM     82  C   UNL     1     -11.851  -3.612  -6.908  1.00  0.00     0.064 A 
ATOM     83  C   UNL     1     -12.132  -2.295  -6.491  1.00  0.00     0.173 A 
ATOM     84  C   UNL     1     -10.606  -4.150  -6.557  1.00  0.00     0.173 A 
ATOM     85  F   UNL     1     -13.309  -1.729  -6.807  1.00  0.00    -0.203 F 
ATOM     86  C   UNL     1     -11.268  -1.605  -5.642  1.00  0.00     0.198 A 
ATOM     87  C   UNL     1      -9.741  -3.452  -5.714  1.00  0.00     0.198 A 
ATOM     88  F   UNL     1     -10.277  -5.396  -6.925  1.00  0.00    -0.203 F 
ATOM     89  F   UNL     1     -11.618  -0.402  -5.166  1.00  0.00    -0.200 F 
ATOM     90  C   UNL     1     -10.089  -2.200  -5.227  1.00  0.00     0.200 A 
ATOM     91  F   UNL     1      -8.617  -4.042  -5.284  1.00  0.00    -0.200 F 
ATOM     92  F   UNL     1      -9.313  -1.596  -4.314  1.00  0.00    -0.200 F 
ENDBRANCH  58  82
BRANCH  70  93
ATOM     93  C   UNL     1     -12.826 -10.028 -10.003  1.00  0.00     0.064 A 
ATOM     94  C   UNL     1     -12.988  -9.787 -11.373  1.00  0.00     0.173 A 
ATOM     95  C   UNL     1     -12.311 -11.294  -9.646  1.00  0.00     0.173 A 
ATOM     96  F   UNL     1     -13.514  -8.632 -11.806  1.00  0.00    -0.203 F 
ATOM     97  C   UNL     1     -12.624 -10.739 -12.326  1.00  0.00     0.198 A 
ATOM     98  C   UNL     1     -12.012 -12.266 -10.595  1.00  0.00     0.198 A 
ATOM     99  F   UNL     1     -12.052 -11.614  -8.370  1.00  0.00    -0.203 F 
ATOM    100  F   UNL     1     -12.736 -10.450 -13.629  1.00  0.00    -0.200 F 
ATOM    101  C   UNL     1     -12.153 -11.983 -11.937  1.00  0.00     0.200 A 
ATOM    102  F   UNL     1     -11.580 -13.471 -10.197  1.00  0.00    -0.200 F 
ATOM    103  F   UNL     1     -11.826 -12.903 -12.854  1.00  0.00    -0.200 F 
ENDBRANCH  70  93
ENDBRANCH  44  45
ENDBRANCH  37  39
ENDBRANCH  36  37
ENDBRANCH  35  36
ENDBRANCH  34  35
ENDBRANCH  33  34
ENDBRANCH  32  33
ENDBRANCH   1  32
TORSDOF 20
