REMARK SMILES COC(=O)C[C@H](NC(=O)N1CC[N@H+]2CCC[C@@H]2C1)C(=O)OCCOCCOCCOC(=O)c1ccc(-c2c3nc(c(-c4c(F)c(F)c(F)c(F)c4F)c4ccc([nH]4)c(-c4c(F)c(F)c(F)c(F)c4F)c4nc(c(-c5c(F)c(F)c(F)c(F)c5F)c5ccc2[nH]5)C=C4)C=C3)cc1
REMARK SMILES IDX 25 1 24 2 23 3 22 4 21 5 19 6 20 7 6 8 5 9 3 10 4 11 2 12
REMARK SMILES IDX 1 13 7 14 8 15 9 17 10 18 11 19 18 20 12 21 17 22 13 23
REMARK SMILES IDX 16 24 14 25 15 27 26 28 27 29 28 30 29 31 30 32 31 33 32 34
REMARK SMILES IDX 33 35 34 36 95 37 35 38 94 39 36 40 37 41 38 42 88 43 39 44
REMARK SMILES IDX 93 45 87 46 89 47 40 48 92 49 86 50 85 51 41 53 73 54 53 55
REMARK SMILES IDX 72 56 54 57 57 58 71 59 90 60 55 61 56 62 70 64 91 65 58 66
REMARK SMILES IDX 42 67 43 68 51 69 44 70 45 71 49 72 52 73 46 74 47 75 50 76
REMARK SMILES IDX 48 77 74 78 75 79 83 80 76 81 77 82 81 83 84 84 78 85 79 86
REMARK SMILES IDX 82 87 80 88 59 89 60 90 68 91 61 92 62 93 66 94 69 95 63 96
REMARK SMILES IDX 64 97 67 98 65 99
REMARK H PARENT 7 16 13 26 89 52 57 63
REMARK Flexibility Score: inf
ROOT
ATOM      1  C   UNL     1       1.473  -1.559   7.706  1.00  0.00     0.188 C 
ENDROOT
BRANCH   1   2
ATOM      2  O   UNL     1       0.899  -0.275   7.949  1.00  0.00    -0.376 OA
BRANCH   2   3
ATOM      3  C   UNL     1      -0.451  -0.060   8.322  1.00  0.00     0.202 C 
BRANCH   3   4
ATOM      4  C   UNL     1      -1.111   0.951   7.348  1.00  0.00     0.261 C 
BRANCH   4   5
ATOM      5  O   UNL     1      -1.057   0.534   5.956  1.00  0.00    -0.462 OA
BRANCH   5   6
ATOM      6  C   UNL     1       0.178   0.549   5.379  1.00  0.00     0.329 C 
ATOM      7  O   UNL     1       1.111   1.238   5.789  1.00  0.00    -0.250 OA
BRANCH   6   8
ATOM      8  C   UNL     1       0.261  -0.188   4.011  1.00  0.00     0.204 C 
BRANCH   8   9
ATOM      9  C   UNL     1       0.161   1.071   3.111  1.00  0.00     0.159 C 
BRANCH   9  10
ATOM     10  C   UNL     1      -0.499   0.861   1.802  1.00  0.00     0.308 C 
ATOM     11  O   UNL     1      -1.680   1.087   1.587  1.00  0.00    -0.252 OA
BRANCH  10  12
ATOM     12  O   UNL     1       0.382   0.299   0.940  1.00  0.00    -0.469 OA
ATOM     13  C   UNL     1      -0.209  -0.087  -0.296  1.00  0.00     0.282 C 
ENDBRANCH  10  12
ENDBRANCH   9  10
ENDBRANCH   8   9
BRANCH   8  14
ATOM     14  N   UNL     1      -0.611  -1.381   3.589  1.00  0.00    -0.324 N 
ATOM     15  C   UNL     1      -0.369  -2.750   3.676  1.00  0.00     0.318 C 
ATOM     16  H   UNL     1      -1.480  -1.139   3.194  1.00  0.00     0.166 HD
ATOM     17  O   UNL     1      -0.073  -3.354   2.646  1.00  0.00    -0.249 OA
BRANCH  15  18
ATOM     18  N   UNL     1      -0.638  -3.417   4.870  1.00  0.00    -0.313 N 
ATOM     19  C   UNL     1      -1.337  -2.244   6.358  1.00  0.00     0.183 C 
ATOM     20  C   UNL     1      -0.440  -5.409   4.904  1.00  0.00     0.186 C 
ATOM     21  C   UNL     1      -1.283  -3.375   8.147  1.00  0.00     0.284 C 
ATOM     22  C   UNL     1      -0.498  -6.552   6.753  1.00  0.00     0.204 C 
ATOM     23  N   UNL     1      -0.707  -5.217   8.223  1.00  0.00    -0.330 N 
ATOM     24  C   UNL     1       0.434  -7.352   7.753  1.00  0.00     0.073 C 
ATOM     25  C   UNL     1      -0.666  -5.872   9.495  1.00  0.00     0.262 C 
ATOM     26  H   UNL     1      -0.072  -4.549   7.787  1.00  0.00     0.348 HD
ATOM     27  C   UNL     1      -0.258  -7.307   9.148  1.00  0.00     0.068 C 
ENDBRANCH  15  18
ENDBRANCH   8  14
ENDBRANCH   6   8
ENDBRANCH   5   6
ENDBRANCH   4   5
ENDBRANCH   3   4
ENDBRANCH   2   3
ENDBRANCH   1   2
BRANCH   1  28
ATOM     28  C   UNL     1       1.014  -2.461   6.526  1.00  0.00     0.188 C 
BRANCH  28  29
ATOM     29  O   UNL     1      -0.097  -3.430   6.771  1.00  0.00    -0.376 OA
BRANCH  29  30
ATOM     30  C   UNL     1      -1.937  -3.942   6.267  1.00  0.00     0.202 C 
BRANCH  30  31
ATOM     31  C   UNL     1      -1.629  -5.208   6.410  1.00  0.00     0.261 C 
BRANCH  31  32
ATOM     32  O   UNL     1       0.398  -5.091   6.473  1.00  0.00    -0.460 OA
BRANCH  32  33
ATOM     33  C   UNL     1       1.621  -5.742   6.031  1.00  0.00     0.338 C 
ATOM     34  O   UNL     1       1.657  -6.831   5.437  1.00  0.00    -0.246 OA
BRANCH  33  35
ATOM     35  C   UNL     1       2.948  -5.176   6.241  1.00  0.00     0.060 A 
ATOM     36  C   UNL     1       3.486  -4.406   5.199  1.00  0.00     0.016 A 
ATOM     37  C   UNL     1       3.782  -5.777   7.191  1.00  0.00     0.016 A 
ATOM     38  C   UNL     1       4.856  -4.202   5.133  1.00  0.00     0.010 A 
ATOM     39  C   UNL     1       5.151  -5.584   7.120  1.00  0.00     0.010 A 
ATOM     40  C   UNL     1       5.686  -4.819   6.077  1.00  0.00    -0.014 A 
BRANCH  40  41
ATOM     41  C   UNL     1       7.145  -4.739   5.946  1.00  0.00     0.031 A 
ATOM     42  C   UNL     1       7.897  -5.932   5.448  1.00  0.00     0.074 A 
ATOM     43  C   UNL     1       7.747  -3.611   6.346  1.00  0.00     0.049 A 
ATOM     44  N   UNL     1       9.186  -6.125   5.381  1.00  0.00    -0.248 NA
ATOM     45  C   UNL     1       7.089  -7.072   4.982  1.00  0.00     0.031 C 
ATOM     46  C   UNL     1       7.049  -2.423   6.842  1.00  0.00     0.029 A 
ATOM     47  N   UNL     1       9.070  -3.287   6.427  1.00  0.00    -0.354 N 
ATOM     48  C   UNL     1       9.346  -7.407   4.874  1.00  0.00     0.074 A 
ATOM     49  C   UNL     1       8.025  -7.965   4.692  1.00  0.00     0.031 C 
ATOM     50  C   UNL     1       7.956  -1.498   7.187  1.00  0.00     0.029 A 
ATOM     51  C   UNL     1       9.289  -2.054   6.985  1.00  0.00     0.049 A 
ATOM     52  H   UNL     1       9.793  -3.879   6.116  1.00  0.00     0.167 HD
ATOM     53  C   UNL     1      10.505  -8.043   4.584  1.00  0.00     0.037 A 
ATOM     54  C   UNL     1      10.448  -1.468   7.326  1.00  0.00     0.037 A 
ATOM     55  C   UNL     1      11.798  -7.448   4.808  1.00  0.00     0.049 A 
ATOM     56  C   UNL     1      11.719  -2.222   7.048  1.00  0.00     0.074 A 
ATOM     57  C   UNL     1      13.050  -7.969   4.547  1.00  0.00     0.029 A 
ATOM     58  N   UNL     1      11.994  -6.189   5.368  1.00  0.00    -0.354 N 
ATOM     59  N   UNL     1      11.876  -3.419   6.530  1.00  0.00    -0.248 NA
ATOM     60  C   UNL     1      12.972  -1.546   7.391  1.00  0.00     0.031 C 
ATOM     61  C   UNL     1      14.002  -7.059   5.017  1.00  0.00     0.029 A 
ATOM     62  C   UNL     1      13.348  -5.930   5.490  1.00  0.00     0.049 A 
ATOM     63  H   UNL     1      11.275  -5.573   5.638  1.00  0.00     0.167 HD
ATOM     64  C   UNL     1      13.244  -3.628   6.453  1.00  0.00     0.074 A 
ATOM     65  C   UNL     1      13.870  -2.422   6.963  1.00  0.00     0.031 C 
ATOM     66  C   UNL     1      13.927  -4.711   6.003  1.00  0.00     0.037 A 
BRANCH  53  67
ATOM     67  C   UNL     1      10.422  -9.440   4.037  1.00  0.00     0.064 A 
ATOM     68  C   UNL     1       9.864  -9.714   2.778  1.00  0.00     0.173 A 
ATOM     69  C   UNL     1      10.923 -10.525   4.774  1.00  0.00     0.173 A 
ATOM     70  F   UNL     1       9.361  -8.719   2.030  1.00  0.00    -0.203 F 
ATOM     71  C   UNL     1       9.775 -11.019   2.296  1.00  0.00     0.198 A 
ATOM     72  C   UNL     1      10.868 -11.824   4.272  1.00  0.00     0.198 A 
ATOM     73  F   UNL     1      11.471 -10.329   5.982  1.00  0.00    -0.203 F 
ATOM     74  F   UNL     1       9.181 -11.258   1.118  1.00  0.00    -0.200 F 
ATOM     75  C   UNL     1      10.284 -12.071   3.040  1.00  0.00     0.200 A 
ATOM     76  F   UNL     1      11.377 -12.838   4.987  1.00  0.00    -0.200 F 
ATOM     77  F   UNL     1      10.206 -13.325   2.573  1.00  0.00    -0.200 F 
ENDBRANCH  53  67
BRANCH  54  78
ATOM     78  C   UNL     1      10.443  -0.124   7.954  1.00  0.00     0.064 A 
ATOM     79  C   UNL     1      10.977   0.986   7.287  1.00  0.00     0.173 A 
ATOM     80  C   UNL     1       9.887   0.087   9.226  1.00  0.00     0.173 A 
ATOM     81  F   UNL     1      11.524   0.837   6.071  1.00  0.00    -0.203 F 
ATOM     82  C   UNL     1      10.986   2.247   7.879  1.00  0.00     0.198 A 
ATOM     83  C   UNL     1       9.861   1.355   9.801  1.00  0.00     0.198 A 
ATOM     84  F   UNL     1       9.346  -0.938   9.902  1.00  0.00    -0.203 F 
ATOM     85  F   UNL     1      11.552   3.280   7.240  1.00  0.00    -0.200 F 
ATOM     86  C   UNL     1      10.422   2.432   9.133  1.00  0.00     0.200 A 
ATOM     87  F   UNL     1       9.292   1.533  11.001  1.00  0.00    -0.200 F 
ATOM     88  F   UNL     1      10.427   3.646   9.699  1.00  0.00    -0.200 F 
ENDBRANCH  54  78
BRANCH  66  89
ATOM     89  C   UNL     1      15.425  -4.610   6.000  1.00  0.00     0.064 A 
ATOM     90  C   UNL     1      16.169  -4.575   7.189  1.00  0.00     0.173 A 
ATOM     91  C   UNL     1      16.124  -4.583   4.784  1.00  0.00     0.173 A 
ATOM     92  F   UNL     1      15.546  -4.585   8.377  1.00  0.00    -0.203 F 
ATOM     93  C   UNL     1      17.556  -4.475   7.158  1.00  0.00     0.198 A 
ATOM     94  C   UNL     1      17.513  -4.532   4.758  1.00  0.00     0.198 A 
ATOM     95  F   UNL     1      15.460  -4.626   3.619  1.00  0.00    -0.203 F 
ATOM     96  F   UNL     1      18.242  -4.370   8.305  1.00  0.00    -0.200 F 
ATOM     97  C   UNL     1      18.227  -4.464   5.945  1.00  0.00     0.200 A 
ATOM     98  F   UNL     1      18.160  -4.548   3.585  1.00  0.00    -0.200 F 
ATOM     99  F   UNL     1      19.564  -4.380   5.918  1.00  0.00    -0.200 F 
ENDBRANCH  66  89
ENDBRANCH  40  41
ENDBRANCH  33  35
ENDBRANCH  32  33
ENDBRANCH  31  32
ENDBRANCH  30  31
ENDBRANCH  29  30
ENDBRANCH  28  29
ENDBRANCH   1  28
TORSDOF 22
