REMARK SMILES O=C(OCCOCCOCCOC(=O)c1ccc([C@H]2Nc3ccc(Cl)cc3[C@@H]3C=CC[C@@H]23)cc1)c1ccc(-c2c3nc(c(-c4c(F)c(F)c(F)c(F)c4F)c4ccc([nH]4)c(-c4c(F)c(F)c(F)c(F)c4F)c4nc(c(-c5c(F)c(F)c(F)c(F)c5F)c5ccc2[nH]5)C=C4)C=C3)cc1
REMARK SMILES IDX 7 1 6 2 5 3 4 4 3 5 2 6 1 7 35 8 36 9 97 10 37 11 96 12
REMARK SMILES IDX 38 13 39 14 40 15 90 16 41 17 95 18 89 19 91 20 42 21 94 22
REMARK SMILES IDX 88 23 87 24 43 26 75 27 55 28 74 29 56 30 59 31 73 32 92 33
REMARK SMILES IDX 57 34 58 35 72 37 93 38 60 39 44 40 45 41 53 42 46 43 47 44
REMARK SMILES IDX 51 45 54 46 48 47 49 48 52 49 50 50 76 51 77 52 85 53 78 54
REMARK SMILES IDX 79 55 83 56 86 57 80 58 81 59 84 60 82 61 61 62 62 63 70 64
REMARK SMILES IDX 63 65 64 66 68 67 71 68 65 69 66 70 69 71 67 72 8 73 9 74
REMARK SMILES IDX 10 75 11 76 12 77 13 78 14 79 15 80 16 81 34 82 17 83 33 84
REMARK SMILES IDX 18 85 19 86 20 87 32 88 21 89 28 91 31 92 22 93 27 94 29 95
REMARK SMILES IDX 30 96 23 97 26 98 24 99 25 100
REMARK H PARENT 91 25 59 36 20 90
REMARK Flexibility Score: inf
ROOT
ATOM      1  C   UNL     1       2.442  -2.030  -0.815  1.00  0.00     0.188 C 
ENDROOT
BRANCH   1   2
ATOM      2  O   UNL     1       3.726  -1.405  -0.929  1.00  0.00    -0.376 OA
BRANCH   2   3
ATOM      3  C   UNL     1       4.600  -1.667   0.172  1.00  0.00     0.202 C 
BRANCH   3   4
ATOM      4  C   UNL     1       4.412  -0.732   1.375  1.00  0.00     0.261 C 
BRANCH   4   5
ATOM      5  O   UNL     1       3.073  -0.227   1.468  1.00  0.00    -0.460 OA
BRANCH   5   6
ATOM      6  C   UNL     1       2.635   0.949   0.955  1.00  0.00     0.338 C 
ATOM      7  O   UNL     1       1.456   1.272   1.079  1.00  0.00    -0.246 OA
BRANCH   6   8
ATOM      8  C   UNL     1       3.571   1.919   0.324  1.00  0.00     0.060 A 
ATOM      9  C   UNL     1       4.563   1.588  -0.608  1.00  0.00     0.016 A 
ATOM     10  C   UNL     1       3.358   3.264   0.612  1.00  0.00     0.016 A 
ATOM     11  C   UNL     1       5.407   2.550  -1.167  1.00  0.00     0.010 A 
ATOM     12  C   UNL     1       4.113   4.235  -0.046  1.00  0.00     0.010 A 
ATOM     13  C   UNL     1       5.169   3.895  -0.929  1.00  0.00    -0.014 A 
BRANCH  13  14
ATOM     14  C   UNL     1       5.941   4.998  -1.577  1.00  0.00     0.031 A 
ATOM     15  C   UNL     1       6.385   6.100  -0.663  1.00  0.00     0.074 A 
ATOM     16  C   UNL     1       6.101   5.121  -2.915  1.00  0.00     0.049 A 
ATOM     17  N   UNL     1       6.634   7.355  -0.913  1.00  0.00    -0.248 NA
ATOM     18  C   UNL     1       6.479   5.731   0.762  1.00  0.00     0.031 C 
ATOM     19  C   UNL     1       5.793   4.120  -3.940  1.00  0.00     0.029 A 
ATOM     20  N   UNL     1       6.470   6.226  -3.655  1.00  0.00    -0.354 N 
ATOM     21  C   UNL     1       6.872   7.923   0.330  1.00  0.00     0.074 A 
ATOM     22  C   UNL     1       6.586   6.918   1.328  1.00  0.00     0.031 C 
ATOM     23  C   UNL     1       5.846   4.688  -5.157  1.00  0.00     0.029 A 
ATOM     24  C   UNL     1       6.190   6.092  -5.000  1.00  0.00     0.049 A 
ATOM     25  H   UNL     1       6.889   7.026  -3.265  1.00  0.00     0.167 HD
ATOM     26  C   UNL     1       7.374   9.145   0.614  1.00  0.00     0.037 A 
ATOM     27  C   UNL     1       6.154   7.015  -5.981  1.00  0.00     0.037 A 
ATOM     28  C   UNL     1       7.733  10.094  -0.399  1.00  0.00     0.049 A 
ATOM     29  C   UNL     1       6.613   8.409  -5.664  1.00  0.00     0.074 A 
ATOM     30  C   UNL     1       8.359  11.316  -0.264  1.00  0.00     0.029 A 
ATOM     31  N   UNL     1       7.503   9.900  -1.755  1.00  0.00    -0.354 N 
ATOM     32  N   UNL     1       6.904   8.934  -4.499  1.00  0.00    -0.248 NA
ATOM     33  C   UNL     1       6.804   9.318  -6.801  1.00  0.00     0.031 C 
ATOM     34  C   UNL     1       8.498  11.869  -1.543  1.00  0.00     0.029 A 
ATOM     35  C   UNL     1       7.984  10.977  -2.473  1.00  0.00     0.049 A 
ATOM     36  H   UNL     1       7.062   9.111  -2.146  1.00  0.00     0.167 HD
ATOM     37  C   UNL     1       7.404  10.198  -4.767  1.00  0.00     0.074 A 
ATOM     38  C   UNL     1       7.320  10.383  -6.203  1.00  0.00     0.031 C 
ATOM     39  C   UNL     1       7.928  11.105  -3.907  1.00  0.00     0.037 A 
BRANCH  26  40
ATOM     40  C   UNL     1       7.606   9.451   2.064  1.00  0.00     0.064 A 
ATOM     41  C   UNL     1       8.543   8.723   2.820  1.00  0.00     0.173 A 
ATOM     42  C   UNL     1       6.827  10.404   2.732  1.00  0.00     0.173 A 
ATOM     43  F   UNL     1       9.301   7.783   2.233  1.00  0.00    -0.203 F 
ATOM     44  C   UNL     1       8.631   8.879   4.199  1.00  0.00     0.198 A 
ATOM     45  C   UNL     1       6.949  10.588   4.107  1.00  0.00     0.198 A 
ATOM     46  F   UNL     1       5.921  11.130   2.060  1.00  0.00    -0.203 F 
ATOM     47  F   UNL     1       9.449   8.090   4.910  1.00  0.00    -0.200 F 
ATOM     48  C   UNL     1       7.833   9.811   4.842  1.00  0.00     0.200 A 
ATOM     49  F   UNL     1       6.184  11.496   4.730  1.00  0.00    -0.200 F 
ATOM     50  F   UNL     1       7.901   9.945   6.174  1.00  0.00    -0.200 F 
ENDBRANCH  26  40
BRANCH  27  51
ATOM     51  C   UNL     1       5.698   6.651  -7.348  1.00  0.00     0.064 A 
ATOM     52  C   UNL     1       6.617   6.406  -8.378  1.00  0.00     0.173 A 
ATOM     53  C   UNL     1       4.333   6.551  -7.657  1.00  0.00     0.173 A 
ATOM     54  F   UNL     1       7.931   6.505  -8.136  1.00  0.00    -0.203 F 
ATOM     55  C   UNL     1       6.189   6.096  -9.669  1.00  0.00     0.198 A 
ATOM     56  C   UNL     1       3.906   6.226  -8.945  1.00  0.00     0.198 A 
ATOM     57  F   UNL     1       3.409   6.770  -6.710  1.00  0.00    -0.203 F 
ATOM     58  F   UNL     1       7.089   5.898 -10.641  1.00  0.00    -0.200 F 
ATOM     59  C   UNL     1       4.834   6.005  -9.952  1.00  0.00     0.200 A 
ATOM     60  F   UNL     1       2.596   6.129  -9.209  1.00  0.00    -0.200 F 
ATOM     61  F   UNL     1       4.424   5.711 -11.193  1.00  0.00    -0.200 F 
ENDBRANCH  27  51
BRANCH  39  62
ATOM     62  C   UNL     1       8.573  12.315  -4.503  1.00  0.00     0.064 A 
ATOM     63  C   UNL     1       7.826  13.390  -4.997  1.00  0.00     0.173 A 
ATOM     64  C   UNL     1       9.973  12.418  -4.506  1.00  0.00     0.173 A 
ATOM     65  F   UNL     1       6.487  13.321  -5.033  1.00  0.00    -0.203 F 
ATOM     66  C   UNL     1       8.460  14.530  -5.480  1.00  0.00     0.198 A 
ATOM     67  C   UNL     1      10.602  13.569  -4.966  1.00  0.00     0.198 A 
ATOM     68  F   UNL     1      10.727  11.409  -4.043  1.00  0.00    -0.203 F 
ATOM     69  F   UNL     1       7.732  15.539  -5.977  1.00  0.00    -0.200 F 
ATOM     70  C   UNL     1       9.846  14.623  -5.454  1.00  0.00     0.200 A 
ATOM     71  F   UNL     1      11.939  13.660  -4.929  1.00  0.00    -0.200 F 
ATOM     72  F   UNL     1      10.452  15.730  -5.902  1.00  0.00    -0.200 F 
ENDBRANCH  39  62
ENDBRANCH  13  14
ENDBRANCH   6   8
ENDBRANCH   5   6
ENDBRANCH   4   5
ENDBRANCH   3   4
ENDBRANCH   2   3
ENDBRANCH   1   2
BRANCH   1  73
ATOM     73  C   UNL     1       1.807  -2.261  -2.191  1.00  0.00     0.188 C 
BRANCH  73  74
ATOM     74  O   UNL     1       2.462  -3.225  -3.018  1.00  0.00    -0.376 OA
BRANCH  74  75
ATOM     75  C   UNL     1       3.790  -2.914  -3.419  1.00  0.00     0.202 C 
BRANCH  75  76
ATOM     76  C   UNL     1       3.962  -1.829  -4.495  1.00  0.00     0.261 C 
BRANCH  76  77
ATOM     77  O   UNL     1       3.059  -0.704  -4.419  1.00  0.00    -0.460 OA
BRANCH  77  78
ATOM     78  C   UNL     1       2.427  -0.402  -5.587  1.00  0.00     0.338 C 
ATOM     79  O   UNL     1       2.543  -0.999  -6.646  1.00  0.00    -0.246 OA
BRANCH  78  80
ATOM     80  C   UNL     1       1.683   0.882  -5.524  1.00  0.00     0.060 A 
ATOM     81  C   UNL     1       0.589   1.105  -4.686  1.00  0.00     0.016 A 
ATOM     82  C   UNL     1       2.044   1.871  -6.442  1.00  0.00     0.016 A 
ATOM     83  C   UNL     1      -0.091   2.345  -4.718  1.00  0.00     0.007 A 
ATOM     84  C   UNL     1       1.377   3.105  -6.459  1.00  0.00     0.007 A 
ATOM     85  C   UNL     1       0.348   3.403  -5.537  1.00  0.00    -0.025 A 
BRANCH  85  86
ATOM     86  C   UNL     1       0.058   4.905  -5.266  1.00  0.00     0.114 C 
ATOM     87  N   UNL     1      -1.316   5.284  -4.787  1.00  0.00    -0.378 N 
ATOM     88  C   UNL     1       1.064   5.432  -4.230  1.00  0.00     0.031 C 
ATOM     89  C   UNL     1      -1.464   6.090  -3.626  1.00  0.00     0.038 A 
ATOM     90  H   UNL     1      -2.112   4.973  -5.276  1.00  0.00     0.161 HD
ATOM     91  C   UNL     1       0.494   4.945  -2.888  1.00  0.00     0.049 C 
ATOM     92  C   UNL     1       2.531   5.061  -4.233  1.00  0.00     0.034 C 
ATOM     93  C   UNL     1      -2.429   7.081  -3.500  1.00  0.00     0.027 A 
ATOM     94  C   UNL     1      -0.514   5.968  -2.569  1.00  0.00    -0.016 A 
ATOM     95  C   UNL     1       1.636   4.463  -2.121  1.00  0.00    -0.023 C 
ATOM     96  C   UNL     1       2.673   4.326  -2.951  1.00  0.00    -0.030 C 
ATOM     97  C   UNL     1      -2.425   7.926  -2.372  1.00  0.00     0.022 A 
ATOM     98  C   UNL     1      -0.507   6.785  -1.443  1.00  0.00     0.027 A 
ATOM     99  C   UNL     1      -1.471   7.776  -1.358  1.00  0.00     0.041 A 
ATOM    100  Cl  UNL     1      -1.464   8.847  -0.009  1.00  0.00    -0.084 Cl
ENDBRANCH  85  86
ENDBRANCH  78  80
ENDBRANCH  77  78
ENDBRANCH  76  77
ENDBRANCH  75  76
ENDBRANCH  74  75
ENDBRANCH  73  74
ENDBRANCH   1  73
TORSDOF 18
