REMARK SMILES Cc1occc1C(=O)NN1C(=O)/C(=C\c2ccc(O[C@H](C)C(=O)OCCOCCOCCOC(=O)c3ccc(-c4c5nc(c(-c6c(F)c(F)c(F)c(F)c6F)c6ccc([nH]6)c(-c6c(F)c(F)c(F)c(F)c6F)c6nc(c(-c7c(F)c(F)c(F)c(F)c7F)c7ccc4[nH]7)C=C6)C=C5)cc3)cc2)SC1=S
REMARK SMILES IDX 27 1 26 2 25 3 24 4 22 5 23 6 20 7 21 8 19 9 18 10 15 11
REMARK SMILES IDX 16 12 100 13 17 14 99 15 14 16 10 17 11 18 102 19 12 20
REMARK SMILES IDX 13 21 101 22 103 23 9 24 7 25 8 26 6 28 1 29 2 30 3 31 4 32
REMARK SMILES IDX 5 33 28 34 29 35 30 36 31 37 32 38 33 39 34 40 35 41 36 42
REMARK SMILES IDX 37 43 98 44 38 45 97 46 39 47 40 48 41 49 91 50 42 51 96 52
REMARK SMILES IDX 90 53 92 54 43 55 95 56 89 57 88 58 44 60 76 61 56 62 75 63
REMARK SMILES IDX 57 64 60 65 74 66 93 67 58 68 59 69 73 71 94 72 61 73 45 74
REMARK SMILES IDX 46 75 54 76 47 77 48 78 52 79 55 80 49 81 50 82 53 83 51 84
REMARK SMILES IDX 77 85 78 86 86 87 79 88 80 89 84 90 87 91 81 92 82 93 85 94
REMARK SMILES IDX 83 95 62 96 63 97 71 98 64 99 65 100 69 101 72 102 66 103
REMARK SMILES IDX 67 104 70 105 68 106
REMARK H PARENT 9 27 92 59 60 70
REMARK Flexibility Score: inf
ROOT
ATOM      1  O   UNL     1       6.720  -1.886  -9.266  1.00  0.00    -0.376 OA
ENDROOT
BRANCH   1   2
ATOM      2  C   UNL     1       5.748  -1.186  -8.502  1.00  0.00     0.202 C 
BRANCH   2   3
ATOM      3  C   UNL     1       4.711  -1.987  -7.697  1.00  0.00     0.261 C 
BRANCH   3   4
ATOM      4  O   UNL     1       5.212  -3.050  -6.860  1.00  0.00    -0.461 OA
BRANCH   4   5
ATOM      5  C   UNL     1       4.968  -4.314  -7.302  1.00  0.00     0.347 C 
ATOM      6  O   UNL     1       4.448  -4.570  -8.385  1.00  0.00    -0.248 OA
BRANCH   5   7
ATOM      7  C   UNL     1       5.326  -5.419  -6.300  1.00  0.00     0.279 C 
ATOM      8  C   UNL     1       6.701  -5.500  -5.628  1.00  0.00     0.066 C 
BRANCH   7   9
ATOM      9  O   UNL     1       4.211  -5.666  -5.453  1.00  0.00    -0.479 OA
BRANCH   9  10
ATOM     10  C   UNL     1       4.011  -4.993  -4.291  1.00  0.00     0.120 A 
ATOM     11  C   UNL     1       3.611  -4.167  -1.649  1.00  0.00    -0.024 A 
ATOM     12  C   UNL     1       4.583  -3.553  -2.442  1.00  0.00     0.012 A 
ATOM     13  C   UNL     1       2.716  -5.055  -2.248  1.00  0.00     0.012 A 
ATOM     14  C   UNL     1       4.761  -3.946  -3.771  1.00  0.00     0.047 A 
ATOM     15  C   UNL     1       2.943  -5.492  -3.550  1.00  0.00     0.047 A 
BRANCH  11  16
ATOM     16  C   UNL     1       3.633  -3.915  -0.203  1.00  0.00     0.029 C 
ATOM     17  N   UNL     1       3.298  -6.942   1.764  1.00  0.00    -0.198 N 
ATOM     18  C   UNL     1       3.606  -6.348   0.552  1.00  0.00     0.285 C 
ATOM     19  C   UNL     1       3.507  -6.203   2.907  1.00  0.00     0.168 C 
ATOM     20  O   UNL     1       3.833  -6.962  -0.480  1.00  0.00    -0.266 OA
ATOM     21  C   UNL     1       3.681  -4.869   0.741  1.00  0.00     0.082 C 
ATOM     22  S   UNL     1       3.796  -4.522   2.437  1.00  0.00    -0.052 SA
ATOM     23  S   UNL     1       3.515  -6.728   4.487  1.00  0.00    -0.050 S 
BRANCH  17  24
ATOM     24  N   UNL     1       3.083  -8.312   1.749  1.00  0.00    -0.254 N 
ATOM     25  C   UNL     1       1.887  -8.977   1.891  1.00  0.00     0.273 C 
ATOM     26  O   UNL     1       1.900 -10.185   1.635  1.00  0.00    -0.267 OA
ATOM     27  H   UNL     1       3.881  -8.875   1.622  1.00  0.00     0.192 HD
BRANCH  25  28
ATOM     28  C   UNL     1       0.671  -8.364   2.420  1.00  0.00     0.082 A 
ATOM     29  C   UNL     1       0.361  -5.849   1.575  1.00  0.00     0.088 C 
ATOM     30  C   UNL     1       0.090  -7.108   2.295  1.00  0.00     0.113 A 
ATOM     31  O   UNL     1      -1.080  -7.054   3.001  1.00  0.00    -0.469 OA
ATOM     32  C   UNL     1      -1.304  -8.276   3.528  1.00  0.00     0.196 A 
ATOM     33  C   UNL     1      -0.283  -9.121   3.188  1.00  0.00     0.056 A 
ENDBRANCH  25  28
ENDBRANCH  17  24
ENDBRANCH  11  16
ENDBRANCH   9  10
ENDBRANCH   7   9
ENDBRANCH   5   7
ENDBRANCH   4   5
ENDBRANCH   3   4
ENDBRANCH   2   3
ENDBRANCH   1   2
BRANCH   1  34
ATOM     34  C   UNL     1       7.572  -2.831  -8.632  1.00  0.00     0.188 C 
BRANCH  34  35
ATOM     35  C   UNL     1       8.016  -2.608  -7.175  1.00  0.00     0.188 C 
BRANCH  35  36
ATOM     36  O   UNL     1       7.711  -1.334  -6.661  1.00  0.00    -0.376 OA
BRANCH  36  37
ATOM     37  C   UNL     1       8.782  -0.493  -6.285  1.00  0.00     0.202 C 
BRANCH  37  38
ATOM     38  C   UNL     1       9.846  -0.154  -7.341  1.00  0.00     0.261 C 
BRANCH  38  39
ATOM     39  O   UNL     1      10.312  -1.239  -8.164  1.00  0.00    -0.460 OA
BRANCH  39  40
ATOM     40  C   UNL     1      11.181  -2.117  -7.605  1.00  0.00     0.338 C 
ATOM     41  O   UNL     1      11.617  -2.094  -6.473  1.00  0.00    -0.246 OA
BRANCH  40  42
ATOM     42  C   UNL     1      11.325  -3.259  -8.543  1.00  0.00     0.060 A 
ATOM     43  C   UNL     1      10.943  -4.541  -8.120  1.00  0.00     0.016 A 
ATOM     44  C   UNL     1      11.816  -3.065  -9.835  1.00  0.00     0.016 A 
ATOM     45  C   UNL     1      11.070  -5.635  -8.981  1.00  0.00     0.010 A 
ATOM     46  C   UNL     1      11.967  -4.165 -10.687  1.00  0.00     0.010 A 
ATOM     47  C   UNL     1      11.621  -5.460 -10.257  1.00  0.00    -0.014 A 
BRANCH  47  48
ATOM     48  C   UNL     1      12.020  -6.638 -11.069  1.00  0.00     0.031 A 
ATOM     49  C   UNL     1      13.464  -7.061 -11.051  1.00  0.00     0.074 A 
ATOM     50  C   UNL     1      11.133  -7.326 -11.811  1.00  0.00     0.049 A 
ATOM     51  N   UNL     1      14.074  -7.989 -11.744  1.00  0.00    -0.248 NA
ATOM     52  C   UNL     1      14.342  -6.328 -10.124  1.00  0.00     0.031 C 
ATOM     53  C   UNL     1       9.700  -7.058 -11.882  1.00  0.00     0.029 A 
ATOM     54  N   UNL     1      11.320  -8.389 -12.662  1.00  0.00    -0.354 N 
ATOM     55  C   UNL     1      15.404  -7.942 -11.347  1.00  0.00     0.074 A 
ATOM     56  C   UNL     1      15.520  -6.877 -10.375  1.00  0.00     0.031 C 
ATOM     57  C   UNL     1       9.138  -7.921 -12.747  1.00  0.00     0.029 A 
ATOM     58  C   UNL     1      10.178  -8.776 -13.319  1.00  0.00     0.049 A 
ATOM     59  H   UNL     1      12.191  -8.831 -12.789  1.00  0.00     0.167 HD
ATOM     60  C   UNL     1      16.436  -8.721 -11.751  1.00  0.00     0.037 A 
ATOM     61  C   UNL     1      10.001  -9.693 -14.293  1.00  0.00     0.037 A 
ATOM     62  C   UNL     1      16.323  -9.779 -12.720  1.00  0.00     0.049 A 
ATOM     63  C   UNL     1      11.184 -10.489 -14.791  1.00  0.00     0.074 A 
ATOM     64  C   UNL     1      17.309 -10.634 -13.181  1.00  0.00     0.029 A 
ATOM     65  N   UNL     1      15.155 -10.120 -13.386  1.00  0.00    -0.354 N 
ATOM     66  N   UNL     1      12.434 -10.456 -14.397  1.00  0.00    -0.248 NA
ATOM     67  C   UNL     1      10.928 -11.452 -15.873  1.00  0.00     0.031 C 
ATOM     68  C   UNL     1      16.753 -11.449 -14.171  1.00  0.00     0.029 A 
ATOM     69  C   UNL     1      15.403 -11.152 -14.277  1.00  0.00     0.049 A 
ATOM     70  H   UNL     1      14.279  -9.692 -13.246  1.00  0.00     0.167 HD
ATOM     71  C   UNL     1      13.101 -11.413 -15.153  1.00  0.00     0.074 A 
ATOM     72  C   UNL     1      12.116 -12.020 -16.021  1.00  0.00     0.031 C 
ATOM     73  C   UNL     1      14.413 -11.759 -15.129  1.00  0.00     0.037 A 
BRANCH  60  74
ATOM     74  C   UNL     1      17.790  -8.435 -11.169  1.00  0.00     0.064 A 
ATOM     75  C   UNL     1      18.090  -8.702  -9.825  1.00  0.00     0.173 A 
ATOM     76  C   UNL     1      18.813  -7.916 -11.978  1.00  0.00     0.173 A 
ATOM     77  F   UNL     1      17.144  -9.183  -9.004  1.00  0.00    -0.203 F 
ATOM     78  C   UNL     1      19.355  -8.436  -9.306  1.00  0.00     0.198 A 
ATOM     79  C   UNL     1      20.086  -7.684 -11.465  1.00  0.00     0.198 A 
ATOM     80  F   UNL     1      18.581  -7.645 -13.271  1.00  0.00    -0.203 F 
ATOM     81  F   UNL     1      19.604  -8.651  -8.007  1.00  0.00    -0.200 F 
ATOM     82  C   UNL     1      20.354  -7.936 -10.128  1.00  0.00     0.200 A 
ATOM     83  F   UNL     1      21.053  -7.214 -12.265  1.00  0.00    -0.200 F 
ATOM     84  F   UNL     1      21.573  -7.689  -9.630  1.00  0.00    -0.200 F 
ENDBRANCH  60  74
BRANCH  61  85
ATOM     85  C   UNL     1       8.652  -9.901 -14.890  1.00  0.00     0.064 A 
ATOM     86  C   UNL     1       7.968 -11.114 -14.727  1.00  0.00     0.173 A 
ATOM     87  C   UNL     1       8.040  -8.909 -15.671  1.00  0.00     0.173 A 
ATOM     88  F   UNL     1       8.524 -12.107 -14.018  1.00  0.00    -0.203 F 
ATOM     89  C   UNL     1       6.736 -11.335 -15.342  1.00  0.00     0.198 A 
ATOM     90  C   UNL     1       6.793  -9.119 -16.257  1.00  0.00     0.198 A 
ATOM     91  F   UNL     1       8.655  -7.734 -15.867  1.00  0.00    -0.203 F 
ATOM     92  F   UNL     1       6.134 -12.526 -15.220  1.00  0.00    -0.200 F 
ATOM     93  C   UNL     1       6.147 -10.335 -16.101  1.00  0.00     0.200 A 
ATOM     94  F   UNL     1       6.225  -8.147 -16.983  1.00  0.00    -0.200 F 
ATOM     95  F   UNL     1       4.965 -10.550 -16.694  1.00  0.00    -0.200 F 
ENDBRANCH  61  85
BRANCH  73  96
ATOM     96  C   UNL     1      14.857 -12.878 -16.031  1.00  0.00     0.064 A 
ATOM     97  C   UNL     1      14.911 -12.732 -17.425  1.00  0.00     0.173 A 
ATOM     98  C   UNL     1      15.279 -14.102 -15.486  1.00  0.00     0.173 A 
ATOM     99  F   UNL     1      14.510 -11.588 -18.000  1.00  0.00    -0.203 F 
ATOM    100  C   UNL     1      15.342 -13.777 -18.240  1.00  0.00     0.198 A 
ATOM    101  C   UNL     1      15.742 -15.131 -16.301  1.00  0.00     0.198 A 
ATOM    102  F   UNL     1      15.258 -14.294 -14.158  1.00  0.00    -0.203 F 
ATOM    103  F   UNL     1      15.335 -13.631 -19.573  1.00  0.00    -0.200 F 
ATOM    104  C   UNL     1      15.765 -14.972 -17.677  1.00  0.00     0.200 A 
ATOM    105  F   UNL     1      16.169 -16.277 -15.752  1.00  0.00    -0.200 F 
ATOM    106  F   UNL     1      16.188 -15.972 -18.462  1.00  0.00    -0.200 F 
ENDBRANCH  73  96
ENDBRANCH  47  48
ENDBRANCH  40  42
ENDBRANCH  39  40
ENDBRANCH  38  39
ENDBRANCH  37  38
ENDBRANCH  36  37
ENDBRANCH  35  36
ENDBRANCH  34  35
ENDBRANCH   1  34
TORSDOF 22
