REMARK SMILES O=C(OCCOCCOCCOC(=O)[C@@H]1CSCN1C(=O)c1cccc(Cl)c1)c1ccc(-c2c3nc(c(-c4c(F)c(F)c(F)c(F)c4F)c4ccc([nH]4)c(-c4c(F)c(F)c(F)c(F)c4F)c4nc(c(-c5c(F)c(F)c(F)c(F)c5F)c5ccc2[nH]5)C=C4)C=C3)cc1
REMARK SMILES IDX 7 1 6 2 5 3 4 4 3 5 2 6 1 7 29 8 30 9 91 10 31 11 90 12
REMARK SMILES IDX 32 13 33 14 34 15 84 16 35 17 89 18 83 19 85 20 36 21 88 22
REMARK SMILES IDX 82 23 81 24 37 26 69 27 49 28 68 29 50 30 53 31 67 32 86 33
REMARK SMILES IDX 51 34 52 35 66 37 87 38 54 39 38 40 39 41 47 42 40 43 41 44
REMARK SMILES IDX 45 45 48 46 42 47 43 48 46 49 44 50 70 51 71 52 79 53 72 54
REMARK SMILES IDX 73 55 77 56 80 57 74 58 75 59 78 60 76 61 55 62 56 63 64 64
REMARK SMILES IDX 57 65 58 66 62 67 65 68 59 69 60 70 63 71 61 72 8 73 9 74
REMARK SMILES IDX 10 75 11 76 12 77 13 78 14 79 15 80 16 81 19 82 17 83 18 84
REMARK SMILES IDX 20 85 21 86 22 87 23 88 28 89 24 90 26 91 25 92 27 93
REMARK H PARENT 85 25 53 36
REMARK Flexibility Score: inf
ROOT
ATOM      1  C   UNL     1       6.245  -1.872  -6.297  1.00  0.00     0.188 C 
ENDROOT
BRANCH   1   2
ATOM      2  O   UNL     1       5.587  -0.817  -6.998  1.00  0.00    -0.376 OA
BRANCH   2   3
ATOM      3  C   UNL     1       6.408   0.088  -7.744  1.00  0.00     0.202 C 
BRANCH   3   4
ATOM      4  C   UNL     1       7.532   0.837  -7.011  1.00  0.00     0.261 C 
BRANCH   4   5
ATOM      5  O   UNL     1       8.066   0.167  -5.866  1.00  0.00    -0.460 OA
BRANCH   5   6
ATOM      6  C   UNL     1       7.545   0.092  -4.625  1.00  0.00     0.338 C 
ATOM      7  O   UNL     1       8.111  -0.596  -3.780  1.00  0.00    -0.246 OA
BRANCH   6   8
ATOM      8  C   UNL     1       6.344   0.853  -4.200  1.00  0.00     0.060 A 
ATOM      9  C   UNL     1       5.032   1.476  -5.239  1.00  0.00     0.016 A 
ATOM     10  C   UNL     1       6.540   1.343  -2.538  1.00  0.00     0.016 A 
ATOM     11  C   UNL     1       3.861   2.692  -4.732  1.00  0.00     0.010 A 
ATOM     12  C   UNL     1       5.427   2.559  -1.881  1.00  0.00     0.010 A 
ATOM     13  C   UNL     1       3.944   3.313  -3.041  1.00  0.00    -0.014 A 
BRANCH  13  14
ATOM     14  C   UNL     1       2.690   4.237  -2.981  1.00  0.00     0.031 A 
ATOM     15  C   UNL     1       2.865   5.677  -3.292  1.00  0.00     0.074 A 
ATOM     16  C   UNL     1       1.434   3.787  -2.781  1.00  0.00     0.049 A 
ATOM     17  N   UNL     1       2.344   6.684  -2.662  1.00  0.00    -0.248 NA
ATOM     18  C   UNL     1       3.859   6.035  -4.304  1.00  0.00     0.031 C 
ATOM     19  C   UNL     1       1.030   2.394  -2.714  1.00  0.00     0.029 A 
ATOM     20  N   UNL     1       0.257   4.453  -2.562  1.00  0.00    -0.354 N 
ATOM     21  C   UNL     1       3.161   7.758  -2.981  1.00  0.00     0.074 A 
ATOM     22  C   UNL     1       4.124   7.284  -3.946  1.00  0.00     0.031 C 
ATOM     23  C   UNL     1      -0.278   2.282  -2.486  1.00  0.00     0.029 A 
ATOM     24  C   UNL     1      -0.775   3.606  -2.219  1.00  0.00     0.049 A 
ATOM     25  H   UNL     1       0.159   5.430  -2.641  1.00  0.00     0.167 HD
ATOM     26  C   UNL     1       3.110   8.963  -2.370  1.00  0.00     0.037 A 
ATOM     27  C   UNL     1      -1.946   3.848  -1.610  1.00  0.00     0.037 A 
ATOM     28  C   UNL     1       1.937   9.328  -1.608  1.00  0.00     0.049 A 
ATOM     29  C   UNL     1      -2.151   5.253  -1.160  1.00  0.00     0.074 A 
ATOM     30  C   UNL     1       1.593  10.541  -1.049  1.00  0.00     0.029 A 
ATOM     31  N   UNL     1       0.865   8.461  -1.374  1.00  0.00    -0.354 N 
ATOM     32  N   UNL     1      -1.286   6.242  -1.187  1.00  0.00    -0.248 NA
ATOM     33  C   UNL     1      -3.447   5.584  -0.578  1.00  0.00     0.031 C 
ATOM     34  C   UNL     1       0.319  10.404  -0.482  1.00  0.00     0.029 A 
ATOM     35  C   UNL     1      -0.163   9.126  -0.739  1.00  0.00     0.049 A 
ATOM     36  H   UNL     1       0.846   7.510  -1.628  1.00  0.00     0.167 HD
ATOM     37  C   UNL     1      -1.935   7.331  -0.645  1.00  0.00     0.074 A 
ATOM     38  C   UNL     1      -3.273   6.870  -0.298  1.00  0.00     0.031 C 
ATOM     39  C   UNL     1      -1.477   8.593  -0.453  1.00  0.00     0.037 A 
BRANCH  26  40
ATOM     40  C   UNL     1       4.331   9.848  -2.408  1.00  0.00     0.064 A 
ATOM     41  C   UNL     1       4.969  10.263  -3.587  1.00  0.00     0.173 A 
ATOM     42  C   UNL     1       4.938  10.234  -1.196  1.00  0.00     0.173 A 
ATOM     43  F   UNL     1       4.432   9.985  -4.785  1.00  0.00    -0.203 F 
ATOM     44  C   UNL     1       6.198  10.925  -3.558  1.00  0.00     0.198 A 
ATOM     45  C   UNL     1       6.128  10.962  -1.168  1.00  0.00     0.198 A 
ATOM     46  F   UNL     1       4.391   9.887  -0.020  1.00  0.00    -0.203 F 
ATOM     47  F   UNL     1       6.837  11.192  -4.705  1.00  0.00    -0.200 F 
ATOM     48  C   UNL     1       6.774  11.280  -2.349  1.00  0.00     0.200 A 
ATOM     49  F   UNL     1       6.659  11.332   0.005  1.00  0.00    -0.200 F 
ATOM     50  F   UNL     1       7.950  11.920  -2.324  1.00  0.00    -0.200 F 
ENDBRANCH  26  40
BRANCH  27  51
ATOM     51  C   UNL     1      -2.900   2.732  -1.362  1.00  0.00     0.064 A 
ATOM     52  C   UNL     1      -4.065   2.615  -2.129  1.00  0.00     0.173 A 
ATOM     53  C   UNL     1      -2.599   1.677  -0.480  1.00  0.00     0.173 A 
ATOM     54  F   UNL     1      -4.398   3.590  -2.988  1.00  0.00    -0.203 F 
ATOM     55  C   UNL     1      -4.886   1.491  -2.033  1.00  0.00     0.198 A 
ATOM     56  C   UNL     1      -3.401   0.538  -0.411  1.00  0.00     0.198 A 
ATOM     57  F   UNL     1      -1.477   1.715   0.255  1.00  0.00    -0.203 F 
ATOM     58  F   UNL     1      -5.998   1.412  -2.776  1.00  0.00    -0.200 F 
ATOM     59  C   UNL     1      -4.546   0.447  -1.186  1.00  0.00     0.200 A 
ATOM     60  F   UNL     1      -3.044  -0.485   0.379  1.00  0.00    -0.200 F 
ATOM     61  F   UNL     1      -5.315  -0.649  -1.125  1.00  0.00    -0.200 F 
ENDBRANCH  27  51
BRANCH  39  62
ATOM     62  C   UNL     1      -2.477   9.573   0.057  1.00  0.00     0.064 A 
ATOM     63  C   UNL     1      -2.876   9.592   1.397  1.00  0.00     0.173 A 
ATOM     64  C   UNL     1      -2.968  10.558  -0.811  1.00  0.00     0.173 A 
ATOM     65  F   UNL     1      -2.444   8.648   2.246  1.00  0.00    -0.203 F 
ATOM     66  C   UNL     1      -3.745  10.574   1.855  1.00  0.00     0.198 A 
ATOM     67  C   UNL     1      -3.807  11.557  -0.341  1.00  0.00     0.198 A 
ATOM     68  F   UNL     1      -2.607  10.564  -2.103  1.00  0.00    -0.203 F 
ATOM     69  F   UNL     1      -4.148  10.563   3.133  1.00  0.00    -0.200 F 
ATOM     70  C   UNL     1      -4.196  11.563   0.991  1.00  0.00     0.200 A 
ATOM     71  F   UNL     1      -4.227  12.520  -1.172  1.00  0.00    -0.200 F 
ATOM     72  F   UNL     1      -5.009  12.526   1.443  1.00  0.00    -0.200 F 
ENDBRANCH  39  62
ENDBRANCH  13  14
ENDBRANCH   6   8
ENDBRANCH   5   6
ENDBRANCH   4   5
ENDBRANCH   3   4
ENDBRANCH   2   3
ENDBRANCH   1   2
BRANCH   1  73
ATOM     73  C   UNL     1       5.573  -3.240  -6.284  1.00  0.00     0.188 C 
BRANCH  73  74
ATOM     74  O   UNL     1       5.221  -3.815  -7.529  1.00  0.00    -0.376 OA
BRANCH  74  75
ATOM     75  C   UNL     1       4.584  -2.966  -8.471  1.00  0.00     0.202 C 
BRANCH  75  76
ATOM     76  C   UNL     1       3.205  -2.383  -8.111  1.00  0.00     0.261 C 
BRANCH  76  77
ATOM     77  O   UNL     1       3.087  -1.764  -6.812  1.00  0.00    -0.462 OA
BRANCH  77  78
ATOM     78  C   UNL     1       2.516  -2.523  -5.838  1.00  0.00     0.329 C 
ATOM     79  O   UNL     1       2.140  -3.680  -6.007  1.00  0.00    -0.250 OA
BRANCH  78  80
ATOM     80  C   UNL     1       2.347  -1.791  -4.479  1.00  0.00     0.206 C 
ATOM     81  C   UNL     1       0.835  -1.816  -4.224  1.00  0.00     0.108 C 
ATOM     82  N   UNL     1       2.787  -0.367  -4.336  1.00  0.00    -0.315 N 
ATOM     83  S   UNL     1       0.230  -0.291  -5.000  1.00  0.00    -0.138 SA
ATOM     84  C   UNL     1       1.888   0.462  -5.125  1.00  0.00     0.191 C 
BRANCH  82  85
ATOM     85  C   UNL     1       3.873  -0.035  -3.458  1.00  0.00     0.255 C 
ATOM     86  O   UNL     1       4.418  -0.951  -2.831  1.00  0.00    -0.269 OA
BRANCH  85  87
ATOM     87  C   UNL     1       4.398   1.451  -3.044  1.00  0.00     0.041 A 
ATOM     88  C   UNL     1       3.533   1.833  -1.486  1.00  0.00     0.014 A 
ATOM     89  C   UNL     1       5.672   2.888  -3.710  1.00  0.00     0.034 A 
ATOM     90  C   UNL     1       3.778   3.425  -0.726  1.00  0.00     0.002 A 
ATOM     91  C   UNL     1       5.852   4.413  -2.801  1.00  0.00     0.041 A 
ATOM     92  C   UNL     1       4.896   4.652  -1.366  1.00  0.00     0.020 A 
ATOM     93  Cl  UNL     1       7.060   5.537  -3.285  1.00  0.00    -0.084 Cl
ENDBRANCH  85  87
ENDBRANCH  82  85
ENDBRANCH  78  80
ENDBRANCH  77  78
ENDBRANCH  76  77
ENDBRANCH  75  76
ENDBRANCH  74  75
ENDBRANCH  73  74
ENDBRANCH   1  73
TORSDOF 19
