REMARK SMILES CC[NH2+][C@@]1(C(=O)OCCOCCOCCOC(=O)c2ccc(-c3c4nc(c(-c5c(F)c(F)c(F)c(F)c5F)c5ccc([nH]5)c(-c5c(F)c(F)c(F)c(F)c5F)c5nc(c(-c6c(F)c(F)c(F)c(F)c6F)c6ccc3[nH]6)C=C5)C=C4)cc2)CCC[C@H]1CCN1C(=O)CCC1=O
REMARK SMILES IDX 11 1 10 2 9 3 8 4 7 5 5 6 6 7 4 8 82 9 85 10 83 11 84 12
REMARK SMILES IDX 3 13 2 16 1 17 86 18 87 19 88 20 89 21 93 22 90 23 91 24
REMARK SMILES IDX 92 25 94 26 12 27 13 28 14 29 15 30 16 31 17 32 18 33 19 34
REMARK SMILES IDX 20 35 81 36 21 37 80 38 22 39 23 40 24 41 74 42 25 43 79 44
REMARK SMILES IDX 73 45 75 46 26 47 78 48 72 49 71 50 27 52 59 53 39 54 58 55
REMARK SMILES IDX 40 56 43 57 57 58 76 59 41 60 42 61 56 63 77 64 44 65 28 66
REMARK SMILES IDX 29 67 37 68 30 69 31 70 35 71 38 72 32 73 33 74 36 75 34 76
REMARK SMILES IDX 60 77 61 78 69 79 62 80 63 81 67 82 70 83 64 84 65 85 68 86
REMARK SMILES IDX 66 87 45 88 46 89 54 90 47 91 48 92 52 93 55 94 49 95 50 96
REMARK SMILES IDX 53 97 51 98
REMARK H PARENT 3 14 3 15 75 51 43 62
REMARK Flexibility Score: inf
ROOT
ATOM      1  C   UNL     1       3.012   0.116   5.342  1.00  0.00     0.188 C 
ENDROOT
BRANCH   1   2
ATOM      2  O   UNL     1       2.972   0.442   6.711  1.00  0.00    -0.376 OA
BRANCH   2   3
ATOM      3  C   UNL     1       1.835   0.050   7.469  1.00  0.00     0.202 C 
BRANCH   3   4
ATOM      4  C   UNL     1       0.459  -0.208   6.833  1.00  0.00     0.261 C 
BRANCH   4   5
ATOM      5  O   UNL     1       0.434  -1.045   5.654  1.00  0.00    -0.459 OA
BRANCH   5   6
ATOM      6  C   UNL     1      -0.264  -0.526   4.606  1.00  0.00     0.368 C 
ATOM      7  O   UNL     1      -0.825   0.570   4.658  1.00  0.00    -0.245 OA
BRANCH   6   8
ATOM      8  C   UNL     1      -0.314  -1.419   3.295  1.00  0.00     0.197 C 
ATOM      9  C   UNL     1      -1.811  -1.790   3.193  1.00  0.00     0.081 C 
ATOM     10  C   UNL     1       0.346  -2.844   3.305  1.00  0.00     0.064 C 
ATOM     11  C   UNL     1      -1.959  -2.925   4.203  1.00  0.00     0.008 C 
ATOM     12  C   UNL     1      -0.638  -3.686   4.160  1.00  0.00     0.011 C 
BRANCH   8  13
ATOM     13  N   UNL     1       0.244  -0.532   2.262  1.00  0.00    -0.332 N 
ATOM     14  H   UNL     1       0.368   0.386   2.690  1.00  0.00     0.347 HD
ATOM     15  H   UNL     1       1.093  -1.009   1.959  1.00  0.00     0.347 HD
BRANCH  13  16
ATOM     16  C   UNL     1      -0.503  -0.333   1.035  1.00  0.00     0.257 C 
ATOM     17  C   UNL     1       0.294   0.543   0.075  1.00  0.00     0.071 C 
ENDBRANCH  13  16
ENDBRANCH   8  13
BRANCH  10  18
ATOM     18  C   UNL     1       0.529  -3.577   1.935  1.00  0.00     0.033 C 
BRANCH  18  19
ATOM     19  C   UNL     1       1.581  -3.111   0.911  1.00  0.00     0.129 C 
BRANCH  19  20
ATOM     20  N   UNL     1       2.994  -3.334   1.184  1.00  0.00    -0.283 N 
ATOM     21  C   UNL     1       3.546  -4.549   1.476  1.00  0.00     0.229 C 
ATOM     22  C   UNL     1       3.946  -2.455   0.747  1.00  0.00     0.229 C 
ATOM     23  O   UNL     1       2.951  -5.596   1.672  1.00  0.00    -0.274 OA
ATOM     24  C   UNL     1       5.043  -4.432   1.462  1.00  0.00     0.110 C 
ATOM     25  C   UNL     1       5.309  -3.062   0.887  1.00  0.00     0.110 C 
ATOM     26  O   UNL     1       3.741  -1.347   0.265  1.00  0.00    -0.274 OA
ENDBRANCH  19  20
ENDBRANCH  18  19
ENDBRANCH  10  18
ENDBRANCH   6   8
ENDBRANCH   5   6
ENDBRANCH   4   5
ENDBRANCH   3   4
ENDBRANCH   2   3
ENDBRANCH   1   2
BRANCH   1  27
ATOM     27  C   UNL     1       3.168  -1.363   4.960  1.00  0.00     0.188 C 
BRANCH  27  28
ATOM     28  O   UNL     1       2.979  -2.389   5.907  1.00  0.00    -0.376 OA
BRANCH  28  29
ATOM     29  C   UNL     1       3.965  -2.520   6.928  1.00  0.00     0.202 C 
BRANCH  29  30
ATOM     30  C   UNL     1       5.470  -2.306   6.659  1.00  0.00     0.261 C 
BRANCH  30  31
ATOM     31  O   UNL     1       5.808  -1.210   5.787  1.00  0.00    -0.460 OA
BRANCH  31  32
ATOM     32  C   UNL     1       6.514  -1.554   4.680  1.00  0.00     0.338 C 
ATOM     33  O   UNL     1       6.949  -2.656   4.389  1.00  0.00    -0.246 OA
BRANCH  32  34
ATOM     34  C   UNL     1       6.595  -0.431   3.727  1.00  0.00     0.060 A 
ATOM     35  C   UNL     1       5.534  -0.187   2.847  1.00  0.00     0.016 A 
ATOM     36  C   UNL     1       7.813   0.211   3.530  1.00  0.00     0.016 A 
ATOM     37  C   UNL     1       5.676   0.668   1.768  1.00  0.00     0.010 A 
ATOM     38  C   UNL     1       7.956   1.084   2.447  1.00  0.00     0.010 A 
ATOM     39  C   UNL     1       6.895   1.293   1.548  1.00  0.00    -0.014 A 
BRANCH  39  40
ATOM     40  C   UNL     1       7.100   2.042   0.294  1.00  0.00     0.031 A 
ATOM     41  C   UNL     1       8.045   1.485  -0.722  1.00  0.00     0.074 A 
ATOM     42  C   UNL     1       6.413   3.168   0.041  1.00  0.00     0.049 A 
ATOM     43  N   UNL     1       8.654   2.088  -1.705  1.00  0.00    -0.248 NA
ATOM     44  C   UNL     1       8.346   0.048  -0.611  1.00  0.00     0.031 C 
ATOM     45  C   UNL     1       5.318   3.701   0.851  1.00  0.00     0.029 A 
ATOM     46  N   UNL     1       6.558   4.080  -0.972  1.00  0.00    -0.354 N 
ATOM     47  C   UNL     1       9.459   1.123  -2.292  1.00  0.00     0.074 A 
ATOM     48  C   UNL     1       9.245  -0.114  -1.572  1.00  0.00     0.031 C 
ATOM     49  C   UNL     1       4.910   4.865   0.321  1.00  0.00     0.029 A 
ATOM     50  C   UNL     1       5.790   5.204  -0.791  1.00  0.00     0.049 A 
ATOM     51  H   UNL     1       7.149   3.944  -1.747  1.00  0.00     0.167 HD
ATOM     52  C   UNL     1      10.316   1.284  -3.325  1.00  0.00     0.037 A 
ATOM     53  C   UNL     1       5.865   6.404  -1.393  1.00  0.00     0.037 A 
ATOM     54  C   UNL     1      10.477   2.529  -4.029  1.00  0.00     0.049 A 
ATOM     55  C   UNL     1       6.928   6.616  -2.437  1.00  0.00     0.074 A 
ATOM     56  C   UNL     1      11.350   2.841  -5.054  1.00  0.00     0.029 A 
ATOM     57  N   UNL     1       9.727   3.671  -3.776  1.00  0.00    -0.354 N 
ATOM     58  N   UNL     1       7.802   5.761  -2.913  1.00  0.00    -0.248 NA
ATOM     59  C   UNL     1       7.037   7.965  -3.007  1.00  0.00     0.031 C 
ATOM     60  C   UNL     1      11.160   4.185  -5.390  1.00  0.00     0.029 A 
ATOM     61  C   UNL     1      10.127   4.693  -4.617  1.00  0.00     0.049 A 
ATOM     62  H   UNL     1       9.015   3.741  -3.099  1.00  0.00     0.167 HD
ATOM     63  C   UNL     1       8.538   6.455  -3.863  1.00  0.00     0.074 A 
ATOM     64  C   UNL     1       8.011   7.804  -3.893  1.00  0.00     0.031 C 
ATOM     65  C   UNL     1       9.555   6.016  -4.644  1.00  0.00     0.037 A 
BRANCH  52  66
ATOM     66  C   UNL     1      11.190   0.125  -3.699  1.00  0.00     0.064 A 
ATOM     67  C   UNL     1      10.689  -1.017  -4.339  1.00  0.00     0.173 A 
ATOM     68  C   UNL     1      12.568   0.175  -3.432  1.00  0.00     0.173 A 
ATOM     69  F   UNL     1       9.377  -1.127  -4.596  1.00  0.00    -0.203 F 
ATOM     70  C   UNL     1      11.532  -2.071  -4.684  1.00  0.00     0.198 A 
ATOM     71  C   UNL     1      13.412  -0.866  -3.805  1.00  0.00     0.198 A 
ATOM     72  F   UNL     1      13.099   1.243  -2.816  1.00  0.00    -0.203 F 
ATOM     73  F   UNL     1      11.025  -3.172  -5.256  1.00  0.00    -0.200 F 
ATOM     74  C   UNL     1      12.893  -1.991  -4.426  1.00  0.00     0.200 A 
ATOM     75  F   UNL     1      14.727  -0.781  -3.561  1.00  0.00    -0.200 F 
ATOM     76  F   UNL     1      13.703  -3.003  -4.767  1.00  0.00    -0.200 F 
ENDBRANCH  52  66
BRANCH  53  77
ATOM     77  C   UNL     1       4.978   7.513  -0.954  1.00  0.00     0.064 A 
ATOM     78  C   UNL     1       4.016   8.052  -1.817  1.00  0.00     0.173 A 
ATOM     79  C   UNL     1       5.076   8.060   0.336  1.00  0.00     0.173 A 
ATOM     80  F   UNL     1       3.901   7.582  -3.068  1.00  0.00    -0.203 F 
ATOM     81  C   UNL     1       3.194   9.102  -1.412  1.00  0.00     0.198 A 
ATOM     82  C   UNL     1       4.231   9.087   0.751  1.00  0.00     0.198 A 
ATOM     83  F   UNL     1       5.985   7.587   1.201  1.00  0.00    -0.203 F 
ATOM     84  F   UNL     1       2.315   9.631  -2.273  1.00  0.00    -0.200 F 
ATOM     85  C   UNL     1       3.297   9.613  -0.126  1.00  0.00     0.200 A 
ATOM     86  F   UNL     1       4.325   9.566   1.999  1.00  0.00    -0.200 F 
ATOM     87  F   UNL     1       2.502  10.619   0.263  1.00  0.00    -0.200 F 
ENDBRANCH  53  77
BRANCH  65  88
ATOM     88  C   UNL     1      10.110   6.973  -5.655  1.00  0.00     0.064 A 
ATOM     89  C   UNL     1      10.945   8.037  -5.289  1.00  0.00     0.173 A 
ATOM     90  C   UNL     1       9.858   6.769  -7.021  1.00  0.00     0.173 A 
ATOM     91  F   UNL     1      11.200   8.280  -3.995  1.00  0.00    -0.203 F 
ATOM     92  C   UNL     1      11.501   8.870  -6.255  1.00  0.00     0.198 A 
ATOM     93  C   UNL     1      10.439   7.585  -7.985  1.00  0.00     0.198 A 
ATOM     94  F   UNL     1       9.070   5.758  -7.419  1.00  0.00    -0.203 F 
ATOM     95  F   UNL     1      12.271   9.902  -5.884  1.00  0.00    -0.200 F 
ATOM     96  C   UNL     1      11.257   8.637  -7.602  1.00  0.00     0.200 A 
ATOM     97  F   UNL     1      10.215   7.348  -9.285  1.00  0.00    -0.200 F 
ATOM     98  F   UNL     1      11.809   9.428  -8.531  1.00  0.00    -0.200 F 
ENDBRANCH  65  88
ENDBRANCH  39  40
ENDBRANCH  32  34
ENDBRANCH  31  32
ENDBRANCH  30  31
ENDBRANCH  29  30
ENDBRANCH  28  29
ENDBRANCH  27  28
ENDBRANCH   1  27
TORSDOF 22
