REMARK SMILES CC[C@H](C(C)C)[C@](C)(O)C(=O)OCCOCCOCCOC(=O)c1ccc(-c2c3nc(c(-c4c(F)c(F)c(F)c(F)c4F)c4ccc([nH]4)c(-c4c(F)c(F)c(F)c(F)c4F)c4nc(c(-c5c(F)c(F)c(F)c(F)c5F)c5ccc2[nH]5)C=C4)C=C3)cc1
REMARK SMILES IDX 16 1 15 2 14 3 13 4 12 5 10 6 11 7 7 8 8 9 3 10 2 11 1 12
REMARK SMILES IDX 4 13 5 14 6 15 9 16 17 18 18 19 19 20 20 21 21 22 22 23
REMARK SMILES IDX 23 24 24 25 25 26 86 27 26 28 85 29 27 30 28 31 29 32 79 33
REMARK SMILES IDX 30 34 84 35 78 36 80 37 31 38 83 39 77 40 76 41 32 43 64 44
REMARK SMILES IDX 44 45 63 46 45 47 48 48 62 49 81 50 46 51 47 52 61 54 82 55
REMARK SMILES IDX 49 56 33 57 34 58 42 59 35 60 36 61 40 62 43 63 37 64 38 65
REMARK SMILES IDX 41 66 39 67 65 68 66 69 74 70 67 71 68 72 72 73 75 74 69 75
REMARK SMILES IDX 70 76 73 77 71 78 50 79 51 80 59 81 52 82 53 83 57 84 60 85
REMARK SMILES IDX 54 86 55 87 58 88 56 89
REMARK H PARENT 9 17 80 42 48 53
REMARK Flexibility Score: inf
ROOT
ATOM      1  C   UNL     1      -2.690   0.633   3.562  1.00  0.00     0.188 C 
ENDROOT
BRANCH   1   2
ATOM      2  O   UNL     1      -3.994   0.075   3.510  1.00  0.00    -0.376 OA
BRANCH   2   3
ATOM      3  C   UNL     1      -4.188  -1.228   4.054  1.00  0.00     0.202 C 
BRANCH   3   4
ATOM      4  C   UNL     1      -3.216  -2.369   3.688  1.00  0.00     0.261 C 
BRANCH   4   5
ATOM      5  O   UNL     1      -1.822  -2.059   3.884  1.00  0.00    -0.461 OA
BRANCH   5   6
ATOM      6  C   UNL     1      -0.986  -2.280   2.830  1.00  0.00     0.338 C 
ATOM      7  O   UNL     1      -1.327  -2.834   1.788  1.00  0.00    -0.249 OA
BRANCH   6   8
ATOM      8  C   UNL     1       0.446  -1.655   3.031  1.00  0.00     0.162 C 
ATOM      9  C   UNL     1       0.488  -0.487   2.025  1.00  0.00     0.055 C 
BRANCH   8  10
ATOM     10  C   UNL     1       1.501  -2.810   2.887  1.00  0.00     0.034 C 
BRANCH  10  11
ATOM     11  C   UNL     1       2.069  -3.366   4.243  1.00  0.00     0.004 C 
ATOM     12  C   UNL     1       2.721  -2.417   5.250  1.00  0.00     0.004 C 
ENDBRANCH  10  11
BRANCH  10  13
ATOM     13  C   UNL     1       2.620  -2.675   1.806  1.00  0.00    -0.011 C 
ATOM     14  C   UNL     1       2.079  -2.465   0.384  1.00  0.00     0.008 C 
ATOM     15  C   UNL     1       3.728  -1.676   2.135  1.00  0.00     0.008 C 
ENDBRANCH  10  13
ENDBRANCH   8  10
BRANCH   8  16
ATOM     16  O   UNL     1       0.662  -1.041   4.292  1.00  0.00    -0.378 OA
ATOM     17  H   UNL     1       0.024  -0.321   4.414  1.00  0.00     0.212 HD
ENDBRANCH   8  16
ENDBRANCH   6   8
ENDBRANCH   5   6
ENDBRANCH   4   5
ENDBRANCH   3   4
ENDBRANCH   2   3
ENDBRANCH   1   2
BRANCH   1  18
ATOM     18  C   UNL     1      -1.922   0.616   4.893  1.00  0.00     0.188 C 
BRANCH  18  19
ATOM     19  O   UNL     1      -2.552  -0.027   5.963  1.00  0.00    -0.376 OA
BRANCH  19  20
ATOM     20  C   UNL     1      -3.193   0.729   6.965  1.00  0.00     0.202 C 
BRANCH  20  21
ATOM     21  C   UNL     1      -3.628   2.203   6.823  1.00  0.00     0.261 C 
BRANCH  21  22
ATOM     22  O   UNL     1      -3.203   2.949   5.675  1.00  0.00    -0.460 OA
BRANCH  22  23
ATOM     23  C   UNL     1      -2.058   3.672   5.803  1.00  0.00     0.338 C 
ATOM     24  O   UNL     1      -1.342   3.755   6.778  1.00  0.00    -0.246 OA
BRANCH  23  25
ATOM     25  C   UNL     1      -1.691   4.176   4.457  1.00  0.00     0.060 A 
ATOM     26  C   UNL     1      -0.500   3.739   3.853  1.00  0.00     0.016 A 
ATOM     27  C   UNL     1      -2.527   5.071   3.793  1.00  0.00     0.016 A 
ATOM     28  C   UNL     1      -0.136   4.207   2.586  1.00  0.00     0.010 A 
ATOM     29  C   UNL     1      -2.149   5.560   2.541  1.00  0.00     0.010 A 
ATOM     30  C   UNL     1      -0.942   5.152   1.940  1.00  0.00    -0.014 A 
BRANCH  30  31
ATOM     31  C   UNL     1      -0.470   5.893   0.743  1.00  0.00     0.031 A 
ATOM     32  C   UNL     1       0.101   7.267   0.949  1.00  0.00     0.074 A 
ATOM     33  C   UNL     1      -0.631   5.417  -0.503  1.00  0.00     0.049 A 
ATOM     34  N   UNL     1       0.345   8.212   0.078  1.00  0.00    -0.248 NA
ATOM     35  C   UNL     1       0.420   7.625   2.339  1.00  0.00     0.031 C 
ATOM     36  C   UNL     1      -1.121   4.086  -0.844  1.00  0.00     0.029 A 
ATOM     37  N   UNL     1      -0.438   6.032  -1.718  1.00  0.00    -0.354 N 
ATOM     38  C   UNL     1       0.810   9.290   0.819  1.00  0.00     0.074 A 
ATOM     39  C   UNL     1       0.802   8.885   2.208  1.00  0.00     0.031 C 
ATOM     40  C   UNL     1      -1.239   3.999  -2.180  1.00  0.00     0.029 A 
ATOM     41  C   UNL     1      -0.884   5.286  -2.781  1.00  0.00     0.049 A 
ATOM     42  H   UNL     1      -0.022   6.920  -1.815  1.00  0.00     0.167 HD
ATOM     43  C   UNL     1       1.196  10.512   0.380  1.00  0.00     0.037 A 
ATOM     44  C   UNL     1      -1.042   5.622  -4.078  1.00  0.00     0.037 A 
ATOM     45  C   UNL     1       1.190  10.913  -1.002  1.00  0.00     0.049 A 
ATOM     46  C   UNL     1      -0.679   7.011  -4.544  1.00  0.00     0.074 A 
ATOM     47  C   UNL     1       1.591  12.117  -1.552  1.00  0.00     0.029 A 
ATOM     48  N   UNL     1       0.738  10.125  -2.051  1.00  0.00    -0.354 N 
ATOM     49  N   UNL     1      -0.225   8.026  -3.849  1.00  0.00    -0.248 NA
ATOM     50  C   UNL     1      -0.854   7.302  -5.975  1.00  0.00     0.031 C 
ATOM     51  C   UNL     1       1.314  12.085  -2.922  1.00  0.00     0.029 A 
ATOM     52  C   UNL     1       0.817  10.831  -3.241  1.00  0.00     0.049 A 
ATOM     53  H   UNL     1       0.410   9.200  -1.963  1.00  0.00     0.167 HD
ATOM     54  C   UNL     1      -0.028   9.060  -4.758  1.00  0.00     0.074 A 
ATOM     55  C   UNL     1      -0.414   8.551  -6.057  1.00  0.00     0.031 C 
ATOM     56  C   UNL     1       0.440  10.314  -4.535  1.00  0.00     0.037 A 
BRANCH  43  57
ATOM     57  C   UNL     1       1.592  11.521   1.421  1.00  0.00     0.064 A 
ATOM     58  C   UNL     1       2.744  11.369   2.209  1.00  0.00     0.173 A 
ATOM     59  C   UNL     1       0.792  12.652   1.644  1.00  0.00     0.173 A 
ATOM     60  F   UNL     1       3.538  10.300   2.046  1.00  0.00    -0.203 F 
ATOM     61  C   UNL     1       3.050  12.284   3.214  1.00  0.00     0.198 A 
ATOM     62  C   UNL     1       1.123  13.586   2.622  1.00  0.00     0.198 A 
ATOM     63  F   UNL     1      -0.317  12.852   0.917  1.00  0.00    -0.203 F 
ATOM     64  F   UNL     1       4.112  12.075   4.005  1.00  0.00    -0.200 F 
ATOM     65  C   UNL     1       2.243  13.392   3.417  1.00  0.00     0.200 A 
ATOM     66  F   UNL     1       0.351  14.665   2.805  1.00  0.00    -0.200 F 
ATOM     67  F   UNL     1       2.536  14.268   4.387  1.00  0.00    -0.200 F 
ENDBRANCH  43  57
BRANCH  44  68
ATOM     68  C   UNL     1      -1.611   4.627  -5.024  1.00  0.00     0.064 A 
ATOM     69  C   UNL     1      -0.823   4.043  -6.024  1.00  0.00     0.173 A 
ATOM     70  C   UNL     1      -2.953   4.224  -4.934  1.00  0.00     0.173 A 
ATOM     71  F   UNL     1       0.456   4.418  -6.171  1.00  0.00    -0.203 F 
ATOM     72  C   UNL     1      -1.353   3.096  -6.898  1.00  0.00     0.198 A 
ATOM     73  C   UNL     1      -3.474   3.255  -5.789  1.00  0.00     0.198 A 
ATOM     74  F   UNL     1      -3.753   4.758  -3.999  1.00  0.00    -0.203 F 
ATOM     75  F   UNL     1      -0.586   2.578  -7.867  1.00  0.00    -0.200 F 
ATOM     76  C   UNL     1      -2.675   2.694  -6.773  1.00  0.00     0.200 A 
ATOM     77  F   UNL     1      -4.749   2.863  -5.656  1.00  0.00    -0.200 F 
ATOM     78  F   UNL     1      -3.179   1.771  -7.603  1.00  0.00    -0.200 F 
ENDBRANCH  44  68
BRANCH  56  79
ATOM     79  C   UNL     1       0.625  11.223  -5.719  1.00  0.00     0.064 A 
ATOM     80  C   UNL     1      -0.460  11.789  -6.403  1.00  0.00     0.173 A 
ATOM     81  C   UNL     1       1.918  11.598  -6.121  1.00  0.00     0.173 A 
ATOM     82  F   UNL     1      -1.716  11.457  -6.069  1.00  0.00    -0.203 F 
ATOM     83  C   UNL     1      -0.259  12.686  -7.450  1.00  0.00     0.198 A 
ATOM     84  C   UNL     1       2.115  12.519  -7.146  1.00  0.00     0.198 A 
ATOM     85  F   UNL     1       2.993  11.092  -5.497  1.00  0.00    -0.203 F 
ATOM     86  F   UNL     1      -1.310  13.189  -8.112  1.00  0.00    -0.200 F 
ATOM     87  C   UNL     1       1.028  13.059  -7.813  1.00  0.00     0.200 A 
ATOM     88  F   UNL     1       3.359  12.892  -7.480  1.00  0.00    -0.200 F 
ATOM     89  F   UNL     1       1.218  13.939  -8.806  1.00  0.00    -0.200 F 
ENDBRANCH  56  79
ENDBRANCH  30  31
ENDBRANCH  23  25
ENDBRANCH  22  23
ENDBRANCH  21  22
ENDBRANCH  20  21
ENDBRANCH  19  20
ENDBRANCH  18  19
ENDBRANCH   1  18
TORSDOF 21
