REMARK SMILES NC(=O)c1c(F)cccc1O[C@@H](F)C(=O)OCCOCCOCCOC(=O)c1ccc(-c2c3nc(c(-c4c(F)c(F)c(F)c(F)c4F)c4ccc([nH]4)c(-c4c(F)c(F)c(F)c(F)c4F)c4nc(c(-c5c(F)c(F)c(F)c(F)c5F)c5ccc2[nH]5)C=C4)C=C3)cc1
REMARK SMILES IDX 20 1 19 2 18 3 17 4 16 5 14 6 15 7 12 8 13 9 11 10 10 11
REMARK SMILES IDX 4 12 5 13 6 14 7 15 9 16 8 17 2 18 1 19 3 22 21 23 22 24
REMARK SMILES IDX 23 25 24 26 25 27 26 28 27 29 28 30 29 31 90 32 30 33 89 34
REMARK SMILES IDX 31 35 32 36 33 37 83 38 34 39 88 40 82 41 84 42 35 43 87 44
REMARK SMILES IDX 81 45 80 46 36 48 68 49 48 50 67 51 49 52 52 53 66 54 85 55
REMARK SMILES IDX 50 56 51 57 65 59 86 60 53 61 37 62 38 63 46 64 39 65 40 66
REMARK SMILES IDX 44 67 47 68 41 69 42 70 45 71 43 72 69 73 70 74 78 75 71 76
REMARK SMILES IDX 72 77 76 78 79 79 73 80 74 81 77 82 75 83 54 84 55 85 63 86
REMARK SMILES IDX 56 87 57 88 61 89 64 90 58 91 59 92 62 93 60 94
REMARK H PARENT 1 20 1 21 84 47 52 58
REMARK Flexibility Score: inf
ROOT
ATOM      1  C   UNL     1       0.524  -3.608   2.467  1.00  0.00     0.188 C 
ENDROOT
BRANCH   1   2
ATOM      2  O   UNL     1       1.228  -4.162   1.363  1.00  0.00    -0.376 OA
BRANCH   2   3
ATOM      3  C   UNL     1       1.812  -3.278   0.408  1.00  0.00     0.202 C 
BRANCH   3   4
ATOM      4  C   UNL     1       0.950  -2.131  -0.142  1.00  0.00     0.261 C 
BRANCH   4   5
ATOM      5  O   UNL     1       0.403  -1.278   0.885  1.00  0.00    -0.458 OA
BRANCH   5   6
ATOM      6  C   UNL     1      -0.927  -0.973   0.791  1.00  0.00     0.381 C 
ATOM      7  O   UNL     1      -1.644  -1.349  -0.132  1.00  0.00    -0.244 OA
BRANCH   6   8
ATOM      8  C   UNL     1      -1.468  -0.262   2.075  1.00  0.00     0.461 C 
ATOM      9  F   UNL     1      -2.597   0.467   1.810  1.00  0.00    -0.189 F 
BRANCH   8  10
ATOM     10  O   UNL     1      -0.800   0.416   3.119  1.00  0.00    -0.450 OA
BRANCH  10  11
ATOM     11  C   UNL     1       0.379   1.084   3.021  1.00  0.00     0.139 A 
ATOM     12  C   UNL     1       1.010   1.649   1.910  1.00  0.00     0.117 A 
ATOM     13  C   UNL     1       2.268   2.251   2.067  1.00  0.00     0.139 A 
ATOM     14  F   UNL     1       2.906   2.790   1.016  1.00  0.00    -0.206 F 
ATOM     15  C   UNL     1       2.895   2.328   3.308  1.00  0.00     0.040 A 
ATOM     16  C   UNL     1       1.014   1.193   4.277  1.00  0.00     0.047 A 
ATOM     17  C   UNL     1       2.260   1.805   4.425  1.00  0.00     0.007 A 
BRANCH  12  18
ATOM     18  C   UNL     1       0.379   1.723   0.583  1.00  0.00     0.255 C 
ATOM     19  N   UNL     1       1.147   1.389  -0.495  1.00  0.00    -0.365 N 
ATOM     20  H   UNL     1       0.766   1.425  -1.401  1.00  0.00     0.159 HD
ATOM     21  H   UNL     1       2.084   1.113  -0.365  1.00  0.00     0.159 HD
ATOM     22  O   UNL     1      -0.803   2.003   0.454  1.00  0.00    -0.269 OA
ENDBRANCH  12  18
ENDBRANCH  10  11
ENDBRANCH   8  10
ENDBRANCH   6   8
ENDBRANCH   5   6
ENDBRANCH   4   5
ENDBRANCH   3   4
ENDBRANCH   2   3
ENDBRANCH   1   2
BRANCH   1  23
ATOM     23  C   UNL     1       1.198  -2.501   3.304  1.00  0.00     0.188 C 
BRANCH  23  24
ATOM     24  O   UNL     1       2.429  -2.052   2.778  1.00  0.00    -0.376 OA
BRANCH  24  25
ATOM     25  C   UNL     1       3.599  -2.363   3.518  1.00  0.00     0.202 C 
BRANCH  25  26
ATOM     26  C   UNL     1       3.883  -3.822   3.929  1.00  0.00     0.261 C 
BRANCH  26  27
ATOM     27  O   UNL     1       2.760  -4.624   4.331  1.00  0.00    -0.460 OA
BRANCH  27  28
ATOM     28  C   UNL     1       2.295  -4.469   5.591  1.00  0.00     0.338 C 
ATOM     29  O   UNL     1       2.718  -3.703   6.441  1.00  0.00    -0.246 OA
BRANCH  28  30
ATOM     30  C   UNL     1       1.023  -5.222   5.698  1.00  0.00     0.060 A 
ATOM     31  C   UNL     1      -0.164  -4.523   5.968  1.00  0.00     0.016 A 
ATOM     32  C   UNL     1       0.995  -6.604   5.504  1.00  0.00     0.016 A 
ATOM     33  C   UNL     1      -1.377  -5.209   6.071  1.00  0.00     0.010 A 
ATOM     34  C   UNL     1      -0.214  -7.294   5.636  1.00  0.00     0.010 A 
ATOM     35  C   UNL     1      -1.400  -6.605   5.952  1.00  0.00    -0.014 A 
BRANCH  35  36
ATOM     36  C   UNL     1      -2.602  -7.367   6.373  1.00  0.00     0.031 A 
ATOM     37  C   UNL     1      -2.623  -7.938   7.764  1.00  0.00     0.074 A 
ATOM     38  C   UNL     1      -3.655  -7.548   5.556  1.00  0.00     0.049 A 
ATOM     39  N   UNL     1      -3.513  -8.707   8.338  1.00  0.00    -0.248 NA
ATOM     40  C   UNL     1      -1.480  -7.595   8.626  1.00  0.00     0.031 C 
ATOM     41  C   UNL     1      -3.783  -7.002   4.208  1.00  0.00     0.029 A 
ATOM     42  N   UNL     1      -4.818  -8.256   5.747  1.00  0.00    -0.354 N 
ATOM     43  C   UNL     1      -3.032  -8.945   9.618  1.00  0.00     0.074 A 
ATOM     44  C   UNL     1      -1.760  -8.268   9.731  1.00  0.00     0.031 C 
ATOM     45  C   UNL     1      -4.956  -7.404   3.687  1.00  0.00     0.029 A 
ATOM     46  C   UNL     1      -5.643  -8.267   4.649  1.00  0.00     0.049 A 
ATOM     47  H   UNL     1      -5.038  -8.712   6.591  1.00  0.00     0.167 HD
ATOM     48  C   UNL     1      -3.606  -9.658  10.615  1.00  0.00     0.037 A 
ATOM     49  C   UNL     1      -6.806  -8.918   4.439  1.00  0.00     0.037 A 
ATOM     50  C   UNL     1      -4.872 -10.331  10.502  1.00  0.00     0.049 A 
ATOM     51  C   UNL     1      -7.387  -9.776   5.536  1.00  0.00     0.074 A 
ATOM     52  C   UNL     1      -5.539 -11.073  11.460  1.00  0.00     0.029 A 
ATOM     53  N   UNL     1      -5.659 -10.348   9.360  1.00  0.00    -0.354 N 
ATOM     54  N   UNL     1      -6.931  -9.995   6.745  1.00  0.00    -0.248 NA
ATOM     55  C   UNL     1      -8.646 -10.477   5.239  1.00  0.00     0.031 C 
ATOM     56  C   UNL     1      -6.699 -11.590  10.880  1.00  0.00     0.029 A 
ATOM     57  C   UNL     1      -6.794 -11.110   9.584  1.00  0.00     0.049 A 
ATOM     58  H   UNL     1      -5.444  -9.888   8.517  1.00  0.00     0.167 HD
ATOM     59  C   UNL     1      -7.859 -10.825   7.363  1.00  0.00     0.074 A 
ATOM     60  C   UNL     1      -8.909 -11.069   6.397  1.00  0.00     0.031 C 
ATOM     61  C   UNL     1      -7.843 -11.334   8.620  1.00  0.00     0.037 A 
BRANCH  48  62
ATOM     62  C   UNL     1      -2.864  -9.766  11.915  1.00  0.00     0.064 A 
ATOM     63  C   UNL     1      -2.341 -10.999  12.332  1.00  0.00     0.173 A 
ATOM     64  C   UNL     1      -2.727  -8.669  12.779  1.00  0.00     0.173 A 
ATOM     65  F   UNL     1      -2.446 -12.080  11.544  1.00  0.00    -0.203 F 
ATOM     66  C   UNL     1      -1.726 -11.134  13.573  1.00  0.00     0.198 A 
ATOM     67  C   UNL     1      -2.081  -8.800  14.005  1.00  0.00     0.198 A 
ATOM     68  F   UNL     1      -3.193  -7.463  12.419  1.00  0.00    -0.203 F 
ATOM     69  F   UNL     1      -1.268 -12.331  13.965  1.00  0.00    -0.200 F 
ATOM     70  C   UNL     1      -1.593 -10.034  14.407  1.00  0.00     0.200 A 
ATOM     71  F   UNL     1      -1.928  -7.730  14.797  1.00  0.00    -0.200 F 
ATOM     72  F   UNL     1      -0.990 -10.164  15.597  1.00  0.00    -0.200 F 
ENDBRANCH  48  62
BRANCH  49  73
ATOM     73  C   UNL     1      -7.503  -8.777   3.132  1.00  0.00     0.064 A 
ATOM     74  C   UNL     1      -6.958  -9.310   1.953  1.00  0.00     0.173 A 
ATOM     75  C   UNL     1      -8.724  -8.096   3.034  1.00  0.00     0.173 A 
ATOM     76  F   UNL     1      -5.796  -9.979   1.992  1.00  0.00    -0.203 F 
ATOM     77  C   UNL     1      -7.595  -9.143   0.725  1.00  0.00     0.198 A 
ATOM     78  C   UNL     1      -9.375  -7.955   1.809  1.00  0.00     0.198 A 
ATOM     79  F   UNL     1      -9.302  -7.597   4.136  1.00  0.00    -0.203 F 
ATOM     80  F   UNL     1      -7.035  -9.633  -0.390  1.00  0.00    -0.200 F 
ATOM     81  C   UNL     1      -8.805  -8.469   0.654  1.00  0.00     0.200 A 
ATOM     82  F   UNL     1     -10.559  -7.331   1.750  1.00  0.00    -0.200 F 
ATOM     83  F   UNL     1      -9.424  -8.322  -0.525  1.00  0.00    -0.200 F 
ENDBRANCH  49  73
BRANCH  61  84
ATOM     84  C   UNL     1      -9.009 -12.172   9.062  1.00  0.00     0.064 A 
ATOM     85  C   UNL     1      -9.874 -11.705  10.066  1.00  0.00     0.173 A 
ATOM     86  C   UNL     1      -9.214 -13.471   8.575  1.00  0.00     0.173 A 
ATOM     87  F   UNL     1      -9.714 -10.474  10.577  1.00  0.00    -0.203 F 
ATOM     88  C   UNL     1     -10.883 -12.514  10.580  1.00  0.00     0.198 A 
ATOM     89  C   UNL     1     -10.247 -14.265   9.068  1.00  0.00     0.198 A 
ATOM     90  F   UNL     1      -8.422 -13.963   7.611  1.00  0.00    -0.203 F 
ATOM     91  F   UNL     1     -11.664 -12.061  11.571  1.00  0.00    -0.200 F 
ATOM     92  C   UNL     1     -11.072 -13.792  10.078  1.00  0.00     0.200 A 
ATOM     93  F   UNL     1     -10.443 -15.493   8.567  1.00  0.00    -0.200 F 
ATOM     94  F   UNL     1     -12.047 -14.568  10.569  1.00  0.00    -0.200 F 
ENDBRANCH  61  84
ENDBRANCH  35  36
ENDBRANCH  28  30
ENDBRANCH  27  28
ENDBRANCH  26  27
ENDBRANCH  25  26
ENDBRANCH  24  25
ENDBRANCH  23  24
ENDBRANCH   1  23
TORSDOF 20
