REMARK SMILES Nn1c(S[C@@H](C(=O)OCCOCCOCCOC(=O)c2ccc(-c3c4nc(c(-c5c(F)c(F)c(F)c(F)c5F)c5ccc([nH]5)c(-c5c(F)c(F)c(F)c(F)c5F)c5nc(c(-c6c(F)c(F)c(F)c(F)c6F)c6ccc3[nH]6)C=C5)C=C4)cc2)c2ccccc2)nc2ccc(Br)cc2c1=O
REMARK SMILES IDX 12 1 11 2 10 3 9 4 8 5 6 6 7 7 5 8 4 9 3 10 2 11 97 12 89 13
REMARK SMILES IDX 96 14 98 15 90 16 95 17 91 18 93 19 92 20 94 21 1 22 83 25
REMARK SMILES IDX 84 26 88 27 85 28 87 29 86 30 13 31 14 32 15 33 16 34 17 35
REMARK SMILES IDX 18 36 19 37 20 38 21 39 82 40 22 41 81 42 23 43 24 44 25 45
REMARK SMILES IDX 75 46 26 47 80 48 74 49 76 50 27 51 79 52 73 53 72 54 28 56
REMARK SMILES IDX 60 57 40 58 59 59 41 60 44 61 58 62 77 63 42 64 43 65 57 67
REMARK SMILES IDX 78 68 45 69 29 70 30 71 38 72 31 73 32 74 36 75 39 76 33 77
REMARK SMILES IDX 34 78 37 79 35 80 61 81 62 82 70 83 63 84 64 85 68 86 71 87
REMARK SMILES IDX 65 88 66 89 69 90 67 91 46 92 47 93 55 94 48 95 49 96 53 97
REMARK SMILES IDX 56 98 50 99 51 100 54 101 52 102
REMARK H PARENT 1 23 1 24 76 55 44 66
REMARK Flexibility Score: inf
ROOT
ATOM      1  C   UNL     1       2.159   1.900  -0.004  1.00  0.00     0.188 C 
ENDROOT
BRANCH   1   2
ATOM      2  O   UNL     1       3.270   2.060   0.880  1.00  0.00    -0.376 OA
BRANCH   2   3
ATOM      3  C   UNL     1       4.533   2.336   0.294  1.00  0.00     0.202 C 
BRANCH   3   4
ATOM      4  C   UNL     1       5.238   1.136  -0.350  1.00  0.00     0.261 C 
BRANCH   4   5
ATOM      5  O   UNL     1       4.353   0.189  -0.999  1.00  0.00    -0.462 OA
BRANCH   5   6
ATOM      6  C   UNL     1       4.175  -0.966  -0.305  1.00  0.00     0.324 C 
ATOM      7  O   UNL     1       4.724  -1.167   0.781  1.00  0.00    -0.251 OA
BRANCH   6   8
ATOM      8  C   UNL     1       3.296  -2.047  -0.951  1.00  0.00     0.194 C 
BRANCH   8   9
ATOM      9  S   UNL     1       2.776  -1.905  -2.693  1.00  0.00    -0.066 SA
BRANCH   9  10
ATOM     10  C   UNL     1       1.250  -1.111  -3.029  1.00  0.00     0.191 A 
ATOM     11  N   UNL     1       0.298  -0.889  -2.066  1.00  0.00    -0.202 N 
ATOM     12  C   UNL     1      -0.414   0.269  -2.183  1.00  0.00     0.280 A 
ATOM     13  N   UNL     1       1.033  -0.702  -4.257  1.00  0.00    -0.222 NA
ATOM     14  C   UNL     1      -0.936   0.540  -3.507  1.00  0.00     0.069 A 
ATOM     15  O   UNL     1      -0.524   1.050  -1.248  1.00  0.00    -0.267 OA
ATOM     16  C   UNL     1      -0.197  -0.034  -4.536  1.00  0.00     0.079 A 
ATOM     17  C   UNL     1      -2.132   1.239  -3.704  1.00  0.00     0.031 A 
ATOM     18  C   UNL     1      -0.713   0.110  -5.825  1.00  0.00     0.030 A 
ATOM     19  C   UNL     1      -2.635   1.349  -4.986  1.00  0.00     0.018 A 
ATOM     20  C   UNL     1      -1.933   0.787  -6.050  1.00  0.00     0.018 A 
ATOM     21  Br  UNL     1      -4.283   2.233  -5.262  1.00  0.00    -0.051 Br
BRANCH  11  22
ATOM     22  N   UNL     1       0.172  -1.554  -0.866  1.00  0.00    -0.334 N 
ATOM     23  H   UNL     1       0.660  -2.397  -0.717  1.00  0.00     0.178 HD
ATOM     24  H   UNL     1      -0.405  -1.188  -0.158  1.00  0.00     0.178 HD
ENDBRANCH  11  22
ENDBRANCH   9  10
ENDBRANCH   8   9
BRANCH   8  25
ATOM     25  C   UNL     1       2.410  -2.785   0.057  1.00  0.00    -0.023 A 
ATOM     26  C   UNL     1       1.983  -4.097  -0.206  1.00  0.00     0.005 A 
ATOM     27  C   UNL     1       1.978  -2.179   1.262  1.00  0.00     0.005 A 
ATOM     28  C   UNL     1       1.106  -4.750   0.663  1.00  0.00     0.000 A 
ATOM     29  C   UNL     1       1.089  -2.829   2.121  1.00  0.00     0.000 A 
ATOM     30  C   UNL     1       0.645  -4.111   1.814  1.00  0.00     0.000 A 
ENDBRANCH   8  25
ENDBRANCH   6   8
ENDBRANCH   5   6
ENDBRANCH   4   5
ENDBRANCH   3   4
ENDBRANCH   2   3
ENDBRANCH   1   2
BRANCH   1  31
ATOM     31  C   UNL     1       2.259   2.458  -1.428  1.00  0.00     0.188 C 
BRANCH  31  32
ATOM     32  O   UNL     1       2.494   3.866  -1.414  1.00  0.00    -0.376 OA
BRANCH  32  33
ATOM     33  C   UNL     1       1.626   4.563  -2.299  1.00  0.00     0.202 C 
BRANCH  33  34
ATOM     34  C   UNL     1       0.391   5.114  -1.575  1.00  0.00     0.261 C 
BRANCH  34  35
ATOM     35  O   UNL     1      -0.236   4.200  -0.646  1.00  0.00    -0.460 OA
BRANCH  35  36
ATOM     36  C   UNL     1      -1.542   3.899  -0.868  1.00  0.00     0.338 C 
ATOM     37  O   UNL     1      -2.187   4.149  -1.864  1.00  0.00    -0.246 OA
BRANCH  36  38
ATOM     38  C   UNL     1      -2.111   3.153   0.286  1.00  0.00     0.060 A 
ATOM     39  C   UNL     1      -2.289   3.723   1.545  1.00  0.00     0.016 A 
ATOM     40  C   UNL     1      -2.582   1.860   0.066  1.00  0.00     0.016 A 
ATOM     41  C   UNL     1      -2.918   2.974   2.557  1.00  0.00     0.010 A 
ATOM     42  C   UNL     1      -3.043   1.059   1.089  1.00  0.00     0.010 A 
ATOM     43  C   UNL     1      -3.280   1.635   2.329  1.00  0.00    -0.014 A 
BRANCH  43  44
ATOM     44  C   UNL     1      -4.090   0.834   3.260  1.00  0.00     0.031 A 
ATOM     45  C   UNL     1      -3.450  -0.008   4.310  1.00  0.00     0.074 A 
ATOM     46  C   UNL     1      -5.404   0.711   2.990  1.00  0.00     0.049 A 
ATOM     47  N   UNL     1      -4.013  -0.639   5.305  1.00  0.00    -0.248 NA
ATOM     48  C   UNL     1      -1.997  -0.211   4.206  1.00  0.00     0.031 C 
ATOM     49  C   UNL     1      -6.083   1.296   1.827  1.00  0.00     0.029 A 
ATOM     50  N   UNL     1      -6.394   0.025   3.639  1.00  0.00    -0.354 N 
ATOM     51  C   UNL     1      -2.978  -1.259   5.987  1.00  0.00     0.074 A 
ATOM     52  C   UNL     1      -1.766  -1.017   5.236  1.00  0.00     0.031 C 
ATOM     53  C   UNL     1      -7.377   0.946   1.849  1.00  0.00     0.029 A 
ATOM     54  C   UNL     1      -7.630   0.183   3.063  1.00  0.00     0.049 A 
ATOM     55  H   UNL     1      -6.236  -0.527   4.438  1.00  0.00     0.167 HD
ATOM     56  C   UNL     1      -3.056  -1.922   7.165  1.00  0.00     0.037 A 
ATOM     57  C   UNL     1      -8.843  -0.175   3.518  1.00  0.00     0.037 A 
ATOM     58  C   UNL     1      -4.303  -2.154   7.850  1.00  0.00     0.049 A 
ATOM     59  C   UNL     1      -8.921  -0.784   4.887  1.00  0.00     0.074 A 
ATOM     60  C   UNL     1      -4.522  -2.684   9.108  1.00  0.00     0.029 A 
ATOM     61  N   UNL     1      -5.553  -1.878   7.308  1.00  0.00    -0.354 N 
ATOM     62  N   UNL     1      -7.942  -1.145   5.682  1.00  0.00    -0.248 NA
ATOM     63  C   UNL     1     -10.261  -0.981   5.450  1.00  0.00     0.031 C 
ATOM     64  C   UNL     1      -5.905  -2.759   9.312  1.00  0.00     0.029 A 
ATOM     65  C   UNL     1      -6.548  -2.240   8.198  1.00  0.00     0.049 A 
ATOM     66  H   UNL     1      -5.708  -1.483   6.420  1.00  0.00     0.167 HD
ATOM     67  C   UNL     1      -8.542  -1.590   6.849  1.00  0.00     0.074 A 
ATOM     68  C   UNL     1      -9.972  -1.434   6.664  1.00  0.00     0.031 C 
ATOM     69  C   UNL     1      -7.964  -2.082   7.972  1.00  0.00     0.037 A 
BRANCH  56  70
ATOM     70  C   UNL     1      -1.779  -2.359   7.822  1.00  0.00     0.064 A 
ATOM     71  C   UNL     1      -0.862  -1.413   8.309  1.00  0.00     0.173 A 
ATOM     72  C   UNL     1      -1.504  -3.713   8.062  1.00  0.00     0.173 A 
ATOM     73  F   UNL     1      -1.076  -0.102   8.113  1.00  0.00    -0.203 F 
ATOM     74  C   UNL     1       0.286  -1.804   8.993  1.00  0.00     0.198 A 
ATOM     75  C   UNL     1      -0.367  -4.101   8.770  1.00  0.00     0.198 A 
ATOM     76  F   UNL     1      -2.347  -4.663   7.629  1.00  0.00    -0.203 F 
ATOM     77  F   UNL     1       1.155  -0.879   9.424  1.00  0.00    -0.200 F 
ATOM     78  C   UNL     1       0.527  -3.147   9.233  1.00  0.00     0.200 A 
ATOM     79  F   UNL     1      -0.143  -5.399   9.018  1.00  0.00    -0.200 F 
ATOM     80  F   UNL     1       1.620  -3.522   9.912  1.00  0.00    -0.200 F 
ENDBRANCH  56  70
BRANCH  57  81
ATOM     81  C   UNL     1     -10.048   0.236   2.757  1.00  0.00     0.064 A 
ATOM     82  C   UNL     1     -10.800   1.344   3.172  1.00  0.00     0.173 A 
ATOM     83  C   UNL     1     -10.417  -0.393   1.561  1.00  0.00     0.173 A 
ATOM     84  F   UNL     1     -10.478   1.983   4.307  1.00  0.00    -0.203 F 
ATOM     85  C   UNL     1     -11.886   1.798   2.429  1.00  0.00     0.198 A 
ATOM     86  C   UNL     1     -11.493   0.073   0.807  1.00  0.00     0.198 A 
ATOM     87  F   UNL     1      -9.709  -1.438   1.105  1.00  0.00    -0.203 F 
ATOM     88  F   UNL     1     -12.596   2.850   2.859  1.00  0.00    -0.200 F 
ATOM     89  C   UNL     1     -12.229   1.166   1.243  1.00  0.00     0.200 A 
ATOM     90  F   UNL     1     -11.809  -0.525  -0.350  1.00  0.00    -0.200 F 
ATOM     91  F   UNL     1     -13.264   1.613   0.519  1.00  0.00    -0.200 F 
ENDBRANCH  57  81
BRANCH  69  92
ATOM     92  C   UNL     1      -8.880  -2.511   9.076  1.00  0.00     0.064 A 
ATOM     93  C   UNL     1      -9.625  -3.694   8.977  1.00  0.00     0.173 A 
ATOM     94  C   UNL     1      -8.948  -1.781  10.271  1.00  0.00     0.173 A 
ATOM     95  F   UNL     1      -9.600  -4.415   7.846  1.00  0.00    -0.203 F 
ATOM     96  C   UNL     1     -10.416  -4.128  10.035  1.00  0.00     0.198 A 
ATOM     97  C   UNL     1      -9.719  -2.232  11.337  1.00  0.00     0.198 A 
ATOM     98  F   UNL     1      -8.248  -0.646  10.412  1.00  0.00    -0.203 F 
ATOM     99  F   UNL     1     -11.142  -5.247   9.910  1.00  0.00    -0.200 F 
ATOM    100  C   UNL     1     -10.453  -3.403  11.218  1.00  0.00     0.200 A 
ATOM    101  F   UNL     1      -9.744  -1.540  12.484  1.00  0.00    -0.200 F 
ATOM    102  F   UNL     1     -11.199  -3.834  12.244  1.00  0.00    -0.200 F 
ENDBRANCH  69  92
ENDBRANCH  43  44
ENDBRANCH  36  38
ENDBRANCH  35  36
ENDBRANCH  34  35
ENDBRANCH  33  34
ENDBRANCH  32  33
ENDBRANCH  31  32
ENDBRANCH   1  31
TORSDOF 21
