REMARK SMILES O=C(OCCOCCOCCOC(=O)C1(Cc2ccncc2)Cc2ccccc2C1)c1ccc(-c2c3nc(c(-c4c(F)c(F)c(F)c(F)c4F)c4ccc([nH]4)c(-c4c(F)c(F)c(F)c(F)c4F)c4nc(c(-c5c(F)c(F)c(F)c(F)c5F)c5ccc2[nH]5)C=C4)C=C3)cc1
REMARK SMILES IDX 7 1 6 2 5 3 4 4 3 5 2 6 1 7 31 8 32 9 93 10 33 11 92 12
REMARK SMILES IDX 34 13 35 14 36 15 86 16 37 17 91 18 85 19 87 20 38 21 90 22
REMARK SMILES IDX 84 23 83 24 39 26 71 27 51 28 70 29 52 30 55 31 69 32 88 33
REMARK SMILES IDX 53 34 54 35 68 37 89 38 56 39 40 40 41 41 49 42 42 43 43 44
REMARK SMILES IDX 47 45 50 46 44 47 45 48 48 49 46 50 72 51 73 52 81 53 74 54
REMARK SMILES IDX 75 55 79 56 82 57 76 58 77 59 80 60 78 61 57 62 58 63 66 64
REMARK SMILES IDX 59 65 60 66 64 67 67 68 61 69 62 70 65 71 63 72 8 73 9 74
REMARK SMILES IDX 10 75 11 76 12 77 13 78 14 79 15 80 23 81 30 82 24 83 29 84
REMARK SMILES IDX 25 85 28 86 26 87 27 88 16 89 17 90 18 91 22 92 19 93 21 94
REMARK SMILES IDX 20 95
REMARK H PARENT 87 25 55 36
REMARK Flexibility Score: inf
ROOT
ATOM      1  C   UNL     1       2.435  -1.701  -0.007  1.00  0.00     0.188 C 
ENDROOT
BRANCH   1   2
ATOM      2  O   UNL     1       3.764  -1.392  -0.449  1.00  0.00    -0.376 OA
BRANCH   2   3
ATOM      3  C   UNL     1       4.733  -1.411   0.606  1.00  0.00     0.202 C 
BRANCH   3   4
ATOM      4  C   UNL     1       4.651  -0.261   1.623  1.00  0.00     0.261 C 
BRANCH   4   5
ATOM      5  O   UNL     1       3.361   0.356   1.728  1.00  0.00    -0.460 OA
BRANCH   5   6
ATOM      6  C   UNL     1       2.780   1.298   0.951  1.00  0.00     0.338 C 
ATOM      7  O   UNL     1       1.654   1.680   1.274  1.00  0.00    -0.246 OA
BRANCH   6   8
ATOM      8  C   UNL     1       3.387   1.897  -0.285  1.00  0.00     0.060 A 
ATOM      9  C   UNL     1       4.589   1.527  -0.899  1.00  0.00     0.016 A 
ATOM     10  C   UNL     1       2.656   2.941  -0.879  1.00  0.00     0.016 A 
ATOM     11  C   UNL     1       5.092   2.197  -2.018  1.00  0.00     0.010 A 
ATOM     12  C   UNL     1       3.153   3.626  -1.988  1.00  0.00     0.010 A 
ATOM     13  C   UNL     1       4.397   3.279  -2.538  1.00  0.00    -0.014 A 
BRANCH  13  14
ATOM     14  C   UNL     1       5.049   4.217  -3.475  1.00  0.00     0.031 A 
ATOM     15  C   UNL     1       5.531   5.503  -2.900  1.00  0.00     0.074 A 
ATOM     16  C   UNL     1       5.155   3.972  -4.791  1.00  0.00     0.049 A 
ATOM     17  N   UNL     1       5.970   6.566  -3.511  1.00  0.00    -0.248 NA
ATOM     18  C   UNL     1       5.540   5.593  -1.429  1.00  0.00     0.031 C 
ATOM     19  C   UNL     1       4.851   2.705  -5.430  1.00  0.00     0.029 A 
ATOM     20  N   UNL     1       5.447   4.805  -5.841  1.00  0.00    -0.354 N 
ATOM     21  C   UNL     1       6.335   7.439  -2.501  1.00  0.00     0.074 A 
ATOM     22  C   UNL     1       5.993   6.819  -1.241  1.00  0.00     0.031 C 
ATOM     23  C   UNL     1       4.760   2.890  -6.753  1.00  0.00     0.029 A 
ATOM     24  C   UNL     1       5.103   4.264  -7.058  1.00  0.00     0.049 A 
ATOM     25  H   UNL     1       5.858   5.694  -5.735  1.00  0.00     0.167 HD
ATOM     26  C   UNL     1       6.939   8.639  -2.630  1.00  0.00     0.037 A 
ATOM     27  C   UNL     1       5.051   4.810  -8.285  1.00  0.00     0.037 A 
ATOM     28  C   UNL     1       7.216   9.236  -3.906  1.00  0.00     0.049 A 
ATOM     29  C   UNL     1       5.575   6.202  -8.423  1.00  0.00     0.074 A 
ATOM     30  C   UNL     1       7.811  10.449  -4.185  1.00  0.00     0.029 A 
ATOM     31  N   UNL     1       6.883   8.657  -5.128  1.00  0.00    -0.354 N 
ATOM     32  N   UNL     1       5.964   7.018  -7.473  1.00  0.00    -0.248 NA
ATOM     33  C   UNL     1       5.723   6.731  -9.781  1.00  0.00     0.031 C 
ATOM     34  C   UNL     1       7.778  10.633  -5.572  1.00  0.00     0.029 A 
ATOM     35  C   UNL     1       7.226   9.505  -6.164  1.00  0.00     0.049 A 
ATOM     36  H   UNL     1       6.464   7.772  -5.237  1.00  0.00     0.167 HD
ATOM     37  C   UNL     1       6.466   8.134  -8.114  1.00  0.00     0.074 A 
ATOM     38  C   UNL     1       6.302   7.900  -9.538  1.00  0.00     0.031 C 
ATOM     39  C   UNL     1       7.041   9.235  -7.571  1.00  0.00     0.037 A 
BRANCH  26  40
ATOM     40  C   UNL     1       7.262   9.358  -1.356  1.00  0.00     0.064 A 
ATOM     41  C   UNL     1       8.213   8.861  -0.447  1.00  0.00     0.173 A 
ATOM     42  C   UNL     1       6.539  10.500  -0.988  1.00  0.00     0.173 A 
ATOM     43  F   UNL     1       8.907   7.749  -0.736  1.00  0.00    -0.203 F 
ATOM     44  C   UNL     1       8.383   9.446   0.804  1.00  0.00     0.198 A 
ATOM     45  C   UNL     1       6.737  11.104   0.251  1.00  0.00     0.198 A 
ATOM     46  F   UNL     1       5.612  11.009  -1.812  1.00  0.00    -0.203 F 
ATOM     47  F   UNL     1       9.224   8.896   1.691  1.00  0.00    -0.200 F 
ATOM     48  C   UNL     1       7.645  10.567   1.152  1.00  0.00     0.200 A 
ATOM     49  F   UNL     1       6.024  12.188   0.586  1.00  0.00    -0.200 F 
ATOM     50  F   UNL     1       7.791  11.116   2.366  1.00  0.00    -0.200 F 
ENDBRANCH  26  40
BRANCH  27  51
ATOM     51  C   UNL     1       4.557   4.008  -9.436  1.00  0.00     0.064 A 
ATOM     52  C   UNL     1       5.441   3.453 -10.370  1.00  0.00     0.173 A 
ATOM     53  C   UNL     1       3.192   3.703  -9.574  1.00  0.00     0.173 A 
ATOM     54  F   UNL     1       6.755   3.706 -10.278  1.00  0.00    -0.203 F 
ATOM     55  C   UNL     1       4.982   2.635 -11.403  1.00  0.00     0.198 A 
ATOM     56  C   UNL     1       2.736   2.871 -10.596  1.00  0.00     0.198 A 
ATOM     57  F   UNL     1       2.305   4.190  -8.694  1.00  0.00    -0.203 F 
ATOM     58  F   UNL     1       5.851   2.126 -12.287  1.00  0.00    -0.200 F 
ATOM     59  C   UNL     1       3.632   2.339 -11.512  1.00  0.00     0.200 A 
ATOM     60  F   UNL     1       1.433   2.571 -10.687  1.00  0.00    -0.200 F 
ATOM     61  F   UNL     1       3.195   1.538 -12.493  1.00  0.00    -0.200 F 
ENDBRANCH  27  51
BRANCH  39  62
ATOM     62  C   UNL     1       7.577  10.252  -8.526  1.00  0.00     0.064 A 
ATOM     63  C   UNL     1       6.729  11.105  -9.243  1.00  0.00     0.173 A 
ATOM     64  C   UNL     1       8.963  10.424  -8.654  1.00  0.00     0.173 A 
ATOM     65  F   UNL     1       5.398  10.957  -9.166  1.00  0.00    -0.203 F 
ATOM     66  C   UNL     1       7.254  12.098 -10.062  1.00  0.00     0.198 A 
ATOM     67  C   UNL     1       9.482  11.439  -9.447  1.00  0.00     0.198 A 
ATOM     68  F   UNL     1       9.809   9.627  -7.984  1.00  0.00    -0.203 F 
ATOM     69  F   UNL     1       6.430  12.887 -10.764  1.00  0.00    -0.200 F 
ATOM     70  C   UNL     1       8.628  12.274 -10.151  1.00  0.00     0.200 A 
ATOM     71  F   UNL     1      10.808  11.617  -9.521  1.00  0.00    -0.200 F 
ATOM     72  F   UNL     1       9.130  13.250 -10.920  1.00  0.00    -0.200 F 
ENDBRANCH  39  62
ENDBRANCH  13  14
ENDBRANCH   6   8
ENDBRANCH   5   6
ENDBRANCH   4   5
ENDBRANCH   3   4
ENDBRANCH   2   3
ENDBRANCH   1   2
BRANCH   1  73
ATOM     73  C   UNL     1       1.710  -2.755  -0.844  1.00  0.00     0.188 C 
BRANCH  73  74
ATOM     74  O   UNL     1       2.275  -4.060  -0.881  1.00  0.00    -0.376 OA
BRANCH  74  75
ATOM     75  C   UNL     1       3.630  -4.176  -1.280  1.00  0.00     0.202 C 
BRANCH  75  76
ATOM     76  C   UNL     1       4.006  -3.766  -2.704  1.00  0.00     0.261 C 
BRANCH  76  77
ATOM     77  O   UNL     1       3.478  -2.517  -3.188  1.00  0.00    -0.463 OA
BRANCH  77  78
ATOM     78  C   UNL     1       2.477  -2.631  -4.105  1.00  0.00     0.313 C 
ATOM     79  O   UNL     1       1.909  -3.687  -4.376  1.00  0.00    -0.252 OA
BRANCH  78  80
ATOM     80  C   UNL     1       2.218  -1.356  -4.885  1.00  0.00     0.080 C 
ATOM     81  C   UNL     1       0.668  -1.234  -5.048  1.00  0.00     0.055 C 
ATOM     82  C   UNL     1       2.591  -0.035  -4.168  1.00  0.00     0.055 C 
ATOM     83  C   UNL     1       0.473   0.241  -5.213  1.00  0.00    -0.044 A 
ATOM     84  C   UNL     1       1.587   0.931  -4.742  1.00  0.00    -0.044 A 
ATOM     85  C   UNL     1      -0.632   0.911  -5.720  1.00  0.00     0.004 A 
ATOM     86  C   UNL     1       1.615   2.313  -4.814  1.00  0.00     0.004 A 
ATOM     87  C   UNL     1      -0.594   2.304  -5.802  1.00  0.00     0.000 A 
ATOM     88  C   UNL     1       0.532   3.003  -5.363  1.00  0.00     0.000 A 
BRANCH  80  89
ATOM     89  C   UNL     1       2.908  -1.520  -6.285  1.00  0.00     0.055 C 
BRANCH  89  90
ATOM     90  C   UNL     1       4.428  -1.569  -6.324  1.00  0.00    -0.044 A 
ATOM     91  C   UNL     1       5.168  -2.583  -5.719  1.00  0.00     0.024 A 
ATOM     92  C   UNL     1       5.150  -0.607  -7.027  1.00  0.00     0.024 A 
ATOM     93  C   UNL     1       6.554  -2.501  -5.693  1.00  0.00     0.111 A 
ATOM     94  C   UNL     1       6.538  -0.603  -6.964  1.00  0.00     0.111 A 
ATOM     95  N   UNL     1       7.256  -1.514  -6.281  1.00  0.00    -0.265 NA
ENDBRANCH  89  90
ENDBRANCH  80  89
ENDBRANCH  78  80
ENDBRANCH  77  78
ENDBRANCH  76  77
ENDBRANCH  75  76
ENDBRANCH  74  75
ENDBRANCH  73  74
ENDBRANCH   1  73
TORSDOF 19
