REMARK SMILES Cc1c(C(=O)OCCOCCOCCOC(=O)c2ccc(-c3c4nc(c(-c5c(F)c(F)c(F)c(F)c5F)c5ccc([nH]5)c(-c5c(F)c(F)c(F)c(F)c5F)c5nc(c(-c6c(F)c(F)c(F)c(F)c6F)c6ccc3[nH]6)C=C5)C=C4)cc2)sc2ncn(N3CCCCCC3)c(=O)c12
REMARK SMILES IDX 9 1 8 2 7 3 6 4 4 5 5 6 3 7 1 8 2 9 95 10 81 11 82 12 93 13
REMARK SMILES IDX 83 14 85 15 94 16 84 17 86 18 87 19 88 20 89 21 90 22 92 24
REMARK SMILES IDX 91 25 10 27 11 28 12 29 13 30 14 31 15 32 16 33 17 34 18 35
REMARK SMILES IDX 19 36 80 37 20 38 79 39 21 40 22 41 23 42 73 43 24 44 78 45
REMARK SMILES IDX 72 46 74 47 25 48 77 49 71 50 70 51 26 53 58 54 38 55 57 56
REMARK SMILES IDX 39 57 42 58 56 59 75 60 40 61 41 62 55 64 76 65 43 66 27 67
REMARK SMILES IDX 28 68 36 69 29 70 30 71 34 72 37 73 31 74 32 75 35 76 33 77
REMARK SMILES IDX 59 78 60 79 68 80 61 81 62 82 66 83 69 84 63 85 64 86 67 87
REMARK SMILES IDX 65 88 44 89 45 90 53 91 46 92 47 93 51 94 54 95 48 96 49 97
REMARK SMILES IDX 52 98 50 99
REMARK H PARENT 74 52 42 63
REMARK Flexibility Score: 80.00
ROOT
ATOM      1  O   UNL     1      -2.628   2.265  -2.514  1.00  0.00    -0.376 OA
ENDROOT
BRANCH   1   2
ATOM      2  C   UNL     1      -2.184   2.445  -3.848  1.00  0.00     0.202 C 
BRANCH   2   3
ATOM      3  C   UNL     1      -1.163   1.562  -4.603  1.00  0.00     0.261 C 
BRANCH   3   4
ATOM      4  O   UNL     1      -0.781   0.316  -4.017  1.00  0.00    -0.459 OA
BRANCH   4   5
ATOM      5  C   UNL     1       0.463   0.254  -3.465  1.00  0.00     0.348 C 
ATOM      6  O   UNL     1       1.272   1.176  -3.478  1.00  0.00    -0.245 OA
BRANCH   5   7
ATOM      7  C   UNL     1       0.615  -0.967  -2.689  1.00  0.00     0.118 A 
ATOM      8  C   UNL     1       1.396   0.061  -0.464  1.00  0.00     0.047 C 
ATOM      9  C   UNL     1       1.062  -1.079  -1.377  1.00  0.00    -0.010 A 
ATOM     10  C   UNL     1       1.153  -2.461  -0.987  1.00  0.00     0.082 A 
ATOM     11  S   UNL     1       0.198  -2.490  -3.356  1.00  0.00    -0.108 S 
ATOM     12  C   UNL     1       0.651  -3.322  -1.937  1.00  0.00     0.131 A 
ATOM     13  C   UNL     1       1.697  -3.026   0.241  1.00  0.00     0.281 A 
ATOM     14  N   UNL     1       0.536  -4.670  -1.829  1.00  0.00    -0.225 NA
ATOM     15  N   UNL     1       1.596  -4.424   0.302  1.00  0.00    -0.210 N 
ATOM     16  O   UNL     1       2.222  -2.312   1.090  1.00  0.00    -0.267 OA
ATOM     17  C   UNL     1       1.010  -5.157  -0.724  1.00  0.00     0.226 A 
BRANCH  15  18
ATOM     18  N   UNL     1       2.231  -5.136   1.340  1.00  0.00    -0.309 N 
BRANCH  18  19
ATOM     19  C   UNL     1       1.673  -5.121   2.675  1.00  0.00     0.137 C 
BRANCH  19  20
ATOM     20  C   UNL     1       2.299  -4.121   3.656  1.00  0.00     0.023 C 
BRANCH  20  21
ATOM     21  C   UNL     1       3.745  -4.378   4.073  1.00  0.00     0.002 C 
BRANCH  21  22
ATOM     22  C   UNL     1       4.742  -4.580   2.936  1.00  0.00     0.002 CG0
ATOM     23  G   UNL     1       4.500  -5.881   2.179  1.00  0.00     0.000 G0
ENDBRANCH  21  22
ENDBRANCH  20  21
ENDBRANCH  19  20
ENDBRANCH  18  19
BRANCH  18  24
ATOM     24  C   UNL     1       3.514  -5.727   1.025  1.00  0.00     0.137 C 
BRANCH  24  25
ATOM     25  C   UNL     1       4.500  -5.881   2.179  1.00  0.00     0.023 CG0
ATOM     26  G   UNL     1       4.742  -4.580   2.936  1.00  0.00     0.000 G0
ENDBRANCH  24  25
ENDBRANCH  18  24
ENDBRANCH  15  18
ENDBRANCH   5   7
ENDBRANCH   4   5
ENDBRANCH   3   4
ENDBRANCH   2   3
ENDBRANCH   1   2
BRANCH   1  27
ATOM     27  C   UNL     1      -2.164   1.187  -1.740  1.00  0.00     0.188 C 
BRANCH  27  28
ATOM     28  C   UNL     1      -2.784  -0.198  -2.006  1.00  0.00     0.188 C 
BRANCH  28  29
ATOM     29  O   UNL     1      -3.434  -0.478  -3.228  1.00  0.00    -0.376 OA
BRANCH  29  30
ATOM     30  C   UNL     1      -4.623   0.148  -3.679  1.00  0.00     0.202 C 
BRANCH  30  31
ATOM     31  C   UNL     1      -5.634   0.908  -2.819  1.00  0.00     0.261 C 
BRANCH  31  32
ATOM     32  O   UNL     1      -5.147   1.366  -1.582  1.00  0.00    -0.460 OA
BRANCH  32  33
ATOM     33  C   UNL     1      -5.320   0.465  -0.600  1.00  0.00     0.338 C 
ATOM     34  O   UNL     1      -5.783  -0.660  -0.686  1.00  0.00    -0.246 OA
BRANCH  33  35
ATOM     35  C   UNL     1      -4.877   1.060   0.657  1.00  0.00     0.060 A 
ATOM     36  C   UNL     1      -4.613   0.153   1.686  1.00  0.00     0.016 A 
ATOM     37  C   UNL     1      -5.264   2.384   0.874  1.00  0.00     0.016 A 
ATOM     38  C   UNL     1      -5.086   0.468   2.932  1.00  0.00     0.010 A 
ATOM     39  C   UNL     1      -5.790   2.674   2.100  1.00  0.00     0.010 A 
ATOM     40  C   UNL     1      -5.786   1.668   3.068  1.00  0.00    -0.014 A 
BRANCH  40  41
ATOM     41  C   UNL     1      -6.618   1.817   4.234  1.00  0.00     0.031 A 
ATOM     42  C   UNL     1      -5.945   2.456   5.375  1.00  0.00     0.074 A 
ATOM     43  C   UNL     1      -7.924   1.501   4.186  1.00  0.00     0.049 A 
ATOM     44  N   UNL     1      -5.704   1.956   6.540  1.00  0.00    -0.248 NA
ATOM     45  C   UNL     1      -5.346   3.780   5.139  1.00  0.00     0.031 C 
ATOM     46  C   UNL     1      -8.743   1.174   3.013  1.00  0.00     0.029 A 
ATOM     47  N   UNL     1      -8.829   1.523   5.195  1.00  0.00    -0.354 N 
ATOM     48  C   UNL     1      -5.062   2.968   7.239  1.00  0.00     0.074 A 
ATOM     49  C   UNL     1      -4.705   3.985   6.285  1.00  0.00     0.031 C 
ATOM     50  C   UNL     1     -10.050   1.258   3.353  1.00  0.00     0.029 A 
ATOM     51  C   UNL     1     -10.148   1.534   4.777  1.00  0.00     0.049 A 
ATOM     52  H   UNL     1      -8.569   1.531   6.145  1.00  0.00     0.167 HD
ATOM     53  C   UNL     1      -5.088   3.034   8.593  1.00  0.00     0.037 A 
ATOM     54  C   UNL     1     -11.207   1.879   5.550  1.00  0.00     0.037 A 
ATOM     55  C   UNL     1      -5.425   1.778   9.197  1.00  0.00     0.049 A 
ATOM     56  C   UNL     1     -10.765   1.793   6.971  1.00  0.00     0.074 A 
ATOM     57  C   UNL     1      -4.848   0.522   9.172  1.00  0.00     0.029 A 
ATOM     58  N   UNL     1      -6.710   1.587   9.643  1.00  0.00    -0.354 N 
ATOM     59  N   UNL     1     -10.465   0.679   7.583  1.00  0.00    -0.248 NA
ATOM     60  C   UNL     1     -10.226   3.001   7.584  1.00  0.00     0.031 C 
ATOM     61  C   UNL     1      -5.941  -0.391   9.142  1.00  0.00     0.029 A 
ATOM     62  C   UNL     1      -7.117   0.358   9.185  1.00  0.00     0.049 A 
ATOM     63  H   UNL     1      -7.239   2.213  10.189  1.00  0.00     0.167 HD
ATOM     64  C   UNL     1      -9.392   0.998   8.406  1.00  0.00     0.074 A 
ATOM     65  C   UNL     1      -9.345   2.456   8.427  1.00  0.00     0.031 C 
ATOM     66  C   UNL     1      -8.467   0.058   8.763  1.00  0.00     0.037 A 
BRANCH  53  67
ATOM     67  C   UNL     1      -5.100   4.345   9.315  1.00  0.00     0.064 A 
ATOM     68  C   UNL     1      -4.718   4.416  10.660  1.00  0.00     0.173 A 
ATOM     69  C   UNL     1      -5.685   5.512   8.771  1.00  0.00     0.173 A 
ATOM     70  F   UNL     1      -4.219   3.339  11.283  1.00  0.00    -0.203 F 
ATOM     71  C   UNL     1      -4.900   5.583  11.407  1.00  0.00     0.198 A 
ATOM     72  C   UNL     1      -5.801   6.692   9.495  1.00  0.00     0.198 A 
ATOM     73  F   UNL     1      -6.248   5.518   7.554  1.00  0.00    -0.203 F 
ATOM     74  F   UNL     1      -4.607   5.587  12.714  1.00  0.00    -0.200 F 
ATOM     75  C   UNL     1      -5.426   6.723  10.820  1.00  0.00     0.200 A 
ATOM     76  F   UNL     1      -6.336   7.775   8.913  1.00  0.00    -0.200 F 
ATOM     77  F   UNL     1      -5.619   7.834  11.543  1.00  0.00    -0.200 F 
ENDBRANCH  53  67
BRANCH  54  78
ATOM     78  C   UNL     1     -12.409   2.642   5.131  1.00  0.00     0.064 A 
ATOM     79  C   UNL     1     -13.537   2.717   5.963  1.00  0.00     0.173 A 
ATOM     80  C   UNL     1     -12.386   3.527   4.033  1.00  0.00     0.173 A 
ATOM     81  F   UNL     1     -13.618   1.948   7.059  1.00  0.00    -0.203 F 
ATOM     82  C   UNL     1     -14.568   3.634   5.723  1.00  0.00     0.198 A 
ATOM     83  C   UNL     1     -13.421   4.429   3.785  1.00  0.00     0.198 A 
ATOM     84  F   UNL     1     -11.317   3.607   3.228  1.00  0.00    -0.203 F 
ATOM     85  F   UNL     1     -15.597   3.721   6.577  1.00  0.00    -0.200 F 
ATOM     86  C   UNL     1     -14.505   4.493   4.638  1.00  0.00     0.200 A 
ATOM     87  F   UNL     1     -13.328   5.278   2.752  1.00  0.00    -0.200 F 
ATOM     88  F   UNL     1     -15.463   5.408   4.439  1.00  0.00    -0.200 F 
ENDBRANCH  54  78
BRANCH  66  89
ATOM     89  C   UNL     1      -8.766  -1.381   8.441  1.00  0.00     0.064 A 
ATOM     90  C   UNL     1      -8.894  -1.871   7.129  1.00  0.00     0.173 A 
ATOM     91  C   UNL     1      -8.750  -2.321   9.479  1.00  0.00     0.173 A 
ATOM     92  F   UNL     1      -8.809  -1.048   6.077  1.00  0.00    -0.203 F 
ATOM     93  C   UNL     1      -9.040  -3.233   6.874  1.00  0.00     0.198 A 
ATOM     94  C   UNL     1      -8.857  -3.686   9.219  1.00  0.00     0.198 A 
ATOM     95  F   UNL     1      -8.569  -1.920  10.747  1.00  0.00    -0.203 F 
ATOM     96  F   UNL     1      -9.164  -3.672   5.613  1.00  0.00    -0.200 F 
ATOM     97  C   UNL     1      -9.011  -4.140   7.919  1.00  0.00     0.200 A 
ATOM     98  F   UNL     1      -8.775  -4.564  10.228  1.00  0.00    -0.200 F 
ATOM     99  F   UNL     1      -9.099  -5.455   7.671  1.00  0.00    -0.200 F 
ENDBRANCH  66  89
ENDBRANCH  40  41
ENDBRANCH  33  35
ENDBRANCH  32  33
ENDBRANCH  31  32
ENDBRANCH  30  31
ENDBRANCH  29  30
ENDBRANCH  28  29
ENDBRANCH  27  28
ENDBRANCH   1  27
TORSDOF 18
