REMARK SMILES COCCN(CC(=O)OCCOCCOCCOC(=O)c1ccc(-c2c3nc(c(-c4c(F)c(F)c(F)c(F)c4F)c4ccc([nH]4)c(-c4c(F)c(F)c(F)c(F)c4F)c4nc(c(-c5c(F)c(F)c(F)c(F)c5F)c5ccc2[nH]5)C=C4)C=C3)cc1)C(=O)c1cccc(N)c1
REMARK SMILES IDX 13 1 12 2 11 3 10 4 9 5 7 6 8 7 6 8 5 9 4 10 3 11 2 12 1 13
REMARK SMILES IDX 84 14 85 15 86 16 87 17 92 18 88 19 90 20 89 21 91 22 14 25
REMARK SMILES IDX 15 26 16 27 17 28 18 29 19 30 20 31 21 32 22 33 83 34 23 35
REMARK SMILES IDX 82 36 24 37 25 38 26 39 76 40 27 41 81 42 75 43 77 44 28 45
REMARK SMILES IDX 80 46 74 47 73 48 29 50 61 51 41 52 60 53 42 54 45 55 59 56
REMARK SMILES IDX 78 57 43 58 44 59 58 61 79 62 46 63 30 64 31 65 39 66 32 67
REMARK SMILES IDX 33 68 37 69 40 70 34 71 35 72 38 73 36 74 62 75 63 76 71 77
REMARK SMILES IDX 64 78 65 79 69 80 72 81 66 82 67 83 70 84 68 85 47 86 48 87
REMARK SMILES IDX 56 88 49 89 50 90 54 91 57 92 51 93 52 94 55 95 53 96
REMARK H PARENT 91 23 91 24 77 49 45 60
REMARK Flexibility Score: inf
ROOT
ATOM      1  C   UNL     1      -0.342   3.300   5.013  1.00  0.00     0.188 C 
ENDROOT
BRANCH   1   2
ATOM      2  O   UNL     1      -0.945   4.413   5.639  1.00  0.00    -0.376 OA
BRANCH   2   3
ATOM      3  C   UNL     1      -1.574   5.327   4.750  1.00  0.00     0.202 C 
BRANCH   3   4
ATOM      4  C   UNL     1      -0.763   5.856   3.526  1.00  0.00     0.261 C 
BRANCH   4   5
ATOM      5  O   UNL     1      -0.356   4.899   2.481  1.00  0.00    -0.462 OA
BRANCH   5   6
ATOM      6  C   UNL     1       0.967   4.746   2.183  1.00  0.00     0.325 C 
ATOM      7  O   UNL     1       1.831   5.490   2.646  1.00  0.00    -0.250 OA
BRANCH   6   8
ATOM      8  C   UNL     1       1.395   3.543   1.220  1.00  0.00     0.242 C 
BRANCH   8   9
ATOM      9  N   UNL     1       0.586   2.398   0.672  1.00  0.00    -0.325 N 
BRANCH   9  10
ATOM     10  C   UNL     1       0.165   2.536  -0.741  1.00  0.00     0.149 C 
BRANCH  10  11
ATOM     11  C   UNL     1       1.063   1.769  -1.759  1.00  0.00     0.181 C 
BRANCH  11  12
ATOM     12  O   UNL     1       0.735   0.384  -1.886  1.00  0.00    -0.383 OA
ATOM     13  C   UNL     1       1.628  -0.508  -1.233  1.00  0.00     0.194 C 
ENDBRANCH  11  12
ENDBRANCH  10  11
ENDBRANCH   9  10
BRANCH   9  14
ATOM     14  C   UNL     1       0.326   1.103   1.187  1.00  0.00     0.254 C 
ATOM     15  O   UNL     1      -0.497   0.352   0.663  1.00  0.00    -0.269 OA
BRANCH  14  16
ATOM     16  C   UNL     1       1.016   0.480   2.340  1.00  0.00     0.042 A 
ATOM     17  C   UNL     1       1.240  -1.303   2.376  1.00  0.00     0.014 A 
ATOM     18  C   UNL     1       1.560   1.518   3.661  1.00  0.00     0.039 A 
ATOM     19  C   UNL     1       2.047  -2.022   3.843  1.00  0.00     0.003 A 
ATOM     20  C   UNL     1       2.280   0.976   5.125  1.00  0.00     0.032 A 
ATOM     21  C   UNL     1       2.583  -0.743   5.300  1.00  0.00     0.025 A 
BRANCH  20  22
ATOM     22  N   UNL     1       2.549   1.827   6.181  1.00  0.00    -0.399 N 
ATOM     23  H   UNL     1       2.962   1.476   7.003  1.00  0.00     0.156 HD
ATOM     24  H   UNL     1       2.327   2.783   6.112  1.00  0.00     0.156 HD
ENDBRANCH  20  22
ENDBRANCH  14  16
ENDBRANCH   9  14
ENDBRANCH   8   9
ENDBRANCH   6   8
ENDBRANCH   5   6
ENDBRANCH   4   5
ENDBRANCH   3   4
ENDBRANCH   2   3
ENDBRANCH   1   2
BRANCH   1  25
ATOM     25  C   UNL     1      -1.115   2.656   3.849  1.00  0.00     0.188 C 
BRANCH  25  26
ATOM     26  O   UNL     1      -2.496   2.779   3.986  1.00  0.00    -0.376 OA
BRANCH  26  27
ATOM     27  C   UNL     1      -3.203   1.595   4.262  1.00  0.00     0.202 C 
BRANCH  27  28
ATOM     28  C   UNL     1      -2.603   0.480   5.155  1.00  0.00     0.261 C 
BRANCH  28  29
ATOM     29  O   UNL     1      -1.164   0.289   5.199  1.00  0.00    -0.460 OA
BRANCH  29  30
ATOM     30  C   UNL     1      -0.622  -0.453   4.191  1.00  0.00     0.338 C 
ATOM     31  O   UNL     1      -1.285  -1.033   3.348  1.00  0.00    -0.246 OA
BRANCH  30  32
ATOM     32  C   UNL     1       0.925  -0.619   4.402  1.00  0.00     0.060 A 
ATOM     33  C   UNL     1       2.692  -0.314   3.474  1.00  0.00     0.016 A 
ATOM     34  C   UNL     1       0.886  -1.948   5.644  1.00  0.00     0.016 A 
ATOM     35  C   UNL     1       4.088  -1.312   3.860  1.00  0.00     0.010 A 
ATOM     36  C   UNL     1       2.372  -2.848   5.958  1.00  0.00     0.010 A 
ATOM     37  C   UNL     1       3.901  -2.498   5.113  1.00  0.00    -0.014 A 
BRANCH  37  38
ATOM     38  C   UNL     1       5.199  -3.026   5.535  1.00  0.00     0.031 A 
ATOM     39  C   UNL     1       5.418  -4.468   5.328  1.00  0.00     0.074 A 
ATOM     40  C   UNL     1       6.174  -2.144   5.851  1.00  0.00     0.049 A 
ATOM     41  N   UNL     1       6.516  -5.148   5.451  1.00  0.00    -0.248 NA
ATOM     42  C   UNL     1       4.250  -5.251   4.896  1.00  0.00     0.031 C 
ATOM     43  C   UNL     1       6.012  -0.685   5.978  1.00  0.00     0.029 A 
ATOM     44  N   UNL     1       7.519  -2.319   6.039  1.00  0.00    -0.354 N 
ATOM     45  C   UNL     1       6.168  -6.445   5.129  1.00  0.00     0.074 A 
ATOM     46  C   UNL     1       4.760  -6.466   4.819  1.00  0.00     0.031 C 
ATOM     47  C   UNL     1       7.210  -0.102   6.114  1.00  0.00     0.029 A 
ATOM     48  C   UNL     1       8.214  -1.142   6.218  1.00  0.00     0.049 A 
ATOM     49  H   UNL     1       7.950  -3.204   6.045  1.00  0.00     0.167 HD
ATOM     50  C   UNL     1       6.981  -7.518   5.112  1.00  0.00     0.037 A 
ATOM     51  C   UNL     1       9.519  -0.941   6.479  1.00  0.00     0.037 A 
ATOM     52  C   UNL     1       8.370  -7.431   5.457  1.00  0.00     0.049 A 
ATOM     53  C   UNL     1      10.367  -2.177   6.566  1.00  0.00     0.074 A 
ATOM     54  C   UNL     1       9.295  -8.446   5.563  1.00  0.00     0.029 A 
ATOM     55  N   UNL     1       9.024  -6.243   5.773  1.00  0.00    -0.354 N 
ATOM     56  N   UNL     1      10.029  -3.422   6.322  1.00  0.00    -0.248 NA
ATOM     57  C   UNL     1      11.758  -1.998   6.987  1.00  0.00     0.031 C 
ATOM     58  C   UNL     1      10.487  -7.884   6.026  1.00  0.00     0.029 A 
ATOM     59  C   UNL     1      10.337  -6.505   6.112  1.00  0.00     0.049 A 
ATOM     60  H   UNL     1       8.612  -5.349   5.758  1.00  0.00     0.167 HD
ATOM     61  C   UNL     1      11.164  -4.179   6.547  1.00  0.00     0.074 A 
ATOM     62  C   UNL     1      12.210  -3.241   6.916  1.00  0.00     0.031 C 
ATOM     63  C   UNL     1      11.333  -5.522   6.467  1.00  0.00     0.037 A 
BRANCH  50  64
ATOM     64  C   UNL     1       6.336  -8.839   4.843  1.00  0.00     0.064 A 
ATOM     65  C   UNL     1       5.786  -9.171   3.595  1.00  0.00     0.173 A 
ATOM     66  C   UNL     1       6.192  -9.758   5.892  1.00  0.00     0.173 A 
ATOM     67  F   UNL     1       5.843  -8.298   2.577  1.00  0.00    -0.203 F 
ATOM     68  C   UNL     1       5.095 -10.365   3.416  1.00  0.00     0.198 A 
ATOM     69  C   UNL     1       5.537 -10.968   5.698  1.00  0.00     0.198 A 
ATOM     70  F   UNL     1       6.664  -9.469   7.114  1.00  0.00    -0.203 F 
ATOM     71  F   UNL     1       4.505 -10.626   2.241  1.00  0.00    -0.200 F 
ATOM     72  C   UNL     1       4.981 -11.267   4.464  1.00  0.00     0.200 A 
ATOM     73  F   UNL     1       5.423 -11.834   6.714  1.00  0.00    -0.200 F 
ATOM     74  F   UNL     1       4.315 -12.417   4.290  1.00  0.00    -0.200 F 
ENDBRANCH  50  64
BRANCH  51  75
ATOM     75  C   UNL     1      10.059   0.422   6.762  1.00  0.00     0.064 A 
ATOM     76  C   UNL     1      11.096   0.985   6.004  1.00  0.00     0.173 A 
ATOM     77  C   UNL     1       9.571   1.184   7.840  1.00  0.00     0.173 A 
ATOM     78  F   UNL     1      11.617   0.305   4.972  1.00  0.00    -0.203 F 
ATOM     79  C   UNL     1      11.639   2.231   6.327  1.00  0.00     0.198 A 
ATOM     80  C   UNL     1      10.086   2.445   8.137  1.00  0.00     0.198 A 
ATOM     81  F   UNL     1       8.585   0.705   8.612  1.00  0.00    -0.203 F 
ATOM     82  F   UNL     1      12.674   2.712   5.624  1.00  0.00    -0.200 F 
ATOM     83  C   UNL     1      11.131   2.962   7.390  1.00  0.00     0.200 A 
ATOM     84  F   UNL     1       9.575   3.152   9.154  1.00  0.00    -0.200 F 
ATOM     85  F   UNL     1      11.655   4.155   7.702  1.00  0.00    -0.200 F 
ENDBRANCH  51  75
BRANCH  63  86
ATOM     86  C   UNL     1      12.714  -6.035   6.733  1.00  0.00     0.064 A 
ATOM     87  C   UNL     1      13.284  -6.002   8.012  1.00  0.00     0.173 A 
ATOM     88  C   UNL     1      13.452  -6.615   5.690  1.00  0.00     0.173 A 
ATOM     89  F   UNL     1      12.618  -5.445   9.036  1.00  0.00    -0.203 F 
ATOM     90  C   UNL     1      14.563  -6.499   8.231  1.00  0.00     0.198 A 
ATOM     91  C   UNL     1      14.708  -7.157   5.924  1.00  0.00     0.198 A 
ATOM     92  F   UNL     1      12.940  -6.679   4.451  1.00  0.00    -0.203 F 
ATOM     93  F   UNL     1      15.119  -6.397   9.445  1.00  0.00    -0.200 F 
ATOM     94  C   UNL     1      15.268  -7.087   7.190  1.00  0.00     0.200 A 
ATOM     95  F   UNL     1      15.374  -7.750   4.924  1.00  0.00    -0.200 F 
ATOM     96  F   UNL     1      16.494  -7.580   7.407  1.00  0.00    -0.200 F 
ENDBRANCH  63  86
ENDBRANCH  37  38
ENDBRANCH  30  32
ENDBRANCH  29  30
ENDBRANCH  28  29
ENDBRANCH  27  28
ENDBRANCH  26  27
ENDBRANCH  25  26
ENDBRANCH   1  25
TORSDOF 24
