REMARK SMILES O=C(OCCOCCOCCOC(=O)[C@H](c1c[nH]c2cc(F)ccc12)[NH+]1CC[NH+](CC(=O)N2CCOCC2)CC1)c1ccc(-c2c3nc(c(-c4c(F)c(F)c(F)c(F)c4F)c4ccc([nH]4)c(-c4c(F)c(F)c(F)c(F)c4F)c4nc(c(-c5c(F)c(F)c(F)c(F)c5F)c5ccc2[nH]5)C=C4)C=C3)cc1
REMARK SMILES IDX 8 1 7 2 6 3 5 4 4 5 3 6 2 7 1 8 41 9 42 10 103 11 43 12
REMARK SMILES IDX 102 13 44 14 45 15 46 16 96 17 47 18 101 19 95 20 97 21
REMARK SMILES IDX 48 22 100 23 94 24 93 25 49 27 81 28 61 29 80 30 62 31 65 32
REMARK SMILES IDX 79 33 98 34 63 35 64 36 78 38 99 39 66 40 50 41 51 42 59 43
REMARK SMILES IDX 52 44 53 45 57 46 60 47 54 48 55 49 58 50 56 51 82 52 83 53
REMARK SMILES IDX 91 54 84 55 85 56 89 57 92 58 86 59 87 60 90 61 88 62 67 63
REMARK SMILES IDX 68 64 76 65 69 66 70 67 74 68 77 69 71 70 72 71 75 72 73 73
REMARK SMILES IDX 9 74 10 75 11 76 12 77 13 78 14 79 15 80 26 81 27 82 40 83
REMARK SMILES IDX 28 85 39 86 29 87 30 89 31 90 32 91 33 92 34 93 38 94 35 95
REMARK SMILES IDX 37 96 36 97 16 98 17 99 25 100 18 101 19 102 24 103 20 105
REMARK SMILES IDX 23 106 21 107 22 108
REMARK H PARENT 97 26 65 37 26 84 29 88 18 104
REMARK Flexibility Score: inf
ROOT
ATOM      1  C   UNL     1       6.415  -0.771   3.125  1.00  0.00     0.188 C 
ENDROOT
BRANCH   1   2
ATOM      2  C   UNL     1       6.117  -0.956   1.631  1.00  0.00     0.188 C 
BRANCH   2   3
ATOM      3  O   UNL     1       4.992  -1.778   1.343  1.00  0.00    -0.376 OA
BRANCH   3   4
ATOM      4  C   UNL     1       4.950  -2.366   0.041  1.00  0.00     0.202 C 
BRANCH   4   5
ATOM      5  C   UNL     1       5.168  -1.466  -1.194  1.00  0.00     0.261 C 
BRANCH   5   6
ATOM      6  O   UNL     1       5.479  -0.086  -0.920  1.00  0.00    -0.460 OA
BRANCH   6   7
ATOM      7  C   UNL     1       4.643   0.965  -1.034  1.00  0.00     0.338 C 
ATOM      8  O   UNL     1       5.107   2.100  -1.240  1.00  0.00    -0.246 OA
BRANCH   7   9
ATOM      9  C   UNL     1       3.178   0.796  -0.891  1.00  0.00     0.060 A 
ATOM     10  C   UNL     1       2.607  -0.172  -0.070  1.00  0.00     0.016 A 
ATOM     11  C   UNL     1       2.328   1.717  -1.504  1.00  0.00     0.016 A 
ATOM     12  C   UNL     1       1.233  -0.373  -0.032  1.00  0.00     0.010 A 
ATOM     13  C   UNL     1       0.944   1.622  -1.332  1.00  0.00     0.010 A 
ATOM     14  C   UNL     1       0.376   0.526  -0.661  1.00  0.00    -0.014 A 
BRANCH  14  15
ATOM     15  C   UNL     1      -1.087   0.252  -0.712  1.00  0.00     0.031 A 
ATOM     16  C   UNL     1      -1.754   0.165  -2.063  1.00  0.00     0.074 A 
ATOM     17  C   UNL     1      -1.797   0.005   0.410  1.00  0.00     0.049 A 
ATOM     18  N   UNL     1      -3.017   0.002  -2.362  1.00  0.00    -0.248 NA
ATOM     19  C   UNL     1      -0.881   0.300  -3.242  1.00  0.00     0.031 C 
ATOM     20  C   UNL     1      -1.266   0.018   1.775  1.00  0.00     0.029 A 
ATOM     21  N   UNL     1      -3.117  -0.333   0.583  1.00  0.00    -0.354 N 
ATOM     22  C   UNL     1      -3.084   0.058  -3.749  1.00  0.00     0.074 A 
ATOM     23  C   UNL     1      -1.755   0.343  -4.232  1.00  0.00     0.031 C 
ATOM     24  C   UNL     1      -2.234  -0.331   2.637  1.00  0.00     0.029 A 
ATOM     25  C   UNL     1      -3.470  -0.546   1.895  1.00  0.00     0.049 A 
ATOM     26  H   UNL     1      -3.753  -0.414  -0.165  1.00  0.00     0.167 HD
ATOM     27  C   UNL     1      -4.146  -0.156  -4.559  1.00  0.00     0.037 A 
ATOM     28  C   UNL     1      -4.658  -0.873   2.438  1.00  0.00     0.037 A 
ATOM     29  C   UNL     1      -5.455  -0.497  -4.080  1.00  0.00     0.049 A 
ATOM     30  C   UNL     1      -5.831  -1.085   1.517  1.00  0.00     0.074 A 
ATOM     31  C   UNL     1      -6.614  -0.712  -4.801  1.00  0.00     0.029 A 
ATOM     32  N   UNL     1      -5.766  -0.696  -2.742  1.00  0.00    -0.354 N 
ATOM     33  N   UNL     1      -5.879  -1.007   0.208  1.00  0.00    -0.248 NA
ATOM     34  C   UNL     1      -7.112  -1.436   2.144  1.00  0.00     0.031 C 
ATOM     35  C   UNL     1      -7.635  -1.020  -3.895  1.00  0.00     0.029 A 
ATOM     36  C   UNL     1      -7.101  -1.036  -2.615  1.00  0.00     0.049 A 
ATOM     37  H   UNL     1      -5.131  -0.609  -1.995  1.00  0.00     0.167 HD
ATOM     38  C   UNL     1      -7.184  -1.318  -0.145  1.00  0.00     0.074 A 
ATOM     39  C   UNL     1      -7.888  -1.617   1.086  1.00  0.00     0.031 C 
ATOM     40  C   UNL     1      -7.760  -1.343  -1.373  1.00  0.00     0.037 A 
BRANCH  27  41
ATOM     41  C   UNL     1      -3.912  -0.025  -6.036  1.00  0.00     0.064 A 
ATOM     42  C   UNL     1      -3.131  -0.955  -6.742  1.00  0.00     0.173 A 
ATOM     43  C   UNL     1      -4.433   1.066  -6.747  1.00  0.00     0.173 A 
ATOM     44  F   UNL     1      -2.585  -2.001  -6.103  1.00  0.00    -0.203 F 
ATOM     45  C   UNL     1      -2.843  -0.773  -8.092  1.00  0.00     0.198 A 
ATOM     46  C   UNL     1      -4.170   1.227  -8.105  1.00  0.00     0.198 A 
ATOM     47  F   UNL     1      -5.183   1.984  -6.122  1.00  0.00    -0.203 F 
ATOM     48  F   UNL     1      -2.032  -1.633  -8.724  1.00  0.00    -0.200 F 
ATOM     49  C   UNL     1      -3.366   0.316  -8.773  1.00  0.00     0.200 A 
ATOM     50  F   UNL     1      -4.680   2.276  -8.765  1.00  0.00    -0.200 F 
ATOM     51  F   UNL     1      -3.079   0.496 -10.070  1.00  0.00    -0.200 F 
ENDBRANCH  27  41
BRANCH  28  52
ATOM     52  C   UNL     1      -4.808  -1.018   3.915  1.00  0.00     0.064 A 
ATOM     53  C   UNL     1      -5.127  -2.253   4.499  1.00  0.00     0.173 A 
ATOM     54  C   UNL     1      -4.666   0.084   4.773  1.00  0.00     0.173 A 
ATOM     55  F   UNL     1      -5.286  -3.338   3.727  1.00  0.00    -0.203 F 
ATOM     56  C   UNL     1      -5.336  -2.372   5.873  1.00  0.00     0.198 A 
ATOM     57  C   UNL     1      -4.839  -0.044   6.151  1.00  0.00     0.198 A 
ATOM     58  F   UNL     1      -4.346   1.287   4.275  1.00  0.00    -0.203 F 
ATOM     59  F   UNL     1      -5.698  -3.552   6.395  1.00  0.00    -0.200 F 
ATOM     60  C   UNL     1      -5.188  -1.268   6.698  1.00  0.00     0.200 A 
ATOM     61  F   UNL     1      -4.668   1.021   6.946  1.00  0.00    -0.200 F 
ATOM     62  F   UNL     1      -5.386  -1.382   8.019  1.00  0.00    -0.200 F 
ENDBRANCH  28  52
BRANCH  40  63
ATOM     63  C   UNL     1      -9.204  -1.737  -1.438  1.00  0.00     0.064 A 
ATOM     64  C   UNL     1     -10.218  -0.880  -0.986  1.00  0.00     0.173 A 
ATOM     65  C   UNL     1      -9.578  -2.970  -1.992  1.00  0.00     0.173 A 
ATOM     66  F   UNL     1      -9.906   0.302  -0.434  1.00  0.00    -0.203 F 
ATOM     67  C   UNL     1     -11.555  -1.257  -1.061  1.00  0.00     0.198 A 
ATOM     68  C   UNL     1     -10.918  -3.330  -2.094  1.00  0.00     0.198 A 
ATOM     69  F   UNL     1      -8.643  -3.821  -2.443  1.00  0.00    -0.203 F 
ATOM     70  F   UNL     1     -12.505  -0.445  -0.576  1.00  0.00    -0.200 F 
ATOM     71  C   UNL     1     -11.904  -2.477  -1.621  1.00  0.00     0.200 A 
ATOM     72  F   UNL     1     -11.254  -4.503  -2.647  1.00  0.00    -0.200 F 
ATOM     73  F   UNL     1     -13.193  -2.835  -1.697  1.00  0.00    -0.200 F 
ENDBRANCH  40  63
ENDBRANCH  14  15
ENDBRANCH   7   9
ENDBRANCH   6   7
ENDBRANCH   5   6
ENDBRANCH   4   5
ENDBRANCH   3   4
ENDBRANCH   2   3
ENDBRANCH   1   2
BRANCH   1  74
ATOM     74  O   UNL     1       6.471  -1.931   3.939  1.00  0.00    -0.376 OA
BRANCH  74  75
ATOM     75  C   UNL     1       5.300  -2.737   3.997  1.00  0.00     0.202 C 
BRANCH  75  76
ATOM     76  C   UNL     1       3.984  -2.100   4.482  1.00  0.00     0.261 C 
BRANCH  76  77
ATOM     77  O   UNL     1       3.531  -0.918   3.784  1.00  0.00    -0.459 OA
BRANCH  77  78
ATOM     78  C   UNL     1       3.479   0.234   4.531  1.00  0.00     0.370 C 
ATOM     79  O   UNL     1       3.968   0.317   5.665  1.00  0.00    -0.245 OA
BRANCH  78  80
ATOM     80  C   UNL     1       2.601   1.304   3.870  1.00  0.00     0.328 C 
BRANCH  80  81
ATOM     81  N   UNL     1       2.171   2.366   4.784  1.00  0.00    -0.310 N 
ATOM     82  C   UNL     1       3.189   3.183   5.449  1.00  0.00     0.325 C 
ATOM     83  C   UNL     1       0.991   2.127   5.577  1.00  0.00     0.325 C 
ATOM     84  H   UNL     1       1.847   3.003   4.057  1.00  0.00     0.349 HD
ATOM     85  C   UNL     1       2.573   4.540   5.855  1.00  0.00     0.325 C 
ATOM     86  C   UNL     1       0.395   3.466   6.053  1.00  0.00     0.325 C 
ATOM     87  N   UNL     1       1.333   4.427   6.638  1.00  0.00    -0.318 N 
ATOM     88  H   UNL     1       0.875   5.333   6.545  1.00  0.00     0.348 HD
BRANCH  87  89
ATOM     89  C   UNL     1       1.490   4.378   8.095  1.00  0.00     0.364 C 
BRANCH  89  90
ATOM     90  C   UNL     1       2.674   3.582   8.659  1.00  0.00     0.277 C 
ATOM     91  O   UNL     1       3.811   4.067   8.633  1.00  0.00    -0.268 OA
ATOM     92  N   UNL     1       2.428   2.376   9.300  1.00  0.00    -0.333 N 
ATOM     93  C   UNL     1       1.370   1.438   8.938  1.00  0.00     0.148 C 
ATOM     94  C   UNL     1       3.509   1.773  10.080  1.00  0.00     0.148 C 
ATOM     95  C   UNL     1       0.916   0.557  10.103  1.00  0.00     0.181 C 
ATOM     96  C   UNL     1       2.945   0.943  11.236  1.00  0.00     0.181 C 
ATOM     97  O   UNL     1       2.032  -0.058  10.758  1.00  0.00    -0.378 OA
ENDBRANCH  89  90
ENDBRANCH  87  89
ENDBRANCH  80  81
BRANCH  80  98
ATOM     98  C   UNL     1       3.085   2.092   2.678  1.00  0.00     0.046 A 
ATOM     99  C   UNL     1       4.360   2.409   2.252  1.00  0.00     0.094 A 
ATOM    100  C   UNL     1       2.185   2.926   1.910  1.00  0.00     0.009 A 
ATOM    101  N   UNL     1       4.265   3.382   1.283  1.00  0.00    -0.361 N 
ATOM    102  C   UNL     1       2.953   3.744   1.088  1.00  0.00     0.049 A 
ATOM    103  C   UNL     1       0.782   3.110   1.926  1.00  0.00     0.014 A 
ATOM    104  H   UNL     1       5.031   3.766   0.798  1.00  0.00     0.166 HD
ATOM    105  C   UNL     1       2.381   4.720   0.259  1.00  0.00     0.065 A 
ATOM    106  C   UNL     1       0.191   4.064   1.099  1.00  0.00     0.040 A 
ATOM    107  C   UNL     1       0.990   4.849   0.282  1.00  0.00     0.125 A 
ATOM    108  F   UNL     1       0.406   5.753  -0.516  1.00  0.00    -0.207 F 
ENDBRANCH  80  98
ENDBRANCH  78  80
ENDBRANCH  77  78
ENDBRANCH  76  77
ENDBRANCH  75  76
ENDBRANCH  74  75
ENDBRANCH   1  74
TORSDOF 21
