REMARK SMILES C[C@@H](O)[C@@H](NC(=O)Nc1ccc(F)cc1F)C(=O)OCCOCCOCCOC(=O)c1ccc(-c2c3nc(c(-c4c(F)c(F)c(F)c(F)c4F)c4ccc([nH]4)c(-c4c(F)c(F)c(F)c(F)c4F)c4nc(c(-c5c(F)c(F)c(F)c(F)c5F)c5ccc2[nH]5)C=C4)C=C3)cc1
REMARK SMILES IDX 23 1 22 2 21 3 20 4 19 5 17 6 18 7 4 8 2 9 1 10 3 11 5 13
REMARK SMILES IDX 6 14 7 16 8 17 9 19 10 20 15 21 11 22 14 23 16 24 12 25
REMARK SMILES IDX 13 26 24 27 25 28 26 29 27 30 28 31 29 32 30 33 31 34 32 35
REMARK SMILES IDX 93 36 33 37 92 38 34 39 35 40 36 41 86 42 37 43 91 44 85 45
REMARK SMILES IDX 87 46 38 47 90 48 84 49 83 50 39 52 71 53 51 54 70 55 52 56
REMARK SMILES IDX 55 57 69 58 88 59 53 60 54 61 68 63 89 64 56 65 40 66 41 67
REMARK SMILES IDX 49 68 42 69 43 70 47 71 50 72 44 73 45 74 48 75 46 76 72 77
REMARK SMILES IDX 73 78 81 79 74 80 75 81 79 82 82 83 76 84 77 85 80 86 78 87
REMARK SMILES IDX 57 88 58 89 66 90 59 91 60 92 64 93 67 94 61 95 62 96 65 97
REMARK SMILES IDX 63 98
REMARK H PARENT 3 12 5 15 8 18 87 51 55 62
REMARK Flexibility Score: inf
ROOT
ATOM      1  C   UNL     1      -1.758  -3.963   0.133  1.00  0.00     0.188 C 
ENDROOT
BRANCH   1   2
ATOM      2  O   UNL     1      -3.113  -4.503  -1.290  1.00  0.00    -0.376 OA
BRANCH   2   3
ATOM      3  C   UNL     1      -2.910  -4.830  -3.064  1.00  0.00     0.202 C 
BRANCH   3   4
ATOM      4  C   UNL     1      -1.383  -4.470  -4.072  1.00  0.00     0.261 C 
BRANCH   4   5
ATOM      5  O   UNL     1      -0.617  -3.059  -4.153  1.00  0.00    -0.462 OA
BRANCH   5   6
ATOM      6  C   UNL     1       0.316  -2.546  -3.237  1.00  0.00     0.331 C 
ATOM      7  O   UNL     1       1.443  -3.038  -3.182  1.00  0.00    -0.250 OA
BRANCH   6   8
ATOM      8  C   UNL     1      -0.155  -1.327  -2.145  1.00  0.00     0.222 C 
BRANCH   8   9
ATOM      9  C   UNL     1       1.115  -0.639  -1.500  1.00  0.00     0.145 C 
ATOM     10  C   UNL     1       0.941   0.748  -0.879  1.00  0.00     0.041 C 
BRANCH   9  11
ATOM     11  O   UNL     1       1.562  -1.429  -0.367  1.00  0.00    -0.391 OA
ATOM     12  H   UNL     1       0.880  -1.421   0.323  1.00  0.00     0.211 HD
ENDBRANCH   9  11
ENDBRANCH   8   9
BRANCH   8  13
ATOM     13  N   UNL     1      -1.331  -0.430  -2.430  1.00  0.00    -0.322 N 
ATOM     14  C   UNL     1      -2.667  -0.374  -2.162  1.00  0.00     0.320 C 
ATOM     15  H   UNL     1      -1.053   0.345  -2.970  1.00  0.00     0.166 HD
ATOM     16  O   UNL     1      -3.273   0.589  -2.651  1.00  0.00    -0.248 OA
ATOM     17  N   UNL     1      -3.398  -1.228  -1.380  1.00  0.00    -0.305 N 
ATOM     18  H   UNL     1      -4.259  -0.864  -1.071  1.00  0.00     0.171 HD
BRANCH  17  19
ATOM     19  C   UNL     1      -3.127  -2.538  -0.943  1.00  0.00     0.079 A 
ATOM     20  C   UNL     1      -4.047  -3.469   0.188  1.00  0.00     0.032 A 
ATOM     21  C   UNL     1      -1.822  -3.309  -1.808  1.00  0.00     0.149 A 
ATOM     22  C   UNL     1      -3.695  -5.178   0.498  1.00  0.00     0.041 A 
ATOM     23  C   UNL     1      -1.371  -5.109  -1.520  1.00  0.00     0.080 A 
ATOM     24  F   UNL     1      -2.102  -2.752  -2.998  1.00  0.00    -0.205 F 
ATOM     25  C   UNL     1      -2.372  -6.005  -0.326  1.00  0.00     0.126 A 
ATOM     26  F   UNL     1      -2.033  -7.251   0.027  1.00  0.00    -0.207 F 
ENDBRANCH  17  19
ENDBRANCH   8  13
ENDBRANCH   6   8
ENDBRANCH   5   6
ENDBRANCH   4   5
ENDBRANCH   3   4
ENDBRANCH   2   3
ENDBRANCH   1   2
BRANCH   1  27
ATOM     27  C   UNL     1      -0.108  -4.486   0.305  1.00  0.00     0.188 C 
BRANCH  27  28
ATOM     28  O   UNL     1       0.886  -4.336  -0.720  1.00  0.00    -0.376 OA
BRANCH  28  29
ATOM     29  C   UNL     1       1.647  -5.458  -1.230  1.00  0.00     0.202 C 
BRANCH  29  30
ATOM     30  C   UNL     1       2.084  -6.683  -0.394  1.00  0.00     0.261 C 
BRANCH  30  31
ATOM     31  O   UNL     1       1.716  -6.682   0.978  1.00  0.00    -0.460 OA
BRANCH  31  32
ATOM     32  C   UNL     1       2.312  -5.721   1.721  1.00  0.00     0.338 C 
ATOM     33  O   UNL     1       3.246  -5.016   1.389  1.00  0.00    -0.246 OA
BRANCH  32  34
ATOM     34  C   UNL     1       1.444  -5.485   2.901  1.00  0.00     0.060 A 
ATOM     35  C   UNL     1       1.196  -4.155   3.268  1.00  0.00     0.016 A 
ATOM     36  C   UNL     1       0.778  -6.529   3.551  1.00  0.00     0.016 A 
ATOM     37  C   UNL     1       0.304  -3.864   4.295  1.00  0.00     0.010 A 
ATOM     38  C   UNL     1      -0.076  -6.241   4.617  1.00  0.00     0.010 A 
ATOM     39  C   UNL     1      -0.281  -4.909   5.018  1.00  0.00    -0.014 A 
BRANCH  39  40
ATOM     40  C   UNL     1      -0.859  -4.617   6.350  1.00  0.00     0.031 A 
ATOM     41  C   UNL     1       0.028  -4.825   7.548  1.00  0.00     0.074 A 
ATOM     42  C   UNL     1      -2.102  -4.130   6.503  1.00  0.00     0.049 A 
ATOM     43  N   UNL     1      -0.239  -4.670   8.818  1.00  0.00    -0.248 NA
ATOM     44  C   UNL     1       1.406  -5.270   7.273  1.00  0.00     0.031 C 
ATOM     45  C   UNL     1      -3.033  -3.826   5.421  1.00  0.00     0.029 A 
ATOM     46  N   UNL     1      -2.791  -3.805   7.647  1.00  0.00    -0.354 N 
ATOM     47  C   UNL     1       0.931  -5.004   9.488  1.00  0.00     0.074 A 
ATOM     48  C   UNL     1       1.897  -5.408   8.493  1.00  0.00     0.031 C 
ATOM     49  C   UNL     1      -4.179  -3.366   5.954  1.00  0.00     0.029 A 
ATOM     50  C   UNL     1      -4.073  -3.375   7.415  1.00  0.00     0.049 A 
ATOM     51  H   UNL     1      -2.401  -3.874   8.548  1.00  0.00     0.167 HD
ATOM     52  C   UNL     1       1.181  -4.961  10.816  1.00  0.00     0.037 A 
ATOM     53  C   UNL     1      -5.052  -3.047   8.283  1.00  0.00     0.037 A 
ATOM     54  C   UNL     1       0.222  -4.548  11.803  1.00  0.00     0.049 A 
ATOM     55  C   UNL     1      -4.777  -3.094   9.768  1.00  0.00     0.074 A 
ATOM     56  C   UNL     1       0.391  -4.455  13.173  1.00  0.00     0.029 A 
ATOM     57  N   UNL     1      -1.082  -4.166  11.531  1.00  0.00    -0.354 N 
ATOM     58  N   UNL     1      -3.664  -3.389  10.395  1.00  0.00    -0.248 NA
ATOM     59  C   UNL     1      -5.894  -2.758  10.666  1.00  0.00     0.031 C 
ATOM     60  C   UNL     1      -0.832  -4.090  13.737  1.00  0.00     0.029 A 
ATOM     61  C   UNL     1      -1.741  -3.874  12.713  1.00  0.00     0.049 A 
ATOM     62  H   UNL     1      -1.481  -4.111  10.632  1.00  0.00     0.167 HD
ATOM     63  C   UNL     1      -3.936  -3.243  11.751  1.00  0.00     0.074 A 
ATOM     64  C   UNL     1      -5.316  -2.823  11.858  1.00  0.00     0.031 C 
ATOM     65  C   UNL     1      -3.112  -3.439  12.811  1.00  0.00     0.037 A 
BRANCH  52  66
ATOM     66  C   UNL     1       2.539  -5.386  11.290  1.00  0.00     0.064 A 
ATOM     67  C   UNL     1       2.683  -6.545  12.070  1.00  0.00     0.173 A 
ATOM     68  C   UNL     1       3.683  -4.612  11.048  1.00  0.00     0.173 A 
ATOM     69  F   UNL     1       1.619  -7.320  12.332  1.00  0.00    -0.203 F 
ATOM     70  C   UNL     1       3.915  -6.896  12.611  1.00  0.00     0.198 A 
ATOM     71  C   UNL     1       4.922  -4.986  11.562  1.00  0.00     0.198 A 
ATOM     72  F   UNL     1       3.603  -3.505  10.294  1.00  0.00    -0.203 F 
ATOM     73  F   UNL     1       4.017  -7.980  13.393  1.00  0.00    -0.200 F 
ATOM     74  C   UNL     1       5.034  -6.119  12.354  1.00  0.00     0.200 A 
ATOM     75  F   UNL     1       6.008  -4.250  11.290  1.00  0.00    -0.200 F 
ATOM     76  F   UNL     1       6.222  -6.462  12.871  1.00  0.00    -0.200 F 
ENDBRANCH  52  66
BRANCH  53  77
ATOM     77  C   UNL     1      -6.390  -2.647   7.769  1.00  0.00     0.064 A 
ATOM     78  C   UNL     1      -7.213  -3.560   7.091  1.00  0.00     0.173 A 
ATOM     79  C   UNL     1      -6.874  -1.343   7.942  1.00  0.00     0.173 A 
ATOM     80  F   UNL     1      -6.803  -4.823   6.903  1.00  0.00    -0.203 F 
ATOM     81  C   UNL     1      -8.453  -3.177   6.585  1.00  0.00     0.198 A 
ATOM     82  C   UNL     1      -8.130  -0.970   7.465  1.00  0.00     0.198 A 
ATOM     83  F   UNL     1      -6.140  -0.439   8.609  1.00  0.00    -0.203 F 
ATOM     84  F   UNL     1      -9.199  -4.060   5.907  1.00  0.00    -0.200 F 
ATOM     85  C   UNL     1      -8.913  -1.884   6.777  1.00  0.00     0.200 A 
ATOM     86  F   UNL     1      -8.584   0.272   7.680  1.00  0.00    -0.200 F 
ATOM     87  F   UNL     1     -10.112  -1.520   6.303  1.00  0.00    -0.200 F 
ENDBRANCH  53  77
BRANCH  65  88
ATOM     88  C   UNL     1      -3.647  -3.175  14.191  1.00  0.00     0.064 A 
ATOM     89  C   UNL     1      -3.121  -2.127  14.966  1.00  0.00     0.173 A 
ATOM     90  C   UNL     1      -4.588  -4.022  14.793  1.00  0.00     0.173 A 
ATOM     91  F   UNL     1      -2.208  -1.294  14.445  1.00  0.00    -0.203 F 
ATOM     92  C   UNL     1      -3.497  -1.956  16.295  1.00  0.00     0.198 A 
ATOM     93  C   UNL     1      -4.989  -3.826  16.113  1.00  0.00     0.198 A 
ATOM     94  F   UNL     1      -5.128  -5.034  14.096  1.00  0.00    -0.203 F 
ATOM     95  F   UNL     1      -2.938  -0.983  17.028  1.00  0.00    -0.200 F 
ATOM     96  C   UNL     1      -4.432  -2.804  16.867  1.00  0.00     0.200 A 
ATOM     97  F   UNL     1      -5.911  -4.632  16.657  1.00  0.00    -0.200 F 
ATOM     98  F   UNL     1      -4.796  -2.638  18.146  1.00  0.00    -0.200 F 
ENDBRANCH  65  88
ENDBRANCH  39  40
ENDBRANCH  32  34
ENDBRANCH  31  32
ENDBRANCH  30  31
ENDBRANCH  29  30
ENDBRANCH  28  29
ENDBRANCH  27  28
ENDBRANCH   1  27
TORSDOF 21
