REMARK SMILES Cc1cc(=O)n(Cc2cc(C(=O)OCCOCCOCCOC(=O)c3ccc(-c4c5nc(c(-c6c(F)c(F)c(F)c(F)c6F)c6ccc([nH]6)c(-c6c(F)c(F)c(F)c(F)c6F)c6nc(c(-c7c(F)c(F)c(F)c(F)c7F)c7ccc4[nH]7)C=C6)C=C5)cc3)oc2C)cc1[N+](=O)[O-]
REMARK SMILES IDX 17 1 16 2 15 3 14 4 13 5 11 6 12 7 10 8 8 9 9 10 89 11 88 12
REMARK SMILES IDX 90 13 7 14 6 15 1 16 2 17 3 18 92 19 4 20 91 21 5 22 93 23
REMARK SMILES IDX 94 24 95 25 18 26 19 27 20 28 21 29 22 30 23 31 24 32 25 33
REMARK SMILES IDX 26 34 87 35 27 36 86 37 28 38 29 39 30 40 80 41 31 42 85 43
REMARK SMILES IDX 79 44 81 45 32 46 84 47 78 48 77 49 33 51 65 52 45 53 64 54
REMARK SMILES IDX 46 55 49 56 63 57 82 58 47 59 48 60 62 62 83 63 50 64 34 65
REMARK SMILES IDX 35 66 43 67 36 68 37 69 41 70 44 71 38 72 39 73 42 74 40 75
REMARK SMILES IDX 66 76 67 77 75 78 68 79 69 80 73 81 76 82 70 83 71 84 74 85
REMARK SMILES IDX 72 86 51 87 52 88 60 89 53 90 54 91 58 92 61 93 55 94 56 95
REMARK SMILES IDX 59 96 57 97
REMARK H PARENT 81 50 49 61
REMARK Flexibility Score: inf
ROOT
ATOM      1  C   UNL     1       3.822   1.298  -9.597  1.00  0.00     0.188 C 
ENDROOT
BRANCH   1   2
ATOM      2  O   UNL     1       4.580   0.128  -9.863  1.00  0.00    -0.376 OA
BRANCH   2   3
ATOM      3  C   UNL     1       4.273  -1.083  -9.187  1.00  0.00     0.202 C 
BRANCH   3   4
ATOM      4  C   UNL     1       4.595  -1.136  -7.697  1.00  0.00     0.261 C 
BRANCH   4   5
ATOM      5  O   UNL     1       3.736  -0.263  -6.949  1.00  0.00    -0.457 OA
BRANCH   5   6
ATOM      6  C   UNL     1       4.348   0.780  -6.322  1.00  0.00     0.374 C 
ATOM      7  O   UNL     1       5.559   0.952  -6.261  1.00  0.00    -0.242 OA
BRANCH   6   8
ATOM      8  C   UNL     1       3.347   1.698  -5.837  1.00  0.00     0.212 A 
ATOM      9  C   UNL     1       1.545   2.822  -5.054  1.00  0.00     0.014 A 
ATOM     10  C   UNL     1       2.013   1.552  -5.515  1.00  0.00     0.064 A 
ATOM     11  C   UNL     1       2.610   3.687  -5.232  1.00  0.00     0.107 A 
ATOM     12  O   UNL     1       3.700   3.009  -5.679  1.00  0.00    -0.454 OA
ATOM     13  C   UNL     1       2.815   5.136  -5.031  1.00  0.00     0.088 C 
BRANCH   9  14
ATOM     14  C   UNL     1       0.197   3.106  -4.462  1.00  0.00     0.164 C 
BRANCH  14  15
ATOM     15  N   UNL     1       0.122   2.374  -3.195  1.00  0.00    -0.304 N 
ATOM     16  C   UNL     1       0.818  -0.098   0.251  1.00  0.00     0.052 C 
ATOM     17  C   UNL     1       0.464   0.802  -0.899  1.00  0.00     0.034 A 
ATOM     18  C   UNL     1      -0.134   0.276  -1.987  1.00  0.00     0.082 A 
ATOM     19  C   UNL     1       0.807   2.224  -0.911  1.00  0.00     0.288 A 
ATOM     20  C   UNL     1      -0.375   1.075  -3.217  1.00  0.00     0.251 A 
ATOM     21  C   UNL     1       0.657   2.940  -2.042  1.00  0.00     0.175 A 
ATOM     22  O   UNL     1      -0.916   0.542  -4.180  1.00  0.00    -0.269 OA
BRANCH  19  23
ATOM     23  N   UNL     1       1.329   2.966   0.252  1.00  0.00     0.064 N 
ATOM     24  O   UNL     1       1.362   4.204   0.184  1.00  0.00    -0.258 OA
ATOM     25  O   UNL     1       1.698   2.322   1.241  1.00  0.00    -0.258 OA
ENDBRANCH  19  23
ENDBRANCH  14  15
ENDBRANCH   9  14
ENDBRANCH   6   8
ENDBRANCH   5   6
ENDBRANCH   4   5
ENDBRANCH   3   4
ENDBRANCH   2   3
ENDBRANCH   1   2
BRANCH   1  26
ATOM     26  C   UNL     1       2.287   1.234  -9.461  1.00  0.00     0.188 C 
BRANCH  26  27
ATOM     27  O   UNL     1       1.548   0.186 -10.069  1.00  0.00    -0.376 OA
BRANCH  27  28
ATOM     28  C   UNL     1       1.821  -0.174 -11.416  1.00  0.00     0.202 C 
BRANCH  28  29
ATOM     29  C   UNL     1       1.522   0.876 -12.482  1.00  0.00     0.261 C 
BRANCH  29  30
ATOM     30  O   UNL     1       2.449   1.970 -12.406  1.00  0.00    -0.460 OA
BRANCH  30  31
ATOM     31  C   UNL     1       1.897   3.192 -12.229  1.00  0.00     0.338 C 
ATOM     32  O   UNL     1       0.712   3.474 -12.180  1.00  0.00    -0.246 OA
BRANCH  31  33
ATOM     33  C   UNL     1       2.966   4.161 -11.926  1.00  0.00     0.060 A 
ATOM     34  C   UNL     1       4.092   4.282 -12.744  1.00  0.00     0.016 A 
ATOM     35  C   UNL     1       2.806   4.984 -10.805  1.00  0.00     0.016 A 
ATOM     36  C   UNL     1       5.043   5.264 -12.459  1.00  0.00     0.010 A 
ATOM     37  C   UNL     1       3.762   5.956 -10.514  1.00  0.00     0.010 A 
ATOM     38  C   UNL     1       4.872   6.119 -11.355  1.00  0.00    -0.014 A 
BRANCH  38  39
ATOM     39  C   UNL     1       5.773   7.279 -11.173  1.00  0.00     0.031 A 
ATOM     40  C   UNL     1       6.931   7.232 -10.227  1.00  0.00     0.074 A 
ATOM     41  C   UNL     1       5.511   8.399 -11.873  1.00  0.00     0.049 A 
ATOM     42  N   UNL     1       7.856   8.136 -10.022  1.00  0.00    -0.248 NA
ATOM     43  C   UNL     1       7.069   6.026  -9.400  1.00  0.00     0.031 C 
ATOM     44  C   UNL     1       4.381   8.569 -12.788  1.00  0.00     0.029 A 
ATOM     45  N   UNL     1       6.168   9.600 -11.924  1.00  0.00    -0.354 N 
ATOM     46  C   UNL     1       8.703   7.599  -9.064  1.00  0.00     0.074 A 
ATOM     47  C   UNL     1       8.157   6.309  -8.693  1.00  0.00     0.031 C 
ATOM     48  C   UNL     1       4.429   9.801 -13.317  1.00  0.00     0.029 A 
ATOM     49  C   UNL     1       5.586  10.507 -12.775  1.00  0.00     0.049 A 
ATOM     50  H   UNL     1       6.980   9.794 -11.402  1.00  0.00     0.167 HD
ATOM     51  C   UNL     1       9.841   8.134  -8.561  1.00  0.00     0.037 A 
ATOM     52  C   UNL     1       5.951  11.763 -13.090  1.00  0.00     0.037 A 
ATOM     53  C   UNL     1      10.372   9.422  -8.930  1.00  0.00     0.049 A 
ATOM     54  C   UNL     1       7.205  12.338 -12.496  1.00  0.00     0.074 A 
ATOM     55  C   UNL     1      11.556  10.014  -8.522  1.00  0.00     0.029 A 
ATOM     56  N   UNL     1       9.748  10.322  -9.780  1.00  0.00    -0.354 N 
ATOM     57  N   UNL     1       8.056  11.780 -11.670  1.00  0.00    -0.248 NA
ATOM     58  C   UNL     1       7.557  13.710 -12.888  1.00  0.00     0.031 C 
ATOM     59  C   UNL     1      11.626  11.291  -9.088  1.00  0.00     0.029 A 
ATOM     60  C   UNL     1      10.507  11.479  -9.883  1.00  0.00     0.049 A 
ATOM     61  H   UNL     1       8.893  10.164 -10.242  1.00  0.00     0.167 HD
ATOM     62  C   UNL     1       9.052  12.722 -11.457  1.00  0.00     0.074 A 
ATOM     63  C   UNL     1       8.709  13.882 -12.253  1.00  0.00     0.031 C 
ATOM     64  C   UNL     1      10.151  12.630 -10.671  1.00  0.00     0.037 A 
BRANCH  51  65
ATOM     65  C   UNL     1      10.620   7.327  -7.568  1.00  0.00     0.064 A 
ATOM     66  C   UNL     1      11.406   6.240  -7.977  1.00  0.00     0.173 A 
ATOM     67  C   UNL     1      10.680   7.714  -6.221  1.00  0.00     0.173 A 
ATOM     68  F   UNL     1      11.382   5.834  -9.255  1.00  0.00    -0.203 F 
ATOM     69  C   UNL     1      12.226   5.570  -7.073  1.00  0.00     0.198 A 
ATOM     70  C   UNL     1      11.515   7.054  -5.324  1.00  0.00     0.198 A 
ATOM     71  F   UNL     1       9.955   8.755  -5.784  1.00  0.00    -0.203 F 
ATOM     72  F   UNL     1      12.967   4.532  -7.485  1.00  0.00    -0.200 F 
ATOM     73  C   UNL     1      12.288   5.984  -5.751  1.00  0.00     0.200 A 
ATOM     74  F   UNL     1      11.588   7.465  -4.050  1.00  0.00    -0.200 F 
ATOM     75  F   UNL     1      13.100   5.356  -4.889  1.00  0.00    -0.200 F 
ENDBRANCH  51  65
BRANCH  52  76
ATOM     76  C   UNL     1       5.131  12.543 -14.049  1.00  0.00     0.064 A 
ATOM     77  C   UNL     1       5.590  12.795 -15.348  1.00  0.00     0.173 A 
ATOM     78  C   UNL     1       3.865  13.031 -13.693  1.00  0.00     0.173 A 
ATOM     79  F   UNL     1       6.802  12.362 -15.725  1.00  0.00    -0.203 F 
ATOM     80  C   UNL     1       4.818  13.518 -16.254  1.00  0.00     0.198 A 
ATOM     81  C   UNL     1       3.084  13.734 -14.607  1.00  0.00     0.198 A 
ATOM     82  F   UNL     1       3.382  12.809 -12.462  1.00  0.00    -0.203 F 
ATOM     83  F   UNL     1       5.292  13.774 -17.481  1.00  0.00    -0.200 F 
ATOM     84  C   UNL     1       3.563  13.981 -15.885  1.00  0.00     0.200 A 
ATOM     85  F   UNL     1       1.868  14.170 -14.251  1.00  0.00    -0.200 F 
ATOM     86  F   UNL     1       2.818  14.671 -16.760  1.00  0.00    -0.200 F 
ENDBRANCH  52  76
BRANCH  64  87
ATOM     87  C   UNL     1      11.070  13.814 -10.630  1.00  0.00     0.064 A 
ATOM     88  C   UNL     1      10.725  14.979  -9.931  1.00  0.00     0.173 A 
ATOM     89  C   UNL     1      12.330  13.763 -11.246  1.00  0.00     0.173 A 
ATOM     90  F   UNL     1       9.525  15.081  -9.340  1.00  0.00    -0.203 F 
ATOM     91  C   UNL     1      11.603  16.057  -9.861  1.00  0.00     0.198 A 
ATOM     92  C   UNL     1      13.215  14.833 -11.153  1.00  0.00     0.198 A 
ATOM     93  F   UNL     1      12.708  12.668 -11.923  1.00  0.00    -0.203 F 
ATOM     94  F   UNL     1      11.240  17.174  -9.216  1.00  0.00    -0.200 F 
ATOM     95  C   UNL     1      12.850  15.980 -10.464  1.00  0.00     0.200 A 
ATOM     96  F   UNL     1      14.423  14.754 -11.727  1.00  0.00    -0.200 F 
ATOM     97  F   UNL     1      13.698  17.015 -10.386  1.00  0.00    -0.200 F 
ENDBRANCH  64  87
ENDBRANCH  38  39
ENDBRANCH  31  33
ENDBRANCH  30  31
ENDBRANCH  29  30
ENDBRANCH  28  29
ENDBRANCH  27  28
ENDBRANCH  26  27
ENDBRANCH   1  26
TORSDOF 20
