REMARK SMILES O=C(OCCOCCOCCOC(=O)c1nnn(-c2cccc(C(F)(F)F)c2)c1[C@@H]1COc2ccccc2O1)c1ccc(-c2c3nc(c(-c4c(F)c(F)c(F)c(F)c4F)c4ccc([nH]4)c(-c4c(F)c(F)c(F)c(F)c4F)c4nc(c(-c5c(F)c(F)c(F)c(F)c5F)c5ccc2[nH]5)C=C4)C=C3)cc1
REMARK SMILES IDX 7 1 6 2 5 3 4 4 3 5 2 6 1 7 40 8 41 9 102 10 42 11 101 12
REMARK SMILES IDX 43 13 44 14 45 15 95 16 46 17 100 18 94 19 96 20 47 21 99 22
REMARK SMILES IDX 93 23 92 24 48 26 80 27 60 28 79 29 61 30 64 31 78 32 97 33
REMARK SMILES IDX 62 34 63 35 77 37 98 38 65 39 49 40 50 41 58 42 51 43 52 44
REMARK SMILES IDX 56 45 59 46 53 47 54 48 57 49 55 50 81 51 82 52 90 53 83 54
REMARK SMILES IDX 84 55 88 56 91 57 85 58 86 59 89 60 87 61 66 62 67 63 75 64
REMARK SMILES IDX 68 65 69 66 73 67 76 68 70 69 71 70 74 71 72 72 8 73 9 74
REMARK SMILES IDX 10 75 11 76 12 77 13 78 14 79 15 80 16 81 29 82 17 83 18 84
REMARK SMILES IDX 30 85 31 86 39 87 32 88 38 89 33 90 37 91 34 92 36 93 35 94
REMARK SMILES IDX 19 95 20 96 28 97 21 98 23 99 22 100 24 101 25 102 26 103
REMARK SMILES IDX 27 104
REMARK H PARENT 96 25 64 36
REMARK Flexibility Score: inf
ROOT
ATOM      1  C   UNL     1       3.368   2.016   0.568  1.00  0.00     0.188 C 
ENDROOT
BRANCH   1   2
ATOM      2  O   UNL     1       4.704   2.004   0.077  1.00  0.00    -0.376 OA
BRANCH   2   3
ATOM      3  C   UNL     1       5.259   0.731  -0.220  1.00  0.00     0.202 C 
BRANCH   3   4
ATOM      4  C   UNL     1       4.767   0.085  -1.520  1.00  0.00     0.261 C 
BRANCH   4   5
ATOM      5  O   UNL     1       3.351   0.158  -1.748  1.00  0.00    -0.460 OA
BRANCH   5   6
ATOM      6  C   UNL     1       2.401  -0.739  -1.418  1.00  0.00     0.338 C 
ATOM      7  O   UNL     1       1.402  -0.882  -2.114  1.00  0.00    -0.246 OA
BRANCH   6   8
ATOM      8  C   UNL     1       2.412  -1.356  -0.074  1.00  0.00     0.060 A 
ATOM      9  C   UNL     1       3.527  -1.993   0.471  1.00  0.00     0.016 A 
ATOM     10  C   UNL     1       1.179  -1.392   0.605  1.00  0.00     0.016 A 
ATOM     11  C   UNL     1       3.405  -2.723   1.640  1.00  0.00     0.010 A 
ATOM     12  C   UNL     1       1.044  -2.144   1.762  1.00  0.00     0.010 A 
ATOM     13  C   UNL     1       2.145  -2.873   2.217  1.00  0.00    -0.014 A 
BRANCH  13  14
ATOM     14  C   UNL     1       1.977  -4.021   3.101  1.00  0.00     0.031 A 
ATOM     15  C   UNL     1       2.488  -3.934   4.496  1.00  0.00     0.074 A 
ATOM     16  C   UNL     1       1.321  -5.098   2.621  1.00  0.00     0.049 A 
ATOM     17  N   UNL     1       3.214  -4.789   5.150  1.00  0.00    -0.248 NA
ATOM     18  C   UNL     1       2.164  -2.719   5.258  1.00  0.00     0.031 C 
ATOM     19  C   UNL     1       0.585  -5.203   1.352  1.00  0.00     0.029 A 
ATOM     20  N   UNL     1       1.063  -6.290   3.223  1.00  0.00    -0.354 N 
ATOM     21  C   UNL     1       3.302  -4.301   6.453  1.00  0.00     0.074 A 
ATOM     22  C   UNL     1       2.713  -2.986   6.443  1.00  0.00     0.031 C 
ATOM     23  C   UNL     1      -0.231  -6.274   1.401  1.00  0.00     0.029 A 
ATOM     24  C   UNL     1       0.016  -6.985   2.641  1.00  0.00     0.049 A 
ATOM     25  H   UNL     1       1.570  -6.626   3.997  1.00  0.00     0.167 HD
ATOM     26  C   UNL     1       3.682  -5.073   7.508  1.00  0.00     0.037 A 
ATOM     27  C   UNL     1      -0.689  -7.995   3.199  1.00  0.00     0.037 A 
ATOM     28  C   UNL     1       4.464  -6.208   7.115  1.00  0.00     0.049 A 
ATOM     29  C   UNL     1       0.124  -8.562   4.300  1.00  0.00     0.074 A 
ATOM     30  C   UNL     1       5.692  -6.377   6.506  1.00  0.00     0.029 A 
ATOM     31  N   UNL     1       3.881  -7.449   7.102  1.00  0.00    -0.354 N 
ATOM     32  N   UNL     1       1.243  -9.212   4.126  1.00  0.00    -0.248 NA
ATOM     33  C   UNL     1      -0.091  -8.041   5.642  1.00  0.00     0.031 C 
ATOM     34  C   UNL     1       5.566  -7.569   5.734  1.00  0.00     0.029 A 
ATOM     35  C   UNL     1       4.272  -8.050   5.933  1.00  0.00     0.049 A 
ATOM     36  H   UNL     1       3.296  -7.833   7.795  1.00  0.00     0.167 HD
ATOM     37  C   UNL     1       2.038  -8.850   5.204  1.00  0.00     0.074 A 
ATOM     38  C   UNL     1       1.131  -8.211   6.151  1.00  0.00     0.031 C 
ATOM     39  C   UNL     1       3.400  -8.852   5.111  1.00  0.00     0.037 A 
BRANCH  26  40
ATOM     40  C   UNL     1       3.090  -4.932   8.884  1.00  0.00     0.064 A 
ATOM     41  C   UNL     1       3.717  -5.521   9.997  1.00  0.00     0.173 A 
ATOM     42  C   UNL     1       1.774  -4.467   9.094  1.00  0.00     0.173 A 
ATOM     43  F   UNL     1       4.952  -6.036   9.891  1.00  0.00    -0.203 F 
ATOM     44  C   UNL     1       3.058  -5.662  11.222  1.00  0.00     0.198 A 
ATOM     45  C   UNL     1       1.138  -4.564  10.330  1.00  0.00     0.198 A 
ATOM     46  F   UNL     1       1.025  -4.000   8.085  1.00  0.00    -0.203 F 
ATOM     47  F   UNL     1       3.655  -6.317  12.228  1.00  0.00    -0.200 F 
ATOM     48  C   UNL     1       1.771  -5.183  11.388  1.00  0.00     0.200 A 
ATOM     49  F   UNL     1      -0.118  -4.115  10.463  1.00  0.00    -0.200 F 
ATOM     50  F   UNL     1       1.122  -5.358  12.546  1.00  0.00    -0.200 F 
ENDBRANCH  26  40
BRANCH  27  51
ATOM     51  C   UNL     1      -2.148  -8.199   3.055  1.00  0.00     0.064 A 
ATOM     52  C   UNL     1      -2.744  -9.440   3.312  1.00  0.00     0.173 A 
ATOM     53  C   UNL     1      -3.025  -7.109   2.864  1.00  0.00     0.173 A 
ATOM     54  F   UNL     1      -1.981 -10.511   3.569  1.00  0.00    -0.203 F 
ATOM     55  C   UNL     1      -4.135  -9.585   3.359  1.00  0.00     0.198 A 
ATOM     56  C   UNL     1      -4.410  -7.257   2.892  1.00  0.00     0.198 A 
ATOM     57  F   UNL     1      -2.555  -5.860   2.730  1.00  0.00    -0.203 F 
ATOM     58  F   UNL     1      -4.673 -10.777   3.652  1.00  0.00    -0.200 F 
ATOM     59  C   UNL     1      -4.966  -8.494   3.147  1.00  0.00     0.200 A 
ATOM     60  F   UNL     1      -5.197  -6.185   2.723  1.00  0.00    -0.200 F 
ATOM     61  F   UNL     1      -6.297  -8.627   3.228  1.00  0.00    -0.200 F 
ENDBRANCH  27  51
BRANCH  39  62
ATOM     62  C   UNL     1       4.009  -9.470   3.886  1.00  0.00     0.064 A 
ATOM     63  C   UNL     1       3.871  -8.910   2.604  1.00  0.00     0.173 A 
ATOM     64  C   UNL     1       4.886 -10.552   4.026  1.00  0.00     0.173 A 
ATOM     65  F   UNL     1       3.149  -7.799   2.418  1.00  0.00    -0.203 F 
ATOM     66  C   UNL     1       4.539  -9.442   1.504  1.00  0.00     0.198 A 
ATOM     67  C   UNL     1       5.580 -11.061   2.931  1.00  0.00     0.198 A 
ATOM     68  F   UNL     1       5.116 -11.078   5.239  1.00  0.00    -0.203 F 
ATOM     69  F   UNL     1       4.386  -8.887   0.292  1.00  0.00    -0.200 F 
ATOM     70  C   UNL     1       5.398 -10.514   1.670  1.00  0.00     0.200 A 
ATOM     71  F   UNL     1       6.457 -12.061   3.103  1.00  0.00    -0.200 F 
ATOM     72  F   UNL     1       6.079 -10.997   0.621  1.00  0.00    -0.200 F 
ENDBRANCH  39  62
ENDBRANCH  13  14
ENDBRANCH   6   8
ENDBRANCH   5   6
ENDBRANCH   4   5
ENDBRANCH   3   4
ENDBRANCH   2   3
ENDBRANCH   1   2
BRANCH   1  73
ATOM     73  C   UNL     1       2.296   2.597  -0.382  1.00  0.00     0.188 C 
BRANCH  73  74
ATOM     74  O   UNL     1       2.553   3.687  -1.262  1.00  0.00    -0.376 OA
BRANCH  74  75
ATOM     75  C   UNL     1       3.882   4.088  -1.532  1.00  0.00     0.202 C 
BRANCH  75  76
ATOM     76  C   UNL     1       4.404   5.131  -0.534  1.00  0.00     0.261 C 
BRANCH  76  77
ATOM     77  O   UNL     1       3.965   4.929   0.820  1.00  0.00    -0.458 OA
BRANCH  77  78
ATOM     78  C   UNL     1       2.738   5.453   1.124  1.00  0.00     0.361 C 
ATOM     79  O   UNL     1       2.067   6.134   0.355  1.00  0.00    -0.244 OA
BRANCH  78  80
ATOM     80  C   UNL     1       2.283   5.100   2.464  1.00  0.00     0.198 A 
ATOM     81  N   UNL     1       0.946   4.913   2.728  1.00  0.00    -0.122 NA
ATOM     82  C   UNL     1       3.001   4.831   3.627  1.00  0.00     0.123 A 
ATOM     83  N   UNL     1       0.813   4.575   4.001  1.00  0.00    -0.061 NA
ATOM     84  N   UNL     1       2.011   4.765   4.597  1.00  0.00    -0.213 N 
BRANCH  82  85
ATOM     85  C   UNL     1       4.455   4.552   3.871  1.00  0.00     0.262 C 
ATOM     86  C   UNL     1       4.736   3.094   4.265  1.00  0.00     0.281 C 
ATOM     87  O   UNL     1       5.008   5.509   4.779  1.00  0.00    -0.477 OA
ATOM     88  O   UNL     1       4.359   2.812   5.615  1.00  0.00    -0.485 OA
ATOM     89  C   UNL     1       5.276   5.021   6.032  1.00  0.00     0.162 A 
ATOM     90  C   UNL     1       4.926   3.735   6.454  1.00  0.00     0.161 A 
ATOM     91  C   UNL     1       5.851   5.912   6.935  1.00  0.00     0.050 A 
ATOM     92  C   UNL     1       5.085   3.365   7.788  1.00  0.00     0.050 A 
ATOM     93  C   UNL     1       6.037   5.534   8.265  1.00  0.00     0.004 A 
ATOM     94  C   UNL     1       5.641   4.266   8.695  1.00  0.00     0.004 A 
ENDBRANCH  82  85
BRANCH  84  95
ATOM     95  C   UNL     1       2.014   5.299   5.900  1.00  0.00     0.067 A 
ATOM     96  C   UNL     1       1.599   4.512   6.975  1.00  0.00     0.028 A 
ATOM     97  C   UNL     1       2.358   6.646   6.079  1.00  0.00     0.041 A 
ATOM     98  C   UNL     1       1.617   5.058   8.258  1.00  0.00     0.003 A 
ATOM     99  C   UNL     1       2.314   7.214   7.359  1.00  0.00     0.058 A 
ATOM    100  C   UNL     1       1.974   6.397   8.450  1.00  0.00     0.013 A 
BRANCH  99 101
ATOM    101  C   UNL     1       2.634   8.673   7.565  1.00  0.00     0.416 C 
ATOM    102  F   UNL     1       1.752   9.291   8.399  1.00  0.00    -0.166 F 
ATOM    103  F   UNL     1       3.866   8.865   8.112  1.00  0.00    -0.166 F 
ATOM    104  F   UNL     1       2.622   9.398   6.411  1.00  0.00    -0.166 F 
ENDBRANCH  99 101
ENDBRANCH  84  95
ENDBRANCH  78  80
ENDBRANCH  77  78
ENDBRANCH  76  77
ENDBRANCH  75  76
ENDBRANCH  74  75
ENDBRANCH  73  74
ENDBRANCH   1  73
TORSDOF 20
