REMARK SMILES C[NH2+][C@]1(C(=O)OCCOCCOCCOC(=O)c2ccc(-c3c4nc(c(-c5c(F)c(F)c(F)c(F)c5F)c5ccc([nH]5)c(-c5c(F)c(F)c(F)c(F)c5F)c5nc(c(-c6c(F)c(F)c(F)c(F)c6F)c6ccc3[nH]6)C=C5)C=C4)cc2)CC[C@H](SC2CCCCC2)C1
REMARK SMILES IDX 10 1 9 2 8 3 7 4 6 5 4 6 5 7 3 8 81 9 91 10 82 11 83 12 2 13
REMARK SMILES IDX 1 14 84 17 85 18 86 19 90 20 87 21 89 22 88 23 11 24 12 25
REMARK SMILES IDX 13 26 14 27 15 28 16 29 17 30 18 31 19 32 80 33 20 34 79 35
REMARK SMILES IDX 21 36 22 37 23 38 73 39 24 40 78 41 72 42 74 43 25 44 77 45
REMARK SMILES IDX 71 46 70 47 26 49 58 50 38 51 57 52 39 53 42 54 56 55 75 56
REMARK SMILES IDX 40 57 41 58 55 60 76 61 43 62 27 63 28 64 36 65 29 66 30 67
REMARK SMILES IDX 34 68 37 69 31 70 32 71 35 72 33 73 59 74 60 75 68 76 61 77
REMARK SMILES IDX 62 78 66 79 69 80 63 81 64 82 67 83 65 84 44 85 45 86 53 87
REMARK SMILES IDX 46 88 47 89 51 90 54 91 48 92 49 93 52 94 50 95
REMARK H PARENT 2 15 2 16 74 48 42 59
REMARK Flexibility Score: inf
ROOT
ATOM      1  C   UNL     1       1.907  -0.182   2.066  1.00  0.00     0.188 C 
ENDROOT
BRANCH   1   2
ATOM      2  O   UNL     1       3.252  -0.491   1.716  1.00  0.00    -0.376 OA
BRANCH   2   3
ATOM      3  C   UNL     1       3.544  -0.824   0.360  1.00  0.00     0.202 C 
BRANCH   3   4
ATOM      4  C   UNL     1       2.663  -1.858  -0.363  1.00  0.00     0.261 C 
BRANCH   4   5
ATOM      5  O   UNL     1       1.263  -1.518  -0.405  1.00  0.00    -0.459 OA
BRANCH   5   6
ATOM      6  C   UNL     1       0.392  -2.497  -0.035  1.00  0.00     0.368 C 
ATOM      7  O   UNL     1       0.726  -3.650   0.226  1.00  0.00    -0.245 OA
BRANCH   6   8
ATOM      8  C   UNL     1      -1.073  -1.994   0.098  1.00  0.00     0.195 C 
ATOM      9  C   UNL     1      -1.439  -0.818  -0.836  1.00  0.00     0.082 C 
ATOM     10  C   UNL     1      -2.008  -3.064  -0.501  1.00  0.00     0.095 C 
ATOM     11  C   UNL     1      -2.963  -0.866  -0.921  1.00  0.00     0.022 C 
ATOM     12  C   UNL     1      -3.321  -2.353  -0.862  1.00  0.00     0.054 C 
BRANCH   8  13
ATOM     13  N   UNL     1      -1.371  -1.607   1.512  1.00  0.00    -0.335 N 
ATOM     14  C   UNL     1      -1.423  -2.722   2.455  1.00  0.00     0.331 C 
ATOM     15  H   UNL     1      -0.645  -0.962   1.824  1.00  0.00     0.347 HD
ATOM     16  H   UNL     1      -2.303  -1.192   1.506  1.00  0.00     0.347 HD
ENDBRANCH   8  13
BRANCH  12  17
ATOM     17  S   UNL     1      -4.596  -2.767   0.388  1.00  0.00    -0.155 SA
BRANCH  17  18
ATOM     18  C   UNL     1      -6.135  -2.047  -0.299  1.00  0.00     0.047 C 
ATOM     19  C   UNL     1      -6.209  -0.535  -0.075  1.00  0.00     0.014 C 
ATOM     20  C   UNL     1      -6.403  -2.430  -1.757  1.00  0.00     0.014 C 
ATOM     21  C   UNL     1      -7.541   0.029  -0.562  1.00  0.00     0.001 C 
ATOM     22  C   UNL     1      -7.733  -1.849  -2.236  1.00  0.00     0.001 C 
ATOM     23  C   UNL     1      -7.790  -0.338  -2.022  1.00  0.00     0.000 C 
ENDBRANCH  17  18
ENDBRANCH  12  17
ENDBRANCH   6   8
ENDBRANCH   5   6
ENDBRANCH   4   5
ENDBRANCH   3   4
ENDBRANCH   2   3
ENDBRANCH   1   2
BRANCH   1  24
ATOM     24  C   UNL     1       1.140   0.837   1.208  1.00  0.00     0.188 C 
BRANCH  24  25
ATOM     25  O   UNL     1       1.843   1.303   0.079  1.00  0.00    -0.376 OA
BRANCH  25  26
ATOM     26  C   UNL     1       2.320   2.636   0.083  1.00  0.00     0.202 C 
BRANCH  26  27
ATOM     27  C   UNL     1       2.995   3.245   1.328  1.00  0.00     0.261 C 
BRANCH  27  28
ATOM     28  O   UNL     1       2.488   2.861   2.616  1.00  0.00    -0.460 OA
BRANCH  28  29
ATOM     29  C   UNL     1       1.373   3.491   3.059  1.00  0.00     0.338 C 
ATOM     30  O   UNL     1       0.746   4.364   2.493  1.00  0.00    -0.246 OA
BRANCH  29  31
ATOM     31  C   UNL     1       0.911   2.776   4.274  1.00  0.00     0.060 A 
ATOM     32  C   UNL     1      -0.334   2.132   4.252  1.00  0.00     0.016 A 
ATOM     33  C   UNL     1       1.706   2.733   5.421  1.00  0.00     0.016 A 
ATOM     34  C   UNL     1      -0.800   1.464   5.387  1.00  0.00     0.010 A 
ATOM     35  C   UNL     1       1.227   2.085   6.565  1.00  0.00     0.010 A 
ATOM     36  C   UNL     1      -0.040   1.472   6.564  1.00  0.00    -0.014 A 
BRANCH  36  37
ATOM     37  C   UNL     1      -0.639   1.014   7.843  1.00  0.00     0.031 A 
ATOM     38  C   UNL     1      -1.201   2.048   8.778  1.00  0.00     0.074 A 
ATOM     39  C   UNL     1      -0.686  -0.289   8.174  1.00  0.00     0.049 A 
ATOM     40  N   UNL     1      -1.687   1.908   9.985  1.00  0.00    -0.248 NA
ATOM     41  C   UNL     1      -1.211   3.434   8.282  1.00  0.00     0.031 C 
ATOM     42  C   UNL     1      -0.224  -1.393   7.338  1.00  0.00     0.029 A 
ATOM     43  N   UNL     1      -1.137  -0.897   9.321  1.00  0.00    -0.354 N 
ATOM     44  C   UNL     1      -2.048   3.185  10.395  1.00  0.00     0.074 A 
ATOM     45  C   UNL     1      -1.702   4.090   9.322  1.00  0.00     0.031 C 
ATOM     46  C   UNL     1      -0.395  -2.546   8.009  1.00  0.00     0.029 A 
ATOM     47  C   UNL     1      -0.944  -2.257   9.334  1.00  0.00     0.049 A 
ATOM     48  H   UNL     1      -1.558  -0.405  10.063  1.00  0.00     0.167 HD
ATOM     49  C   UNL     1      -2.623   3.567  11.560  1.00  0.00     0.037 A 
ATOM     50  C   UNL     1      -1.157  -3.156  10.316  1.00  0.00     0.037 A 
ATOM     51  C   UNL     1      -2.965   2.667  12.629  1.00  0.00     0.049 A 
ATOM     52  C   UNL     1      -1.719  -2.693  11.638  1.00  0.00     0.074 A 
ATOM     53  C   UNL     1      -3.564   2.957  13.843  1.00  0.00     0.029 A 
ATOM     54  N   UNL     1      -2.728   1.301  12.617  1.00  0.00    -0.354 N 
ATOM     55  N   UNL     1      -2.078  -1.489  12.014  1.00  0.00    -0.248 NA
ATOM     56  C   UNL     1      -1.907  -3.720  12.675  1.00  0.00     0.031 C 
ATOM     57  C   UNL     1      -3.636   1.775  14.588  1.00  0.00     0.029 A 
ATOM     58  C   UNL     1      -3.142   0.738  13.813  1.00  0.00     0.049 A 
ATOM     59  H   UNL     1      -2.324   0.804  11.868  1.00  0.00     0.167 HD
ATOM     60  C   UNL     1      -2.563  -1.619  13.310  1.00  0.00     0.074 A 
ATOM     61  C   UNL     1      -2.464  -3.021  13.654  1.00  0.00     0.031 C 
ATOM     62  C   UNL     1      -3.050  -0.663  14.140  1.00  0.00     0.037 A 
BRANCH  49  63
ATOM     63  C   UNL     1      -2.889   5.032  11.752  1.00  0.00     0.064 A 
ATOM     64  C   UNL     1      -3.883   5.706  11.026  1.00  0.00     0.173 A 
ATOM     65  C   UNL     1      -2.156   5.767  12.697  1.00  0.00     0.173 A 
ATOM     66  F   UNL     1      -4.601   5.054  10.099  1.00  0.00    -0.203 F 
ATOM     67  C   UNL     1      -4.114   7.065  11.220  1.00  0.00     0.198 A 
ATOM     68  C   UNL     1      -2.413   7.118  12.912  1.00  0.00     0.198 A 
ATOM     69  F   UNL     1      -1.196   5.171  13.421  1.00  0.00    -0.203 F 
ATOM     70  F   UNL     1      -5.034   7.699  10.479  1.00  0.00    -0.200 F 
ATOM     71  C   UNL     1      -3.385   7.768  12.167  1.00  0.00     0.200 A 
ATOM     72  F   UNL     1      -1.716   7.792  13.837  1.00  0.00    -0.200 F 
ATOM     73  F   UNL     1      -3.615   9.074  12.358  1.00  0.00    -0.200 F 
ENDBRANCH  49  63
BRANCH  50  74
ATOM     74  C   UNL     1      -0.820  -4.589  10.101  1.00  0.00     0.064 A 
ATOM     75  C   UNL     1      -1.822  -5.569  10.055  1.00  0.00     0.173 A 
ATOM     76  C   UNL     1       0.511  -5.013   9.974  1.00  0.00     0.173 A 
ATOM     77  F   UNL     1      -3.108  -5.220  10.205  1.00  0.00    -0.203 F 
ATOM     78  C   UNL     1      -1.503  -6.918   9.910  1.00  0.00     0.198 A 
ATOM     79  C   UNL     1       0.826  -6.358   9.797  1.00  0.00     0.198 A 
ATOM     80  F   UNL     1       1.508  -4.117  10.020  1.00  0.00    -0.203 F 
ATOM     81  F   UNL     1      -2.477  -7.839   9.926  1.00  0.00    -0.200 F 
ATOM     82  C   UNL     1      -0.180  -7.311   9.775  1.00  0.00     0.200 A 
ATOM     83  F   UNL     1       2.106  -6.733   9.660  1.00  0.00    -0.200 F 
ATOM     84  F   UNL     1       0.125  -8.609   9.637  1.00  0.00    -0.200 F 
ENDBRANCH  50  74
BRANCH  62  85
ATOM     85  C   UNL     1      -3.560  -1.101  15.485  1.00  0.00     0.064 A 
ATOM     86  C   UNL     1      -2.696  -1.538  16.499  1.00  0.00     0.173 A 
ATOM     87  C   UNL     1      -4.932  -1.035  15.777  1.00  0.00     0.173 A 
ATOM     88  F   UNL     1      -1.377  -1.631  16.270  1.00  0.00    -0.203 F 
ATOM     89  C   UNL     1      -3.188  -1.919  17.745  1.00  0.00     0.198 A 
ATOM     90  C   UNL     1      -5.417  -1.385  17.034  1.00  0.00     0.198 A 
ATOM     91  F   UNL     1      -5.802  -0.615  14.846  1.00  0.00    -0.203 F 
ATOM     92  F   UNL     1      -2.349  -2.380  18.683  1.00  0.00    -0.200 F 
ATOM     93  C   UNL     1      -4.546  -1.834  18.014  1.00  0.00     0.200 A 
ATOM     94  F   UNL     1      -6.727  -1.285  17.296  1.00  0.00    -0.200 F 
ATOM     95  F   UNL     1      -5.017  -2.192  19.217  1.00  0.00    -0.200 F 
ENDBRANCH  62  85
ENDBRANCH  36  37
ENDBRANCH  29  31
ENDBRANCH  28  29
ENDBRANCH  27  28
ENDBRANCH  26  27
ENDBRANCH  25  26
ENDBRANCH  24  25
ENDBRANCH   1  24
TORSDOF 20
