REMARK SMILES CC[C@](C)([NH3+])C(=O)N1CC[NH+]([C@H](C)C(=O)OCCOCCOCCOC(=O)c2ccc(-c3c4nc(c(-c5c(F)c(F)c(F)c(F)c5F)c5ccc([nH]5)c(-c5c(F)c(F)c(F)c(F)c5F)c5nc(c(-c6c(F)c(F)c(F)c(F)c6F)c6ccc3[nH]6)C=C5)C=C4)cc2)CC1
REMARK SMILES IDX 20 1 19 2 18 3 17 4 16 5 14 6 15 7 12 8 13 9 11 10 6 11 7 12
REMARK SMILES IDX 8 13 9 14 92 15 10 16 91 17 3 19 4 20 2 21 1 22 5 23 21 27
REMARK SMILES IDX 22 28 23 29 24 30 25 31 26 32 27 33 28 34 29 35 90 36 30 37
REMARK SMILES IDX 89 38 31 39 32 40 33 41 83 42 34 43 88 44 82 45 84 46 35 47
REMARK SMILES IDX 87 48 81 49 80 50 36 52 68 53 48 54 67 55 49 56 52 57 66 58
REMARK SMILES IDX 85 59 50 60 51 61 65 63 86 64 53 65 37 66 38 67 46 68 39 69
REMARK SMILES IDX 40 70 44 71 47 72 41 73 42 74 45 75 43 76 69 77 70 78 78 79
REMARK SMILES IDX 71 80 72 81 76 82 79 83 73 84 74 85 77 86 75 87 54 88 55 89
REMARK SMILES IDX 63 90 56 91 57 92 61 93 64 94 58 95 59 96 62 97 60 98
REMARK H PARENT 11 18 5 24 5 25 5 26 84 51 52 62
REMARK Flexibility Score: inf
ROOT
ATOM      1  C   UNL     1       6.223   8.057  -4.414  1.00  0.00     0.188 C 
ENDROOT
BRANCH   1   2
ATOM      2  O   UNL     1       7.589   7.855  -4.747  1.00  0.00    -0.376 OA
BRANCH   2   3
ATOM      3  C   UNL     1       8.194   6.586  -4.529  1.00  0.00     0.202 C 
BRANCH   3   4
ATOM      4  C   UNL     1       8.149   5.956  -3.126  1.00  0.00     0.261 C 
BRANCH   4   5
ATOM      5  O   UNL     1       6.840   5.742  -2.558  1.00  0.00    -0.459 OA
BRANCH   5   6
ATOM      6  C   UNL     1       6.497   6.546  -1.512  1.00  0.00     0.364 C 
ATOM      7  O   UNL     1       7.212   7.445  -1.076  1.00  0.00    -0.245 OA
BRANCH   6   8
ATOM      8  C   UNL     1       5.124   6.199  -0.872  1.00  0.00     0.292 C 
ATOM      9  C   UNL     1       4.048   5.542  -1.756  1.00  0.00     0.088 C 
BRANCH   8  10
ATOM     10  N   UNL     1       5.384   5.452   0.377  1.00  0.00    -0.321 N 
ATOM     11  C   UNL     1       3.971   2.212   2.325  1.00  0.00     0.283 C 
ATOM     12  O   UNL     1       4.524   1.101   2.321  1.00  0.00    -0.268 OA
ATOM     13  N   UNL     1       4.753   3.342   2.195  1.00  0.00    -0.326 N 
ATOM     14  C   UNL     1       5.983   3.243   1.415  1.00  0.00     0.181 C 
ATOM     15  C   UNL     1       4.457   4.717   2.582  1.00  0.00     0.181 C 
ATOM     16  C   UNL     1       5.793   4.052   0.121  1.00  0.00     0.284 C 
ATOM     17  C   UNL     1       4.265   5.584   1.333  1.00  0.00     0.284 C 
ATOM     18  H   UNL     1       6.189   5.883   0.831  1.00  0.00     0.348 HD
BRANCH  11  19
ATOM     19  C   UNL     1       2.406   2.273   2.196  1.00  0.00     0.171 C 
ATOM     20  C   UNL     1       1.830   0.961   2.762  1.00  0.00     0.090 C 
BRANCH  19  21
ATOM     21  C   UNL     1       1.994   2.449   0.709  1.00  0.00     0.075 C 
ATOM     22  C   UNL     1       2.645   1.487  -0.280  1.00  0.00     0.011 C 
ENDBRANCH  19  21
BRANCH  19  23
ATOM     23  N   UNL     1       1.783   3.368   2.978  1.00  0.00    -0.345 N 
ATOM     24  H   UNL     1       2.041   3.273   3.961  1.00  0.00     0.345 HD
ATOM     25  H   UNL     1       0.769   3.317   2.886  1.00  0.00     0.345 HD
ATOM     26  H   UNL     1       2.112   4.267   2.626  1.00  0.00     0.345 HD
ENDBRANCH  19  23
ENDBRANCH  11  19
ENDBRANCH   8  10
ENDBRANCH   6   8
ENDBRANCH   5   6
ENDBRANCH   4   5
ENDBRANCH   3   4
ENDBRANCH   2   3
ENDBRANCH   1   2
BRANCH   1  27
ATOM     27  C   UNL     1       5.217   6.919  -4.625  1.00  0.00     0.188 C 
BRANCH  27  28
ATOM     28  O   UNL     1       5.719   5.785  -5.287  1.00  0.00    -0.376 OA
BRANCH  28  29
ATOM     29  C   UNL     1       5.234   5.500  -6.584  1.00  0.00     0.202 C 
BRANCH  29  30
ATOM     30  C   UNL     1       5.191   6.620  -7.640  1.00  0.00     0.261 C 
BRANCH  30  31
ATOM     31  O   UNL     1       4.762   7.922  -7.199  1.00  0.00    -0.460 OA
BRANCH  31  32
ATOM     32  C   UNL     1       3.432   8.112  -7.013  1.00  0.00     0.338 C 
ATOM     33  O   UNL     1       2.547   7.302  -7.198  1.00  0.00    -0.246 OA
BRANCH  32  34
ATOM     34  C   UNL     1       3.252   9.403  -6.297  1.00  0.00     0.060 A 
ATOM     35  C   UNL     1       2.632   9.396  -5.038  1.00  0.00     0.016 A 
ATOM     36  C   UNL     1       3.702  10.605  -6.846  1.00  0.00     0.016 A 
ATOM     37  C   UNL     1       2.437  10.591  -4.340  1.00  0.00     0.010 A 
ATOM     38  C   UNL     1       3.483  11.805  -6.157  1.00  0.00     0.010 A 
ATOM     39  C   UNL     1       2.823  11.810  -4.913  1.00  0.00    -0.014 A 
BRANCH  39  40
ATOM     40  C   UNL     1       2.386  13.091  -4.298  1.00  0.00     0.031 A 
ATOM     41  C   UNL     1       1.185  13.795  -4.871  1.00  0.00     0.074 A 
ATOM     42  C   UNL     1       3.022  13.618  -3.236  1.00  0.00     0.049 A 
ATOM     43  N   UNL     1       0.644  14.938  -4.532  1.00  0.00    -0.248 NA
ATOM     44  C   UNL     1       0.501  13.113  -5.982  1.00  0.00     0.031 C 
ATOM     45  C   UNL     1       4.170  13.024  -2.557  1.00  0.00     0.029 A 
ATOM     46  N   UNL     1       2.789  14.785  -2.547  1.00  0.00    -0.354 N 
ATOM     47  C   UNL     1      -0.434  15.116  -5.390  1.00  0.00     0.074 A 
ATOM     48  C   UNL     1      -0.452  13.980  -6.286  1.00  0.00     0.031 C 
ATOM     49  C   UNL     1       4.552  13.837  -1.556  1.00  0.00     0.029 A 
ATOM     50  C   UNL     1       3.697  15.024  -1.545  1.00  0.00     0.049 A 
ATOM     51  H   UNL     1       2.043  15.393  -2.754  1.00  0.00     0.167 HD
ATOM     52  C   UNL     1      -1.333  16.129  -5.424  1.00  0.00     0.037 A 
ATOM     53  C   UNL     1       3.836  16.088  -0.729  1.00  0.00     0.037 A 
ATOM     54  C   UNL     1      -1.314  17.265  -4.538  1.00  0.00     0.049 A 
ATOM     55  C   UNL     1       2.869  17.241  -0.839  1.00  0.00     0.074 A 
ATOM     56  C   UNL     1      -2.193  18.332  -4.485  1.00  0.00     0.029 A 
ATOM     57  N   UNL     1      -0.357  17.488  -3.559  1.00  0.00    -0.354 N 
ATOM     58  N   UNL     1       1.834  17.388  -1.631  1.00  0.00    -0.248 NA
ATOM     59  C   UNL     1       3.087  18.377   0.070  1.00  0.00     0.031 C 
ATOM     60  C   UNL     1      -1.733  19.232  -3.518  1.00  0.00     0.029 A 
ATOM     61  C   UNL     1      -0.607  18.692  -2.918  1.00  0.00     0.049 A 
ATOM     62  H   UNL     1       0.390  16.881  -3.350  1.00  0.00     0.167 HD
ATOM     63  C   UNL     1       1.265  18.612  -1.298  1.00  0.00     0.074 A 
ATOM     64  C   UNL     1       2.055  19.157  -0.214  1.00  0.00     0.031 C 
ATOM     65  C   UNL     1       0.185  19.229  -1.840  1.00  0.00     0.037 A 
BRANCH  52  66
ATOM     66  C   UNL     1      -2.402  16.072  -6.479  1.00  0.00     0.064 A 
ATOM     67  C   UNL     1      -3.435  15.124  -6.438  1.00  0.00     0.173 A 
ATOM     68  C   UNL     1      -2.410  17.002  -7.530  1.00  0.00     0.173 A 
ATOM     69  F   UNL     1      -3.467  14.202  -5.463  1.00  0.00    -0.203 F 
ATOM     70  C   UNL     1      -4.419  15.091  -7.423  1.00  0.00     0.198 A 
ATOM     71  C   UNL     1      -3.414  16.988  -8.495  1.00  0.00     0.198 A 
ATOM     72  F   UNL     1      -1.448  17.933  -7.617  1.00  0.00    -0.203 F 
ATOM     73  F   UNL     1      -5.366  14.143  -7.391  1.00  0.00    -0.200 F 
ATOM     74  C   UNL     1      -4.413  16.028  -8.445  1.00  0.00     0.200 A 
ATOM     75  F   UNL     1      -3.414  17.904  -9.473  1.00  0.00    -0.200 F 
ATOM     76  F   UNL     1      -5.365  16.001  -9.388  1.00  0.00    -0.200 F 
ENDBRANCH  52  66
BRANCH  53  77
ATOM     77  C   UNL     1       4.946  16.130   0.262  1.00  0.00     0.064 A 
ATOM     78  C   UNL     1       4.689  16.107   1.640  1.00  0.00     0.173 A 
ATOM     79  C   UNL     1       6.284  16.234  -0.148  1.00  0.00     0.173 A 
ATOM     80  F   UNL     1       3.425  16.042   2.084  1.00  0.00    -0.203 F 
ATOM     81  C   UNL     1       5.723  16.209   2.569  1.00  0.00     0.198 A 
ATOM     82  C   UNL     1       7.320  16.301   0.781  1.00  0.00     0.198 A 
ATOM     83  F   UNL     1       6.585  16.270  -1.454  1.00  0.00    -0.203 F 
ATOM     84  F   UNL     1       5.443  16.244   3.879  1.00  0.00    -0.200 F 
ATOM     85  C   UNL     1       7.038  16.299   2.139  1.00  0.00     0.200 A 
ATOM     86  F   UNL     1       8.590  16.379   0.361  1.00  0.00    -0.200 F 
ATOM     87  F   UNL     1       8.033  16.396   3.032  1.00  0.00    -0.200 F 
ENDBRANCH  53  77
BRANCH  65  88
ATOM     88  C   UNL     1      -0.231  20.547  -1.242  1.00  0.00     0.064 A 
ATOM     89  C   UNL     1       0.553  21.703  -1.374  1.00  0.00     0.173 A 
ATOM     90  C   UNL     1      -1.440  20.657  -0.536  1.00  0.00     0.173 A 
ATOM     91  F   UNL     1       1.723  21.654  -2.030  1.00  0.00    -0.203 F 
ATOM     92  C   UNL     1       0.167  22.905  -0.785  1.00  0.00     0.198 A 
ATOM     93  C   UNL     1      -1.843  21.870   0.018  1.00  0.00     0.198 A 
ATOM     94  F   UNL     1      -2.237  19.589  -0.388  1.00  0.00    -0.203 F 
ATOM     95  F   UNL     1       0.967  23.977  -0.867  1.00  0.00    -0.200 F 
ATOM     96  C   UNL     1      -1.033  22.989  -0.095  1.00  0.00     0.200 A 
ATOM     97  F   UNL     1      -3.011  21.952   0.669  1.00  0.00    -0.200 F 
ATOM     98  F   UNL     1      -1.403  24.146   0.472  1.00  0.00    -0.200 F 
ENDBRANCH  65  88
ENDBRANCH  39  40
ENDBRANCH  32  34
ENDBRANCH  31  32
ENDBRANCH  30  31
ENDBRANCH  29  30
ENDBRANCH  28  29
ENDBRANCH  27  28
ENDBRANCH   1  27
TORSDOF 21
