REMARK SMILES CNC(=O)c1cccc(-c2ccc(C(=O)OCCOCCOCCOC(=O)c3ccc(-c4c5nc(c(-c6c(F)c(F)c(F)c(F)c6F)c6ccc([nH]6)c(-c6c(F)c(F)c(F)c(F)c6F)c6nc(c(-c7c(F)c(F)c(F)c(F)c7F)c7ccc4[nH]7)C=C6)C=C5)cc3)cc2O)c1
REMARK SMILES IDX 20 1 19 2 18 3 17 4 16 5 14 6 15 7 13 8 10 9 11 10 92 11
REMARK SMILES IDX 12 12 91 13 9 14 5 15 6 16 94 17 7 18 8 19 3 20 1 21 2 22
REMARK SMILES IDX 4 24 93 25 21 27 22 28 23 29 24 30 25 31 26 32 27 33 28 34
REMARK SMILES IDX 29 35 90 36 30 37 89 38 31 39 32 40 33 41 83 42 34 43 88 44
REMARK SMILES IDX 82 45 84 46 35 47 87 48 81 49 80 50 36 52 68 53 48 54 67 55
REMARK SMILES IDX 49 56 52 57 66 58 85 59 50 60 51 61 65 63 86 64 53 65 37 66
REMARK SMILES IDX 38 67 46 68 39 69 40 70 44 71 47 72 41 73 42 74 45 75 43 76
REMARK SMILES IDX 69 77 70 78 78 79 71 80 72 81 76 82 79 83 73 84 74 85 77 86
REMARK SMILES IDX 75 87 54 88 55 89 63 90 56 91 57 92 61 93 64 94 58 95 59 96
REMARK SMILES IDX 62 97 60 98
REMARK H PARENT 2 23 93 26 84 51 52 62
REMARK Flexibility Score: inf
ROOT
ATOM      1  C   UNL     1      -5.247  -1.700   7.584  1.00  0.00     0.188 C 
ENDROOT
BRANCH   1   2
ATOM      2  O   UNL     1      -5.499  -0.845   8.695  1.00  0.00    -0.376 OA
BRANCH   2   3
ATOM      3  C   UNL     1      -5.814   0.526   8.483  1.00  0.00     0.202 C 
BRANCH   3   4
ATOM      4  C   UNL     1      -4.832   1.403   7.695  1.00  0.00     0.261 C 
BRANCH   4   5
ATOM      5  O   UNL     1      -4.447   0.863   6.422  1.00  0.00    -0.460 OA
BRANCH   5   6
ATOM      6  C   UNL     1      -3.137   0.517   6.311  1.00  0.00     0.338 C 
ATOM      7  O   UNL     1      -2.266   0.668   7.139  1.00  0.00    -0.246 OA
BRANCH   6   8
ATOM      8  C   UNL     1      -2.928  -0.269   5.072  1.00  0.00     0.063 A 
ATOM      9  C   UNL     1      -2.369  -1.795   2.764  1.00  0.00     0.024 A 
ATOM     10  C   UNL     1      -1.821  -2.146   4.010  1.00  0.00     0.013 A 
ATOM     11  C   UNL     1      -3.258  -0.701   2.727  1.00  0.00     0.124 A 
ATOM     12  C   UNL     1      -2.090  -1.387   5.151  1.00  0.00     0.016 A 
ATOM     13  C   UNL     1      -3.535   0.063   3.862  1.00  0.00     0.062 A 
BRANCH   9  14
ATOM     14  C   UNL     1      -1.899  -2.486   1.551  1.00  0.00    -0.014 A 
ATOM     15  C   UNL     1      -0.762  -2.366  -0.608  1.00  0.00     0.040 A 
ATOM     16  C   UNL     1      -0.883  -3.750  -0.752  1.00  0.00     0.014 A 
ATOM     17  C   UNL     1      -1.289  -1.742   0.525  1.00  0.00     0.022 A 
ATOM     18  C   UNL     1      -1.490  -4.506   0.252  1.00  0.00     0.001 A 
ATOM     19  C   UNL     1      -1.988  -3.879   1.398  1.00  0.00     0.009 A 
BRANCH  15  20
ATOM     20  C   UNL     1      -0.158  -1.581  -1.710  1.00  0.00     0.251 C 
ATOM     21  C   UNL     1       1.280  -0.101  -0.211  1.00  0.00     0.143 C 
ATOM     22  N   UNL     1       0.672  -0.519  -1.454  1.00  0.00    -0.355 N 
ATOM     23  H   UNL     1       0.885   0.042  -2.234  1.00  0.00     0.163 HD
ATOM     24  O   UNL     1      -0.413  -1.887  -2.872  1.00  0.00    -0.269 OA
ENDBRANCH  15  20
ENDBRANCH   9  14
BRANCH  11  25
ATOM     25  O   UNL     1      -3.895  -0.311   1.578  1.00  0.00    -0.507 OA
ATOM     26  H   UNL     1      -3.753  -0.781   0.781  1.00  0.00     0.293 HD
ENDBRANCH  11  25
ENDBRANCH   6   8
ENDBRANCH   5   6
ENDBRANCH   4   5
ENDBRANCH   3   4
ENDBRANCH   2   3
ENDBRANCH   1   2
BRANCH   1  27
ATOM     27  C   UNL     1      -6.135  -1.619   6.324  1.00  0.00     0.188 C 
BRANCH  27  28
ATOM     28  O   UNL     1      -7.205  -0.710   6.451  1.00  0.00    -0.376 OA
BRANCH  28  29
ATOM     29  C   UNL     1      -8.516  -1.221   6.610  1.00  0.00     0.202 C 
BRANCH  29  30
ATOM     30  C   UNL     1      -8.827  -2.300   7.663  1.00  0.00     0.261 C 
BRANCH  30  31
ATOM     31  O   UNL     1      -7.817  -3.284   7.919  1.00  0.00    -0.460 OA
BRANCH  31  32
ATOM     32  C   UNL     1      -7.804  -4.382   7.131  1.00  0.00     0.338 C 
ATOM     33  O   UNL     1      -8.521  -4.615   6.176  1.00  0.00    -0.246 OA
BRANCH  32  34
ATOM     34  C   UNL     1      -6.647  -5.211   7.529  1.00  0.00     0.060 A 
ATOM     35  C   UNL     1      -5.606  -5.404   6.612  1.00  0.00     0.016 A 
ATOM     36  C   UNL     1      -6.593  -5.801   8.794  1.00  0.00     0.016 A 
ATOM     37  C   UNL     1      -4.517  -6.211   6.953  1.00  0.00     0.010 A 
ATOM     38  C   UNL     1      -5.509  -6.621   9.128  1.00  0.00     0.010 A 
ATOM     39  C   UNL     1      -4.478  -6.850   8.200  1.00  0.00    -0.014 A 
BRANCH  39  40
ATOM     40  C   UNL     1      -3.435  -7.870   8.480  1.00  0.00     0.031 A 
ATOM     41  C   UNL     1      -3.770  -9.323   8.289  1.00  0.00     0.074 A 
ATOM     42  C   UNL     1      -2.205  -7.512   8.891  1.00  0.00     0.049 A 
ATOM     43  N   UNL     1      -3.033 -10.383   8.503  1.00  0.00    -0.248 NA
ATOM     44  C   UNL     1      -5.122  -9.620   7.789  1.00  0.00     0.031 C 
ATOM     45  C   UNL     1      -1.748  -6.140   9.094  1.00  0.00     0.029 A 
ATOM     46  N   UNL     1      -1.118  -8.284   9.226  1.00  0.00    -0.354 N 
ATOM     47  C   UNL     1      -3.831 -11.470   8.170  1.00  0.00     0.074 A 
ATOM     48  C   UNL     1      -5.117 -10.944   7.764  1.00  0.00     0.031 C 
ATOM     49  C   UNL     1      -0.478  -6.165   9.536  1.00  0.00     0.029 A 
ATOM     50  C   UNL     1      -0.044  -7.555   9.673  1.00  0.00     0.049 A 
ATOM     51  H   UNL     1      -1.111  -9.265   9.152  1.00  0.00     0.167 HD
ATOM     52  C   UNL     1      -3.518 -12.787   8.194  1.00  0.00     0.037 A 
ATOM     53  C   UNL     1       1.144  -7.967  10.161  1.00  0.00     0.037 A 
ATOM     54  C   UNL     1      -2.241 -13.312   8.600  1.00  0.00     0.049 A 
ATOM     55  C   UNL     1       1.446  -9.443  10.236  1.00  0.00     0.074 A 
ATOM     56  C   UNL     1      -1.818 -14.630   8.624  1.00  0.00     0.029 A 
ATOM     57  N   UNL     1      -1.184 -12.545   9.067  1.00  0.00    -0.354 N 
ATOM     58  N   UNL     1       0.704 -10.461   9.874  1.00  0.00    -0.248 NA
ATOM     59  C   UNL     1       2.755  -9.825  10.786  1.00  0.00     0.031 C 
ATOM     60  C   UNL     1      -0.525 -14.665   9.157  1.00  0.00     0.029 A 
ATOM     61  C   UNL     1      -0.121 -13.365   9.411  1.00  0.00     0.049 A 
ATOM     62  H   UNL     1      -1.189 -11.563   9.142  1.00  0.00     0.167 HD
ATOM     63  C   UNL     1       1.463 -11.598  10.126  1.00  0.00     0.074 A 
ATOM     64  C   UNL     1       2.730 -11.144  10.657  1.00  0.00     0.031 C 
ATOM     65  C   UNL     1       1.139 -12.900   9.934  1.00  0.00     0.037 A 
BRANCH  52  66
ATOM     66  C   UNL     1      -4.586 -13.762   7.793  1.00  0.00     0.064 A 
ATOM     67  C   UNL     1      -4.997 -13.899   6.459  1.00  0.00     0.173 A 
ATOM     68  C   UNL     1      -5.177 -14.599   8.752  1.00  0.00     0.173 A 
ATOM     69  F   UNL     1      -4.472 -13.112   5.507  1.00  0.00    -0.203 F 
ATOM     70  C   UNL     1      -5.976 -14.823   6.103  1.00  0.00     0.198 A 
ATOM     71  C   UNL     1      -6.135 -15.541   8.388  1.00  0.00     0.198 A 
ATOM     72  F   UNL     1      -4.818 -14.510  10.041  1.00  0.00    -0.203 F 
ATOM     73  F   UNL     1      -6.383 -14.908   4.829  1.00  0.00    -0.200 F 
ATOM     74  C   UNL     1      -6.538 -15.648   7.066  1.00  0.00     0.200 A 
ATOM     75  F   UNL     1      -6.669 -16.345   9.318  1.00  0.00    -0.200 F 
ATOM     76  F   UNL     1      -7.473 -16.543   6.719  1.00  0.00    -0.200 F 
ENDBRANCH  52  66
BRANCH  53  77
ATOM     77  C   UNL     1       2.139  -6.969  10.636  1.00  0.00     0.064 A 
ATOM     78  C   UNL     1       3.349  -6.772   9.958  1.00  0.00     0.173 A 
ATOM     79  C   UNL     1       1.912  -6.216  11.798  1.00  0.00     0.173 A 
ATOM     80  F   UNL     1       3.625  -7.489   8.859  1.00  0.00    -0.203 F 
ATOM     81  C   UNL     1       4.304  -5.874  10.435  1.00  0.00     0.198 A 
ATOM     82  C   UNL     1       2.854  -5.298  12.258  1.00  0.00     0.198 A 
ATOM     83  F   UNL     1       0.772  -6.372  12.488  1.00  0.00    -0.203 F 
ATOM     84  F   UNL     1       5.474  -5.744   9.796  1.00  0.00    -0.200 F 
ATOM     85  C   UNL     1       4.053  -5.134  11.581  1.00  0.00     0.200 A 
ATOM     86  F   UNL     1       2.604  -4.580  13.361  1.00  0.00    -0.200 F 
ATOM     87  F   UNL     1       4.971  -4.273  12.038  1.00  0.00    -0.200 F 
ENDBRANCH  53  77
BRANCH  65  88
ATOM     88  C   UNL     1       2.180 -13.930  10.267  1.00  0.00     0.064 A 
ATOM     89  C   UNL     1       2.532 -14.223  11.593  1.00  0.00     0.173 A 
ATOM     90  C   UNL     1       2.805 -14.664   9.246  1.00  0.00     0.173 A 
ATOM     91  F   UNL     1       1.974 -13.541  12.605  1.00  0.00    -0.203 F 
ATOM     92  C   UNL     1       3.488 -15.193  11.883  1.00  0.00     0.198 A 
ATOM     93  C   UNL     1       3.738 -15.654   9.541  1.00  0.00     0.198 A 
ATOM     94  F   UNL     1       2.500 -14.430   7.961  1.00  0.00    -0.203 F 
ATOM     95  F   UNL     1       3.843 -15.422  13.155  1.00  0.00    -0.200 F 
ATOM     96  C   UNL     1       4.085 -15.912  10.858  1.00  0.00     0.200 A 
ATOM     97  F   UNL     1       4.302 -16.359   8.550  1.00  0.00    -0.200 F 
ATOM     98  F   UNL     1       4.999 -16.851  11.140  1.00  0.00    -0.200 F 
ENDBRANCH  65  88
ENDBRANCH  39  40
ENDBRANCH  32  34
ENDBRANCH  31  32
ENDBRANCH  30  31
ENDBRANCH  29  30
ENDBRANCH  28  29
ENDBRANCH  27  28
ENDBRANCH   1  27
TORSDOF 20
