REMARK SMILES CCCC(O)(CCC)[C@@]1(C)CC[C@@H](C(=O)OCCOCCOCCOC(=O)c2ccc(-c3c4nc(c(-c5c(F)c(F)c(F)c(F)c5F)c5ccc([nH]5)c(-c5c(F)c(F)c(F)c(F)c5F)c5nc(c(-c6c(F)c(F)c(F)c(F)c6F)c6ccc3[nH]6)C=C5)C=C4)cc2)C(C)(C)O1
REMARK SMILES IDX 20 1 19 2 18 3 17 4 16 5 14 6 15 7 13 8 9 9 10 10 11 11
REMARK SMILES IDX 94 12 12 13 91 14 92 15 93 16 4 17 3 18 2 19 1 20 5 21 6 23
REMARK SMILES IDX 7 24 8 25 21 26 22 27 23 28 24 29 25 30 26 31 27 32 28 33
REMARK SMILES IDX 29 34 90 35 30 36 89 37 31 38 32 39 33 40 83 41 34 42 88 43
REMARK SMILES IDX 82 44 84 45 35 46 87 47 81 48 80 49 36 51 68 52 48 53 67 54
REMARK SMILES IDX 49 55 52 56 66 57 85 58 50 59 51 60 65 62 86 63 53 64 37 65
REMARK SMILES IDX 38 66 46 67 39 68 40 69 44 70 47 71 41 72 42 73 45 74 43 75
REMARK SMILES IDX 69 76 70 77 78 78 71 79 72 80 76 81 79 82 73 83 74 84 77 85
REMARK SMILES IDX 75 86 54 87 55 88 63 89 56 90 57 91 61 92 64 93 58 94 59 95
REMARK SMILES IDX 62 96 60 97
REMARK H PARENT 5 22 84 50 52 61
REMARK Flexibility Score: inf
ROOT
ATOM      1  C   UNL     1       0.826  -3.090   3.428  1.00  0.00     0.188 C 
ENDROOT
BRANCH   1   2
ATOM      2  O   UNL     1       0.562  -2.353   4.615  1.00  0.00    -0.376 OA
BRANCH   2   3
ATOM      3  C   UNL     1      -0.247  -1.182   4.566  1.00  0.00     0.202 C 
BRANCH   3   4
ATOM      4  C   UNL     1       0.260  -0.012   3.717  1.00  0.00     0.261 C 
BRANCH   4   5
ATOM      5  O   UNL     1       0.243  -0.264   2.294  1.00  0.00    -0.463 OA
BRANCH   5   6
ATOM      6  C   UNL     1       1.446  -0.316   1.685  1.00  0.00     0.311 C 
ATOM      7  O   UNL     1       2.508  -0.163   2.289  1.00  0.00    -0.252 OA
BRANCH   6   8
ATOM      8  C   UNL     1       1.455  -0.661   0.183  1.00  0.00     0.131 C 
ATOM      9  C   UNL     1       1.081   0.760  -2.494  1.00  0.00     0.095 C 
ATOM     10  C   UNL     1       0.968   0.085  -3.886  1.00  0.00     0.045 C 
ATOM     11  C   UNL     1       2.461   0.460  -1.905  1.00  0.00     0.039 C 
ATOM     12  O   UNL     1       0.034   0.182  -1.706  1.00  0.00    -0.366 OA
ATOM     13  C   UNL     1       2.480   0.331  -0.401  1.00  0.00     0.021 C 
ATOM     14  C   UNL     1       0.221  -0.891  -0.773  1.00  0.00     0.077 C 
ATOM     15  C   UNL     1      -1.222  -0.964  -0.211  1.00  0.00     0.043 C 
ATOM     16  C   UNL     1       0.442  -2.228  -1.531  1.00  0.00     0.043 C 
BRANCH   9  17
ATOM     17  C   UNL     1       0.650   2.307  -2.597  1.00  0.00     0.093 C 
BRANCH  17  18
ATOM     18  C   UNL     1       0.787   3.204  -1.310  1.00  0.00     0.038 C 
BRANCH  18  19
ATOM     19  C   UNL     1      -0.375   3.309  -0.301  1.00  0.00    -0.000 C 
ATOM     20  C   UNL     1      -0.349   2.298   0.815  1.00  0.00     0.004 C 
ENDBRANCH  18  19
ENDBRANCH  17  18
BRANCH  17  21
ATOM     21  O   UNL     1      -0.767   2.289  -2.925  1.00  0.00    -0.387 OA
ATOM     22  H   UNL     1      -1.093   3.200  -3.003  1.00  0.00     0.211 HD
ENDBRANCH  17  21
BRANCH  17  23
ATOM     23  C   UNL     1       1.280   3.087  -3.791  1.00  0.00     0.038 C 
BRANCH  23  24
ATOM     24  C   UNL     1       2.783   3.371  -3.754  1.00  0.00    -0.000 C 
ATOM     25  C   UNL     1       3.609   2.436  -4.625  1.00  0.00     0.004 C 
ENDBRANCH  23  24
ENDBRANCH  17  23
ENDBRANCH   9  17
ENDBRANCH   6   8
ENDBRANCH   5   6
ENDBRANCH   4   5
ENDBRANCH   3   4
ENDBRANCH   2   3
ENDBRANCH   1   2
BRANCH   1  26
ATOM     26  C   UNL     1      -0.220  -3.113   2.321  1.00  0.00     0.188 C 
BRANCH  26  27
ATOM     27  O   UNL     1      -1.544  -2.932   2.776  1.00  0.00    -0.376 OA
BRANCH  27  28
ATOM     28  C   UNL     1      -2.501  -3.845   2.261  1.00  0.00     0.202 C 
BRANCH  28  29
ATOM     29  C   UNL     1      -2.371  -5.227   2.915  1.00  0.00     0.261 C 
BRANCH  29  30
ATOM     30  O   UNL     1      -1.081  -5.860   2.751  1.00  0.00    -0.460 OA
BRANCH  30  31
ATOM     31  C   UNL     1      -0.713  -6.191   1.485  1.00  0.00     0.338 C 
ATOM     32  O   UNL     1      -1.389  -6.093   0.486  1.00  0.00    -0.246 OA
BRANCH  31  33
ATOM     33  C   UNL     1       0.759  -6.423   1.477  1.00  0.00     0.060 A 
ATOM     34  C   UNL     1       1.547  -5.723   0.547  1.00  0.00     0.016 A 
ATOM     35  C   UNL     1       1.364  -7.292   2.382  1.00  0.00     0.016 A 
ATOM     36  C   UNL     1       2.930  -5.919   0.494  1.00  0.00     0.010 A 
ATOM     37  C   UNL     1       2.745  -7.511   2.310  1.00  0.00     0.010 A 
ATOM     38  C   UNL     1       3.532  -6.853   1.344  1.00  0.00    -0.014 A 
BRANCH  38  39
ATOM     39  C   UNL     1       4.926  -7.309   1.093  1.00  0.00     0.031 A 
ATOM     40  C   UNL     1       5.122  -8.625   0.387  1.00  0.00     0.074 A 
ATOM     41  C   UNL     1       5.998  -6.591   1.477  1.00  0.00     0.049 A 
ATOM     42  N   UNL     1       6.218  -9.308   0.180  1.00  0.00    -0.248 NA
ATOM     43  C   UNL     1       3.908  -9.259  -0.154  1.00  0.00     0.031 C 
ATOM     44  C   UNL     1       5.956  -5.277   2.113  1.00  0.00     0.029 A 
ATOM     45  N   UNL     1       7.339  -6.888   1.404  1.00  0.00    -0.354 N 
ATOM     46  C   UNL     1       5.822 -10.466  -0.478  1.00  0.00     0.074 A 
ATOM     47  C   UNL     1       4.386 -10.398  -0.633  1.00  0.00     0.031 C 
ATOM     48  C   UNL     1       7.213  -4.894   2.402  1.00  0.00     0.029 A 
ATOM     49  C   UNL     1       8.143  -5.954   2.013  1.00  0.00     0.049 A 
ATOM     50  H   UNL     1       7.690  -7.692   0.958  1.00  0.00     0.167 HD
ATOM     51  C   UNL     1       6.587 -11.494  -0.911  1.00  0.00     0.037 A 
ATOM     52  C   UNL     1       9.468  -5.976   2.267  1.00  0.00     0.037 A 
ATOM     53  C   UNL     1       8.019 -11.549  -0.783  1.00  0.00     0.049 A 
ATOM     54  C   UNL     1      10.292  -7.163   1.824  1.00  0.00     0.074 A 
ATOM     55  C   UNL     1       8.885 -12.530  -1.234  1.00  0.00     0.029 A 
ATOM     56  N   UNL     1       8.794 -10.588  -0.153  1.00  0.00    -0.354 N 
ATOM     57  N   UNL     1       9.915  -8.243   1.182  1.00  0.00    -0.248 NA
ATOM     58  C   UNL     1      11.728  -7.134   2.142  1.00  0.00     0.031 C 
ATOM     59  C   UNL     1      10.177 -12.197  -0.817  1.00  0.00     0.029 A 
ATOM     60  C   UNL     1      10.125 -10.972  -0.172  1.00  0.00     0.049 A 
ATOM     61  H   UNL     1       8.450  -9.758   0.247  1.00  0.00     0.167 HD
ATOM     62  C   UNL     1      11.067  -8.999   0.992  1.00  0.00     0.074 A 
ATOM     63  C   UNL     1      12.159  -8.250   1.571  1.00  0.00     0.031 C 
ATOM     64  C   UNL     1      11.207 -10.207   0.392  1.00  0.00     0.037 A 
BRANCH  51  65
ATOM     65  C   UNL     1       5.896 -12.674  -1.530  1.00  0.00     0.064 A 
ATOM     66  C   UNL     1       5.311 -12.614  -2.803  1.00  0.00     0.173 A 
ATOM     67  C   UNL     1       5.880 -13.906  -0.857  1.00  0.00     0.173 A 
ATOM     68  F   UNL     1       5.286 -11.456  -3.480  1.00  0.00    -0.203 F 
ATOM     69  C   UNL     1       4.724 -13.740  -3.373  1.00  0.00     0.198 A 
ATOM     70  C   UNL     1       5.320 -15.037  -1.443  1.00  0.00     0.198 A 
ATOM     71  F   UNL     1       6.427 -14.018   0.363  1.00  0.00    -0.203 F 
ATOM     72  F   UNL     1       4.138 -13.652  -4.576  1.00  0.00    -0.200 F 
ATOM     73  C   UNL     1       4.739 -14.953  -2.699  1.00  0.00     0.200 A 
ATOM     74  F   UNL     1       5.349 -16.210  -0.795  1.00  0.00    -0.200 F 
ATOM     75  F   UNL     1       4.190 -16.040  -3.258  1.00  0.00    -0.200 F 
ENDBRANCH  51  65
BRANCH  52  76
ATOM     76  C   UNL     1      10.109  -4.864   3.025  1.00  0.00     0.064 A 
ATOM     77  C   UNL     1      11.081  -4.043   2.435  1.00  0.00     0.173 A 
ATOM     78  C   UNL     1       9.809  -4.643   4.379  1.00  0.00     0.173 A 
ATOM     79  F   UNL     1      11.429  -4.233   1.154  1.00  0.00    -0.203 F 
ATOM     80  C   UNL     1      11.749  -3.068   3.175  1.00  0.00     0.198 A 
ATOM     81  C   UNL     1      10.451  -3.644   5.108  1.00  0.00     0.198 A 
ATOM     82  F   UNL     1       8.896  -5.405   4.998  1.00  0.00    -0.203 F 
ATOM     83  F   UNL     1      12.723  -2.347   2.604  1.00  0.00    -0.200 F 
ATOM     84  C   UNL     1      11.430  -2.866   4.510  1.00  0.00     0.200 A 
ATOM     85  F   UNL     1      10.133  -3.447   6.394  1.00  0.00    -0.200 F 
ATOM     86  F   UNL     1      12.078  -1.934   5.222  1.00  0.00    -0.200 F 
ENDBRANCH  52  76
BRANCH  64  87
ATOM     87  C   UNL     1      12.595 -10.775   0.278  1.00  0.00     0.064 A 
ATOM     88  C   UNL     1      13.299 -11.246   1.395  1.00  0.00     0.173 A 
ATOM     89  C   UNL     1      13.208 -10.894  -0.980  1.00  0.00     0.173 A 
ATOM     90  F   UNL     1      12.764 -11.147   2.621  1.00  0.00    -0.203 F 
ATOM     91  C   UNL     1      14.576 -11.788   1.261  1.00  0.00     0.198 A 
ATOM     92  C   UNL     1      14.469 -11.469  -1.115  1.00  0.00     0.198 A 
ATOM     93  F   UNL     1      12.575 -10.469  -2.084  1.00  0.00    -0.203 F 
ATOM     94  F   UNL     1      15.250 -12.185   2.349  1.00  0.00    -0.200 F 
ATOM     95  C   UNL     1      15.155 -11.907   0.007  1.00  0.00     0.200 A 
ATOM     96  F   UNL     1      15.018 -11.600  -2.330  1.00  0.00    -0.200 F 
ATOM     97  F   UNL     1      16.379 -12.439  -0.121  1.00  0.00    -0.200 F 
ENDBRANCH  64  87
ENDBRANCH  38  39
ENDBRANCH  31  33
ENDBRANCH  30  31
ENDBRANCH  29  30
ENDBRANCH  28  29
ENDBRANCH  27  28
ENDBRANCH  26  27
ENDBRANCH   1  26
TORSDOF 23
