REMARK SMILES C/C(=C\C(=O)c1c(O)n(C)c2ccccc2c1=O)Nc1ccc(C(=O)OCCOCCOCCOC(=O)c2ccc(-c3c4nc(c(-c5c(F)c(F)c(F)c(F)c5F)c5ccc([nH]5)c(-c5c(F)c(F)c(F)c(F)c5F)c5nc(c(-c6c(F)c(F)c(F)c(F)c6F)c6ccc3[nH]6)C=C5)C=C4)cc2)cc1
REMARK SMILES IDX 29 1 28 2 27 3 26 4 24 5 25 6 23 7 20 8 21 9 102 10 22 11
REMARK SMILES IDX 101 12 19 13 2 15 1 16 3 17 4 18 5 19 6 20 7 21 17 22 9 23
REMARK SMILES IDX 16 24 18 25 10 26 11 27 15 28 12 29 14 30 13 31 8 32 30 34
REMARK SMILES IDX 31 35 32 36 33 37 34 38 35 39 36 40 37 41 38 42 39 43 100 44
REMARK SMILES IDX 40 45 99 46 41 47 42 48 43 49 93 50 44 51 98 52 92 53 94 54
REMARK SMILES IDX 45 55 97 56 91 57 90 58 46 60 78 61 58 62 77 63 59 64 62 65
REMARK SMILES IDX 76 66 95 67 60 68 61 69 75 71 96 72 63 73 47 74 48 75 56 76
REMARK SMILES IDX 49 77 50 78 54 79 57 80 51 81 52 82 55 83 53 84 79 85 80 86
REMARK SMILES IDX 88 87 81 88 82 89 86 90 89 91 83 92 84 93 87 94 85 95 64 96
REMARK SMILES IDX 65 97 73 98 66 99 67 100 71 101 74 102 68 103 69 104 72 105
REMARK SMILES IDX 70 106
REMARK H PARENT 19 14 8 33 94 59 62 70
REMARK Flexibility Score: inf
ROOT
ATOM      1  O   UNL     1       4.724   6.075   3.087  1.00  0.00    -0.376 OA
ENDROOT
BRANCH   1   2
ATOM      2  C   UNL     1       5.146   7.200   2.333  1.00  0.00     0.202 C 
BRANCH   2   3
ATOM      3  C   UNL     1       5.164   7.298   0.794  1.00  0.00     0.261 C 
BRANCH   3   4
ATOM      4  O   UNL     1       4.291   6.427   0.068  1.00  0.00    -0.460 OA
BRANCH   4   5
ATOM      5  C   UNL     1       4.915   5.515  -0.722  1.00  0.00     0.338 C 
ATOM      6  O   UNL     1       6.119   5.405  -0.893  1.00  0.00    -0.246 OA
BRANCH   5   7
ATOM      7  C   UNL     1       3.952   4.491  -1.189  1.00  0.00     0.060 A 
ATOM      8  C   UNL     1       2.190   2.397  -1.892  1.00  0.00     0.038 A 
ATOM      9  C   UNL     1       3.515   2.135  -1.538  1.00  0.00     0.027 A 
ATOM     10  C   UNL     1       1.773   3.740  -1.926  1.00  0.00     0.027 A 
ATOM     11  C   UNL     1       4.386   3.164  -1.178  1.00  0.00     0.018 A 
ATOM     12  C   UNL     1       2.644   4.786  -1.581  1.00  0.00     0.018 A 
BRANCH   8  13
ATOM     13  N   UNL     1       1.253   1.379  -2.156  1.00  0.00    -0.359 N 
ATOM     14  H   UNL     1       0.697   1.531  -2.954  1.00  0.00     0.166 HD
BRANCH  13  15
ATOM     15  C   UNL     1       0.979   0.187  -1.473  1.00  0.00     0.016 C 
ATOM     16  C   UNL     1       1.770  -0.116  -0.218  1.00  0.00     0.064 C 
ATOM     17  C   UNL     1      -0.034  -0.597  -1.916  1.00  0.00     0.074 C 
BRANCH  17  18
ATOM     18  C   UNL     1      -0.734  -1.803  -1.353  1.00  0.00     0.196 C 
ATOM     19  O   UNL     1      -1.550  -2.395  -2.056  1.00  0.00    -0.289 OA
BRANCH  18  20
ATOM     20  C   UNL     1      -0.560  -2.159   0.069  1.00  0.00     0.130 A 
ATOM     21  C   UNL     1      -0.841  -1.274   1.048  1.00  0.00     0.206 A 
ATOM     22  C   UNL     1       0.059  -3.454   0.435  1.00  0.00     0.204 A 
ATOM     23  N   UNL     1      -0.432  -1.442   2.367  1.00  0.00    -0.315 N 
ATOM     24  C   UNL     1       0.315  -3.712   1.868  1.00  0.00     0.047 A 
ATOM     25  O   UNL     1       0.401  -4.270  -0.415  1.00  0.00    -0.288 OA
ATOM     26  C   UNL     1      -0.427  -0.331   3.322  1.00  0.00     0.153 C 
ATOM     27  C   UNL     1       0.106  -2.676   2.797  1.00  0.00     0.055 A 
ATOM     28  C   UNL     1       0.822  -4.963   2.252  1.00  0.00     0.014 A 
ATOM     29  C   UNL     1       0.458  -2.939   4.129  1.00  0.00     0.027 A 
ATOM     30  C   UNL     1       1.159  -5.193   3.580  1.00  0.00     0.001 A 
ATOM     31  C   UNL     1       0.993  -4.173   4.508  1.00  0.00     0.002 A 
BRANCH  21  32
ATOM     32  O   UNL     1      -1.491  -0.080   0.790  1.00  0.00    -0.494 OA
ATOM     33  H   UNL     1      -1.798   0.109  -0.075  1.00  0.00     0.295 HD
ENDBRANCH  21  32
ENDBRANCH  18  20
ENDBRANCH  17  18
ENDBRANCH  13  15
ENDBRANCH   8  13
ENDBRANCH   5   7
ENDBRANCH   4   5
ENDBRANCH   3   4
ENDBRANCH   2   3
ENDBRANCH   1   2
BRANCH   1  34
ATOM     34  C   UNL     1       4.044   5.007   2.471  1.00  0.00     0.188 C 
BRANCH  34  35
ATOM     35  C   UNL     1       2.552   5.189   2.127  1.00  0.00     0.188 C 
BRANCH  35  36
ATOM     36  O   UNL     1       1.958   6.470   2.148  1.00  0.00    -0.376 OA
BRANCH  36  37
ATOM     37  C   UNL     1       1.899   7.205   3.361  1.00  0.00     0.202 C 
BRANCH  37  38
ATOM     38  C   UNL     1       1.669   6.557   4.738  1.00  0.00     0.261 C 
BRANCH  38  39
ATOM     39  O   UNL     1       2.349   5.321   4.983  1.00  0.00    -0.460 OA
BRANCH  39  40
ATOM     40  C   UNL     1       1.553   4.229   5.085  1.00  0.00     0.338 C 
ATOM     41  O   UNL     1       0.337   4.176   4.985  1.00  0.00    -0.246 OA
BRANCH  40  42
ATOM     42  C   UNL     1       2.401   3.028   5.158  1.00  0.00     0.060 A 
ATOM     43  C   UNL     1       3.204   2.797   6.273  1.00  0.00     0.016 A 
ATOM     44  C   UNL     1       2.362   2.108   4.102  1.00  0.00     0.016 A 
ATOM     45  C   UNL     1       3.955   1.622   6.339  1.00  0.00     0.010 A 
ATOM     46  C   UNL     1       3.126   0.943   4.162  1.00  0.00     0.010 A 
ATOM     47  C   UNL     1       3.906   0.678   5.295  1.00  0.00    -0.014 A 
BRANCH  47  48
ATOM     48  C   UNL     1       4.556  -0.645   5.460  1.00  0.00     0.031 A 
ATOM     49  C   UNL     1       5.835  -0.983   4.755  1.00  0.00     0.074 A 
ATOM     50  C   UNL     1       3.962  -1.546   6.267  1.00  0.00     0.049 A 
ATOM     51  N   UNL     1       6.582  -2.052   4.879  1.00  0.00    -0.248 NA
ATOM     52  C   UNL     1       6.342  -0.003   3.784  1.00  0.00     0.031 C 
ATOM     53  C   UNL     1       2.700  -1.328   6.976  1.00  0.00     0.029 A 
ATOM     54  N   UNL     1       4.343  -2.808   6.645  1.00  0.00    -0.354 N 
ATOM     55  C   UNL     1       7.662  -1.862   4.028  1.00  0.00     0.074 A 
ATOM     56  C   UNL     1       7.444  -0.602   3.347  1.00  0.00     0.031 C 
ATOM     57  C   UNL     1       2.435  -2.399   7.741  1.00  0.00     0.029 A 
ATOM     58  C   UNL     1       3.493  -3.388   7.557  1.00  0.00     0.049 A 
ATOM     59  H   UNL     1       5.147  -3.256   6.297  1.00  0.00     0.167 HD
ATOM     60  C   UNL     1       8.745  -2.658   3.857  1.00  0.00     0.037 A 
ATOM     61  C   UNL     1       3.567  -4.576   8.187  1.00  0.00     0.037 A 
ATOM     62  C   UNL     1       8.938  -3.920   4.529  1.00  0.00     0.049 A 
ATOM     63  C   UNL     1       4.751  -5.466   7.924  1.00  0.00     0.074 A 
ATOM     64  C   UNL     1      10.017  -4.783   4.449  1.00  0.00     0.029 A 
ATOM     65  N   UNL     1       8.023  -4.506   5.393  1.00  0.00    -0.354 N 
ATOM     66  N   UNL     1       5.803  -5.243   7.175  1.00  0.00    -0.248 NA
ATOM     67  C   UNL     1       4.759  -6.771   8.599  1.00  0.00     0.031 C 
ATOM     68  C   UNL     1       9.730  -5.916   5.215  1.00  0.00     0.029 A 
ATOM     69  C   UNL     1       8.500  -5.734   5.827  1.00  0.00     0.049 A 
ATOM     70  H   UNL     1       7.162  -4.109   5.659  1.00  0.00     0.167 HD
ATOM     71  C   UNL     1       6.613  -6.362   7.311  1.00  0.00     0.074 A 
ATOM     72  C   UNL     1       5.933  -7.260   8.222  1.00  0.00     0.031 C 
ATOM     73  C   UNL     1       7.813  -6.619   6.735  1.00  0.00     0.037 A 
BRANCH  60  74
ATOM     74  C   UNL     1       9.825  -2.192   2.920  1.00  0.00     0.064 A 
ATOM     75  C   UNL     1      10.656  -1.109   3.247  1.00  0.00     0.173 A 
ATOM     76  C   UNL     1      10.101  -2.892   1.735  1.00  0.00     0.173 A 
ATOM     77  F   UNL     1      10.438  -0.406   4.368  1.00  0.00    -0.203 F 
ATOM     78  C   UNL     1      11.710  -0.735   2.416  1.00  0.00     0.198 A 
ATOM     79  C   UNL     1      11.174  -2.533   0.921  1.00  0.00     0.198 A 
ATOM     80  F   UNL     1       9.348  -3.944   1.380  1.00  0.00    -0.203 F 
ATOM     81  F   UNL     1      12.472   0.320   2.737  1.00  0.00    -0.200 F 
ATOM     82  C   UNL     1      11.974  -1.454   1.260  1.00  0.00     0.200 A 
ATOM     83  F   UNL     1      11.441  -3.242  -0.185  1.00  0.00    -0.200 F 
ATOM     84  F   UNL     1      13.002  -1.106   0.474  1.00  0.00    -0.200 F 
ENDBRANCH  60  74
BRANCH  61  85
ATOM     85  C   UNL     1       2.522  -4.957   9.174  1.00  0.00     0.064 A 
ATOM     86  C   UNL     1       2.808  -4.988  10.545  1.00  0.00     0.173 A 
ATOM     87  C   UNL     1       1.213  -5.269   8.780  1.00  0.00     0.173 A 
ATOM     88  F   UNL     1       4.051  -4.725  10.975  1.00  0.00    -0.203 F 
ATOM     89  C   UNL     1       1.826  -5.314  11.479  1.00  0.00     0.198 A 
ATOM     90  C   UNL     1       0.224  -5.562   9.715  1.00  0.00     0.198 A 
ATOM     91  F   UNL     1       0.885  -5.277   7.483  1.00  0.00    -0.203 F 
ATOM     92  F   UNL     1       2.135  -5.367  12.782  1.00  0.00    -0.200 F 
ATOM     93  C   UNL     1       0.531  -5.588  11.064  1.00  0.00     0.200 A 
ATOM     94  F   UNL     1      -1.027  -5.814   9.304  1.00  0.00    -0.200 F 
ATOM     95  F   UNL     1      -0.417  -5.884  11.963  1.00  0.00    -0.200 F 
ENDBRANCH  61  85
BRANCH  73  96
ATOM     96  C   UNL     1       8.489  -7.916   7.080  1.00  0.00     0.064 A 
ATOM     97  C   UNL     1       8.011  -9.144   6.601  1.00  0.00     0.173 A 
ATOM     98  C   UNL     1       9.675  -7.922   7.832  1.00  0.00     0.173 A 
ATOM     99  F   UNL     1       6.875  -9.195   5.890  1.00  0.00    -0.203 F 
ATOM    100  C   UNL     1       8.688 -10.331   6.872  1.00  0.00     0.198 A 
ATOM    101  C   UNL     1      10.366  -9.106   8.074  1.00  0.00     0.198 A 
ATOM    102  F   UNL     1      10.179  -6.774   8.310  1.00  0.00    -0.203 F 
ATOM    103  F   UNL     1       8.193 -11.497   6.433  1.00  0.00    -0.200 F 
ATOM    104  C   UNL     1       9.870 -10.310   7.597  1.00  0.00     0.200 A 
ATOM    105  F   UNL     1      11.517  -9.081   8.760  1.00  0.00    -0.200 F 
ATOM    106  F   UNL     1      10.530 -11.451   7.838  1.00  0.00    -0.200 F 
ENDBRANCH  73  96
ENDBRANCH  47  48
ENDBRANCH  40  42
ENDBRANCH  39  40
ENDBRANCH  38  39
ENDBRANCH  37  38
ENDBRANCH  36  37
ENDBRANCH  35  36
ENDBRANCH  34  35
ENDBRANCH   1  34
TORSDOF 22
