REMARK SMILES Cc1ccc(-c2nn(-c3ccccc3)cc2[C@@H]2[NH2+][C@H](C(=O)OCCOCCOCCOC(=O)c3ccc(-c4c5nc(c(-c6c(F)c(F)c(F)c(F)c6F)c6ccc([nH]6)c(-c6c(F)c(F)c(F)c(F)c6F)c6nc(c(-c7c(F)c(F)c(F)c(F)c7F)c7ccc4[nH]7)C=C6)C=C5)cc3)CS2)cc1
REMARK SMILES IDX 26 1 25 2 24 3 23 4 22 5 20 6 21 7 19 8 17 9 18 10 98 11
REMARK SMILES IDX 97 14 16 15 6 16 7 17 8 18 15 19 5 20 1 21 2 22 3 23 100 24
REMARK SMILES IDX 4 25 99 26 9 27 10 28 14 29 11 30 13 31 12 32 27 33 28 34
REMARK SMILES IDX 29 35 30 36 31 37 32 38 33 39 34 40 35 41 96 42 36 43 95 44
REMARK SMILES IDX 37 45 38 46 39 47 89 48 40 49 94 50 88 51 90 52 41 53 93 54
REMARK SMILES IDX 87 55 86 56 42 58 74 59 54 60 73 61 55 62 58 63 72 64 91 65
REMARK SMILES IDX 56 66 57 67 71 69 92 70 59 71 43 72 44 73 52 74 45 75 46 76
REMARK SMILES IDX 50 77 53 78 47 79 48 80 51 81 49 82 75 83 76 84 84 85 77 86
REMARK SMILES IDX 78 87 82 88 85 89 79 90 80 91 83 92 81 93 60 94 61 95 69 96
REMARK SMILES IDX 62 97 63 98 67 99 70 100 64 101 65 102 68 103 66 104
REMARK H PARENT 18 12 18 13 90 57 58 68
REMARK Flexibility Score: inf
ROOT
ATOM      1  C   UNL     1      -6.948  -4.616  -2.171  1.00  0.00     0.188 C 
ENDROOT
BRANCH   1   2
ATOM      2  O   UNL     1      -7.486  -3.289  -2.027  1.00  0.00    -0.376 OA
BRANCH   2   3
ATOM      3  C   UNL     1      -6.782  -2.033  -1.942  1.00  0.00     0.202 C 
BRANCH   3   4
ATOM      4  C   UNL     1      -6.266  -1.062  -0.578  1.00  0.00     0.261 C 
BRANCH   4   5
ATOM      5  O   UNL     1      -5.169  -1.188   0.699  1.00  0.00    -0.459 OA
BRANCH   5   6
ATOM      6  C   UNL     1      -4.972  -1.713   1.982  1.00  0.00     0.365 C 
ATOM      7  O   UNL     1      -5.763  -2.365   2.682  1.00  0.00    -0.245 OA
BRANCH   6   8
ATOM      8  C   UNL     1      -3.683  -1.522   2.743  1.00  0.00     0.304 C 
ATOM      9  C   UNL     1      -2.693   0.467   1.959  1.00  0.00     0.278 C 
ATOM     10  N   UNL     1      -2.556  -0.994   1.997  1.00  0.00    -0.319 N 
ATOM     11  S   UNL     1      -3.659   1.007   3.386  1.00  0.00    -0.087 SA
ATOM     12  H   UNL     1      -1.683  -1.250   2.459  1.00  0.00     0.348 HD
ATOM     13  H   UNL     1      -2.542  -1.377   1.052  1.00  0.00     0.348 HD
ATOM     14  C   UNL     1      -3.913  -0.672   3.995  1.00  0.00     0.153 C 
BRANCH   9  15
ATOM     15  C   UNL     1      -3.223   0.837   0.610  1.00  0.00     0.067 A 
ATOM     16  C   UNL     1      -2.535   0.569  -0.606  1.00  0.00     0.103 A 
ATOM     17  N   UNL     1      -3.252   0.875  -1.692  1.00  0.00    -0.167 NA
ATOM     18  N   UNL     1      -4.393   1.424  -1.205  1.00  0.00    -0.240 N 
ATOM     19  C   UNL     1      -4.365   1.486   0.182  1.00  0.00     0.126 A 
BRANCH  16  20
ATOM     20  C   UNL     1      -1.115   0.291  -0.644  1.00  0.00     0.003 A 
ATOM     21  C   UNL     1       3.090  -0.073   0.095  1.00  0.00     0.044 C 
ATOM     22  C   UNL     1       1.618   0.043  -0.151  1.00  0.00    -0.051 A 
ATOM     23  C   UNL     1       0.809  -1.103  -0.250  1.00  0.00     0.004 A 
ATOM     24  C   UNL     1       1.047   1.309  -0.299  1.00  0.00     0.004 A 
ATOM     25  C   UNL     1      -0.563  -0.982  -0.491  1.00  0.00     0.011 A 
ATOM     26  C   UNL     1      -0.307   1.429  -0.551  1.00  0.00     0.011 A 
ENDBRANCH  16  20
BRANCH  18  27
ATOM     27  C   UNL     1      -5.520   1.671  -2.059  1.00  0.00     0.065 A 
ATOM     28  C   UNL     1      -5.598   1.062  -3.322  1.00  0.00     0.028 A 
ATOM     29  C   UNL     1      -6.639   2.350  -1.571  1.00  0.00     0.028 A 
ATOM     30  C   UNL     1      -6.796   1.100  -4.048  1.00  0.00     0.002 A 
ATOM     31  C   UNL     1      -7.827   2.404  -2.305  1.00  0.00     0.002 A 
ATOM     32  C   UNL     1      -7.908   1.769  -3.539  1.00  0.00     0.000 A 
ENDBRANCH  18  27
ENDBRANCH   9  15
ENDBRANCH   6   8
ENDBRANCH   5   6
ENDBRANCH   4   5
ENDBRANCH   3   4
ENDBRANCH   2   3
ENDBRANCH   1   2
BRANCH   1  33
ATOM     33  C   UNL     1      -5.734  -5.000  -2.999  1.00  0.00     0.188 C 
BRANCH  33  34
ATOM     34  O   UNL     1      -4.762  -3.981  -2.995  1.00  0.00    -0.376 OA
BRANCH  34  35
ATOM     35  C   UNL     1      -3.569  -4.295  -3.699  1.00  0.00     0.202 C 
BRANCH  35  36
ATOM     36  C   UNL     1      -2.761  -5.487  -3.123  1.00  0.00     0.261 C 
BRANCH  36  37
ATOM     37  O   UNL     1      -2.379  -5.268  -1.738  1.00  0.00    -0.460 OA
BRANCH  37  38
ATOM     38  C   UNL     1      -2.912  -6.094  -0.764  1.00  0.00     0.338 C 
ATOM     39  O   UNL     1      -2.812  -7.298  -0.755  1.00  0.00    -0.246 OA
BRANCH  38  40
ATOM     40  C   UNL     1      -3.808  -5.295   0.154  1.00  0.00     0.060 A 
ATOM     41  C   UNL     1      -4.724  -5.737   1.126  1.00  0.00     0.016 A 
ATOM     42  C   UNL     1      -3.964  -4.014  -0.216  1.00  0.00     0.016 A 
ATOM     43  C   UNL     1      -5.898  -4.933   1.527  1.00  0.00     0.010 A 
ATOM     44  C   UNL     1      -5.232  -3.479  -0.049  1.00  0.00     0.010 A 
ATOM     45  C   UNL     1      -6.291  -3.777   0.847  1.00  0.00    -0.014 A 
BRANCH  45  46
ATOM     46  C   UNL     1      -7.678  -2.804   1.037  1.00  0.00     0.031 A 
ATOM     47  C   UNL     1      -7.934  -1.205   1.560  1.00  0.00     0.074 A 
ATOM     48  C   UNL     1      -8.748  -3.256   0.346  1.00  0.00     0.049 A 
ATOM     49  N   UNL     1      -8.797  -0.374   0.998  1.00  0.00    -0.248 NA
ATOM     50  C   UNL     1      -7.239  -0.388   2.598  1.00  0.00     0.031 C 
ATOM     51  C   UNL     1      -9.948  -2.570  -0.159  1.00  0.00     0.029 A 
ATOM     52  N   UNL     1      -9.012  -4.581  -0.008  1.00  0.00    -0.354 N 
ATOM     53  C   UNL     1      -8.599   0.943   1.431  1.00  0.00     0.074 A 
ATOM     54  C   UNL     1      -7.531   0.893   2.363  1.00  0.00     0.031 C 
ATOM     55  C   UNL     1     -10.926  -3.478  -0.327  1.00  0.00     0.029 A 
ATOM     56  C   UNL     1     -10.397  -4.726   0.187  1.00  0.00     0.049 A 
ATOM     57  H   UNL     1      -8.373  -5.261  -0.323  1.00  0.00     0.167 HD
ATOM     58  C   UNL     1      -9.485   1.966   1.240  1.00  0.00     0.037 A 
ATOM     59  C   UNL     1     -10.789  -5.374   1.319  1.00  0.00     0.037 A 
ATOM     60  C   UNL     1     -10.804   1.374   1.222  1.00  0.00     0.049 A 
ATOM     61  C   UNL     1     -11.510  -4.412   2.244  1.00  0.00     0.074 A 
ATOM     62  C   UNL     1     -11.623   0.852   0.244  1.00  0.00     0.029 A 
ATOM     63  N   UNL     1     -11.221   0.817   2.427  1.00  0.00    -0.354 N 
ATOM     64  N   UNL     1     -11.397  -3.106   2.206  1.00  0.00    -0.248 NA
ATOM     65  C   UNL     1     -12.497  -4.854   3.216  1.00  0.00     0.031 C 
ATOM     66  C   UNL     1     -12.338  -0.232   0.857  1.00  0.00     0.029 A 
ATOM     67  C   UNL     1     -12.012  -0.296   2.209  1.00  0.00     0.049 A 
ATOM     68  H   UNL     1     -10.985   1.168   3.316  1.00  0.00     0.167 HD
ATOM     69  C   UNL     1     -12.260  -2.539   3.098  1.00  0.00     0.074 A 
ATOM     70  C   UNL     1     -12.934  -3.679   3.699  1.00  0.00     0.031 C 
ATOM     71  C   UNL     1     -12.360  -1.192   3.318  1.00  0.00     0.037 A 
BRANCH  58  72
ATOM     72  C   UNL     1      -9.174   3.467   1.187  1.00  0.00     0.064 A 
ATOM     73  C   UNL     1     -10.166   4.402   0.809  1.00  0.00     0.173 A 
ATOM     74  C   UNL     1      -7.878   4.029   1.287  1.00  0.00     0.173 A 
ATOM     75  F   UNL     1     -11.445   4.024   0.675  1.00  0.00    -0.203 F 
ATOM     76  C   UNL     1      -9.873   5.747   0.502  1.00  0.00     0.198 A 
ATOM     77  C   UNL     1      -7.585   5.368   0.979  1.00  0.00     0.198 A 
ATOM     78  F   UNL     1      -6.814   3.287   1.608  1.00  0.00    -0.203 F 
ATOM     79  F   UNL     1     -10.852   6.570   0.098  1.00  0.00    -0.200 F 
ATOM     80  C   UNL     1      -8.580   6.225   0.571  1.00  0.00     0.200 A 
ATOM     81  F   UNL     1      -6.314   5.798   1.033  1.00  0.00    -0.200 F 
ATOM     82  F   UNL     1      -8.290   7.489   0.227  1.00  0.00    -0.200 F 
ENDBRANCH  58  72
BRANCH  59  83
ATOM     83  C   UNL     1      -9.833  -6.498   1.645  1.00  0.00     0.064 A 
ATOM     84  C   UNL     1      -9.501  -7.391   0.586  1.00  0.00     0.173 A 
ATOM     85  C   UNL     1      -8.965  -6.497   2.742  1.00  0.00     0.173 A 
ATOM     86  F   UNL     1     -10.284  -7.454  -0.505  1.00  0.00    -0.203 F 
ATOM     87  C   UNL     1      -8.297  -8.095   0.550  1.00  0.00     0.198 A 
ATOM     88  C   UNL     1      -7.797  -7.283   2.740  1.00  0.00     0.198 A 
ATOM     89  F   UNL     1      -9.159  -5.651   3.763  1.00  0.00    -0.203 F 
ATOM     90  F   UNL     1      -7.938  -8.758  -0.560  1.00  0.00    -0.200 F 
ATOM     91  C   UNL     1      -7.437  -8.030   1.625  1.00  0.00     0.200 A 
ATOM     92  F   UNL     1      -6.928  -7.190   3.760  1.00  0.00    -0.200 F 
ATOM     93  F   UNL     1      -6.235  -8.625   1.562  1.00  0.00    -0.200 F 
ENDBRANCH  59  83
BRANCH  71  94
ATOM     94  C   UNL     1     -12.825  -0.656   4.659  1.00  0.00     0.064 A 
ATOM     95  C   UNL     1     -12.716  -1.402   5.852  1.00  0.00     0.173 A 
ATOM     96  C   UNL     1     -13.251   0.678   4.828  1.00  0.00     0.173 A 
ATOM     97  F   UNL     1     -12.142  -2.613   5.875  1.00  0.00    -0.203 F 
ATOM     98  C   UNL     1     -13.138  -0.907   7.085  1.00  0.00     0.198 A 
ATOM     99  C   UNL     1     -13.578   1.203   6.080  1.00  0.00     0.198 A 
ATOM    100  F   UNL     1     -13.322   1.529   3.794  1.00  0.00    -0.203 F 
ATOM    101  F   UNL     1     -13.101  -1.702   8.163  1.00  0.00    -0.200 F 
ATOM    102  C   UNL     1     -13.562   0.399   7.202  1.00  0.00     0.200 A 
ATOM    103  F   UNL     1     -13.888   2.502   6.196  1.00  0.00    -0.200 F 
ATOM    104  F   UNL     1     -13.922   0.888   8.394  1.00  0.00    -0.200 F 
ENDBRANCH  71  94
ENDBRANCH  45  46
ENDBRANCH  38  40
ENDBRANCH  37  38
ENDBRANCH  36  37
ENDBRANCH  35  36
ENDBRANCH  34  35
ENDBRANCH  33  34
ENDBRANCH   1  33
TORSDOF 20
