REMARK SMILES COc1ccccc1C(=O)N/C(=C/c1ccc2c(c1)OCO2)C(=O)Nc1ccc(C(=O)OCCOCCOCCOC(=O)c2ccc(-c3c4nc(c(-c5c(F)c(F)c(F)c(F)c5F)c5ccc([nH]5)c(-c5c(F)c(F)c(F)c(F)c5F)c5nc(c(-c6c(F)c(F)c(F)c(F)c6F)c6ccc3[nH]6)C=C5)C=C4)cc2)cc1
REMARK SMILES IDX 35 1 34 2 33 3 32 4 30 5 31 6 29 7 26 8 27 9 108 10 28 11
REMARK SMILES IDX 107 12 25 13 23 14 24 15 12 17 13 18 11 19 9 20 10 21 8 23
REMARK SMILES IDX 3 24 4 25 5 26 7 27 6 28 2 29 1 30 14 31 15 32 19 33 16 34
REMARK SMILES IDX 18 35 17 36 20 37 22 38 21 39 36 40 37 41 38 42 39 43 40 44
REMARK SMILES IDX 41 45 42 46 43 47 44 48 45 49 106 50 46 51 105 52 47 53
REMARK SMILES IDX 48 54 49 55 99 56 50 57 104 58 98 59 100 60 51 61 103 62
REMARK SMILES IDX 97 63 96 64 52 66 84 67 64 68 83 69 65 70 68 71 82 72 101 73
REMARK SMILES IDX 66 74 67 75 81 77 102 78 69 79 53 80 54 81 62 82 55 83 56 84
REMARK SMILES IDX 60 85 63 86 57 87 58 88 61 89 59 90 85 91 86 92 94 93 87 94
REMARK SMILES IDX 88 95 92 96 95 97 89 98 90 99 93 100 91 101 70 102 71 103
REMARK SMILES IDX 79 104 72 105 73 106 77 107 80 108 74 109 75 110 78 111
REMARK SMILES IDX 76 112
REMARK H PARENT 25 16 11 22 100 65 68 76
REMARK Flexibility Score: inf
ROOT
ATOM      1  O   UNL     1      -5.023   2.693  -6.558  1.00  0.00    -0.376 OA
ENDROOT
BRANCH   1   2
ATOM      2  C   UNL     1      -4.290   2.022  -7.582  1.00  0.00     0.202 C 
BRANCH   2   3
ATOM      3  C   UNL     1      -2.774   1.800  -7.402  1.00  0.00     0.261 C 
BRANCH   3   4
ATOM      4  O   UNL     1      -2.406   1.178  -6.154  1.00  0.00    -0.460 OA
BRANCH   4   5
ATOM      5  C   UNL     1      -1.557   1.893  -5.385  1.00  0.00     0.338 C 
ATOM      6  O   UNL     1      -0.933   2.893  -5.702  1.00  0.00    -0.246 OA
BRANCH   5   7
ATOM      7  C   UNL     1      -1.625   1.442  -3.988  1.00  0.00     0.060 A 
ATOM      8  C   UNL     1      -1.585   0.399  -0.408  1.00  0.00     0.041 A 
ATOM      9  C   UNL     1      -1.472   2.123  -0.791  1.00  0.00     0.027 A 
ATOM     10  C   UNL     1      -1.792  -0.742  -1.737  1.00  0.00     0.027 A 
ATOM     11  C   UNL     1      -1.439   2.709  -2.723  1.00  0.00     0.018 A 
ATOM     12  C   UNL     1      -1.818  -0.237  -3.458  1.00  0.00     0.018 A 
BRANCH   8  13
ATOM     13  N   UNL     1      -0.768   0.079   0.695  1.00  0.00    -0.321 N 
ATOM     14  C   UNL     1       0.224   0.969   1.114  1.00  0.00     0.272 C 
ATOM     15  O   UNL     1       0.164   1.520   2.213  1.00  0.00    -0.267 OA
ATOM     16  H   UNL     1      -0.898  -0.773   1.171  1.00  0.00     0.170 HD
BRANCH  14  17
ATOM     17  C   UNL     1       1.484   1.137   0.245  1.00  0.00     0.108 C 
ATOM     18  C   UNL     1       1.577   1.909  -0.877  1.00  0.00     0.040 C 
BRANCH  17  19
ATOM     19  N   UNL     1       2.642   0.463   0.612  1.00  0.00    -0.317 N 
ATOM     20  C   UNL     1       3.030  -0.363   1.644  1.00  0.00     0.259 C 
ATOM     21  O   UNL     1       4.164  -0.849   1.589  1.00  0.00    -0.269 OA
ATOM     22  H   UNL     1       3.373   0.613  -0.031  1.00  0.00     0.170 HD
BRANCH  20  23
ATOM     23  C   UNL     1       2.239  -0.632   2.858  1.00  0.00     0.082 A 
ATOM     24  C   UNL     1       1.025  -1.323   2.927  1.00  0.00     0.131 A 
ATOM     25  C   UNL     1       0.312  -1.306   4.137  1.00  0.00     0.047 A 
ATOM     26  C   UNL     1       0.864  -0.758   5.296  1.00  0.00     0.004 A 
ATOM     27  C   UNL     1       2.829  -0.160   4.048  1.00  0.00     0.018 A 
ATOM     28  C   UNL     1       2.150  -0.235   5.263  1.00  0.00     0.001 A 
BRANCH  24  29
ATOM     29  O   UNL     1       0.369  -2.013   1.945  1.00  0.00    -0.496 OA
ATOM     30  C   UNL     1       1.138  -2.564   0.883  1.00  0.00     0.278 C 
ENDBRANCH  24  29
ENDBRANCH  20  23
ENDBRANCH  17  19
BRANCH  18  31
ATOM     31  C   UNL     1       0.428   2.474  -1.618  1.00  0.00    -0.019 A 
ATOM     32  C   UNL     1      -0.618   1.114  -2.148  1.00  0.00     0.012 A 
ATOM     33  C   UNL     1      -0.350   4.008  -1.178  1.00  0.00     0.058 A 
ATOM     34  C   UNL     1      -2.624   1.357  -2.083  1.00  0.00     0.051 A 
ATOM     35  C   UNL     1      -2.116   4.202  -1.179  1.00  0.00     0.166 A 
ATOM     36  C   UNL     1      -3.244   2.961  -1.597  1.00  0.00     0.165 A 
ATOM     37  O   UNL     1      -2.798   5.043  -0.322  1.00  0.00    -0.454 OA
ATOM     38  O   UNL     1      -4.412   3.216  -0.938  1.00  0.00    -0.454 OA
ATOM     39  C   UNL     1      -3.946   4.202   0.043  1.00  0.00     0.468 C 
ENDBRANCH  18  31
ENDBRANCH  14  17
ENDBRANCH   8  13
ENDBRANCH   5   7
ENDBRANCH   4   5
ENDBRANCH   3   4
ENDBRANCH   2   3
ENDBRANCH   1   2
BRANCH   1  40
ATOM     40  C   UNL     1      -4.883   2.245  -5.215  1.00  0.00     0.188 C 
BRANCH  40  41
ATOM     41  C   UNL     1      -5.014   0.742  -4.909  1.00  0.00     0.188 C 
BRANCH  41  42
ATOM     42  O   UNL     1      -4.916  -0.101  -6.038  1.00  0.00    -0.376 OA
BRANCH  42  43
ATOM     43  C   UNL     1      -5.945  -1.063  -6.213  1.00  0.00     0.202 C 
BRANCH  43  44
ATOM     44  C   UNL     1      -7.355  -0.511  -6.501  1.00  0.00     0.261 C 
BRANCH  44  45
ATOM     45  O   UNL     1      -7.853   0.470  -5.570  1.00  0.00    -0.460 OA
BRANCH  45  46
ATOM     46  C   UNL     1      -8.201   0.014  -4.343  1.00  0.00     0.338 C 
ATOM     47  O   UNL     1      -8.178  -1.144  -3.964  1.00  0.00    -0.246 OA
BRANCH  46  48
ATOM     48  C   UNL     1      -8.387   1.176  -3.439  1.00  0.00     0.060 A 
ATOM     49  C   UNL     1      -7.620   1.233  -2.267  1.00  0.00     0.016 A 
ATOM     50  C   UNL     1      -9.307   2.188  -3.721  1.00  0.00     0.016 A 
ATOM     51  C   UNL     1      -7.805   2.273  -1.355  1.00  0.00     0.010 A 
ATOM     52  C   UNL     1      -9.502   3.225  -2.795  1.00  0.00     0.010 A 
ATOM     53  C   UNL     1      -8.779   3.253  -1.589  1.00  0.00    -0.014 A 
BRANCH  53  54
ATOM     54  C   UNL     1      -9.140   4.194  -0.493  1.00  0.00     0.031 A 
ATOM     55  C   UNL     1     -10.354   3.902   0.348  1.00  0.00     0.074 A 
ATOM     56  C   UNL     1      -8.374   5.261  -0.202  1.00  0.00     0.049 A 
ATOM     57  N   UNL     1     -10.828   4.549   1.384  1.00  0.00    -0.248 NA
ATOM     58  C   UNL     1     -11.143   2.720  -0.033  1.00  0.00     0.031 C 
ATOM     59  C   UNL     1      -7.170   5.657  -0.923  1.00  0.00     0.029 A 
ATOM     60  N   UNL     1      -8.500   6.206   0.789  1.00  0.00    -0.354 N 
ATOM     61  C   UNL     1     -11.966   3.856   1.776  1.00  0.00     0.074 A 
ATOM     62  C   UNL     1     -12.134   2.761   0.845  1.00  0.00     0.031 C 
ATOM     63  C   UNL     1      -6.660   6.761  -0.348  1.00  0.00     0.029 A 
ATOM     64  C   UNL     1      -7.514   7.162   0.769  1.00  0.00     0.049 A 
ATOM     65  H   UNL     1      -9.228   6.197   1.452  1.00  0.00     0.167 HD
ATOM     66  C   UNL     1     -12.792   4.100   2.822  1.00  0.00     0.037 A 
ATOM     67  C   UNL     1      -7.326   8.240   1.556  1.00  0.00     0.037 A 
ATOM     68  C   UNL     1     -12.637   5.191   3.749  1.00  0.00     0.049 A 
ATOM     69  C   UNL     1      -8.287   8.517   2.685  1.00  0.00     0.074 A 
ATOM     70  C   UNL     1     -13.416   5.506   4.850  1.00  0.00     0.029 A 
ATOM     71  N   UNL     1     -11.642   6.155   3.678  1.00  0.00    -0.354 N 
ATOM     72  N   UNL     1      -9.335   7.832   3.073  1.00  0.00    -0.248 NA
ATOM     73  C   UNL     1      -8.030   9.719   3.492  1.00  0.00     0.031 C 
ATOM     74  C   UNL     1     -12.927   6.692   5.410  1.00  0.00     0.029 A 
ATOM     75  C   UNL     1     -11.802   7.079   4.701  1.00  0.00     0.049 A 
ATOM     76  H   UNL     1     -10.928   6.180   3.001  1.00  0.00     0.167 HD
ATOM     77  C   UNL     1      -9.843   8.501   4.181  1.00  0.00     0.074 A 
ATOM     78  C   UNL     1      -8.973   9.633   4.418  1.00  0.00     0.031 C 
ATOM     79  C   UNL     1     -10.932   8.203   4.934  1.00  0.00     0.037 A 
BRANCH  66  80
ATOM     80  C   UNL     1     -13.963   3.177   3.007  1.00  0.00     0.064 A 
ATOM     81  C   UNL     1     -13.798   1.847   3.424  1.00  0.00     0.173 A 
ATOM     82  C   UNL     1     -15.271   3.639   2.794  1.00  0.00     0.173 A 
ATOM     83  F   UNL     1     -12.568   1.351   3.628  1.00  0.00    -0.203 F 
ATOM     84  C   UNL     1     -14.896   1.007   3.594  1.00  0.00     0.198 A 
ATOM     85  C   UNL     1     -16.368   2.806   2.997  1.00  0.00     0.198 A 
ATOM     86  F   UNL     1     -15.487   4.902   2.399  1.00  0.00    -0.203 F 
ATOM     87  F   UNL     1     -14.710  -0.273   3.944  1.00  0.00    -0.200 F 
ATOM     88  C   UNL     1     -16.180   1.489   3.389  1.00  0.00     0.200 A 
ATOM     89  F   UNL     1     -17.609   3.278   2.812  1.00  0.00    -0.200 F 
ATOM     90  F   UNL     1     -17.236   0.682   3.561  1.00  0.00    -0.200 F 
ENDBRANCH  66  80
BRANCH  67  91
ATOM     91  C   UNL     1      -6.176   9.153   1.309  1.00  0.00     0.064 A 
ATOM     92  C   UNL     1      -5.131   9.274   2.236  1.00  0.00     0.173 A 
ATOM     93  C   UNL     1      -6.121   9.952   0.158  1.00  0.00     0.173 A 
ATOM     94  F   UNL     1      -5.153   8.555   3.368  1.00  0.00    -0.203 F 
ATOM     95  C   UNL     1      -4.089  10.178   2.033  1.00  0.00     0.198 A 
ATOM     96  C   UNL     1      -5.062  10.830  -0.060  1.00  0.00     0.198 A 
ATOM     97  F   UNL     1      -7.098   9.880  -0.757  1.00  0.00    -0.203 F 
ATOM     98  F   UNL     1      -3.137  10.320   2.966  1.00  0.00    -0.200 F 
ATOM     99  C   UNL     1      -4.052  10.951   0.882  1.00  0.00     0.200 A 
ATOM    100  F   UNL     1      -5.026  11.569  -1.178  1.00  0.00    -0.200 F 
ATOM    101  F   UNL     1      -3.053  11.822   0.689  1.00  0.00    -0.200 F 
ENDBRANCH  67  91
BRANCH  79 102
ATOM    102  C   UNL     1     -11.218   9.091   6.116  1.00  0.00     0.064 A 
ATOM    103  C   UNL     1     -11.632  10.424   5.963  1.00  0.00     0.173 A 
ATOM    104  C   UNL     1     -11.079   8.598   7.423  1.00  0.00     0.173 A 
ATOM    105  F   UNL     1     -11.771  10.951   4.737  1.00  0.00    -0.203 F 
ATOM    106  C   UNL     1     -11.847  11.241   7.071  1.00  0.00     0.198 A 
ATOM    107  C   UNL     1     -11.332   9.407   8.529  1.00  0.00     0.198 A 
ATOM    108  F   UNL     1     -10.700   7.329   7.632  1.00  0.00    -0.203 F 
ATOM    109  F   UNL     1     -12.171  12.530   6.897  1.00  0.00    -0.200 F 
ATOM    110  C   UNL     1     -11.701  10.731   8.352  1.00  0.00     0.200 A 
ATOM    111  F   UNL     1     -11.208   8.906   9.766  1.00  0.00    -0.200 F 
ATOM    112  F   UNL     1     -11.905  11.520   9.416  1.00  0.00    -0.200 F 
ENDBRANCH  79 102
ENDBRANCH  53  54
ENDBRANCH  46  48
ENDBRANCH  45  46
ENDBRANCH  44  45
ENDBRANCH  43  44
ENDBRANCH  42  43
ENDBRANCH  41  42
ENDBRANCH  40  41
ENDBRANCH   1  40
TORSDOF 23
