REMARK SMILES C[C@@H]([NH+]1CCC(n2cccc2C(=O)OCCOCCOCCOC(=O)c2ccc(-c3c4nc(c(-c5c(F)c(F)c(F)c(F)c5F)c5ccc([nH]5)c(-c5c(F)c(F)c(F)c(F)c5F)c5nc(c(-c6c(F)c(F)c(F)c(F)c6F)c6ccc3[nH]6)C=C5)C=C4)cc2)CC1)C1(C)CC1
REMARK SMILES IDX 18 1 17 2 16 3 15 4 14 5 12 6 13 7 11 8 7 9 8 10 9 11 10 12
REMARK SMILES IDX 6 13 3 14 4 15 90 16 5 18 89 19 2 20 1 21 91 22 92 23 93 24
REMARK SMILES IDX 94 25 19 26 20 27 21 28 22 29 23 30 24 31 25 32 26 33 27 34
REMARK SMILES IDX 88 35 28 36 87 37 29 38 30 39 31 40 81 41 32 42 86 43 80 44
REMARK SMILES IDX 82 45 33 46 85 47 79 48 78 49 34 51 66 52 46 53 65 54 47 55
REMARK SMILES IDX 50 56 64 57 83 58 48 59 49 60 63 62 84 63 51 64 35 65 36 66
REMARK SMILES IDX 44 67 37 68 38 69 42 70 45 71 39 72 40 73 43 74 41 75 67 76
REMARK SMILES IDX 68 77 76 78 69 79 70 80 74 81 77 82 71 83 72 84 75 85 73 86
REMARK SMILES IDX 52 87 53 88 61 89 54 90 55 91 59 92 62 93 56 94 57 95 60 96
REMARK SMILES IDX 58 97
REMARK H PARENT 3 17 82 50 50 61
REMARK Flexibility Score: inf
ROOT
ATOM      1  C   UNL     1       4.481  -1.014  -6.728  1.00  0.00     0.188 C 
ENDROOT
BRANCH   1   2
ATOM      2  O   UNL     1       4.305   0.384  -6.676  1.00  0.00    -0.376 OA
BRANCH   2   3
ATOM      3  C   UNL     1       3.209   1.011  -7.327  1.00  0.00     0.202 C 
BRANCH   3   4
ATOM      4  C   UNL     1       1.930   0.263  -7.735  1.00  0.00     0.261 C 
BRANCH   4   5
ATOM      5  O   UNL     1       1.773  -0.985  -7.073  1.00  0.00    -0.459 OA
BRANCH   5   6
ATOM      6  C   UNL     1       1.022  -1.926  -7.719  1.00  0.00     0.355 C 
ATOM      7  O   UNL     1       0.513  -1.767  -8.803  1.00  0.00    -0.244 OA
BRANCH   6   8
ATOM      8  C   UNL     1       1.080  -3.178  -6.987  1.00  0.00     0.127 A 
ATOM      9  N   UNL     1       0.766  -3.485  -5.661  1.00  0.00    -0.339 N 
ATOM     10  C   UNL     1       0.883  -4.860  -5.511  1.00  0.00     0.086 A 
ATOM     11  C   UNL     1       1.394  -5.409  -6.660  1.00  0.00     0.020 A 
ATOM     12  C   UNL     1       1.498  -4.362  -7.588  1.00  0.00     0.035 A 
BRANCH   9  13
ATOM     13  C   UNL     1       0.237  -2.637  -4.565  1.00  0.00     0.098 C 
ATOM     14  N   UNL     1       0.415  -0.709  -2.317  1.00  0.00    -0.332 N 
ATOM     15  C   UNL     1       0.294  -2.135  -2.048  1.00  0.00     0.264 C 
ATOM     16  C   UNL     1      -0.104  -0.292  -3.607  1.00  0.00     0.264 C 
ATOM     17  H   UNL     1       1.427  -0.605  -2.395  1.00  0.00     0.348 HD
ATOM     18  C   UNL     1       0.841  -3.001  -3.190  1.00  0.00     0.087 C 
ATOM     19  C   UNL     1       0.400  -1.134  -4.759  1.00  0.00     0.087 C 
BRANCH  14  20
ATOM     20  C   UNL     1       0.114   0.215  -1.205  1.00  0.00     0.186 C 
ATOM     21  C   UNL     1       1.072  -0.084  -0.031  1.00  0.00     0.076 C 
BRANCH  20  22
ATOM     22  C   UNL     1      -1.363   0.387  -0.750  1.00  0.00     0.019 C 
ATOM     23  C   UNL     1      -1.562   0.758   0.707  1.00  0.00     0.018 C 
ATOM     24  C   UNL     1      -2.288   1.141  -1.700  1.00  0.00     0.013 C 
ATOM     25  C   UNL     1      -2.542  -0.310  -1.417  1.00  0.00     0.013 C 
ENDBRANCH  20  22
ENDBRANCH  14  20
ENDBRANCH   9  13
ENDBRANCH   6   8
ENDBRANCH   5   6
ENDBRANCH   4   5
ENDBRANCH   3   4
ENDBRANCH   2   3
ENDBRANCH   1   2
BRANCH   1  26
ATOM     26  C   UNL     1       4.151  -1.785  -5.429  1.00  0.00     0.188 C 
BRANCH  26  27
ATOM     27  O   UNL     1       3.736  -1.177  -4.214  1.00  0.00    -0.376 OA
BRANCH  27  28
ATOM     28  C   UNL     1       3.929   0.197  -3.943  1.00  0.00     0.202 C 
BRANCH  28  29
ATOM     29  C   UNL     1       5.359   0.709  -3.754  1.00  0.00     0.261 C 
BRANCH  29  30
ATOM     30  O   UNL     1       6.375  -0.089  -4.349  1.00  0.00    -0.460 OA
BRANCH  30  31
ATOM     31  C   UNL     1       6.676  -1.174  -3.605  1.00  0.00     0.338 C 
ATOM     32  O   UNL     1       6.119  -1.592  -2.605  1.00  0.00    -0.246 OA
BRANCH  31  33
ATOM     33  C   UNL     1       7.881  -1.797  -4.137  1.00  0.00     0.060 A 
ATOM     34  C   UNL     1       7.916  -3.191  -4.219  1.00  0.00     0.016 A 
ATOM     35  C   UNL     1       9.021  -1.006  -4.318  1.00  0.00     0.016 A 
ATOM     36  C   UNL     1       9.134  -3.814  -4.406  1.00  0.00     0.010 A 
ATOM     37  C   UNL     1      10.244  -1.630  -4.466  1.00  0.00     0.010 A 
ATOM     38  C   UNL     1      10.294  -3.031  -4.479  1.00  0.00    -0.014 A 
BRANCH  38  39
ATOM     39  C   UNL     1      11.586  -3.720  -4.613  1.00  0.00     0.031 A 
ATOM     40  C   UNL     1      11.977  -3.941  -6.075  1.00  0.00     0.074 A 
ATOM     41  C   UNL     1      12.189  -4.057  -3.434  1.00  0.00     0.049 A 
ATOM     42  N   UNL     1      12.835  -4.764  -6.594  1.00  0.00    -0.248 NA
ATOM     43  C   UNL     1      11.280  -3.151  -7.129  1.00  0.00     0.031 C 
ATOM     44  C   UNL     1      11.649  -3.728  -2.096  1.00  0.00     0.029 A 
ATOM     45  N   UNL     1      13.342  -4.738  -3.104  1.00  0.00    -0.354 N 
ATOM     46  C   UNL     1      12.936  -4.448  -7.963  1.00  0.00     0.074 A 
ATOM     47  C   UNL     1      11.882  -3.527  -8.256  1.00  0.00     0.031 C 
ATOM     48  C   UNL     1      12.412  -4.266  -1.123  1.00  0.00     0.029 A 
ATOM     49  C   UNL     1      13.534  -4.965  -1.715  1.00  0.00     0.049 A 
ATOM     50  H   UNL     1      13.985  -5.046  -3.782  1.00  0.00     0.167 HD
ATOM     51  C   UNL     1      13.972  -4.856  -8.748  1.00  0.00     0.037 A 
ATOM     52  C   UNL     1      14.507  -5.694  -1.087  1.00  0.00     0.037 A 
ATOM     53  C   UNL     1      14.824  -5.744  -8.035  1.00  0.00     0.049 A 
ATOM     54  C   UNL     1      15.437  -6.089  -2.155  1.00  0.00     0.074 A 
ATOM     55  C   UNL     1      14.714  -7.061  -7.682  1.00  0.00     0.029 A 
ATOM     56  N   UNL     1      15.866  -5.186  -7.340  1.00  0.00    -0.354 N 
ATOM     57  N   UNL     1      16.300  -5.293  -2.711  1.00  0.00    -0.248 NA
ATOM     58  C   UNL     1      15.340  -7.442  -2.715  1.00  0.00     0.031 C 
ATOM     59  C   UNL     1      15.469  -7.174  -6.494  1.00  0.00     0.029 A 
ATOM     60  C   UNL     1      16.072  -5.944  -6.213  1.00  0.00     0.049 A 
ATOM     61  H   UNL     1      16.376  -4.385  -7.601  1.00  0.00     0.167 HD
ATOM     62  C   UNL     1      16.607  -5.957  -3.876  1.00  0.00     0.074 A 
ATOM     63  C   UNL     1      16.267  -7.343  -3.662  1.00  0.00     0.031 C 
ATOM     64  C   UNL     1      16.623  -5.282  -5.053  1.00  0.00     0.037 A 
BRANCH  51  65
ATOM     65  C   UNL     1      14.452  -4.353 -10.080  1.00  0.00     0.064 A 
ATOM     66  C   UNL     1      15.316  -5.181 -10.837  1.00  0.00     0.173 A 
ATOM     67  C   UNL     1      14.403  -3.003 -10.454  1.00  0.00     0.173 A 
ATOM     68  F   UNL     1      15.398  -6.497 -10.587  1.00  0.00    -0.203 F 
ATOM     69  C   UNL     1      16.175  -4.663 -11.804  1.00  0.00     0.198 A 
ATOM     70  C   UNL     1      15.230  -2.497 -11.461  1.00  0.00     0.198 A 
ATOM     71  F   UNL     1      13.638  -2.125  -9.792  1.00  0.00    -0.203 F 
ATOM     72  F   UNL     1      17.077  -5.462 -12.392  1.00  0.00    -0.200 F 
ATOM     73  C   UNL     1      16.145  -3.316 -12.102  1.00  0.00     0.200 A 
ATOM     74  F   UNL     1      15.193  -1.189 -11.754  1.00  0.00    -0.200 F 
ATOM     75  F   UNL     1      17.018  -2.800 -12.977  1.00  0.00    -0.200 F 
ENDBRANCH  51  65
BRANCH  52  76
ATOM     76  C   UNL     1      14.819  -6.196   0.308  1.00  0.00     0.064 A 
ATOM     77  C   UNL     1      14.239  -5.742   1.500  1.00  0.00     0.173 A 
ATOM     78  C   UNL     1      15.766  -7.246   0.495  1.00  0.00     0.173 A 
ATOM     79  F   UNL     1      13.432  -4.677   1.515  1.00  0.00    -0.203 F 
ATOM     80  C   UNL     1      14.501  -6.351   2.743  1.00  0.00     0.198 A 
ATOM     81  C   UNL     1      16.007  -7.868   1.720  1.00  0.00     0.198 A 
ATOM     82  F   UNL     1      16.508  -7.718  -0.515  1.00  0.00    -0.203 F 
ATOM     83  F   UNL     1      13.905  -5.884   3.850  1.00  0.00    -0.200 F 
ATOM     84  C   UNL     1      15.359  -7.431   2.848  1.00  0.00     0.200 A 
ATOM     85  F   UNL     1      16.863  -8.899   1.784  1.00  0.00    -0.200 F 
ATOM     86  F   UNL     1      15.573  -8.034   4.025  1.00  0.00    -0.200 F 
ENDBRANCH  52  76
BRANCH  64  87
ATOM     87  C   UNL     1      16.804  -3.787  -4.883  1.00  0.00     0.064 A 
ATOM     88  C   UNL     1      18.013  -3.276  -4.392  1.00  0.00     0.173 A 
ATOM     89  C   UNL     1      15.765  -2.856  -5.058  1.00  0.00     0.173 A 
ATOM     90  F   UNL     1      19.058  -4.097  -4.204  1.00  0.00    -0.203 F 
ATOM     91  C   UNL     1      18.164  -1.920  -4.085  1.00  0.00     0.198 A 
ATOM     92  C   UNL     1      15.913  -1.502  -4.761  1.00  0.00     0.198 A 
ATOM     93  F   UNL     1      14.582  -3.244  -5.529  1.00  0.00    -0.203 F 
ATOM     94  F   UNL     1      19.335  -1.470  -3.614  1.00  0.00    -0.200 F 
ATOM     95  C   UNL     1      17.113  -1.034  -4.267  1.00  0.00     0.200 A 
ATOM     96  F   UNL     1      14.891  -0.655  -4.962  1.00  0.00    -0.200 F 
ATOM     97  F   UNL     1      17.263   0.267  -3.981  1.00  0.00    -0.200 F 
ENDBRANCH  64  87
ENDBRANCH  38  39
ENDBRANCH  31  33
ENDBRANCH  30  31
ENDBRANCH  29  30
ENDBRANCH  28  29
ENDBRANCH  27  28
ENDBRANCH  26  27
ENDBRANCH   1  26
TORSDOF 20
