REMARK SMILES C[C@H](Cc1ccc(C2CC2)cc1)C(=O)OCCOCCOCCOC(=O)c1ccc(-c2c3nc(c(-c4c(F)c(F)c(F)c(F)c4F)c4ccc([nH]4)c(-c4c(F)c(F)c(F)c(F)c4F)c4nc(c(-c5c(F)c(F)c(F)c(F)c5F)c5ccc2[nH]5)C=C4)C=C3)cc1
REMARK SMILES IDX 19 1 18 2 17 3 16 4 15 5 13 6 14 7 2 8 1 9 3 10 4 11 5 12
REMARK SMILES IDX 12 13 6 14 11 15 7 16 8 17 9 18 10 19 20 20 21 21 22 22
REMARK SMILES IDX 23 23 24 24 25 25 26 26 27 27 28 28 89 29 29 30 88 31 30 32
REMARK SMILES IDX 31 33 32 34 82 35 33 36 87 37 81 38 83 39 34 40 86 41 80 42
REMARK SMILES IDX 79 43 35 45 67 46 47 47 66 48 48 49 51 50 65 51 84 52 49 53
REMARK SMILES IDX 50 54 64 56 85 57 52 58 36 59 37 60 45 61 38 62 39 63 43 64
REMARK SMILES IDX 46 65 40 66 41 67 44 68 42 69 68 70 69 71 77 72 70 73 71 74
REMARK SMILES IDX 75 75 78 76 72 77 73 78 76 79 74 80 53 81 54 82 62 83 55 84
REMARK SMILES IDX 56 85 60 86 63 87 57 88 58 89 61 90 59 91
REMARK H PARENT 83 44 51 55
REMARK Flexibility Score: inf
ROOT
ATOM      1  C   UNL     1      -2.398   2.005   0.066  1.00  0.00     0.188 C 
ENDROOT
BRANCH   1   2
ATOM      2  O   UNL     1      -3.729   1.704  -0.317  1.00  0.00    -0.376 OA
BRANCH   2   3
ATOM      3  C   UNL     1      -4.020   0.390  -0.787  1.00  0.00     0.202 C 
BRANCH   3   4
ATOM      4  C   UNL     1      -3.123  -0.256  -1.863  1.00  0.00     0.261 C 
BRANCH   4   5
ATOM      5  O   UNL     1      -1.711  -0.319  -1.553  1.00  0.00    -0.463 OA
BRANCH   5   6
ATOM      6  C   UNL     1      -0.898   0.372  -2.387  1.00  0.00     0.309 C 
ATOM      7  O   UNL     1      -1.308   1.003  -3.360  1.00  0.00    -0.252 OA
BRANCH   6   8
ATOM      8  C   UNL     1       0.572   0.446  -1.970  1.00  0.00     0.100 C 
ATOM      9  C   UNL     1       1.407   0.271  -3.240  1.00  0.00     0.020 C 
BRANCH   8  10
ATOM     10  C   UNL     1       1.066  -0.355  -0.737  1.00  0.00     0.050 C 
BRANCH  10  11
ATOM     11  C   UNL     1       1.758  -1.673  -0.951  1.00  0.00    -0.047 A 
ATOM     12  C   UNL     1       3.009  -1.744  -1.564  1.00  0.00     0.004 A 
ATOM     13  C   UNL     1       1.159  -2.858  -0.520  1.00  0.00     0.004 A 
ATOM     14  C   UNL     1       3.543  -2.977  -1.930  1.00  0.00     0.004 A 
ATOM     15  C   UNL     1       1.726  -4.091  -0.847  1.00  0.00     0.004 A 
ATOM     16  C   UNL     1       2.887  -4.180  -1.633  1.00  0.00    -0.045 A 
BRANCH  16  17
ATOM     17  C   UNL     1       3.425  -5.473  -2.200  1.00  0.00     0.019 C 
ATOM     18  C   UNL     1       3.688  -6.659  -1.313  1.00  0.00     0.009 C 
ATOM     19  C   UNL     1       2.567  -6.710  -2.313  1.00  0.00     0.009 C 
ENDBRANCH  16  17
ENDBRANCH  10  11
ENDBRANCH   8  10
ENDBRANCH   6   8
ENDBRANCH   5   6
ENDBRANCH   4   5
ENDBRANCH   3   4
ENDBRANCH   2   3
ENDBRANCH   1   2
BRANCH   1  20
ATOM     20  C   UNL     1      -1.682   1.061   1.035  1.00  0.00     0.188 C 
BRANCH  20  21
ATOM     21  O   UNL     1      -2.252  -0.219   1.155  1.00  0.00    -0.376 OA
BRANCH  21  22
ATOM     22  C   UNL     1      -2.656  -0.704   2.429  1.00  0.00     0.202 C 
BRANCH  22  23
ATOM     23  C   UNL     1      -3.422   0.185   3.436  1.00  0.00     0.261 C 
BRANCH  23  24
ATOM     24  O   UNL     1      -2.968   1.536   3.626  1.00  0.00    -0.460 OA
BRANCH  24  25
ATOM     25  C   UNL     1      -1.772   1.716   4.236  1.00  0.00     0.338 C 
ATOM     26  O   UNL     1      -1.071   0.852   4.740  1.00  0.00    -0.246 OA
BRANCH  25  27
ATOM     27  C   UNL     1      -1.310   3.094   3.913  1.00  0.00     0.060 A 
ATOM     28  C   UNL     1      -0.079   3.253   3.253  1.00  0.00     0.016 A 
ATOM     29  C   UNL     1      -2.110   4.207   4.173  1.00  0.00     0.016 A 
ATOM     30  C   UNL     1       0.366   4.524   2.880  1.00  0.00     0.010 A 
ATOM     31  C   UNL     1      -1.650   5.483   3.826  1.00  0.00     0.010 A 
ATOM     32  C   UNL     1      -0.397   5.652   3.206  1.00  0.00    -0.014 A 
BRANCH  32  33
ATOM     33  C   UNL     1       0.201   7.010   3.111  1.00  0.00     0.031 A 
ATOM     34  C   UNL     1       0.778   7.613   4.363  1.00  0.00     0.074 A 
ATOM     35  C   UNL     1       0.244   7.698   1.956  1.00  0.00     0.049 A 
ATOM     36  N   UNL     1       1.270   8.809   4.567  1.00  0.00    -0.248 NA
ATOM     37  C   UNL     1       0.793   6.745   5.551  1.00  0.00     0.031 C 
ATOM     38  C   UNL     1      -0.227   7.215   0.662  1.00  0.00     0.029 A 
ATOM     39  N   UNL     1       0.700   8.969   1.697  1.00  0.00    -0.354 N 
ATOM     40  C   UNL     1       1.639   8.839   5.906  1.00  0.00     0.074 A 
ATOM     41  C   UNL     1       1.286   7.556   6.473  1.00  0.00     0.031 C 
ATOM     42  C   UNL     1      -0.053   8.185  -0.254  1.00  0.00     0.029 A 
ATOM     43  C   UNL     1       0.505   9.370   0.398  1.00  0.00     0.049 A 
ATOM     44  H   UNL     1       1.125   9.539   2.378  1.00  0.00     0.167 HD
ATOM     45  C   UNL     1       2.224   9.843   6.601  1.00  0.00     0.037 A 
ATOM     46  C   UNL     1       0.723  10.566  -0.187  1.00  0.00     0.037 A 
ATOM     47  C   UNL     1       2.571  11.121   6.039  1.00  0.00     0.049 A 
ATOM     48  C   UNL     1       1.293  11.702   0.630  1.00  0.00     0.074 A 
ATOM     49  C   UNL     1       3.183  12.197   6.658  1.00  0.00     0.029 A 
ATOM     50  N   UNL     1       2.324  11.501   4.728  1.00  0.00    -0.354 N 
ATOM     51  N   UNL     1       1.660  11.719   1.889  1.00  0.00    -0.248 NA
ATOM     52  C   UNL     1       1.478  12.988  -0.061  1.00  0.00     0.031 C 
ATOM     53  C   UNL     1       3.246  13.251   5.741  1.00  0.00     0.029 A 
ATOM     54  C   UNL     1       2.741  12.808   4.529  1.00  0.00     0.049 A 
ATOM     55  H   UNL     1       1.914  10.928   4.041  1.00  0.00     0.167 HD
ATOM     56  C   UNL     1       2.148  12.999   2.130  1.00  0.00     0.074 A 
ATOM     57  C   UNL     1       2.043  13.727   0.884  1.00  0.00     0.031 C 
ATOM     58  C   UNL     1       2.640  13.523   3.281  1.00  0.00     0.037 A 
BRANCH  45  59
ATOM     59  C   UNL     1       2.490   9.609   8.060  1.00  0.00     0.064 A 
ATOM     60  C   UNL     1       3.459   8.695   8.502  1.00  0.00     0.173 A 
ATOM     61  C   UNL     1       1.776  10.326   9.033  1.00  0.00     0.173 A 
ATOM     62  F   UNL     1       4.159   7.971   7.614  1.00  0.00    -0.203 F 
ATOM     63  C   UNL     1       3.679   8.484   9.860  1.00  0.00     0.198 A 
ATOM     64  C   UNL     1       2.024  10.139  10.389  1.00  0.00     0.198 A 
ATOM     65  F   UNL     1       0.840  11.215   8.667  1.00  0.00    -0.203 F 
ATOM     66  F   UNL     1       4.568   7.563  10.258  1.00  0.00    -0.200 F 
ATOM     67  C   UNL     1       2.967   9.211  10.802  1.00  0.00     0.200 A 
ATOM     68  F   UNL     1       1.345  10.854  11.297  1.00  0.00    -0.200 F 
ATOM     69  F   UNL     1       3.185   9.011  12.110  1.00  0.00    -0.200 F 
ENDBRANCH  45  59
BRANCH  46  70
ATOM     70  C   UNL     1       0.386  10.768  -1.623  1.00  0.00     0.064 A 
ATOM     71  C   UNL     1       1.387  11.007  -2.575  1.00  0.00     0.173 A 
ATOM     72  C   UNL     1      -0.945  10.762  -2.066  1.00  0.00     0.173 A 
ATOM     73  F   UNL     1       2.672  11.057  -2.197  1.00  0.00    -0.203 F 
ATOM     74  C   UNL     1       1.069  11.249  -3.911  1.00  0.00     0.198 A 
ATOM     75  C   UNL     1      -1.260  10.971  -3.408  1.00  0.00     0.198 A 
ATOM     76  F   UNL     1      -1.943  10.549  -1.196  1.00  0.00    -0.203 F 
ATOM     77  F   UNL     1       2.042  11.529  -4.789  1.00  0.00    -0.200 F 
ATOM     78  C   UNL     1      -0.254  11.223  -4.327  1.00  0.00     0.200 A 
ATOM     79  F   UNL     1      -2.539  10.937  -3.807  1.00  0.00    -0.200 F 
ATOM     80  F   UNL     1      -0.559  11.454  -5.612  1.00  0.00    -0.200 F 
ENDBRANCH  46  70
BRANCH  58  81
ATOM     81  C   UNL     1       3.149  14.938   3.243  1.00  0.00     0.064 A 
ATOM     82  C   UNL     1       2.286  16.035   3.102  1.00  0.00     0.173 A 
ATOM     83  C   UNL     1       4.520  15.202   3.400  1.00  0.00     0.173 A 
ATOM     84  F   UNL     1       0.969  15.840   2.937  1.00  0.00    -0.203 F 
ATOM     85  C   UNL     1       2.777  17.338   3.089  1.00  0.00     0.198 A 
ATOM     86  C   UNL     1       5.003  16.508   3.423  1.00  0.00     0.198 A 
ATOM     87  F   UNL     1       5.391  14.193   3.550  1.00  0.00    -0.203 F 
ATOM     88  F   UNL     1       1.939  18.366   2.900  1.00  0.00    -0.200 F 
ATOM     89  C   UNL     1       4.133  17.574   3.258  1.00  0.00     0.200 A 
ATOM     90  F   UNL     1       6.312  16.733   3.607  1.00  0.00    -0.200 F 
ATOM     91  F   UNL     1       4.603  18.829   3.256  1.00  0.00    -0.200 F 
ENDBRANCH  58  81
ENDBRANCH  32  33
ENDBRANCH  25  27
ENDBRANCH  24  25
ENDBRANCH  23  24
ENDBRANCH  22  23
ENDBRANCH  21  22
ENDBRANCH  20  21
ENDBRANCH   1  20
TORSDOF 20
