REMARK SMILES O=C(CCc1nc(-c2ccccc2)c(-c2ccccc2)o1)OCCOCCOCCOC(=O)c1ccc(-c2c3nc(c(-c4c(F)c(F)c(F)c(F)c4F)c4ccc([nH]4)c(-c4c(F)c(F)c(F)c(F)c4F)c4nc(c(-c5c(F)c(F)c(F)c(F)c5F)c5ccc2[nH]5)C=C4)C=C3)cc1
REMARK SMILES IDX 26 1 25 2 24 3 23 4 22 5 2 6 1 7 3 8 4 9 5 10 6 11 21 12
REMARK SMILES IDX 7 13 14 14 8 15 9 16 13 17 10 18 12 19 11 20 15 21 16 22
REMARK SMILES IDX 20 23 17 24 19 25 18 26 27 27 28 28 29 29 30 30 31 31 32 32
REMARK SMILES IDX 33 33 34 34 35 35 96 36 36 37 95 38 37 39 38 40 39 41 89 42
REMARK SMILES IDX 40 43 94 44 88 45 90 46 41 47 93 48 87 49 86 50 42 52 74 53
REMARK SMILES IDX 54 54 73 55 55 56 58 57 72 58 91 59 56 60 57 61 71 63 92 64
REMARK SMILES IDX 59 65 43 66 44 67 52 68 45 69 46 70 50 71 53 72 47 73 48 74
REMARK SMILES IDX 51 75 49 76 75 77 76 78 84 79 77 80 78 81 82 82 85 83 79 84
REMARK SMILES IDX 80 85 83 86 81 87 60 88 61 89 69 90 62 91 63 92 67 93 70 94
REMARK SMILES IDX 64 95 65 96 68 97 66 98
REMARK H PARENT 90 51 58 62
REMARK Flexibility Score: inf
ROOT
ATOM      1  C   UNL     1       1.908   1.852   0.897  1.00  0.00     0.188 C 
ENDROOT
BRANCH   1   2
ATOM      2  O   UNL     1       3.220   1.462   1.280  1.00  0.00    -0.376 OA
BRANCH   2   3
ATOM      3  C   UNL     1       4.152   1.228   0.224  1.00  0.00     0.202 C 
BRANCH   3   4
ATOM      4  C   UNL     1       3.615   0.508  -1.016  1.00  0.00     0.261 C 
BRANCH   4   5
ATOM      5  O   UNL     1       2.641  -0.549  -0.846  1.00  0.00    -0.463 OA
BRANCH   5   6
ATOM      6  C   UNL     1       2.651  -1.650  -0.082  1.00  0.00     0.306 C 
ATOM      7  O   UNL     1       1.809  -2.526  -0.283  1.00  0.00    -0.252 OA
BRANCH   6   8
ATOM      8  C   UNL     1       3.626  -1.806   1.045  1.00  0.00     0.132 C 
BRANCH   8   9
ATOM      9  C   UNL     1       4.720  -2.818   0.754  1.00  0.00     0.109 C 
BRANCH   9  10
ATOM     10  C   UNL     1       5.726  -2.403  -0.263  1.00  0.00     0.196 A 
ATOM     11  N   UNL     1       6.351  -3.170  -1.133  1.00  0.00    -0.213 NA
ATOM     12  O   UNL     1       6.053  -1.075  -0.348  1.00  0.00    -0.440 OA
ATOM     13  C   UNL     1       7.101  -2.285  -1.868  1.00  0.00     0.117 A 
ATOM     14  C   UNL     1       6.864  -0.993  -1.449  1.00  0.00     0.162 A 
BRANCH  13  15
ATOM     15  C   UNL     1       7.913  -2.642  -3.005  1.00  0.00     0.004 A 
ATOM     16  C   UNL     1       9.218  -2.141  -3.122  1.00  0.00     0.010 A 
ATOM     17  C   UNL     1       7.377  -3.431  -4.025  1.00  0.00     0.010 A 
ATOM     18  C   UNL     1       9.971  -2.410  -4.262  1.00  0.00     0.001 A 
ATOM     19  C   UNL     1       8.131  -3.692  -5.169  1.00  0.00     0.001 A 
ATOM     20  C   UNL     1       9.424  -3.180  -5.287  1.00  0.00     0.000 A 
ENDBRANCH  13  15
BRANCH  14  21
ATOM     21  C   UNL     1       7.096   0.327  -2.024  1.00  0.00     0.020 A 
ATOM     22  C   UNL     1       7.641   1.387  -1.294  1.00  0.00     0.012 A 
ATOM     23  C   UNL     1       6.730   0.548  -3.365  1.00  0.00     0.012 A 
ATOM     24  C   UNL     1       7.836   2.633  -1.905  1.00  0.00     0.001 A 
ATOM     25  C   UNL     1       6.913   1.792  -3.969  1.00  0.00     0.001 A 
ATOM     26  C   UNL     1       7.474   2.834  -3.239  1.00  0.00     0.000 A 
ENDBRANCH  14  21
ENDBRANCH   9  10
ENDBRANCH   8   9
ENDBRANCH   6   8
ENDBRANCH   5   6
ENDBRANCH   4   5
ENDBRANCH   3   4
ENDBRANCH   2   3
ENDBRANCH   1   2
BRANCH   1  27
ATOM     27  C   UNL     1       1.764   3.207   0.196  1.00  0.00     0.188 C 
BRANCH  27  28
ATOM     28  O   UNL     1       2.905   3.572  -0.574  1.00  0.00    -0.376 OA
BRANCH  28  29
ATOM     29  C   UNL     1       3.477   4.827  -0.201  1.00  0.00     0.202 C 
BRANCH  29  30
ATOM     30  C   UNL     1       4.413   4.795   1.024  1.00  0.00     0.261 C 
BRANCH  30  31
ATOM     31  O   UNL     1       3.906   4.142   2.202  1.00  0.00    -0.460 OA
BRANCH  31  32
ATOM     32  C   UNL     1       2.939   4.777   2.890  1.00  0.00     0.338 C 
ATOM     33  O   UNL     1       2.410   5.842   2.599  1.00  0.00    -0.246 OA
BRANCH  32  34
ATOM     34  C   UNL     1       2.502   3.924   4.014  1.00  0.00     0.060 A 
ATOM     35  C   UNL     1       1.174   3.485   4.053  1.00  0.00     0.016 A 
ATOM     36  C   UNL     1       3.373   3.621   5.065  1.00  0.00     0.016 A 
ATOM     37  C   UNL     1       0.707   2.755   5.148  1.00  0.00     0.010 A 
ATOM     38  C   UNL     1       2.896   2.918   6.179  1.00  0.00     0.010 A 
ATOM     39  C   UNL     1       1.552   2.510   6.240  1.00  0.00    -0.014 A 
BRANCH  39  40
ATOM     40  C   UNL     1       0.957   2.049   7.522  1.00  0.00     0.031 A 
ATOM     41  C   UNL     1       0.477   3.092   8.495  1.00  0.00     0.074 A 
ATOM     42  C   UNL     1       0.797   0.744   7.807  1.00  0.00     0.049 A 
ATOM     43  N   UNL     1      -0.112   2.947   9.655  1.00  0.00    -0.248 NA
ATOM     44  C   UNL     1       0.686   4.494   8.098  1.00  0.00     0.031 C 
ATOM     45  C   UNL     1       1.177  -0.366   6.939  1.00  0.00     0.029 A 
ATOM     46  N   UNL     1       0.263   0.137   8.919  1.00  0.00    -0.354 N 
ATOM     47  C   UNL     1      -0.351   4.235  10.118  1.00  0.00     0.074 A 
ATOM     48  C   UNL     1       0.186   5.148   9.134  1.00  0.00     0.031 C 
ATOM     49  C   UNL     1       0.867  -1.523   7.552  1.00  0.00     0.029 A 
ATOM     50  C   UNL     1       0.286  -1.235   8.864  1.00  0.00     0.049 A 
ATOM     51  H   UNL     1      -0.102   0.639   9.683  1.00  0.00     0.167 HD
ATOM     52  C   UNL     1      -0.972   4.625  11.257  1.00  0.00     0.037 A 
ATOM     53  C   UNL     1      -0.109  -2.148   9.774  1.00  0.00     0.037 A 
ATOM     54  C   UNL     1      -1.489   3.722  12.251  1.00  0.00     0.049 A 
ATOM     55  C   UNL     1      -0.714  -1.687  11.079  1.00  0.00     0.074 A 
ATOM     56  C   UNL     1      -2.140   4.021  13.434  1.00  0.00     0.029 A 
ATOM     57  N   UNL     1      -1.397   2.340  12.183  1.00  0.00    -0.354 N 
ATOM     58  N   UNL     1      -0.976  -0.470  11.490  1.00  0.00    -0.248 NA
ATOM     59  C   UNL     1      -1.083  -2.734  12.044  1.00  0.00     0.031 C 
ATOM     60  C   UNL     1      -2.394   2.822  14.109  1.00  0.00     0.029 A 
ATOM     61  C   UNL     1      -1.953   1.773  13.318  1.00  0.00     0.049 A 
ATOM     62  H   UNL     1      -0.996   1.836  11.438  1.00  0.00     0.167 HD
ATOM     63  C   UNL     1      -1.574  -0.606  12.738  1.00  0.00     0.074 A 
ATOM     64  C   UNL     1      -1.643  -2.025  13.014  1.00  0.00     0.031 C 
ATOM     65  C   UNL     1      -2.028   0.358  13.577  1.00  0.00     0.037 A 
BRANCH  52  66
ATOM     66  C   UNL     1      -1.091   6.100  11.501  1.00  0.00     0.064 A 
ATOM     67  C   UNL     1      -1.957   6.905  10.745  1.00  0.00     0.173 A 
ATOM     68  C   UNL     1      -0.335   6.716  12.510  1.00  0.00     0.173 A 
ATOM     69  F   UNL     1      -2.688   6.367   9.757  1.00  0.00    -0.203 F 
ATOM     70  C   UNL     1      -2.038   8.277  10.970  1.00  0.00     0.198 A 
ATOM     71  C   UNL     1      -0.441   8.082  12.751  1.00  0.00     0.198 A 
ATOM     72  F   UNL     1       0.508   5.991  13.261  1.00  0.00    -0.203 F 
ATOM     73  F   UNL     1      -2.831   9.035  10.200  1.00  0.00    -0.200 F 
ATOM     74  C   UNL     1      -1.285   8.863  11.976  1.00  0.00     0.200 A 
ATOM     75  F   UNL     1       0.281   8.646  13.730  1.00  0.00    -0.200 F 
ATOM     76  F   UNL     1      -1.365  10.183  12.192  1.00  0.00    -0.200 F 
ENDBRANCH  52  66
BRANCH  53  77
ATOM     77  C   UNL     1       0.049  -3.600   9.495  1.00  0.00     0.064 A 
ATOM     78  C   UNL     1      -1.068  -4.429   9.318  1.00  0.00     0.173 A 
ATOM     79  C   UNL     1       1.317  -4.198   9.444  1.00  0.00     0.173 A 
ATOM     80  F   UNL     1      -2.303  -3.912   9.392  1.00  0.00    -0.203 F 
ATOM     81  C   UNL     1      -0.924  -5.802   9.120  1.00  0.00     0.198 A 
ATOM     82  C   UNL     1       1.461  -5.565   9.219  1.00  0.00     0.198 A 
ATOM     83  F   UNL     1       2.418  -3.452   9.618  1.00  0.00    -0.203 F 
ATOM     84  F   UNL     1      -2.010  -6.578   9.009  1.00  0.00    -0.200 F 
ATOM     85  C   UNL     1       0.341  -6.368   9.066  1.00  0.00     0.200 A 
ATOM     86  F   UNL     1       2.686  -6.107   9.161  1.00  0.00    -0.200 F 
ATOM     87  F   UNL     1       0.479  -7.688   8.880  1.00  0.00    -0.200 F 
ENDBRANCH  53  77
BRANCH  65  88
ATOM     88  C   UNL     1      -2.686  -0.086  14.854  1.00  0.00     0.064 A 
ATOM     89  C   UNL     1      -1.952  -0.649  15.908  1.00  0.00     0.173 A 
ATOM     90  C   UNL     1      -4.066   0.094  15.039  1.00  0.00     0.173 A 
ATOM     91  F   UNL     1      -0.633  -0.853  15.779  1.00  0.00    -0.203 F 
ATOM     92  C   UNL     1      -2.580  -1.042  17.088  1.00  0.00     0.198 A 
ATOM     93  C   UNL     1      -4.685  -0.271  16.231  1.00  0.00     0.198 A 
ATOM     94  F   UNL     1      -4.814   0.637  14.066  1.00  0.00    -0.203 F 
ATOM     95  F   UNL     1      -1.867  -1.624  18.062  1.00  0.00    -0.200 F 
ATOM     96  C   UNL     1      -3.944  -0.847  17.251  1.00  0.00     0.200 A 
ATOM     97  F   UNL     1      -6.000  -0.066  16.392  1.00  0.00    -0.200 F 
ATOM     98  F   UNL     1      -4.544  -1.220  18.390  1.00  0.00    -0.200 F 
ENDBRANCH  65  88
ENDBRANCH  39  40
ENDBRANCH  32  34
ENDBRANCH  31  32
ENDBRANCH  30  31
ENDBRANCH  29  30
ENDBRANCH  28  29
ENDBRANCH  27  28
ENDBRANCH   1  27
TORSDOF 21
