REMARK SMILES O=C(OCCOCCOCCOC(=O)C1(C/C=C/c2ccccc2)Cc2ccccc2C1)c1ccc(-c2c3nc(c(-c4c(F)c(F)c(F)c(F)c4F)c4ccc([nH]4)c(-c4c(F)c(F)c(F)c(F)c4F)c4nc(c(-c5c(F)c(F)c(F)c(F)c5F)c5ccc2[nH]5)C=C4)C=C3)cc1
REMARK SMILES IDX 8 1 7 2 6 3 5 4 4 5 3 6 2 7 1 8 33 9 34 10 95 11 35 12 94 13
REMARK SMILES IDX 36 14 37 15 38 16 88 17 39 18 93 19 87 20 89 21 40 22 92 23
REMARK SMILES IDX 86 24 85 25 41 27 73 28 53 29 72 30 54 31 57 32 71 33 90 34
REMARK SMILES IDX 55 35 56 36 70 38 91 39 58 40 42 41 43 42 51 43 44 44 45 45
REMARK SMILES IDX 49 46 52 47 46 48 47 49 50 50 48 51 74 52 75 53 83 54 76 55
REMARK SMILES IDX 77 56 81 57 84 58 78 59 79 60 82 61 80 62 59 63 60 64 68 65
REMARK SMILES IDX 61 66 62 67 66 68 69 69 63 70 64 71 67 72 65 73 9 74 10 75
REMARK SMILES IDX 11 76 12 77 13 78 14 79 15 80 25 81 32 82 26 83 31 84 27 85
REMARK SMILES IDX 30 86 28 87 29 88 16 89 17 90 18 91 19 92 20 93 24 94 21 95
REMARK SMILES IDX 23 96 22 97
REMARK H PARENT 89 26 57 37
REMARK Flexibility Score: inf
ROOT
ATOM      1  C   UNL     1       2.091   0.432  -3.293  1.00  0.00     0.188 C 
ENDROOT
BRANCH   1   2
ATOM      2  C   UNL     1       2.571  -0.047  -1.924  1.00  0.00     0.188 C 
BRANCH   2   3
ATOM      3  O   UNL     1       3.925   0.283  -1.602  1.00  0.00    -0.376 OA
BRANCH   3   4
ATOM      4  C   UNL     1       4.721  -0.860  -1.262  1.00  0.00     0.202 C 
BRANCH   4   5
ATOM      5  C   UNL     1       4.402  -1.518   0.096  1.00  0.00     0.261 C 
BRANCH   5   6
ATOM      6  O   UNL     1       3.046  -1.336   0.547  1.00  0.00    -0.460 OA
BRANCH   6   7
ATOM      7  C   UNL     1       2.491  -0.327   1.260  1.00  0.00     0.338 C 
ATOM      8  O   UNL     1       1.310  -0.437   1.602  1.00  0.00    -0.246 OA
BRANCH   7   9
ATOM      9  C   UNL     1       3.209   0.925   1.655  1.00  0.00     0.060 A 
ATOM     10  C   UNL     1       4.455   1.316   1.172  1.00  0.00     0.016 A 
ATOM     11  C   UNL     1       2.573   1.784   2.572  1.00  0.00     0.016 A 
ATOM     12  C   UNL     1       5.109   2.440   1.645  1.00  0.00     0.010 A 
ATOM     13  C   UNL     1       3.207   2.946   3.032  1.00  0.00     0.010 A 
ATOM     14  C   UNL     1       4.508   3.241   2.604  1.00  0.00    -0.014 A 
BRANCH  14  15
ATOM     15  C   UNL     1       5.372   4.213   3.301  1.00  0.00     0.031 A 
ATOM     16  C   UNL     1       5.835   3.858   4.677  1.00  0.00     0.074 A 
ATOM     17  C   UNL     1       5.887   5.276   2.658  1.00  0.00     0.049 A 
ATOM     18  N   UNL     1       6.611   4.526   5.484  1.00  0.00    -0.248 NA
ATOM     19  C   UNL     1       5.423   2.538   5.189  1.00  0.00     0.031 C 
ATOM     20  C   UNL     1       5.712   5.558   1.240  1.00  0.00     0.029 A 
ATOM     21  N   UNL     1       6.648   6.322   3.100  1.00  0.00    -0.354 N 
ATOM     22  C   UNL     1       6.800   3.700   6.581  1.00  0.00     0.074 A 
ATOM     23  C   UNL     1       6.015   2.507   6.371  1.00  0.00     0.031 C 
ATOM     24  C   UNL     1       6.226   6.760   0.945  1.00  0.00     0.029 A 
ATOM     25  C   UNL     1       6.798   7.313   2.158  1.00  0.00     0.049 A 
ATOM     26  H   UNL     1       7.048   6.361   3.998  1.00  0.00     0.167 HD
ATOM     27  C   UNL     1       7.592   3.920   7.653  1.00  0.00     0.037 A 
ATOM     28  C   UNL     1       7.322   8.543   2.280  1.00  0.00     0.037 A 
ATOM     29  C   UNL     1       8.347   5.129   7.831  1.00  0.00     0.049 A 
ATOM     30  C   UNL     1       7.998   8.868   3.572  1.00  0.00     0.074 A 
ATOM     31  C   UNL     1       9.147   5.503   8.892  1.00  0.00     0.029 A 
ATOM     32  N   UNL     1       8.377   6.175   6.913  1.00  0.00    -0.354 N 
ATOM     33  N   UNL     1       8.134   8.114   4.636  1.00  0.00    -0.248 NA
ATOM     34  C   UNL     1       8.643  10.179   3.665  1.00  0.00     0.031 C 
ATOM     35  C   UNL     1       9.604   6.803   8.648  1.00  0.00     0.029 A 
ATOM     36  C   UNL     1       9.151   7.213   7.402  1.00  0.00     0.049 A 
ATOM     37  H   UNL     1       7.915   6.176   6.044  1.00  0.00     0.167 HD
ATOM     38  C   UNL     1       8.941   8.825   5.504  1.00  0.00     0.074 A 
ATOM     39  C   UNL     1       9.239  10.085   4.846  1.00  0.00     0.031 C 
ATOM     40  C   UNL     1       9.419   8.455   6.717  1.00  0.00     0.037 A 
BRANCH  27  41
ATOM     41  C   UNL     1       7.598   2.861   8.715  1.00  0.00     0.064 A 
ATOM     42  C   UNL     1       8.169   1.595   8.507  1.00  0.00     0.173 A 
ATOM     43  C   UNL     1       6.957   3.097   9.939  1.00  0.00     0.173 A 
ATOM     44  F   UNL     1       8.761   1.303   7.339  1.00  0.00    -0.203 F 
ATOM     45  C   UNL     1       8.064   0.595   9.472  1.00  0.00     0.198 A 
ATOM     46  C   UNL     1       6.881   2.105  10.913  1.00  0.00     0.198 A 
ATOM     47  F   UNL     1       6.381   4.284  10.182  1.00  0.00    -0.203 F 
ATOM     48  F   UNL     1       8.550  -0.629   9.222  1.00  0.00    -0.200 F 
ATOM     49  C   UNL     1       7.423   0.852  10.674  1.00  0.00     0.200 A 
ATOM     50  F   UNL     1       6.261   2.356  12.074  1.00  0.00    -0.200 F 
ATOM     51  F   UNL     1       7.310  -0.115  11.595  1.00  0.00    -0.200 F 
ENDBRANCH  27  41
BRANCH  28  52
ATOM     52  C   UNL     1       7.238   9.513   1.162  1.00  0.00     0.064 A 
ATOM     53  C   UNL     1       8.351   9.820   0.372  1.00  0.00     0.173 A 
ATOM     54  C   UNL     1       6.026  10.155   0.864  1.00  0.00     0.173 A 
ATOM     55  F   UNL     1       9.535   9.249   0.634  1.00  0.00    -0.203 F 
ATOM     56  C   UNL     1       8.260  10.743  -0.669  1.00  0.00     0.198 A 
ATOM     57  C   UNL     1       5.930  11.060  -0.192  1.00  0.00     0.198 A 
ATOM     58  F   UNL     1       4.940   9.918   1.614  1.00  0.00    -0.203 F 
ATOM     59  F   UNL     1       9.350  11.052  -1.385  1.00  0.00    -0.200 F 
ATOM     60  C   UNL     1       7.049  11.358  -0.954  1.00  0.00     0.200 A 
ATOM     61  F   UNL     1       4.759  11.655  -0.460  1.00  0.00    -0.200 F 
ATOM     62  F   UNL     1       6.965  12.250  -1.951  1.00  0.00    -0.200 F 
ENDBRANCH  28  52
BRANCH  40  63
ATOM     63  C   UNL     1      10.370   9.408   7.370  1.00  0.00     0.064 A 
ATOM     64  C   UNL     1       9.946  10.639   7.888  1.00  0.00     0.173 A 
ATOM     65  C   UNL     1      11.726   9.069   7.485  1.00  0.00     0.173 A 
ATOM     66  F   UNL     1       8.662  11.013   7.779  1.00  0.00    -0.203 F 
ATOM     67  C   UNL     1      10.857  11.516   8.465  1.00  0.00     0.198 A 
ATOM     68  C   UNL     1      12.626   9.931   8.100  1.00  0.00     0.198 A 
ATOM     69  F   UNL     1      12.176   7.899   7.006  1.00  0.00    -0.203 F 
ATOM     70  F   UNL     1      10.447  12.719   8.891  1.00  0.00    -0.200 F 
ATOM     71  C   UNL     1      12.193  11.158   8.578  1.00  0.00     0.200 A 
ATOM     72  F   UNL     1      13.912   9.576   8.222  1.00  0.00    -0.200 F 
ATOM     73  F   UNL     1      13.068  12.004   9.139  1.00  0.00    -0.200 F 
ENDBRANCH  40  63
ENDBRANCH  14  15
ENDBRANCH   7   9
ENDBRANCH   6   7
ENDBRANCH   5   6
ENDBRANCH   4   5
ENDBRANCH   3   4
ENDBRANCH   2   3
ENDBRANCH   1   2
BRANCH   1  74
ATOM     74  O   UNL     1       2.861   0.060  -4.425  1.00  0.00    -0.376 OA
BRANCH  74  75
ATOM     75  C   UNL     1       4.221   0.469  -4.459  1.00  0.00     0.202 C 
BRANCH  75  76
ATOM     76  C   UNL     1       4.567   1.965  -4.363  1.00  0.00     0.261 C 
BRANCH  76  77
ATOM     77  O   UNL     1       3.949   2.711  -3.290  1.00  0.00    -0.463 OA
BRANCH  77  78
ATOM     78  C   UNL     1       3.047   3.643  -3.700  1.00  0.00     0.313 C 
ATOM     79  O   UNL     1       2.710   3.787  -4.874  1.00  0.00    -0.252 OA
BRANCH  78  80
ATOM     80  C   UNL     1       2.486   4.540  -2.597  1.00  0.00     0.079 C 
ATOM     81  C   UNL     1       3.269   4.614  -1.268  1.00  0.00     0.055 C 
ATOM     82  C   UNL     1       2.636   5.980  -3.187  1.00  0.00     0.055 C 
ATOM     83  C   UNL     1       2.966   6.029  -0.843  1.00  0.00    -0.044 A 
ATOM     84  C   UNL     1       2.728   6.824  -1.963  1.00  0.00    -0.044 A 
ATOM     85  C   UNL     1       2.894   6.583   0.422  1.00  0.00     0.004 A 
ATOM     86  C   UNL     1       2.581   8.196  -1.869  1.00  0.00     0.004 A 
ATOM     87  C   UNL     1       2.723   7.966   0.539  1.00  0.00     0.000 A 
ATOM     88  C   UNL     1       2.598   8.771  -0.602  1.00  0.00     0.000 A 
BRANCH  80  89
ATOM     89  C   UNL     1       1.025   4.157  -2.210  1.00  0.00     0.047 C 
BRANCH  89  90
ATOM     90  C   UNL     1       0.094   3.928  -3.353  1.00  0.00    -0.025 C 
ATOM     91  C   UNL     1      -0.628   2.806  -3.491  1.00  0.00     0.004 C 
BRANCH  91  92
ATOM     92  C   UNL     1      -1.338   2.507  -4.734  1.00  0.00    -0.026 A 
ATOM     93  C   UNL     1      -2.598   1.907  -4.698  1.00  0.00     0.008 A 
ATOM     94  C   UNL     1      -0.720   2.738  -5.971  1.00  0.00     0.008 A 
ATOM     95  C   UNL     1      -3.247   1.580  -5.890  1.00  0.00     0.001 A 
ATOM     96  C   UNL     1      -1.369   2.416  -7.159  1.00  0.00     0.001 A 
ATOM     97  C   UNL     1      -2.636   1.839  -7.117  1.00  0.00     0.000 A 
ENDBRANCH  91  92
ENDBRANCH  89  90
ENDBRANCH  80  89
ENDBRANCH  78  80
ENDBRANCH  77  78
ENDBRANCH  76  77
ENDBRANCH  75  76
ENDBRANCH  74  75
ENDBRANCH   1  74
TORSDOF 20
