REMARK SMILES Nc1cc(C(=O)OCCOCCOCCOC(=O)c2ccc(-c3c4nc(c(-c5c(F)c(F)c(F)c(F)c5F)c5ccc([nH]5)c(-c5c(F)c(F)c(F)c(F)c5F)c5nc(c(-c6c(F)c(F)c(F)c(F)c6F)c6ccc3[nH]6)C=C5)C=C4)cc2)c(O)c([N+](=O)[O-])c1
REMARK SMILES IDX 12 1 11 2 10 3 9 4 8 5 7 6 5 7 6 8 4 9 2 10 3 11 88 12 84 13
REMARK SMILES IDX 82 14 1 15 85 18 86 19 87 20 83 21 13 23 14 24 15 25 16 26
REMARK SMILES IDX 17 27 18 28 19 29 20 30 81 31 21 32 80 33 22 34 23 35 24 36
REMARK SMILES IDX 74 37 25 38 79 39 73 40 75 41 26 42 78 43 72 44 71 45 27 47
REMARK SMILES IDX 59 48 39 49 58 50 40 51 43 52 57 53 76 54 41 55 42 56 56 58
REMARK SMILES IDX 77 59 44 60 28 61 29 62 37 63 30 64 31 65 35 66 38 67 32 68
REMARK SMILES IDX 33 69 36 70 34 71 60 72 61 73 69 74 62 75 63 76 67 77 70 78
REMARK SMILES IDX 64 79 65 80 68 81 66 82 45 83 46 84 54 85 47 86 48 87 52 88
REMARK SMILES IDX 55 89 49 90 50 91 53 92 51 93
REMARK H PARENT 1 16 1 17 83 22 75 46 43 57
REMARK Flexibility Score: inf
ROOT
ATOM      1  C   UNL     1       1.800   2.738  -2.059  1.00  0.00     0.188 C 
ENDROOT
BRANCH   1   2
ATOM      2  C   UNL     1       1.232   3.935  -1.266  1.00  0.00     0.188 C 
BRANCH   2   3
ATOM      3  O   UNL     1       2.070   4.996  -0.850  1.00  0.00    -0.376 OA
BRANCH   3   4
ATOM      4  C   UNL     1       3.192   4.725  -0.021  1.00  0.00     0.202 C 
BRANCH   4   5
ATOM      5  C   UNL     1       3.047   3.825   1.206  1.00  0.00     0.261 C 
BRANCH   5   6
ATOM      6  O   UNL     1       2.509   2.535   0.887  1.00  0.00    -0.460 OA
BRANCH   6   7
ATOM      7  C   UNL     1       1.490   2.122   1.677  1.00  0.00     0.342 C 
ATOM      8  O   UNL     1       1.008   2.719   2.627  1.00  0.00    -0.246 OA
BRANCH   7   9
ATOM      9  C   UNL     1       0.840   0.933   1.091  1.00  0.00     0.111 A 
ATOM     10  C   UNL     1      -1.269  -0.022   0.322  1.00  0.00     0.039 A 
ATOM     11  C   UNL     1      -0.544   1.039   0.858  1.00  0.00     0.045 A 
ATOM     12  C   UNL     1      -0.588  -1.191  -0.014  1.00  0.00     0.115 A 
ATOM     13  C   UNL     1       0.796  -1.303   0.222  1.00  0.00     0.313 A 
ATOM     14  C   UNL     1       1.529  -0.238   0.765  1.00  0.00     0.209 A 
BRANCH  10  15
ATOM     15  N   UNL     1      -2.606   0.133   0.001  1.00  0.00    -0.398 N 
ATOM     16  H   UNL     1      -3.077   0.963   0.242  1.00  0.00     0.156 HD
ATOM     17  H   UNL     1      -3.086  -0.586  -0.470  1.00  0.00     0.156 HD
ENDBRANCH  10  15
BRANCH  13  18
ATOM     18  N   UNL     1       1.447  -2.572  -0.104  1.00  0.00     0.066 N 
ATOM     19  O   UNL     1       2.679  -2.556  -0.249  1.00  0.00    -0.258 OA
ATOM     20  O   UNL     1       0.735  -3.580  -0.207  1.00  0.00    -0.258 OA
ENDBRANCH  13  18
BRANCH  14  21
ATOM     21  O   UNL     1       2.873  -0.289   1.014  1.00  0.00    -0.501 OA
ATOM     22  H   UNL     1       3.311   0.454   1.379  1.00  0.00     0.293 HD
ENDBRANCH  14  21
ENDBRANCH   7   9
ENDBRANCH   6   7
ENDBRANCH   5   6
ENDBRANCH   4   5
ENDBRANCH   3   4
ENDBRANCH   2   3
ENDBRANCH   1   2
BRANCH   1  23
ATOM     23  O   UNL     1       3.159   2.671  -2.437  1.00  0.00    -0.376 OA
BRANCH  23  24
ATOM     24  C   UNL     1       3.747   3.692  -3.227  1.00  0.00     0.202 C 
BRANCH  24  25
ATOM     25  C   UNL     1       3.040   4.296  -4.443  1.00  0.00     0.261 C 
BRANCH  25  26
ATOM     26  O   UNL     1       1.663   4.631  -4.242  1.00  0.00    -0.460 OA
BRANCH  26  27
ATOM     27  C   UNL     1       0.795   3.923  -5.004  1.00  0.00     0.338 C 
ATOM     28  O   UNL     1       1.049   3.054  -5.817  1.00  0.00    -0.246 OA
BRANCH  27  29
ATOM     29  C   UNL     1      -0.581   4.244  -4.594  1.00  0.00     0.060 A 
ATOM     30  C   UNL     1      -1.375   3.212  -4.078  1.00  0.00     0.016 A 
ATOM     31  C   UNL     1      -1.103   5.524  -4.783  1.00  0.00     0.016 A 
ATOM     32  C   UNL     1      -2.712   3.452  -3.773  1.00  0.00     0.010 A 
ATOM     33  C   UNL     1      -2.449   5.757  -4.496  1.00  0.00     0.010 A 
ATOM     34  C   UNL     1      -3.265   4.715  -4.019  1.00  0.00    -0.014 A 
BRANCH  34  35
ATOM     35  C   UNL     1      -4.731   4.902  -3.937  1.00  0.00     0.031 A 
ATOM     36  C   UNL     1      -5.542   4.798  -5.198  1.00  0.00     0.074 A 
ATOM     37  C   UNL     1      -5.332   5.152  -2.761  1.00  0.00     0.049 A 
ATOM     38  N   UNL     1      -6.825   4.977  -5.379  1.00  0.00    -0.248 NA
ATOM     39  C   UNL     1      -4.803   4.443  -6.421  1.00  0.00     0.031 C 
ATOM     40  C   UNL     1      -4.657   5.239  -1.469  1.00  0.00     0.029 A 
ATOM     41  N   UNL     1      -6.652   5.392  -2.472  1.00  0.00    -0.354 N 
ATOM     42  C   UNL     1      -7.046   4.765  -6.733  1.00  0.00     0.074 A 
ATOM     43  C   UNL     1      -5.764   4.467  -7.333  1.00  0.00     0.031 C 
ATOM     44  C   UNL     1      -5.567   5.530  -0.523  1.00  0.00     0.029 A 
ATOM     45  C   UNL     1      -6.879   5.681  -1.150  1.00  0.00     0.049 A 
ATOM     46  H   UNL     1      -7.367   5.360  -3.148  1.00  0.00     0.167 HD
ATOM     47  C   UNL     1      -8.216   4.810  -7.413  1.00  0.00     0.037 A 
ATOM     48  C   UNL     1      -8.015   6.051  -0.527  1.00  0.00     0.037 A 
ATOM     49  C   UNL     1      -9.489   5.111  -6.816  1.00  0.00     0.049 A 
ATOM     50  C   UNL     1      -9.291   6.168  -1.323  1.00  0.00     0.074 A 
ATOM     51  C   UNL     1     -10.735   5.159  -7.417  1.00  0.00     0.029 A 
ATOM     52  N   UNL     1      -9.677   5.425  -5.478  1.00  0.00    -0.354 N 
ATOM     53  N   UNL     1      -9.500   5.933  -2.596  1.00  0.00    -0.248 NA
ATOM     54  C   UNL     1     -10.490   6.604  -0.592  1.00  0.00     0.031 C 
ATOM     55  C   UNL     1     -11.669   5.553  -6.454  1.00  0.00     0.029 A 
ATOM     56  C   UNL     1     -11.015   5.695  -5.240  1.00  0.00     0.049 A 
ATOM     57  H   UNL     1      -8.966   5.452  -4.798  1.00  0.00     0.167 HD
ATOM     58  C   UNL     1     -10.855   6.158  -2.810  1.00  0.00     0.074 A 
ATOM     59  C   UNL     1     -11.421   6.539  -1.534  1.00  0.00     0.031 C 
ATOM     60  C   UNL     1     -11.566   6.058  -3.960  1.00  0.00     0.037 A 
BRANCH  47  61
ATOM     61  C   UNL     1      -8.169   4.555  -8.890  1.00  0.00     0.064 A 
ATOM     62  C   UNL     1      -7.938   3.272  -9.409  1.00  0.00     0.173 A 
ATOM     63  C   UNL     1      -8.396   5.600  -9.798  1.00  0.00     0.173 A 
ATOM     64  F   UNL     1      -7.700   2.242  -8.583  1.00  0.00    -0.203 F 
ATOM     65  C   UNL     1      -7.916   3.050 -10.783  1.00  0.00     0.198 A 
ATOM     66  C   UNL     1      -8.400   5.369 -11.170  1.00  0.00     0.198 A 
ATOM     67  F   UNL     1      -8.623   6.845  -9.352  1.00  0.00    -0.203 F 
ATOM     68  F   UNL     1      -7.653   1.824 -11.258  1.00  0.00    -0.200 F 
ATOM     69  C   UNL     1      -8.155   4.096 -11.662  1.00  0.00     0.200 A 
ATOM     70  F   UNL     1      -8.642   6.379 -12.017  1.00  0.00    -0.200 F 
ATOM     71  F   UNL     1      -8.143   3.879 -12.984  1.00  0.00    -0.200 F 
ENDBRANCH  47  61
BRANCH  48  72
ATOM     72  C   UNL     1      -8.006   6.354   0.928  1.00  0.00     0.064 A 
ATOM     73  C   UNL     1      -8.679   5.530   1.841  1.00  0.00     0.173 A 
ATOM     74  C   UNL     1      -7.355   7.490   1.430  1.00  0.00     0.173 A 
ATOM     75  F   UNL     1      -9.338   4.446   1.405  1.00  0.00    -0.203 F 
ATOM     76  C   UNL     1      -8.722   5.845   3.197  1.00  0.00     0.198 A 
ATOM     77  C   UNL     1      -7.375   7.788   2.791  1.00  0.00     0.198 A 
ATOM     78  F   UNL     1      -6.700   8.312   0.598  1.00  0.00    -0.203 F 
ATOM     79  F   UNL     1      -9.417   5.069   4.040  1.00  0.00    -0.200 F 
ATOM     80  C   UNL     1      -8.066   6.970   3.672  1.00  0.00     0.200 A 
ATOM     81  F   UNL     1      -6.732   8.871   3.247  1.00  0.00    -0.200 F 
ATOM     82  F   UNL     1      -8.110   7.273   4.977  1.00  0.00    -0.200 F 
ENDBRANCH  48  72
BRANCH  60  83
ATOM     83  C   UNL     1     -13.044   6.316  -3.886  1.00  0.00     0.064 A 
ATOM     84  C   UNL     1     -13.560   7.608  -3.705  1.00  0.00     0.173 A 
ATOM     85  C   UNL     1     -13.956   5.261  -4.047  1.00  0.00     0.173 A 
ATOM     86  F   UNL     1     -12.730   8.648  -3.532  1.00  0.00    -0.203 F 
ATOM     87  C   UNL     1     -14.934   7.830  -3.663  1.00  0.00     0.198 A 
ATOM     88  C   UNL     1     -15.329   5.492  -4.036  1.00  0.00     0.198 A 
ATOM     89  F   UNL     1     -13.514   4.008  -4.231  1.00  0.00    -0.203 F 
ATOM     90  F   UNL     1     -15.405   9.065  -3.444  1.00  0.00    -0.200 F 
ATOM     91  C   UNL     1     -15.816   6.774  -3.837  1.00  0.00     0.200 A 
ATOM     92  F   UNL     1     -16.179   4.472  -4.218  1.00  0.00    -0.200 F 
ATOM     93  F   UNL     1     -17.138   6.991  -3.806  1.00  0.00    -0.200 F 
ENDBRANCH  60  83
ENDBRANCH  34  35
ENDBRANCH  27  29
ENDBRANCH  26  27
ENDBRANCH  25  26
ENDBRANCH  24  25
ENDBRANCH  23  24
ENDBRANCH   1  23
TORSDOF 20
