REMARK SMILES O=C(C[N@@H+]1C[C@@]2([N+](=O)[O-])CC=C(Cl)[C@@]([N+](=O)[O-])(C1)C2)OCCOCCOCCOC(=O)c1ccc(-c2c3nc(c(-c4c(F)c(F)c(F)c(F)c4F)c4ccc([nH]4)c(-c4c(F)c(F)c(F)c(F)c4F)c4nc(c(-c5c(F)c(F)c(F)c(F)c5F)c5ccc2[nH]5)C=C4)C=C3)cc1
REMARK SMILES IDX 24 1 23 2 22 3 21 4 20 5 2 6 1 7 3 8 4 9 5 10 18 11 6 13
REMARK SMILES IDX 14 14 10 15 19 16 12 17 11 18 13 19 7 20 8 21 9 22 15 23
REMARK SMILES IDX 16 24 17 25 25 26 26 27 27 28 28 29 29 30 30 31 31 32 32 33
REMARK SMILES IDX 33 34 94 35 34 36 93 37 35 38 36 39 37 40 87 41 38 42 92 43
REMARK SMILES IDX 86 44 88 45 39 46 91 47 85 48 84 49 40 51 72 52 52 53 71 54
REMARK SMILES IDX 53 55 56 56 70 57 89 58 54 59 55 60 69 62 90 63 57 64 41 65
REMARK SMILES IDX 42 66 50 67 43 68 44 69 48 70 51 71 45 72 46 73 49 74 47 75
REMARK SMILES IDX 73 76 74 77 82 78 75 79 76 80 80 81 83 82 77 83 78 84 81 85
REMARK SMILES IDX 79 86 58 87 59 88 67 89 60 90 61 91 65 92 68 93 62 94 63 95
REMARK SMILES IDX 66 96 64 97
REMARK H PARENT 4 12 88 50 56 61
REMARK Flexibility Score: inf
ROOT
ATOM      1  C   UNL     1       2.985  -2.089   0.096  1.00  0.00     0.188 C 
ENDROOT
BRANCH   1   2
ATOM      2  O   UNL     1       4.253  -1.474   0.354  1.00  0.00    -0.376 OA
BRANCH   2   3
ATOM      3  C   UNL     1       4.379  -0.708   1.549  1.00  0.00     0.202 C 
BRANCH   3   4
ATOM      4  C   UNL     1       3.730   0.674   1.497  1.00  0.00     0.261 C 
BRANCH   4   5
ATOM      5  O   UNL     1       2.397   0.647   0.975  1.00  0.00    -0.459 OA
BRANCH   5   6
ATOM      6  C   UNL     1       2.129   1.415  -0.115  1.00  0.00     0.361 C 
ATOM      7  O   UNL     1       1.230   2.252  -0.086  1.00  0.00    -0.245 OA
BRANCH   6   8
ATOM      8  C   UNL     1       2.891   1.084  -1.409  1.00  0.00     0.386 C 
BRANCH   8   9
ATOM      9  N   UNL     1       4.038   1.979  -1.597  1.00  0.00    -0.313 N 
ATOM     10  C   UNL     1       3.914   2.818  -2.801  1.00  0.00     0.350 C 
ATOM     11  C   UNL     1       5.351   1.285  -1.567  1.00  0.00     0.356 C 
ATOM     12  H   UNL     1       4.017   2.595  -0.785  1.00  0.00     0.349 HD
ATOM     13  C   UNL     1       5.060   3.854  -2.876  1.00  0.00     0.280 C 
ATOM     14  C   UNL     1       6.499   2.329  -1.536  1.00  0.00     0.311 C 
ATOM     15  C   UNL     1       5.007   4.886  -1.717  1.00  0.00     0.121 C 
ATOM     16  C   UNL     1       6.426   3.138  -2.849  1.00  0.00     0.191 C 
ATOM     17  C   UNL     1       6.348   3.264  -0.340  1.00  0.00     0.097 C 
ATOM     18  C   UNL     1       5.665   4.420  -0.434  1.00  0.00     0.004 C 
ATOM     19  Cl  UNL     1       6.962   2.775   1.202  1.00  0.00    -0.081 Cl
BRANCH  13  20
ATOM     20  N   UNL     1       4.872   4.572  -4.200  1.00  0.00     0.032 N 
ATOM     21  O   UNL     1       4.148   5.574  -4.212  1.00  0.00    -0.264 OA
ATOM     22  O   UNL     1       5.396   4.065  -5.201  1.00  0.00    -0.264 OA
ENDBRANCH  13  20
BRANCH  14  23
ATOM     23  N   UNL     1       7.849   1.626  -1.486  1.00  0.00     0.038 N 
ATOM     24  O   UNL     1       7.861   0.400  -1.308  1.00  0.00    -0.263 OA
ATOM     25  O   UNL     1       8.859   2.325  -1.645  1.00  0.00    -0.263 OA
ENDBRANCH  14  23
ENDBRANCH   8   9
ENDBRANCH   6   8
ENDBRANCH   5   6
ENDBRANCH   4   5
ENDBRANCH   3   4
ENDBRANCH   2   3
ENDBRANCH   1   2
BRANCH   1  26
ATOM     26  C   UNL     1       2.271  -2.807   1.246  1.00  0.00     0.188 C 
BRANCH  26  27
ATOM     27  O   UNL     1       2.706  -4.119   1.578  1.00  0.00    -0.376 OA
BRANCH  27  28
ATOM     28  C   UNL     1       4.101  -4.378   1.605  1.00  0.00     0.202 C 
BRANCH  28  29
ATOM     29  C   UNL     1       4.465  -5.431   0.552  1.00  0.00     0.261 C 
BRANCH  29  30
ATOM     30  O   UNL     1       4.088  -5.031  -0.782  1.00  0.00    -0.460 OA
BRANCH  30  31
ATOM     31  C   UNL     1       2.834  -5.388  -1.160  1.00  0.00     0.338 C 
ATOM     32  O   UNL     1       2.019  -6.037  -0.528  1.00  0.00    -0.246 OA
BRANCH  31  33
ATOM     33  C   UNL     1       2.514  -4.807  -2.483  1.00  0.00     0.060 A 
ATOM     34  C   UNL     1       1.277  -4.170  -2.654  1.00  0.00     0.016 A 
ATOM     35  C   UNL     1       3.369  -4.987  -3.573  1.00  0.00     0.016 A 
ATOM     36  C   UNL     1       0.864  -3.772  -3.928  1.00  0.00     0.010 A 
ATOM     37  C   UNL     1       2.949  -4.599  -4.849  1.00  0.00     0.010 A 
ATOM     38  C   UNL     1       1.676  -4.032  -5.040  1.00  0.00    -0.014 A 
BRANCH  38  39
ATOM     39  C   UNL     1       1.120  -3.910  -6.413  1.00  0.00     0.031 A 
ATOM     40  C   UNL     1       0.568  -5.143  -7.079  1.00  0.00     0.074 A 
ATOM     41  C   UNL     1       1.091  -2.732  -7.060  1.00  0.00     0.049 A 
ATOM     42  N   UNL     1       0.084  -5.293  -8.286  1.00  0.00    -0.248 NA
ATOM     43  C   UNL     1       0.564  -6.374  -6.272  1.00  0.00     0.031 C 
ATOM     44  C   UNL     1       1.552  -1.457  -6.519  1.00  0.00     0.029 A 
ATOM     45  N   UNL     1       0.659  -2.425  -8.328  1.00  0.00    -0.354 N 
ATOM     46  C   UNL     1      -0.280  -6.630  -8.383  1.00  0.00     0.074 A 
ATOM     47  C   UNL     1       0.066  -7.256  -7.125  1.00  0.00     0.031 C 
ATOM     48  C   UNL     1       1.389  -0.503  -7.454  1.00  0.00     0.029 A 
ATOM     49  C   UNL     1       0.839  -1.108  -8.668  1.00  0.00     0.049 A 
ATOM     50  H   UNL     1       0.257  -3.088  -8.935  1.00  0.00     0.167 HD
ATOM     51  C   UNL     1      -0.858  -7.278  -9.422  1.00  0.00     0.037 A 
ATOM     52  C   UNL     1       0.606  -0.470  -9.832  1.00  0.00     0.037 A 
ATOM     53  C   UNL     1      -1.202  -6.665 -10.677  1.00  0.00     0.049 A 
ATOM     54  C   UNL     1       0.037  -1.232 -11.003  1.00  0.00     0.074 A 
ATOM     55  C   UNL     1      -1.801  -7.241 -11.784  1.00  0.00     0.029 A 
ATOM     56  N   UNL     1      -0.971  -5.336 -10.994  1.00  0.00    -0.354 N 
ATOM     57  N   UNL     1      -0.322  -2.490 -11.079  1.00  0.00    -0.248 NA
ATOM     58  C   UNL     1      -0.158  -0.480 -12.253  1.00  0.00     0.031 C 
ATOM     59  C   UNL     1      -1.892  -6.271 -12.787  1.00  0.00     0.029 A 
ATOM     60  C   UNL     1      -1.394  -5.079 -12.288  1.00  0.00     0.049 A 
ATOM     61  H   UNL     1      -0.566  -4.672 -10.389  1.00  0.00     0.167 HD
ATOM     62  C   UNL     1      -0.812  -2.672 -12.367  1.00  0.00     0.074 A 
ATOM     63  C   UNL     1      -0.713  -1.394 -13.037  1.00  0.00     0.031 C 
ATOM     64  C   UNL     1      -1.302  -3.799 -12.941  1.00  0.00     0.037 A 
BRANCH  51  65
ATOM     65  C   UNL     1      -1.138  -8.741  -9.251  1.00  0.00     0.064 A 
ATOM     66  C   UNL     1      -2.175  -9.199  -8.425  1.00  0.00     0.173 A 
ATOM     67  C   UNL     1      -0.383  -9.695  -9.949  1.00  0.00     0.173 A 
ATOM     68  F   UNL     1      -2.917  -8.325  -7.727  1.00  0.00    -0.203 F 
ATOM     69  C   UNL     1      -2.432 -10.560  -8.287  1.00  0.00     0.198 A 
ATOM     70  C   UNL     1      -0.659 -11.054  -9.828  1.00  0.00     0.198 A 
ATOM     71  F   UNL     1       0.618  -9.308 -10.754  1.00  0.00    -0.203 F 
ATOM     72  F   UNL     1      -3.401 -10.977  -7.461  1.00  0.00    -0.200 F 
ATOM     73  C   UNL     1      -1.678 -11.486  -8.994  1.00  0.00     0.200 A 
ATOM     74  F   UNL     1       0.064 -11.947 -10.520  1.00  0.00    -0.200 F 
ATOM     75  F   UNL     1      -1.931 -12.796  -8.865  1.00  0.00    -0.200 F 
ENDBRANCH  51  65
BRANCH  52  76
ATOM     76  C   UNL     1       0.921   0.977  -9.964  1.00  0.00     0.064 A 
ATOM     77  C   UNL     1      -0.099   1.928 -10.102  1.00  0.00     0.173 A 
ATOM     78  C   UNL     1       2.247   1.432  -9.992  1.00  0.00     0.173 A 
ATOM     79  F   UNL     1      -1.382   1.536 -10.112  1.00  0.00    -0.203 F 
ATOM     80  C   UNL     1       0.196   3.278 -10.280  1.00  0.00     0.198 A 
ATOM     81  C   UNL     1       2.540   2.785 -10.145  1.00  0.00     0.198 A 
ATOM     82  F   UNL     1       3.259   0.560  -9.870  1.00  0.00    -0.203 F 
ATOM     83  F   UNL     1      -0.798   4.160 -10.459  1.00  0.00    -0.200 F 
ATOM     84  C   UNL     1       1.514   3.706 -10.297  1.00  0.00     0.200 A 
ATOM     85  F   UNL     1       3.816   3.195 -10.156  1.00  0.00    -0.200 F 
ATOM     86  F   UNL     1       1.797   5.004 -10.473  1.00  0.00    -0.200 F 
ENDBRANCH  52  76
BRANCH  64  87
ATOM     87  C   UNL     1      -1.808  -3.697 -14.351  1.00  0.00     0.064 A 
ATOM     88  C   UNL     1      -0.934  -3.567 -15.441  1.00  0.00     0.173 A 
ATOM     89  C   UNL     1      -3.184  -3.779 -14.619  1.00  0.00     0.173 A 
ATOM     90  F   UNL     1       0.388  -3.471 -15.237  1.00  0.00    -0.203 F 
ATOM     91  C   UNL     1      -1.420  -3.503 -16.744  1.00  0.00     0.198 A 
ATOM     92  C   UNL     1      -3.664  -3.742 -15.925  1.00  0.00     0.198 A 
ATOM     93  F   UNL     1      -4.061  -3.911 -13.613  1.00  0.00    -0.203 F 
ATOM     94  F   UNL     1      -0.570  -3.339 -17.767  1.00  0.00    -0.200 F 
ATOM     95  C   UNL     1      -2.783  -3.598 -16.986  1.00  0.00     0.200 A 
ATOM     96  F   UNL     1      -4.980  -3.847 -16.158  1.00  0.00    -0.200 F 
ATOM     97  F   UNL     1      -3.248  -3.544 -18.242  1.00  0.00    -0.200 F 
ENDBRANCH  64  87
ENDBRANCH  38  39
ENDBRANCH  31  33
ENDBRANCH  30  31
ENDBRANCH  29  30
ENDBRANCH  28  29
ENDBRANCH  27  28
ENDBRANCH  26  27
ENDBRANCH   1  26
TORSDOF 20
