REMARK SMILES O=C(OCCOCCOCCOC(=O)c1nc(NC[C@H]2c3ccccc3CSc3ccccc32)c2ccccc2n1)c1ccc(-c2c3nc(c(-c4c(F)c(F)c(F)c(F)c4F)c4ccc([nH]4)c(-c4c(F)c(F)c(F)c(F)c4F)c4nc(c(-c5c(F)c(F)c(F)c(F)c5F)c5ccc2[nH]5)C=C4)C=C3)cc1
REMARK SMILES IDX 8 1 7 2 6 3 5 4 4 5 3 6 2 7 1 8 42 9 43 10 104 11 44 12
REMARK SMILES IDX 103 13 45 14 46 15 47 16 97 17 48 18 102 19 96 20 98 21
REMARK SMILES IDX 49 22 101 23 95 24 94 25 50 27 82 28 62 29 81 30 63 31 66 32
REMARK SMILES IDX 80 33 99 34 64 35 65 36 79 38 100 39 67 40 51 41 52 42 60 43
REMARK SMILES IDX 53 44 54 45 58 46 61 47 55 48 56 49 59 50 57 51 83 52 84 53
REMARK SMILES IDX 92 54 85 55 86 56 90 57 93 58 87 59 88 60 91 61 89 62 68 63
REMARK SMILES IDX 69 64 77 65 70 66 71 67 75 68 78 69 72 70 73 71 76 72 74 73
REMARK SMILES IDX 9 74 10 75 11 76 12 77 13 78 14 79 15 80 16 81 41 82 17 83
REMARK SMILES IDX 40 84 35 85 39 86 36 87 38 88 37 89 18 90 19 92 20 93 21 94
REMARK SMILES IDX 34 95 22 96 26 97 29 98 33 99 23 100 25 101 27 102 28 103
REMARK SMILES IDX 30 104 32 105 24 106 31 107
REMARK H PARENT 98 26 66 37 18 91
REMARK Flexibility Score: inf
ROOT
ATOM      1  C   UNL     1       2.912   2.188   1.463  1.00  0.00     0.188 C 
ENDROOT
BRANCH   1   2
ATOM      2  C   UNL     1       3.875   1.046   1.803  1.00  0.00     0.188 C 
BRANCH   2   3
ATOM      3  O   UNL     1       5.252   1.041   1.444  1.00  0.00    -0.376 OA
BRANCH   3   4
ATOM      4  C   UNL     1       5.743   1.718   0.304  1.00  0.00     0.202 C 
BRANCH   4   5
ATOM      5  C   UNL     1       5.589   1.092  -1.080  1.00  0.00     0.261 C 
BRANCH   5   6
ATOM      6  O   UNL     1       4.308   0.560  -1.387  1.00  0.00    -0.460 OA
BRANCH   6   7
ATOM      7  C   UNL     1       3.712  -0.536  -0.891  1.00  0.00     0.338 C 
ATOM      8  O   UNL     1       2.494  -0.597  -1.060  1.00  0.00    -0.246 OA
BRANCH   7   9
ATOM      9  C   UNL     1       4.345  -1.565   0.005  1.00  0.00     0.060 A 
ATOM     10  C   UNL     1       3.435  -2.392   0.682  1.00  0.00     0.016 A 
ATOM     11  C   UNL     1       5.683  -1.650   0.381  1.00  0.00     0.016 A 
ATOM     12  C   UNL     1       3.791  -3.121   1.812  1.00  0.00     0.010 A 
ATOM     13  C   UNL     1       6.067  -2.419   1.488  1.00  0.00     0.010 A 
ATOM     14  C   UNL     1       5.118  -3.139   2.221  1.00  0.00    -0.014 A 
BRANCH  14  15
ATOM     15  C   UNL     1       5.542  -4.140   3.215  1.00  0.00     0.031 A 
ATOM     16  C   UNL     1       5.739  -3.812   4.659  1.00  0.00     0.074 A 
ATOM     17  C   UNL     1       5.750  -5.378   2.732  1.00  0.00     0.049 A 
ATOM     18  N   UNL     1       6.160  -4.599   5.617  1.00  0.00    -0.248 NA
ATOM     19  C   UNL     1       5.425  -2.444   5.099  1.00  0.00     0.031 C 
ATOM     20  C   UNL     1       5.541  -5.772   1.334  1.00  0.00     0.029 A 
ATOM     21  N   UNL     1       6.198  -6.519   3.337  1.00  0.00    -0.354 N 
ATOM     22  C   UNL     1       6.139  -3.836   6.775  1.00  0.00     0.074 A 
ATOM     23  C   UNL     1       5.695  -2.509   6.401  1.00  0.00     0.031 C 
ATOM     24  C   UNL     1       5.904  -7.051   1.179  1.00  0.00     0.029 A 
ATOM     25  C   UNL     1       6.390  -7.553   2.456  1.00  0.00     0.049 A 
ATOM     26  H   UNL     1       6.367  -6.590   4.304  1.00  0.00     0.167 HD
ATOM     27  C   UNL     1       6.439  -4.240   8.032  1.00  0.00     0.037 A 
ATOM     28  C   UNL     1       6.930  -8.767   2.653  1.00  0.00     0.037 A 
ATOM     29  C   UNL     1       6.848  -5.576   8.373  1.00  0.00     0.049 A 
ATOM     30  C   UNL     1       7.333  -9.146   4.045  1.00  0.00     0.074 A 
ATOM     31  C   UNL     1       7.113  -6.096   9.627  1.00  0.00     0.029 A 
ATOM     32  N   UNL     1       7.042  -6.599   7.458  1.00  0.00    -0.354 N 
ATOM     33  N   UNL     1       7.231  -8.442   5.146  1.00  0.00    -0.248 NA
ATOM     34  C   UNL     1       7.906 -10.482   4.233  1.00  0.00     0.031 C 
ATOM     35  C   UNL     1       7.487  -7.432   9.470  1.00  0.00     0.029 A 
ATOM     36  C   UNL     1       7.446  -7.746   8.120  1.00  0.00     0.049 A 
ATOM     37  H   UNL     1       6.912  -6.522   6.486  1.00  0.00     0.167 HD
ATOM     38  C   UNL     1       7.690  -9.261   6.164  1.00  0.00     0.074 A 
ATOM     39  C   UNL     1       8.073 -10.516   5.549  1.00  0.00     0.031 C 
ATOM     40  C   UNL     1       7.782  -8.995   7.487  1.00  0.00     0.037 A 
BRANCH  27  41
ATOM     41  C   UNL     1       6.266  -3.280   9.164  1.00  0.00     0.064 A 
ATOM     42  C   UNL     1       5.039  -3.228   9.836  1.00  0.00     0.173 A 
ATOM     43  C   UNL     1       7.337  -2.551   9.694  1.00  0.00     0.173 A 
ATOM     44  F   UNL     1       4.026  -4.006   9.430  1.00  0.00    -0.203 F 
ATOM     45  C   UNL     1       4.867  -2.433  10.965  1.00  0.00     0.198 A 
ATOM     46  C   UNL     1       7.173  -1.782  10.846  1.00  0.00     0.198 A 
ATOM     47  F   UNL     1       8.550  -2.626   9.128  1.00  0.00    -0.203 F 
ATOM     48  F   UNL     1       3.674  -2.386  11.574  1.00  0.00    -0.200 F 
ATOM     49  C   UNL     1       5.936  -1.713  11.472  1.00  0.00     0.200 A 
ATOM     50  F   UNL     1       8.220  -1.126  11.367  1.00  0.00    -0.200 F 
ATOM     51  F   UNL     1       5.781  -0.974  12.579  1.00  0.00    -0.200 F 
ENDBRANCH  27  41
BRANCH  28  52
ATOM     52  C   UNL     1       7.090  -9.682   1.499  1.00  0.00     0.064 A 
ATOM     53  C   UNL     1       6.298 -10.829   1.375  1.00  0.00     0.173 A 
ATOM     54  C   UNL     1       7.993  -9.393   0.463  1.00  0.00     0.173 A 
ATOM     55  F   UNL     1       5.424 -11.146   2.342  1.00  0.00    -0.203 F 
ATOM     56  C   UNL     1       6.410 -11.661   0.264  1.00  0.00     0.198 A 
ATOM     57  C   UNL     1       8.084 -10.210  -0.661  1.00  0.00     0.198 A 
ATOM     58  F   UNL     1       8.762  -8.296   0.527  1.00  0.00    -0.203 F 
ATOM     59  F   UNL     1       5.661 -12.768   0.183  1.00  0.00    -0.200 F 
ATOM     60  C   UNL     1       7.297 -11.347  -0.756  1.00  0.00     0.200 A 
ATOM     61  F   UNL     1       8.925  -9.891  -1.654  1.00  0.00    -0.200 F 
ATOM     62  F   UNL     1       7.393 -12.142  -1.830  1.00  0.00    -0.200 F 
ENDBRANCH  28  52
BRANCH  40  63
ATOM     63  C   UNL     1       8.289 -10.082   8.380  1.00  0.00     0.064 A 
ATOM     64  C   UNL     1       9.656 -10.380   8.447  1.00  0.00     0.173 A 
ATOM     65  C   UNL     1       7.420 -10.730   9.270  1.00  0.00     0.173 A 
ATOM     66  F   UNL     1      10.518  -9.790   7.605  1.00  0.00    -0.203 F 
ATOM     67  C   UNL     1      10.139 -11.286   9.384  1.00  0.00     0.198 A 
ATOM     68  C   UNL     1       7.910 -11.616  10.223  1.00  0.00     0.198 A 
ATOM     69  F   UNL     1       6.105 -10.465   9.246  1.00  0.00    -0.203 F 
ATOM     70  F   UNL     1      11.449 -11.565   9.429  1.00  0.00    -0.200 F 
ATOM     71  C   UNL     1       9.269 -11.891  10.281  1.00  0.00     0.200 A 
ATOM     72  F   UNL     1       7.073 -12.184  11.101  1.00  0.00    -0.200 F 
ATOM     73  F   UNL     1       9.742 -12.736  11.207  1.00  0.00    -0.200 F 
ENDBRANCH  40  63
ENDBRANCH  14  15
ENDBRANCH   7   9
ENDBRANCH   6   7
ENDBRANCH   5   6
ENDBRANCH   4   5
ENDBRANCH   3   4
ENDBRANCH   2   3
ENDBRANCH   1   2
BRANCH   1  74
ATOM     74  O   UNL     1       3.131   3.523   1.896  1.00  0.00    -0.376 OA
BRANCH  74  75
ATOM     75  C   UNL     1       4.274   3.842   2.661  1.00  0.00     0.202 C 
BRANCH  75  76
ATOM     76  C   UNL     1       4.176   3.585   4.168  1.00  0.00     0.261 C 
BRANCH  76  77
ATOM     77  O   UNL     1       3.757   2.258   4.520  1.00  0.00    -0.457 OA
BRANCH  77  78
ATOM     78  C   UNL     1       2.427   2.066   4.707  1.00  0.00     0.376 C 
ATOM     79  O   UNL     1       1.554   2.949   4.683  1.00  0.00    -0.242 OA
BRANCH  78  80
ATOM     80  C   UNL     1       2.157   0.626   4.997  1.00  0.00     0.241 A 
ATOM     81  N   UNL     1       1.526  -0.139   4.058  1.00  0.00    -0.204 NA
ATOM     82  N   UNL     1       2.475   0.265   6.255  1.00  0.00    -0.222 NA
ATOM     83  C   UNL     1       1.151  -1.371   4.455  1.00  0.00     0.138 A 
ATOM     84  C   UNL     1       2.075  -0.939   6.634  1.00  0.00     0.077 A 
ATOM     85  C   UNL     1       1.420  -1.829   5.772  1.00  0.00     0.043 A 
ATOM     86  C   UNL     1       2.277  -1.296   7.960  1.00  0.00     0.029 A 
ATOM     87  C   UNL     1       1.053  -3.099   6.278  1.00  0.00     0.014 A 
ATOM     88  C   UNL     1       1.837  -2.520   8.461  1.00  0.00     0.002 A 
ATOM     89  C   UNL     1       1.253  -3.441   7.610  1.00  0.00     0.001 A 
BRANCH  83  90
ATOM     90  N   UNL     1       0.422  -2.231   3.614  1.00  0.00    -0.368 N 
ATOM     91  H   UNL     1      -0.000  -3.011   4.041  1.00  0.00     0.162 HD
BRANCH  90  92
ATOM     92  C   UNL     1       0.224  -2.086   2.170  1.00  0.00     0.127 C 
BRANCH  92  93
ATOM     93  C   UNL     1      -0.195  -3.443   1.330  1.00  0.00     0.070 C 
ATOM     94  C   UNL     1      -0.083  -3.178  -0.215  1.00  0.00    -0.035 A 
ATOM     95  C   UNL     1       0.347  -4.768   1.984  1.00  0.00    -0.025 A 
ATOM     96  C   UNL     1      -0.233  -1.861  -0.705  1.00  0.00     0.005 A 
ATOM     97  C   UNL     1       0.175  -4.147  -1.208  1.00  0.00    -0.034 A 
ATOM     98  C   UNL     1       1.264  -5.726   1.490  1.00  0.00     0.011 A 
ATOM     99  C   UNL     1      -0.167  -5.065   3.271  1.00  0.00     0.005 A 
ATOM    100  C   UNL     1       0.085  -1.502  -2.026  1.00  0.00     0.000 A 
ATOM    101  C   UNL     1       0.573  -3.768  -2.515  1.00  0.00     0.005 A 
ATOM    102  C   UNL     1       0.185  -5.612  -0.935  1.00  0.00     0.110 C 
ATOM    103  S   UNL     1       1.780  -5.968  -0.193  1.00  0.00    -0.121 SA
ATOM    104  C   UNL     1       1.759  -6.765   2.316  1.00  0.00     0.015 A 
ATOM    105  C   UNL     1       0.326  -6.096   4.085  1.00  0.00     0.000 A 
ATOM    106  C   UNL     1       0.571  -2.445  -2.910  1.00  0.00     0.000 A 
ATOM    107  C   UNL     1       1.322  -6.928   3.619  1.00  0.00     0.001 A 
ENDBRANCH  92  93
ENDBRANCH  90  92
ENDBRANCH  83  90
ENDBRANCH  78  80
ENDBRANCH  77  78
ENDBRANCH  76  77
ENDBRANCH  75  76
ENDBRANCH  74  75
ENDBRANCH   1  74
TORSDOF 20
