REMARK SMILES CN1C(=O)C[C@@H](C(=O)OCCOCCOCCOC(=O)c2ccc(-c3c4nc(c(-c5c(F)c(F)c(F)c(F)c5F)c5ccc([nH]5)c(-c5c(F)c(F)c(F)c(F)c5F)c5nc(c(-c6c(F)c(F)c(F)c(F)c6F)c6ccc3[nH]6)C=C5)C=C4)cc2)C12CCN(C(=O)c1cccc3ccccc13)CC2
REMARK SMILES IDX 14 1 13 2 12 3 11 4 10 5 9 6 7 7 8 8 6 9 1 10 2 11 3 12
REMARK SMILES IDX 84 13 4 14 5 15 85 16 101 17 86 18 100 19 87 20 88 21 89 22
REMARK SMILES IDX 90 23 91 24 99 25 92 26 94 27 98 28 93 29 95 30 97 31 96 32
REMARK SMILES IDX 15 33 16 34 17 35 18 36 19 37 20 38 21 39 22 40 83 41 23 42
REMARK SMILES IDX 82 43 24 44 25 45 26 46 76 47 27 48 81 49 75 50 77 51 28 52
REMARK SMILES IDX 80 53 74 54 73 55 29 57 61 58 41 59 60 60 42 61 45 62 59 63
REMARK SMILES IDX 78 64 43 65 44 66 58 68 79 69 46 70 30 71 31 72 39 73 32 74
REMARK SMILES IDX 33 75 37 76 40 77 34 78 35 79 38 80 36 81 62 82 63 83 71 84
REMARK SMILES IDX 64 85 65 86 69 87 72 88 66 89 67 90 70 91 68 92 47 93 48 94
REMARK SMILES IDX 56 95 49 96 50 97 54 98 57 99 51 100 52 101 55 102 53 103
REMARK H PARENT 77 56 45 67
REMARK Flexibility Score: inf
ROOT
ATOM      1  C   UNL     1      -2.751   0.594  -4.311  1.00  0.00     0.188 C 
ENDROOT
BRANCH   1   2
ATOM      2  C   UNL     1      -3.375   1.873  -4.851  1.00  0.00     0.188 C 
BRANCH   2   3
ATOM      3  O   UNL     1      -2.694   2.583  -5.873  1.00  0.00    -0.376 OA
BRANCH   3   4
ATOM      4  C   UNL     1      -1.326   2.297  -6.127  1.00  0.00     0.202 C 
BRANCH   4   5
ATOM      5  C   UNL     1      -0.297   2.816  -5.102  1.00  0.00     0.261 C 
BRANCH   5   6
ATOM      6  O   UNL     1      -0.311   2.260  -3.751  1.00  0.00    -0.463 OA
BRANCH   6   7
ATOM      7  C   UNL     1      -0.965   3.002  -2.827  1.00  0.00     0.311 C 
ATOM      8  O   UNL     1      -1.607   4.012  -3.117  1.00  0.00    -0.252 OA
BRANCH   7   9
ATOM      9  C   UNL     1      -0.816   2.629  -1.348  1.00  0.00     0.134 C 
ATOM     10  C   UNL     1       1.877   0.326  -0.050  1.00  0.00     0.147 C 
ATOM     11  N   UNL     1       1.008   1.401  -0.501  1.00  0.00    -0.339 N 
ATOM     12  C   UNL     1       1.464   2.709  -0.604  1.00  0.00     0.223 C 
ATOM     13  C   UNL     1      -0.451   1.273  -0.651  1.00  0.00     0.060 C 
ATOM     14  O   UNL     1       2.600   3.095  -0.470  1.00  0.00    -0.275 OA
ATOM     15  C   UNL     1       0.271   3.596  -0.838  1.00  0.00     0.118 C 
ATOM     16  C   UNL     1      -0.821  -0.052  -1.343  1.00  0.00     0.051 C 
ATOM     17  C   UNL     1      -1.090   1.250   0.792  1.00  0.00     0.051 C 
ATOM     18  C   UNL     1      -2.311  -0.351  -1.268  1.00  0.00     0.122 C 
ATOM     19  C   UNL     1      -2.534   0.741   0.887  1.00  0.00     0.122 C 
ATOM     20  N   UNL     1      -2.778  -0.464   0.097  1.00  0.00    -0.338 N 
ATOM     21  C   UNL     1      -3.670  -1.424   0.615  1.00  0.00     0.254 C 
ATOM     22  O   UNL     1      -4.120  -1.304   1.759  1.00  0.00    -0.269 OA
BRANCH  21  23
ATOM     23  C   UNL     1      -4.245  -2.564  -0.176  1.00  0.00     0.047 A 
ATOM     24  C   UNL     1      -5.655  -2.641  -0.114  1.00  0.00     0.014 A 
ATOM     25  C   UNL     1      -3.523  -3.575  -0.873  1.00  0.00    -0.006 A 
ATOM     26  C   UNL     1      -6.362  -3.666  -0.738  1.00  0.00     0.001 A 
ATOM     27  C   UNL     1      -4.268  -4.610  -1.519  1.00  0.00    -0.018 A 
ATOM     28  C   UNL     1      -2.117  -3.630  -1.002  1.00  0.00     0.009 A 
ATOM     29  C   UNL     1      -5.667  -4.650  -1.428  1.00  0.00     0.009 A 
ATOM     30  C   UNL     1      -3.616  -5.581  -2.296  1.00  0.00     0.009 A 
ATOM     31  C   UNL     1      -1.489  -4.570  -1.828  1.00  0.00     0.001 A 
ATOM     32  C   UNL     1      -2.238  -5.542  -2.477  1.00  0.00     0.001 A 
ENDBRANCH  21  23
ENDBRANCH   7   9
ENDBRANCH   6   7
ENDBRANCH   5   6
ENDBRANCH   4   5
ENDBRANCH   3   4
ENDBRANCH   2   3
ENDBRANCH   1   2
BRANCH   1  33
ATOM     33  O   UNL     1      -2.218  -0.267  -5.296  1.00  0.00    -0.376 OA
BRANCH  33  34
ATOM     34  C   UNL     1      -2.657  -1.612  -5.193  1.00  0.00     0.202 C 
BRANCH  34  35
ATOM     35  C   UNL     1      -4.079  -1.754  -5.756  1.00  0.00     0.261 C 
BRANCH  35  36
ATOM     36  O   UNL     1      -5.092  -0.964  -5.073  1.00  0.00    -0.460 OA
BRANCH  36  37
ATOM     37  C   UNL     1      -5.382  -1.410  -3.833  1.00  0.00     0.338 C 
ATOM     38  O   UNL     1      -4.854  -2.372  -3.309  1.00  0.00    -0.246 OA
BRANCH  37  39
ATOM     39  C   UNL     1      -6.290  -0.521  -3.079  1.00  0.00     0.060 A 
ATOM     40  C   UNL     1      -5.756   0.328  -2.107  1.00  0.00     0.016 A 
ATOM     41  C   UNL     1      -7.667  -0.694  -3.146  1.00  0.00     0.016 A 
ATOM     42  C   UNL     1      -6.564   0.961  -1.168  1.00  0.00     0.010 A 
ATOM     43  C   UNL     1      -8.492  -0.013  -2.238  1.00  0.00     0.010 A 
ATOM     44  C   UNL     1      -7.948   0.805  -1.228  1.00  0.00    -0.014 A 
BRANCH  44  45
ATOM     45  C   UNL     1      -8.815   1.476  -0.224  1.00  0.00     0.031 A 
ATOM     46  C   UNL     1      -9.643   0.662   0.728  1.00  0.00     0.074 A 
ATOM     47  C   UNL     1      -8.860   2.821  -0.164  1.00  0.00     0.049 A 
ATOM     48  N   UNL     1     -10.611   1.041   1.524  1.00  0.00    -0.248 NA
ATOM     49  C   UNL     1      -9.341  -0.774   0.790  1.00  0.00     0.031 C 
ATOM     50  C   UNL     1      -8.045   3.732  -0.969  1.00  0.00     0.029 A 
ATOM     51  N   UNL     1      -9.643   3.656   0.594  1.00  0.00    -0.354 N 
ATOM     52  C   UNL     1     -11.060  -0.115   2.151  1.00  0.00     0.074 A 
ATOM     53  C   UNL     1     -10.257  -1.208   1.644  1.00  0.00     0.031 C 
ATOM     54  C   UNL     1      -8.386   4.996  -0.681  1.00  0.00     0.029 A 
ATOM     55  C   UNL     1      -9.498   4.981   0.262  1.00  0.00     0.049 A 
ATOM     56  H   UNL     1     -10.248   3.338   1.303  1.00  0.00     0.167 HD
ATOM     57  C   UNL     1     -12.063  -0.247   3.054  1.00  0.00     0.037 A 
ATOM     58  C   UNL     1     -10.225   6.057   0.617  1.00  0.00     0.037 A 
ATOM     59  C   UNL     1     -12.847   0.853   3.557  1.00  0.00     0.049 A 
ATOM     60  C   UNL     1     -11.387   5.881   1.552  1.00  0.00     0.074 A 
ATOM     61  C   UNL     1     -13.879   0.830   4.478  1.00  0.00     0.029 A 
ATOM     62  N   UNL     1     -12.687   2.178   3.173  1.00  0.00    -0.354 N 
ATOM     63  N   UNL     1     -11.840   4.784   2.109  1.00  0.00    -0.248 NA
ATOM     64  C   UNL     1     -12.144   7.089   1.900  1.00  0.00     0.031 C 
ATOM     65  C   UNL     1     -14.386   2.129   4.602  1.00  0.00     0.029 A 
ATOM     66  C   UNL     1     -13.625   2.975   3.811  1.00  0.00     0.049 A 
ATOM     67  H   UNL     1     -12.007   2.504   2.540  1.00  0.00     0.167 HD
ATOM     68  C   UNL     1     -12.924   5.170   2.885  1.00  0.00     0.074 A 
ATOM     69  C   UNL     1     -13.046   6.606   2.742  1.00  0.00     0.031 C 
ATOM     70  C   UNL     1     -13.744   4.403   3.647  1.00  0.00     0.037 A 
BRANCH  57  71
ATOM     71  C   UNL     1     -12.416  -1.639   3.499  1.00  0.00     0.064 A 
ATOM     72  C   UNL     1     -11.572  -2.405   4.316  1.00  0.00     0.173 A 
ATOM     73  C   UNL     1     -13.635  -2.213   3.100  1.00  0.00     0.173 A 
ATOM     74  F   UNL     1     -10.390  -1.912   4.715  1.00  0.00    -0.203 F 
ATOM     75  C   UNL     1     -11.916  -3.705   4.685  1.00  0.00     0.198 A 
ATOM     76  C   UNL     1     -13.991  -3.499   3.499  1.00  0.00     0.198 A 
ATOM     77  F   UNL     1     -14.484  -1.525   2.322  1.00  0.00    -0.203 F 
ATOM     78  F   UNL     1     -11.066  -4.440   5.415  1.00  0.00    -0.200 F 
ATOM     79  C   UNL     1     -13.126  -4.248   4.281  1.00  0.00     0.200 A 
ATOM     80  F   UNL     1     -15.167  -4.016   3.117  1.00  0.00    -0.200 F 
ATOM     81  F   UNL     1     -13.455  -5.498   4.636  1.00  0.00    -0.200 F 
ENDBRANCH  57  71
BRANCH  58  82
ATOM     82  C   UNL     1      -9.904   7.381   0.021  1.00  0.00     0.064 A 
ATOM     83  C   UNL     1      -9.376   8.419   0.798  1.00  0.00     0.173 A 
ATOM     84  C   UNL     1     -10.092   7.622  -1.350  1.00  0.00     0.173 A 
ATOM     85  F   UNL     1      -9.202   8.247   2.117  1.00  0.00    -0.203 F 
ATOM     86  C   UNL     1      -9.052   9.649   0.228  1.00  0.00     0.198 A 
ATOM     87  C   UNL     1      -9.736   8.839  -1.924  1.00  0.00     0.198 A 
ATOM     88  F   UNL     1     -10.595   6.660  -2.138  1.00  0.00    -0.203 F 
ATOM     89  F   UNL     1      -8.581  10.638   1.000  1.00  0.00    -0.200 F 
ATOM     90  C   UNL     1      -9.221   9.854  -1.133  1.00  0.00     0.200 A 
ATOM     91  F   UNL     1      -9.884   9.024  -3.243  1.00  0.00    -0.200 F 
ATOM     92  F   UNL     1      -8.892  11.031  -1.682  1.00  0.00    -0.200 F 
ENDBRANCH  58  82
BRANCH  70  93
ATOM     93  C   UNL     1     -14.831   5.112   4.404  1.00  0.00     0.064 A 
ATOM     94  C   UNL     1     -15.935   5.681   3.752  1.00  0.00     0.173 A 
ATOM     95  C   UNL     1     -14.772   5.213   5.803  1.00  0.00     0.173 A 
ATOM     96  F   UNL     1     -16.031   5.627   2.415  1.00  0.00    -0.203 F 
ATOM     97  C   UNL     1     -16.923   6.352   4.469  1.00  0.00     0.198 A 
ATOM     98  C   UNL     1     -15.778   5.855   6.519  1.00  0.00     0.198 A 
ATOM     99  F   UNL     1     -13.741   4.683   6.477  1.00  0.00    -0.203 F 
ATOM    100  F   UNL     1     -17.937   6.939   3.819  1.00  0.00    -0.200 F 
ATOM    101  C   UNL     1     -16.847   6.433   5.851  1.00  0.00     0.200 A 
ATOM    102  F   UNL     1     -15.710   5.920   7.856  1.00  0.00    -0.200 F 
ATOM    103  F   UNL     1     -17.799   7.079   6.540  1.00  0.00    -0.200 F 
ENDBRANCH  70  93
ENDBRANCH  44  45
ENDBRANCH  37  39
ENDBRANCH  36  37
ENDBRANCH  35  36
ENDBRANCH  34  35
ENDBRANCH  33  34
ENDBRANCH   1  33
TORSDOF 18
