REMARK SMILES CC(C)(C)OC(=O)N[C@@H](C(=O)OCCOCCOCCOC(=O)c1ccc(-c2c3nc(c(-c4c(F)c(F)c(F)c(F)c4F)c4ccc([nH]4)c(-c4c(F)c(F)c(F)c(F)c4F)c4nc(c(-c5c(F)c(F)c(F)c(F)c5F)c5ccc2[nH]5)C=C4)C=C3)cc1)c1ccc([N+](=O)[O-])cc1
REMARK SMILES IDX 16 1 15 2 14 3 13 4 12 5 10 6 11 7 9 8 8 9 6 10 7 11 5 13
REMARK SMILES IDX 2 14 1 15 3 16 4 17 87 18 88 19 95 20 89 21 94 22 90 23
REMARK SMILES IDX 91 24 92 25 93 26 17 27 18 28 19 29 20 30 21 31 22 32 23 33
REMARK SMILES IDX 24 34 25 35 86 36 26 37 85 38 27 39 28 40 29 41 79 42 30 43
REMARK SMILES IDX 84 44 78 45 80 46 31 47 83 48 77 49 76 50 32 52 64 53 44 54
REMARK SMILES IDX 63 55 45 56 48 57 62 58 81 59 46 60 47 61 61 63 82 64 49 65
REMARK SMILES IDX 33 66 34 67 42 68 35 69 36 70 40 71 43 72 37 73 38 74 41 75
REMARK SMILES IDX 39 76 65 77 66 78 74 79 67 80 68 81 72 82 75 83 69 84 70 85
REMARK SMILES IDX 73 86 71 87 50 88 51 89 59 90 52 91 53 92 57 93 60 94 54 95
REMARK SMILES IDX 55 96 58 97 56 98
REMARK H PARENT 8 12 80 51 48 62
REMARK Flexibility Score: inf
ROOT
ATOM      1  C   UNL     1       3.607   5.078  -5.814  1.00  0.00     0.188 C 
ENDROOT
BRANCH   1   2
ATOM      2  O   UNL     1       5.028   5.059  -5.859  1.00  0.00    -0.376 OA
BRANCH   2   3
ATOM      3  C   UNL     1       5.719   3.930  -5.334  1.00  0.00     0.202 C 
BRANCH   3   4
ATOM      4  C   UNL     1       5.397   3.456  -3.901  1.00  0.00     0.261 C 
BRANCH   4   5
ATOM      5  O   UNL     1       3.993   3.280  -3.597  1.00  0.00    -0.461 OA
BRANCH   5   6
ATOM      6  C   UNL     1       3.522   3.891  -2.472  1.00  0.00     0.333 C 
ATOM      7  O   UNL     1       4.239   4.512  -1.691  1.00  0.00    -0.249 OA
BRANCH   6   8
ATOM      8  C   UNL     1       1.968   3.830  -2.305  1.00  0.00     0.226 C 
BRANCH   8   9
ATOM      9  N   UNL     1       1.223   2.959  -3.215  1.00  0.00    -0.304 N 
ATOM     10  C   UNL     1       0.778   1.703  -2.990  1.00  0.00     0.408 C 
ATOM     11  O   UNL     1       0.099   1.126  -3.838  1.00  0.00    -0.225 OA
ATOM     12  H   UNL     1       1.022   3.335  -4.102  1.00  0.00     0.168 HD
BRANCH  10  13
ATOM     13  O   UNL     1       1.078   1.244  -1.763  1.00  0.00    -0.444 OA
BRANCH  13  14
ATOM     14  C   UNL     1       0.486   0.009  -1.285  1.00  0.00     0.106 C 
ATOM     15  C   UNL     1       0.982  -0.110   0.162  1.00  0.00     0.056 C 
ATOM     16  C   UNL     1       0.983  -1.196  -2.088  1.00  0.00     0.056 C 
ATOM     17  C   UNL     1      -1.048   0.090  -1.267  1.00  0.00     0.056 C 
ENDBRANCH  13  14
ENDBRANCH  10  13
ENDBRANCH   8   9
BRANCH   8  18
ATOM     18  C   UNL     1       1.280   5.209  -2.335  1.00  0.00    -0.014 A 
ATOM     19  C   UNL     1       1.950   6.414  -2.607  1.00  0.00     0.013 A 
ATOM     20  C   UNL     1      -0.105   5.268  -2.066  1.00  0.00     0.013 A 
ATOM     21  C   UNL     1       1.272   7.638  -2.583  1.00  0.00     0.086 A 
ATOM     22  C   UNL     1      -0.793   6.484  -2.044  1.00  0.00     0.086 A 
ATOM     23  C   UNL     1      -0.092   7.668  -2.283  1.00  0.00     0.269 A 
BRANCH  23  24
ATOM     24  N   UNL     1      -0.783   8.954  -2.160  1.00  0.00     0.062 N 
ATOM     25  O   UNL     1      -0.088   9.956  -1.935  1.00  0.00    -0.258 OA
ATOM     26  O   UNL     1      -2.017   8.952  -2.263  1.00  0.00    -0.258 OA
ENDBRANCH  23  24
ENDBRANCH   8  18
ENDBRANCH   6   8
ENDBRANCH   5   6
ENDBRANCH   4   5
ENDBRANCH   3   4
ENDBRANCH   2   3
ENDBRANCH   1   2
BRANCH   1  27
ATOM     27  C   UNL     1       2.826   3.792  -6.126  1.00  0.00     0.188 C 
BRANCH  27  28
ATOM     28  O   UNL     1       3.624   2.720  -6.551  1.00  0.00    -0.376 OA
BRANCH  28  29
ATOM     29  C   UNL     1       3.546   2.308  -7.898  1.00  0.00     0.202 C 
BRANCH  29  30
ATOM     30  C   UNL     1       3.516   3.337  -9.043  1.00  0.00     0.261 C 
BRANCH  30  31
ATOM     31  O   UNL     1       2.887   4.606  -8.792  1.00  0.00    -0.460 OA
BRANCH  31  32
ATOM     32  C   UNL     1       1.542   4.674  -8.934  1.00  0.00     0.338 C 
ATOM     33  O   UNL     1       0.787   3.766  -9.226  1.00  0.00    -0.246 OA
BRANCH  32  34
ATOM     34  C   UNL     1       1.099   6.010  -8.468  1.00  0.00     0.060 A 
ATOM     35  C   UNL     1       0.273   6.106  -7.337  1.00  0.00     0.016 A 
ATOM     36  C   UNL     1       1.484   7.162  -9.154  1.00  0.00     0.016 A 
ATOM     37  C   UNL     1      -0.189   7.353  -6.906  1.00  0.00     0.010 A 
ATOM     38  C   UNL     1       1.001   8.407  -8.737  1.00  0.00     0.010 A 
ATOM     39  C   UNL     1       0.140   8.508  -7.629  1.00  0.00    -0.014 A 
BRANCH  39  40
ATOM     40  C   UNL     1      -0.542   9.796  -7.341  1.00  0.00     0.031 A 
ATOM     41  C   UNL     1      -1.706  10.205  -8.201  1.00  0.00     0.074 A 
ATOM     42  C   UNL     1      -0.131  10.602  -6.346  1.00  0.00     0.049 A 
ATOM     43  N   UNL     1      -2.395  11.318  -8.200  1.00  0.00    -0.248 NA
ATOM     44  C   UNL     1      -2.143   9.228  -9.210  1.00  0.00     0.031 C 
ATOM     45  C   UNL     1       0.968  10.314  -5.431  1.00  0.00     0.029 A 
ATOM     46  N   UNL     1      -0.590  11.835  -5.948  1.00  0.00    -0.354 N 
ATOM     47  C   UNL     1      -3.328  11.185  -9.219  1.00  0.00     0.074 A 
ATOM     48  C   UNL     1      -3.106   9.892  -9.831  1.00  0.00     0.031 C 
ATOM     49  C   UNL     1       1.097  11.341  -4.573  1.00  0.00     0.029 A 
ATOM     50  C   UNL     1       0.118  12.376  -4.902  1.00  0.00     0.049 A 
ATOM     51  H   UNL     1      -1.354  12.287  -6.373  1.00  0.00     0.167 HD
ATOM     52  C   UNL     1      -4.283  12.062  -9.611  1.00  0.00     0.037 A 
ATOM     53  C   UNL     1       0.003  13.577  -4.299  1.00  0.00     0.037 A 
ATOM     54  C   UNL     1      -4.503  13.349  -9.003  1.00  0.00     0.049 A 
ATOM     55  C   UNL     1      -1.037  14.556  -4.789  1.00  0.00     0.074 A 
ATOM     56  C   UNL     1      -5.456  14.301  -9.322  1.00  0.00     0.029 A 
ATOM     57  N   UNL     1      -3.756  13.868  -7.956  1.00  0.00    -0.354 N 
ATOM     58  N   UNL     1      -1.926  14.419  -5.744  1.00  0.00    -0.248 NA
ATOM     59  C   UNL     1      -1.080  15.868  -4.124  1.00  0.00     0.031 C 
ATOM     60  C   UNL     1      -5.244  15.421  -8.514  1.00  0.00     0.029 A 
ATOM     61  C   UNL     1      -4.208  15.140  -7.639  1.00  0.00     0.049 A 
ATOM     62  H   UNL     1      -3.015  13.402  -7.505  1.00  0.00     0.167 HD
ATOM     63  C   UNL     1      -2.649  15.606  -5.771  1.00  0.00     0.074 A 
ATOM     64  C   UNL     1      -2.108  16.448  -4.727  1.00  0.00     0.031 C 
ATOM     65  C   UNL     1      -3.668  15.967  -6.590  1.00  0.00     0.037 A 
BRANCH  52  66
ATOM     66  C   UNL     1      -5.141  11.678 -10.782  1.00  0.00     0.064 A 
ATOM     67  C   UNL     1      -6.096  10.655 -10.698  1.00  0.00     0.173 A 
ATOM     68  C   UNL     1      -5.030  12.374 -11.996  1.00  0.00     0.173 A 
ATOM     69  F   UNL     1      -6.232   9.948  -9.566  1.00  0.00    -0.203 F 
ATOM     70  C   UNL     1      -6.891  10.326 -11.794  1.00  0.00     0.198 A 
ATOM     71  C   UNL     1      -5.850  12.066 -13.078  1.00  0.00     0.198 A 
ATOM     72  F   UNL     1      -4.135  13.365 -12.130  1.00  0.00    -0.203 F 
ATOM     73  F   UNL     1      -7.762   9.311 -11.707  1.00  0.00    -0.200 F 
ATOM     74  C   UNL     1      -6.774  11.037 -12.979  1.00  0.00     0.200 A 
ATOM     75  F   UNL     1      -5.746  12.765 -14.216  1.00  0.00    -0.200 F 
ATOM     76  F   UNL     1      -7.548  10.727 -14.028  1.00  0.00    -0.200 F 
ENDBRANCH  52  66
BRANCH  53  77
ATOM     77  C   UNL     1       0.908  13.943  -3.175  1.00  0.00     0.064 A 
ATOM     78  C   UNL     1       0.407  14.173  -1.884  1.00  0.00     0.173 A 
ATOM     79  C   UNL     1       2.287  14.118  -3.374  1.00  0.00     0.173 A 
ATOM     80  F   UNL     1      -0.909  14.064  -1.648  1.00  0.00    -0.203 F 
ATOM     81  C   UNL     1       1.242  14.585  -0.847  1.00  0.00     0.198 A 
ATOM     82  C   UNL     1       3.126  14.493  -2.327  1.00  0.00     0.198 A 
ATOM     83  F   UNL     1       2.821  13.924  -4.589  1.00  0.00    -0.203 F 
ATOM     84  F   UNL     1       0.725  14.867   0.357  1.00  0.00    -0.200 F 
ATOM     85  C   UNL     1       2.602  14.738  -1.068  1.00  0.00     0.200 A 
ATOM     86  F   UNL     1       4.442  14.631  -2.544  1.00  0.00    -0.200 F 
ATOM     87  F   UNL     1       3.405  15.138  -0.072  1.00  0.00    -0.200 F 
ENDBRANCH  53  77
BRANCH  65  88
ATOM     88  C   UNL     1      -4.301  17.314  -6.366  1.00  0.00     0.064 A 
ATOM     89  C   UNL     1      -3.626  18.509  -6.658  1.00  0.00     0.173 A 
ATOM     90  C   UNL     1      -5.622  17.407  -5.899  1.00  0.00     0.173 A 
ATOM     91  F   UNL     1      -2.359  18.480  -7.098  1.00  0.00    -0.203 F 
ATOM     92  C   UNL     1      -4.238  19.745  -6.461  1.00  0.00     0.198 A 
ATOM     93  C   UNL     1      -6.243  18.643  -5.738  1.00  0.00     0.198 A 
ATOM     94  F   UNL     1      -6.319  16.297  -5.615  1.00  0.00    -0.203 F 
ATOM     95  F   UNL     1      -3.556  20.874  -6.697  1.00  0.00    -0.200 F 
ATOM     96  C   UNL     1      -5.548  19.811  -6.010  1.00  0.00     0.200 A 
ATOM     97  F   UNL     1      -7.515  18.703  -5.321  1.00  0.00    -0.200 F 
ATOM     98  F   UNL     1      -6.139  21.001  -5.832  1.00  0.00    -0.200 F 
ENDBRANCH  65  88
ENDBRANCH  39  40
ENDBRANCH  32  34
ENDBRANCH  31  32
ENDBRANCH  30  31
ENDBRANCH  29  30
ENDBRANCH  28  29
ENDBRANCH  27  28
ENDBRANCH   1  27
TORSDOF 22
