REMARK SMILES C[C@@]1(CN2C(=O)c3ccc(C(=O)OCCOCCOCCOC(=O)c4ccc(-c5c6nc(c(-c7c(F)c(F)c(F)c(F)c7F)c7ccc([nH]7)c(-c7c(F)c(F)c(F)c(F)c7F)c7nc(c(-c8c(F)c(F)c(F)c(F)c8F)c8ccc5[nH]8)C=C7)C=C6)cc4)cc3C2=O)CCCO1
REMARK SMILES IDX 17 1 16 2 15 3 14 4 13 5 11 6 12 7 10 8 4 9 5 10 90 11 6 12
REMARK SMILES IDX 7 13 89 14 91 15 8 16 88 17 9 18 3 19 2 20 1 21 92 22 95 23
REMARK SMILES IDX 93 24 94 25 18 26 19 27 20 28 21 29 22 30 23 31 24 32 25 33
REMARK SMILES IDX 26 34 87 35 27 36 86 37 28 38 29 39 30 40 80 41 31 42 85 43
REMARK SMILES IDX 79 44 81 45 32 46 84 47 78 48 77 49 33 51 65 52 45 53 64 54
REMARK SMILES IDX 46 55 49 56 63 57 82 58 47 59 48 60 62 62 83 63 50 64 34 65
REMARK SMILES IDX 35 66 43 67 36 68 37 69 41 70 44 71 38 72 39 73 42 74 40 75
REMARK SMILES IDX 66 76 67 77 75 78 68 79 69 80 73 81 76 82 70 83 71 84 74 85
REMARK SMILES IDX 72 86 51 87 52 88 60 89 53 90 54 91 58 92 61 93 55 94 56 95
REMARK SMILES IDX 59 96 57 97
REMARK H PARENT 81 50 49 61
REMARK Flexibility Score: inf
ROOT
ATOM      1  C   UNL     1      -5.559   6.601   1.530  1.00  0.00     0.188 C 
ENDROOT
BRANCH   1   2
ATOM      2  O   UNL     1      -5.859   7.939   1.892  1.00  0.00    -0.376 OA
BRANCH   2   3
ATOM      3  C   UNL     1      -5.202   9.020   1.246  1.00  0.00     0.202 C 
BRANCH   3   4
ATOM      4  C   UNL     1      -3.684   9.011   0.992  1.00  0.00     0.261 C 
BRANCH   4   5
ATOM      5  O   UNL     1      -3.137   7.779   0.497  1.00  0.00    -0.460 OA
BRANCH   5   6
ATOM      6  C   UNL     1      -2.333   7.106   1.357  1.00  0.00     0.338 C 
ATOM      7  O   UNL     1      -2.001   7.455   2.478  1.00  0.00    -0.246 OA
BRANCH   6   8
ATOM      8  C   UNL     1      -2.047   5.749   0.829  1.00  0.00     0.060 A 
ATOM      9  N   UNL     1      -1.307   1.221   0.999  1.00  0.00    -0.271 N 
ATOM     10  C   UNL     1      -1.269   1.771  -0.256  1.00  0.00     0.261 C 
ATOM     11  C   UNL     1      -1.713   2.131   1.934  1.00  0.00     0.261 C 
ATOM     12  O   UNL     1      -1.065   1.241  -1.325  1.00  0.00    -0.269 OA
ATOM     13  C   UNL     1      -1.542   3.200  -0.090  1.00  0.00     0.053 A 
ATOM     14  C   UNL     1      -1.803   3.420   1.249  1.00  0.00     0.054 A 
ATOM     15  O   UNL     1      -2.019   1.969   3.103  1.00  0.00    -0.269 OA
ATOM     16  C   UNL     1      -1.534   4.227  -1.016  1.00  0.00     0.015 A 
ATOM     17  C   UNL     1      -2.067   4.682   1.742  1.00  0.00     0.030 A 
ATOM     18  C   UNL     1      -1.792   5.522  -0.545  1.00  0.00     0.016 A 
BRANCH   9  19
ATOM     19  C   UNL     1      -0.976  -0.169   1.290  1.00  0.00     0.164 C 
BRANCH  19  20
ATOM     20  C   UNL     1       0.553  -0.429   1.433  1.00  0.00     0.084 C 
ATOM     21  C   UNL     1       1.340  -0.060   0.174  1.00  0.00     0.044 C 
ATOM     22  C   UNL     1       0.829  -1.889   1.817  1.00  0.00     0.039 C 
ATOM     23  O   UNL     1       1.064   0.367   2.526  1.00  0.00    -0.373 OA
ATOM     24  C   UNL     1       0.835  -1.853   3.325  1.00  0.00     0.031 C 
ATOM     25  C   UNL     1       1.434  -0.495   3.611  1.00  0.00     0.161 C 
ENDBRANCH  19  20
ENDBRANCH   9  19
ENDBRANCH   6   8
ENDBRANCH   5   6
ENDBRANCH   4   5
ENDBRANCH   3   4
ENDBRANCH   2   3
ENDBRANCH   1   2
BRANCH   1  26
ATOM     26  C   UNL     1      -5.565   6.178   0.046  1.00  0.00     0.188 C 
BRANCH  26  27
ATOM     27  O   UNL     1      -5.747   7.228  -0.870  1.00  0.00    -0.376 OA
BRANCH  27  28
ATOM     28  C   UNL     1      -7.051   7.545  -1.328  1.00  0.00     0.202 C 
BRANCH  28  29
ATOM     29  C   UNL     1      -8.371   7.163  -0.621  1.00  0.00     0.261 C 
BRANCH  29  30
ATOM     30  O   UNL     1      -8.323   6.278   0.503  1.00  0.00    -0.460 OA
BRANCH  30  31
ATOM     31  C   UNL     1      -8.593   4.974   0.256  1.00  0.00     0.338 C 
ATOM     32  O   UNL     1      -8.828   4.460  -0.822  1.00  0.00    -0.246 OA
BRANCH  31  33
ATOM     33  C   UNL     1      -8.374   4.204   1.497  1.00  0.00     0.060 A 
ATOM     34  C   UNL     1      -7.290   3.317   1.554  1.00  0.00     0.016 A 
ATOM     35  C   UNL     1      -9.247   4.325   2.579  1.00  0.00     0.016 A 
ATOM     36  C   UNL     1      -7.090   2.529   2.687  1.00  0.00     0.010 A 
ATOM     37  C   UNL     1      -9.058   3.516   3.706  1.00  0.00     0.010 A 
ATOM     38  C   UNL     1      -7.998   2.591   3.752  1.00  0.00    -0.014 A 
BRANCH  38  39
ATOM     39  C   UNL     1      -7.934   1.568   4.827  1.00  0.00     0.031 A 
ATOM     40  C   UNL     1      -8.882   0.401   4.774  1.00  0.00     0.074 A 
ATOM     41  C   UNL     1      -7.024   1.650   5.815  1.00  0.00     0.049 A 
ATOM     42  N   UNL     1      -9.020  -0.601   5.605  1.00  0.00    -0.248 NA
ATOM     43  C   UNL     1      -9.801   0.358   3.625  1.00  0.00     0.031 C 
ATOM     44  C   UNL     1      -6.024   2.705   5.957  1.00  0.00     0.029 A 
ATOM     45  N   UNL     1      -6.800   0.825   6.891  1.00  0.00    -0.354 N 
ATOM     46  C   UNL     1     -10.042  -1.384   5.086  1.00  0.00     0.074 A 
ATOM     47  C   UNL     1     -10.512  -0.728   3.886  1.00  0.00     0.031 C 
ATOM     48  C   UNL     1      -5.299   2.471   7.065  1.00  0.00     0.029 A 
ATOM     49  C   UNL     1      -5.804   1.269   7.726  1.00  0.00     0.049 A 
ATOM     50  H   UNL     1      -7.305  -0.005   7.048  1.00  0.00     0.167 HD
ATOM     51  C   UNL     1     -10.538  -2.551   5.563  1.00  0.00     0.037 A 
ATOM     52  C   UNL     1      -5.369   0.773   8.901  1.00  0.00     0.037 A 
ATOM     53  C   UNL     1     -10.065  -3.206   6.754  1.00  0.00     0.049 A 
ATOM     54  C   UNL     1      -5.986  -0.492   9.445  1.00  0.00     0.074 A 
ATOM     55  C   UNL     1     -10.481  -4.409   7.298  1.00  0.00     0.029 A 
ATOM     56  N   UNL     1      -9.078  -2.709   7.592  1.00  0.00    -0.354 N 
ATOM     57  N   UNL     1      -6.923  -1.250   8.928  1.00  0.00    -0.248 NA
ATOM     58  C   UNL     1      -5.478  -0.976  10.738  1.00  0.00     0.031 C 
ATOM     59  C   UNL     1      -9.796  -4.605   8.501  1.00  0.00     0.029 A 
ATOM     60  C   UNL     1      -8.900  -3.562   8.670  1.00  0.00     0.049 A 
ATOM     61  H   UNL     1      -8.579  -1.873   7.444  1.00  0.00     0.167 HD
ATOM     62  C   UNL     1      -7.092  -2.310   9.811  1.00  0.00     0.074 A 
ATOM     63  C   UNL     1      -6.148  -2.108  10.889  1.00  0.00     0.031 C 
ATOM     64  C   UNL     1      -7.952  -3.356   9.735  1.00  0.00     0.037 A 
BRANCH  51  65
ATOM     65  C   UNL     1     -11.675  -3.184   4.815  1.00  0.00     0.064 A 
ATOM     66  C   UNL     1     -11.499  -3.771   3.553  1.00  0.00     0.173 A 
ATOM     67  C   UNL     1     -12.952  -3.250   5.395  1.00  0.00     0.173 A 
ATOM     68  F   UNL     1     -10.302  -3.725   2.947  1.00  0.00    -0.203 F 
ATOM     69  C   UNL     1     -12.562  -4.379   2.890  1.00  0.00     0.198 A 
ATOM     70  C   UNL     1     -14.004  -3.888   4.745  1.00  0.00     0.198 A 
ATOM     71  F   UNL     1     -13.175  -2.709   6.602  1.00  0.00    -0.203 F 
ATOM     72  F   UNL     1     -12.381  -4.895   1.666  1.00  0.00    -0.200 F 
ATOM     73  C   UNL     1     -13.811  -4.446   3.491  1.00  0.00     0.200 A 
ATOM     74  F   UNL     1     -15.206  -3.965   5.334  1.00  0.00    -0.200 F 
ATOM     75  F   UNL     1     -14.829  -5.045   2.858  1.00  0.00    -0.200 F 
ENDBRANCH  51  65
BRANCH  52  76
ATOM     76  C   UNL     1      -4.306   1.483   9.664  1.00  0.00     0.064 A 
ATOM     77  C   UNL     1      -3.048   0.901   9.876  1.00  0.00     0.173 A 
ATOM     78  C   UNL     1      -4.544   2.743  10.235  1.00  0.00     0.173 A 
ATOM     79  F   UNL     1      -2.780  -0.316   9.381  1.00  0.00    -0.203 F 
ATOM     80  C   UNL     1      -2.081   1.538  10.653  1.00  0.00     0.198 A 
ATOM     81  C   UNL     1      -3.564   3.394  10.981  1.00  0.00     0.198 A 
ATOM     82  F   UNL     1      -5.733   3.341  10.071  1.00  0.00    -0.203 F 
ATOM     83  F   UNL     1      -0.912   0.929  10.896  1.00  0.00    -0.200 F 
ATOM     84  C   UNL     1      -2.338   2.786  11.200  1.00  0.00     0.200 A 
ATOM     85  F   UNL     1      -3.815   4.603  11.501  1.00  0.00    -0.200 F 
ATOM     86  F   UNL     1      -1.410   3.395  11.951  1.00  0.00    -0.200 F 
ENDBRANCH  52  76
BRANCH  64  87
ATOM     87  C   UNL     1      -7.888  -4.390  10.826  1.00  0.00     0.064 A 
ATOM     88  C   UNL     1      -8.308  -4.114  12.135  1.00  0.00     0.173 A 
ATOM     89  C   UNL     1      -7.438  -5.691  10.544  1.00  0.00     0.173 A 
ATOM     90  F   UNL     1      -8.736  -2.885  12.462  1.00  0.00    -0.203 F 
ATOM     91  C   UNL     1      -8.249  -5.089  13.128  1.00  0.00     0.198 A 
ATOM     92  C   UNL     1      -7.416  -6.673  11.530  1.00  0.00     0.198 A 
ATOM     93  F   UNL     1      -7.035  -6.014   9.307  1.00  0.00    -0.203 F 
ATOM     94  F   UNL     1      -8.603  -4.785  14.385  1.00  0.00    -0.200 F 
ATOM     95  C   UNL     1      -7.812  -6.369  12.823  1.00  0.00     0.200 A 
ATOM     96  F   UNL     1      -7.012  -7.915  11.228  1.00  0.00    -0.200 F 
ATOM     97  F   UNL     1      -7.766  -7.309  13.778  1.00  0.00    -0.200 F 
ENDBRANCH  64  87
ENDBRANCH  38  39
ENDBRANCH  31  33
ENDBRANCH  30  31
ENDBRANCH  29  30
ENDBRANCH  28  29
ENDBRANCH  27  28
ENDBRANCH  26  27
ENDBRANCH   1  26
TORSDOF 19
