REMARK SMILES O=C(N[C@@H](Cc1c[nH]c2ccccc12)C(=O)N[C@@H](CO)C(=O)OCCOCCOCCOC(=O)c1ccc(-c2c3nc(c(-c4c(F)c(F)c(F)c(F)c4F)c4ccc([nH]4)c(-c4c(F)c(F)c(F)c(F)c4F)c4nc(c(-c5c(F)c(F)c(F)c(F)c5F)c5ccc2[nH]5)C=C4)C=C3)cc1)c1ccc(F)cc1
REMARK SMILES IDX 27 1 26 2 25 3 24 4 23 5 21 6 22 7 18 8 17 9 15 10 16 11
REMARK SMILES IDX 4 13 3 14 1 15 2 16 98 18 99 19 104 20 100 21 103 22 101 23
REMARK SMILES IDX 102 24 5 25 6 26 7 27 14 28 8 29 9 30 13 31 10 33 12 34
REMARK SMILES IDX 11 35 19 36 20 37 28 39 29 40 30 41 31 42 32 43 33 44 34 45
REMARK SMILES IDX 35 46 36 47 97 48 37 49 96 50 38 51 39 52 40 53 90 54 41 55
REMARK SMILES IDX 95 56 89 57 91 58 42 59 94 60 88 61 87 62 43 64 75 65 55 66
REMARK SMILES IDX 74 67 56 68 59 69 73 70 92 71 57 72 58 73 72 75 93 76 60 77
REMARK SMILES IDX 44 78 45 79 53 80 46 81 47 82 51 83 54 84 48 85 49 86 52 87
REMARK SMILES IDX 50 88 76 89 77 90 85 91 78 92 79 93 83 94 86 95 80 96 81 97
REMARK SMILES IDX 84 98 82 99 61 100 62 101 70 102 63 103 64 104 68 105 71 106
REMARK SMILES IDX 65 107 66 108 69 109 67 110
REMARK H PARENT 17 12 3 17 8 32 20 38 91 63 59 74
REMARK Flexibility Score: inf
ROOT
ATOM      1  C   UNL     1       7.256  -4.014   4.160  1.00  0.00     0.188 C 
ENDROOT
BRANCH   1   2
ATOM      2  O   UNL     1       7.218  -5.341   4.678  1.00  0.00    -0.376 OA
BRANCH   2   3
ATOM      3  C   UNL     1       5.930  -5.922   4.850  1.00  0.00     0.202 C 
BRANCH   3   4
ATOM      4  C   UNL     1       5.392  -6.614   3.594  1.00  0.00     0.261 C 
BRANCH   4   5
ATOM      5  O   UNL     1       4.784  -5.704   2.648  1.00  0.00    -0.462 OA
BRANCH   5   6
ATOM      6  C   UNL     1       3.436  -5.494   2.734  1.00  0.00     0.331 C 
ATOM      7  O   UNL     1       2.733  -5.951   3.628  1.00  0.00    -0.250 OA
BRANCH   6   8
ATOM      8  C   UNL     1       2.904  -4.591   1.575  1.00  0.00     0.218 C 
BRANCH   8   9
ATOM      9  N   UNL     1       3.987  -3.976   0.775  1.00  0.00    -0.339 N 
ATOM     10  C   UNL     1       4.422  -2.702   0.584  1.00  0.00     0.243 C 
ATOM     11  O   UNL     1       5.581  -2.605   0.153  1.00  0.00    -0.273 OA
ATOM     12  H   UNL     1       4.510  -4.638   0.268  1.00  0.00     0.164 HD
BRANCH  10  13
ATOM     13  C   UNL     1       3.649  -1.386   0.886  1.00  0.00     0.176 C 
BRANCH  13  14
ATOM     14  N   UNL     1       2.293  -1.304   0.348  1.00  0.00    -0.340 N 
ATOM     15  O   UNL     1       0.555  -0.267  -0.652  1.00  0.00    -0.269 OA
ATOM     16  C   UNL     1       1.765  -0.303  -0.447  1.00  0.00     0.251 C 
ATOM     17  H   UNL     1       1.686  -2.044   0.578  1.00  0.00     0.164 HD
BRANCH  16  18
ATOM     18  C   UNL     1       2.626   0.762  -1.032  1.00  0.00     0.040 A 
ATOM     19  C   UNL     1       3.698   0.455  -1.884  1.00  0.00     0.017 A 
ATOM     20  C   UNL     1       2.304   2.105  -0.781  1.00  0.00     0.017 A 
ATOM     21  C   UNL     1       4.474   1.482  -2.433  1.00  0.00     0.040 A 
ATOM     22  C   UNL     1       3.078   3.129  -1.339  1.00  0.00     0.040 A 
ATOM     23  C   UNL     1       4.159   2.808  -2.154  1.00  0.00     0.123 A 
ATOM     24  F   UNL     1       4.899   3.789  -2.687  1.00  0.00    -0.207 F 
ENDBRANCH  16  18
ENDBRANCH  13  14
BRANCH  13  25
ATOM     25  C   UNL     1       3.812  -0.711   2.268  1.00  0.00     0.072 C 
BRANCH  25  26
ATOM     26  C   UNL     1       3.452  -1.473   3.500  1.00  0.00    -0.020 A 
ATOM     27  C   UNL     1       3.966  -2.703   3.825  1.00  0.00     0.087 A 
ATOM     28  C   UNL     1       2.731  -1.046   4.670  1.00  0.00     0.003 A 
ATOM     29  N   UNL     1       3.402  -3.142   4.982  1.00  0.00    -0.361 N 
ATOM     30  C   UNL     1       2.742  -2.107   5.580  1.00  0.00     0.046 A 
ATOM     31  C   UNL     1       2.109   0.150   5.077  1.00  0.00     0.010 A 
ATOM     32  H   UNL     1       3.460  -4.060   5.332  1.00  0.00     0.166 HD
ATOM     33  C   UNL     1       2.183  -2.050   6.858  1.00  0.00     0.026 A 
ATOM     34  C   UNL     1       1.565   0.237   6.370  1.00  0.00     0.001 A 
ATOM     35  C   UNL     1       1.608  -0.844   7.247  1.00  0.00     0.002 A 
ENDBRANCH  25  26
ENDBRANCH  13  25
ENDBRANCH  10  13
ENDBRANCH   8   9
BRANCH   8  36
ATOM     36  C   UNL     1       2.019  -5.487   0.704  1.00  0.00     0.193 C 
BRANCH  36  37
ATOM     37  O   UNL     1       2.778  -6.537   0.102  1.00  0.00    -0.394 OA
ATOM     38  H   UNL     1       3.465  -6.154  -0.466  1.00  0.00     0.210 HD
ENDBRANCH  36  37
ENDBRANCH   8  36
ENDBRANCH   6   8
ENDBRANCH   5   6
ENDBRANCH   4   5
ENDBRANCH   3   4
ENDBRANCH   2   3
ENDBRANCH   1   2
BRANCH   1  39
ATOM     39  C   UNL     1       7.433  -3.961   2.636  1.00  0.00     0.188 C 
BRANCH  39  40
ATOM     40  O   UNL     1       8.424  -4.816   2.070  1.00  0.00    -0.376 OA
BRANCH  40  41
ATOM     41  C   UNL     1       9.642  -4.956   2.794  1.00  0.00     0.202 C 
BRANCH  41  42
ATOM     42  C   UNL     1      10.543  -3.717   2.814  1.00  0.00     0.261 C 
BRANCH  42  43
ATOM     43  O   UNL     1       9.885  -2.557   3.366  1.00  0.00    -0.460 OA
BRANCH  43  44
ATOM     44  C   UNL     1       9.970  -1.436   2.612  1.00  0.00     0.338 C 
ATOM     45  O   UNL     1      10.592  -1.278   1.577  1.00  0.00    -0.246 OA
BRANCH  44  46
ATOM     46  C   UNL     1       9.124  -0.368   3.178  1.00  0.00     0.060 A 
ATOM     47  C   UNL     1       7.916  -0.062   2.542  1.00  0.00     0.016 A 
ATOM     48  C   UNL     1       9.619   0.459   4.189  1.00  0.00     0.016 A 
ATOM     49  C   UNL     1       7.221   1.100   2.889  1.00  0.00     0.010 A 
ATOM     50  C   UNL     1       8.919   1.624   4.534  1.00  0.00     0.010 A 
ATOM     51  C   UNL     1       7.734   1.970   3.861  1.00  0.00    -0.014 A 
BRANCH  51  52
ATOM     52  C   UNL     1       7.127   3.318   4.026  1.00  0.00     0.031 A 
ATOM     53  C   UNL     1       7.756   4.493   3.327  1.00  0.00     0.074 A 
ATOM     54  C   UNL     1       5.999   3.502   4.735  1.00  0.00     0.049 A 
ATOM     55  N   UNL     1       7.444   5.763   3.388  1.00  0.00    -0.248 NA
ATOM     56  C   UNL     1       8.889   4.192   2.438  1.00  0.00     0.031 C 
ATOM     57  C   UNL     1       5.247   2.450   5.410  1.00  0.00     0.029 A 
ATOM     58  N   UNL     1       5.290   4.650   5.003  1.00  0.00    -0.354 N 
ATOM     59  C   UNL     1       8.360   6.416   2.573  1.00  0.00     0.074 A 
ATOM     60  C   UNL     1       9.234   5.402   2.023  1.00  0.00     0.031 C 
ATOM     61  C   UNL     1       4.181   3.001   6.015  1.00  0.00     0.029 A 
ATOM     62  C   UNL     1       4.186   4.446   5.794  1.00  0.00     0.049 A 
ATOM     63  H   UNL     1       5.549   5.536   4.658  1.00  0.00     0.167 HD
ATOM     64  C   UNL     1       8.470   7.741   2.315  1.00  0.00     0.037 A 
ATOM     65  C   UNL     1       3.296   5.323   6.301  1.00  0.00     0.037 A 
ATOM     66  C   UNL     1       7.596   8.755   2.842  1.00  0.00     0.049 A 
ATOM     67  C   UNL     1       3.463   6.797   6.030  1.00  0.00     0.074 A 
ATOM     68  C   UNL     1       7.646  10.125   2.647  1.00  0.00     0.029 A 
ATOM     69  N   UNL     1       6.508   8.510   3.666  1.00  0.00    -0.354 N 
ATOM     70  N   UNL     1       4.355   7.409   5.291  1.00  0.00    -0.248 NA
ATOM     71  C   UNL     1       2.508   7.705   6.685  1.00  0.00     0.031 C 
ATOM     72  C   UNL     1       6.612  10.712   3.383  1.00  0.00     0.029 A 
ATOM     73  C   UNL     1       5.890   9.704   4.000  1.00  0.00     0.049 A 
ATOM     74  H   UNL     1       6.218   7.619   3.968  1.00  0.00     0.167 HD
ATOM     75  C   UNL     1       4.068   8.765   5.387  1.00  0.00     0.074 A 
ATOM     76  C   UNL     1       2.898   8.887   6.229  1.00  0.00     0.031 C 
ATOM     77  C   UNL     1       4.724   9.816   4.838  1.00  0.00     0.037 A 
BRANCH  64  78
ATOM     78  C   UNL     1       9.618   8.179   1.459  1.00  0.00     0.064 A 
ATOM     79  C   UNL     1       9.627   7.981   0.071  1.00  0.00     0.173 A 
ATOM     80  C   UNL     1      10.715   8.835   2.039  1.00  0.00     0.173 A 
ATOM     81  F   UNL     1       8.608   7.344  -0.525  1.00  0.00    -0.203 F 
ATOM     82  C   UNL     1      10.703   8.406  -0.703  1.00  0.00     0.198 A 
ATOM     83  C   UNL     1      11.778   9.280   1.259  1.00  0.00     0.198 A 
ATOM     84  F   UNL     1      10.752   9.049   3.363  1.00  0.00    -0.203 F 
ATOM     85  F   UNL     1      10.711   8.172  -2.023  1.00  0.00    -0.200 F 
ATOM     86  C   UNL     1      11.774   9.060  -0.110  1.00  0.00     0.200 A 
ATOM     87  F   UNL     1      12.806   9.920   1.833  1.00  0.00    -0.200 F 
ATOM     88  F   UNL     1      12.806   9.474  -0.858  1.00  0.00    -0.200 F 
ENDBRANCH  64  78
BRANCH  65  89
ATOM     89  C   UNL     1       2.167   4.844   7.145  1.00  0.00     0.064 A 
ATOM     90  C   UNL     1       0.840   4.963   6.709  1.00  0.00     0.173 A 
ATOM     91  C   UNL     1       2.388   4.297   8.417  1.00  0.00     0.173 A 
ATOM     92  F   UNL     1       0.574   5.508   5.513  1.00  0.00    -0.203 F 
ATOM     93  C   UNL     1      -0.223   4.571   7.521  1.00  0.00     0.198 A 
ATOM     94  C   UNL     1       1.326   3.874   9.214  1.00  0.00     0.198 A 
ATOM     95  F   UNL     1       3.637   4.169   8.887  1.00  0.00    -0.203 F 
ATOM     96  F   UNL     1      -1.484   4.746   7.101  1.00  0.00    -0.200 F 
ATOM     97  C   UNL     1       0.021   4.021   8.770  1.00  0.00     0.200 A 
ATOM     98  F   UNL     1       1.567   3.331  10.415  1.00  0.00    -0.200 F 
ATOM     99  F   UNL     1      -1.001   3.640   9.548  1.00  0.00    -0.200 F 
ENDBRANCH  65  89
BRANCH  77 100
ATOM    100  C   UNL     1       4.189  11.191   5.117  1.00  0.00     0.064 A 
ATOM    101  C   UNL     1       4.336  11.792   6.377  1.00  0.00     0.173 A 
ATOM    102  C   UNL     1       3.560  11.932   4.106  1.00  0.00     0.173 A 
ATOM    103  F   UNL     1       4.917  11.119   7.381  1.00  0.00    -0.203 F 
ATOM    104  C   UNL     1       3.852  13.075   6.619  1.00  0.00     0.198 A 
ATOM    105  C   UNL     1       3.101  13.225   4.344  1.00  0.00     0.198 A 
ATOM    106  F   UNL     1       3.399  11.405   2.882  1.00  0.00    -0.203 F 
ATOM    107  F   UNL     1       3.966  13.613   7.841  1.00  0.00    -0.200 F 
ATOM    108  C   UNL     1       3.242  13.793   5.601  1.00  0.00     0.200 A 
ATOM    109  F   UNL     1       2.520  13.921   3.357  1.00  0.00    -0.200 F 
ATOM    110  F   UNL     1       2.782  15.030   5.834  1.00  0.00    -0.200 F 
ENDBRANCH  77 100
ENDBRANCH  51  52
ENDBRANCH  44  46
ENDBRANCH  43  44
ENDBRANCH  42  43
ENDBRANCH  41  42
ENDBRANCH  40  41
ENDBRANCH  39  40
ENDBRANCH   1  39
TORSDOF 25
