REMARK SMILES Cc1ccc(O[C@H](C)C(=O)NNC(=O)[C@@H]2[C@@H](C(=O)OCCOCCOCCOC(=O)c3ccc(-c4c5nc(c(-c6c(F)c(F)c(F)c(F)c6F)c6ccc([nH]6)c(-c6c(F)c(F)c(F)c(F)c6F)c6nc(c(-c7c(F)c(F)c(F)c(F)c7F)c7ccc4[nH]7)C=C6)C=C5)cc3)[C@@H]3C=C[C@H]2C3)cc1C
REMARK SMILES IDX 22 1 21 2 20 3 19 4 17 5 18 6 16 7 15 8 97 9 94 10 96 11
REMARK SMILES IDX 98 12 95 13 13 14 12 15 14 17 11 18 9 19 10 20 7 22 8 23
REMARK SMILES IDX 6 24 5 25 1 26 2 27 3 28 100 29 4 30 99 31 101 32 23 33
REMARK SMILES IDX 24 34 25 35 26 36 27 37 28 38 29 39 30 40 31 41 32 42 93 43
REMARK SMILES IDX 33 44 92 45 34 46 35 47 36 48 86 49 37 50 91 51 85 52 87 53
REMARK SMILES IDX 38 54 90 55 84 56 83 57 39 59 71 60 51 61 70 62 52 63 55 64
REMARK SMILES IDX 69 65 88 66 53 67 54 68 68 70 89 71 56 72 40 73 41 74 49 75
REMARK SMILES IDX 42 76 43 77 47 78 50 79 44 80 45 81 48 82 46 83 72 84 73 85
REMARK SMILES IDX 81 86 74 87 75 88 79 89 82 90 76 91 77 92 80 93 78 94 57 95
REMARK SMILES IDX 58 96 66 97 59 98 60 99 64 100 67 101 61 102 62 103 65 104
REMARK SMILES IDX 63 105
REMARK H PARENT 12 16 11 21 87 58 55 69
REMARK Flexibility Score: inf
ROOT
ATOM      1  O   UNL     1       1.471   7.214  -3.376  1.00  0.00    -0.376 OA
ENDROOT
BRANCH   1   2
ATOM      2  C   UNL     1       2.220   6.723  -2.263  1.00  0.00     0.202 C 
BRANCH   2   3
ATOM      3  C   UNL     1       1.455   6.491  -0.946  1.00  0.00     0.261 C 
BRANCH   3   4
ATOM      4  O   UNL     1       0.365   5.532  -0.998  1.00  0.00    -0.463 OA
BRANCH   4   5
ATOM      5  C   UNL     1      -0.866   6.033  -0.702  1.00  0.00     0.310 C 
ATOM      6  O   UNL     1      -1.083   7.220  -0.473  1.00  0.00    -0.252 OA
BRANCH   5   7
ATOM      7  C   UNL     1      -1.995   5.014  -0.657  1.00  0.00     0.119 C 
ATOM      8  C   UNL     1      -1.819   3.600  -1.337  1.00  0.00     0.102 C 
ATOM      9  C   UNL     1      -3.032   3.559  -2.307  1.00  0.00     0.025 C 
ATOM     10  C   UNL     1      -3.226   5.594  -1.413  1.00  0.00     0.027 C 
ATOM     11  C   UNL     1      -4.330   3.584  -1.534  1.00  0.00    -0.027 C 
ATOM     12  C   UNL     1      -3.061   5.001  -2.812  1.00  0.00     0.017 C 
ATOM     13  C   UNL     1      -4.442   4.803  -0.990  1.00  0.00    -0.027 C 
BRANCH   8  14
ATOM     14  C   UNL     1      -1.707   2.531  -0.242  1.00  0.00     0.242 C 
ATOM     15  N   UNL     1      -2.162   1.247  -0.381  1.00  0.00    -0.267 N 
ATOM     16  H   UNL     1      -1.934   0.618   0.342  1.00  0.00     0.191 HD
ATOM     17  O   UNL     1      -1.096   2.790   0.803  1.00  0.00    -0.273 OA
BRANCH  15  18
ATOM     18  N   UNL     1      -2.908   0.741  -1.429  1.00  0.00    -0.264 N 
ATOM     19  C   UNL     1      -3.940  -0.159  -1.289  1.00  0.00     0.279 C 
ATOM     20  O   UNL     1      -4.691  -0.350  -2.251  1.00  0.00    -0.269 OA
ATOM     21  H   UNL     1      -2.686   1.045  -2.339  1.00  0.00     0.191 HD
BRANCH  19  22
ATOM     22  C   UNL     1      -4.051  -1.011  -0.010  1.00  0.00     0.260 C 
ATOM     23  C   UNL     1      -2.823  -1.933   0.035  1.00  0.00     0.064 C 
BRANCH  22  24
ATOM     24  O   UNL     1      -4.163  -0.204   1.162  1.00  0.00    -0.481 OA
BRANCH  24  25
ATOM     25  C   UNL     1      -4.484  -0.816   2.347  1.00  0.00     0.120 A 
ATOM     26  C   UNL     1      -5.135  -2.482   6.294  1.00  0.00     0.044 C 
ATOM     27  C   UNL     1      -4.941  -1.860   4.939  1.00  0.00    -0.048 A 
ATOM     28  C   UNL     1      -4.989  -2.683   3.805  1.00  0.00     0.007 A 
ATOM     29  C   UNL     1      -4.710  -0.484   4.767  1.00  0.00    -0.045 A 
ATOM     30  C   UNL     1      -4.779  -2.165   2.523  1.00  0.00     0.047 A 
ATOM     31  C   UNL     1      -4.480   0.019   3.469  1.00  0.00     0.050 A 
ATOM     32  C   UNL     1      -4.699   0.493   5.912  1.00  0.00     0.045 C 
ENDBRANCH  24  25
ENDBRANCH  22  24
ENDBRANCH  19  22
ENDBRANCH  15  18
ENDBRANCH   8  14
ENDBRANCH   5   7
ENDBRANCH   4   5
ENDBRANCH   3   4
ENDBRANCH   2   3
ENDBRANCH   1   2
BRANCH   1  33
ATOM     33  C   UNL     1       0.410   6.383  -3.819  1.00  0.00     0.188 C 
BRANCH  33  34
ATOM     34  C   UNL     1       0.812   4.992  -4.313  1.00  0.00     0.188 C 
BRANCH  34  35
ATOM     35  O   UNL     1       1.667   4.267  -3.445  1.00  0.00    -0.376 OA
BRANCH  35  36
ATOM     36  C   UNL     1       2.106   2.978  -3.880  1.00  0.00     0.202 C 
BRANCH  36  37
ATOM     37  C   UNL     1       2.606   2.837  -5.333  1.00  0.00     0.261 C 
BRANCH  37  38
ATOM     38  O   UNL     1       1.673   3.207  -6.372  1.00  0.00    -0.460 OA
BRANCH  38  39
ATOM     39  C   UNL     1       0.423   2.683  -6.328  1.00  0.00     0.338 C 
ATOM     40  O   UNL     1       0.041   1.773  -5.627  1.00  0.00    -0.246 OA
BRANCH  39  41
ATOM     41  C   UNL     1      -0.488   3.597  -7.080  1.00  0.00     0.060 A 
ATOM     42  C   UNL     1      -1.770   3.821  -6.555  1.00  0.00     0.016 A 
ATOM     43  C   UNL     1      -0.084   4.277  -8.232  1.00  0.00     0.016 A 
ATOM     44  C   UNL     1      -2.661   4.685  -7.199  1.00  0.00     0.010 A 
ATOM     45  C   UNL     1      -0.982   5.130  -8.887  1.00  0.00     0.010 A 
ATOM     46  C   UNL     1      -2.288   5.311  -8.394  1.00  0.00    -0.014 A 
BRANCH  46  47
ATOM     47  C   UNL     1      -3.321   5.958  -9.247  1.00  0.00     0.031 A 
ATOM     48  C   UNL     1      -3.884   5.161 -10.394  1.00  0.00     0.074 A 
ATOM     49  C   UNL     1      -3.781   7.200  -9.011  1.00  0.00     0.049 A 
ATOM     50  N   UNL     1      -4.717   5.522 -11.337  1.00  0.00    -0.248 NA
ATOM     51  C   UNL     1      -3.442   3.760 -10.486  1.00  0.00     0.031 C 
ATOM     52  C   UNL     1      -3.383   8.056  -7.898  1.00  0.00     0.029 A 
ATOM     53  N   UNL     1      -4.689   7.958  -9.713  1.00  0.00    -0.354 N 
ATOM     54  C   UNL     1      -4.884   4.401 -12.139  1.00  0.00     0.074 A 
ATOM     55  C   UNL     1      -4.050   3.355 -11.590  1.00  0.00     0.031 C 
ATOM     56  C   UNL     1      -4.034   9.230  -7.998  1.00  0.00     0.029 A 
ATOM     57  C   UNL     1      -4.860   9.224  -9.206  1.00  0.00     0.049 A 
ATOM     58  H   UNL     1      -5.171   7.626 -10.504  1.00  0.00     0.167 HD
ATOM     59  C   UNL     1      -5.666   4.251 -13.234  1.00  0.00     0.037 A 
ATOM     60  C   UNL     1      -5.575  10.264  -9.682  1.00  0.00     0.037 A 
ATOM     61  C   UNL     1      -6.501   5.286 -13.783  1.00  0.00     0.049 A 
ATOM     62  C   UNL     1      -6.365  10.105 -10.960  1.00  0.00     0.074 A 
ATOM     63  C   UNL     1      -7.325   5.231 -14.892  1.00  0.00     0.029 A 
ATOM     64  N   UNL     1      -6.613   6.567 -13.263  1.00  0.00    -0.354 N 
ATOM     65  N   UNL     1      -6.513   9.047 -11.720  1.00  0.00    -0.248 NA
ATOM     66  C   UNL     1      -7.085  11.292 -11.450  1.00  0.00     0.031 C 
ATOM     67  C   UNL     1      -7.893   6.496 -15.078  1.00  0.00     0.029 A 
ATOM     68  C   UNL     1      -7.474   7.319 -14.046  1.00  0.00     0.049 A 
ATOM     69  H   UNL     1      -6.149   6.894 -12.459  1.00  0.00     0.167 HD
ATOM     70  C   UNL     1      -7.369   9.427 -12.748  1.00  0.00     0.074 A 
ATOM     71  C   UNL     1      -7.713  10.812 -12.515  1.00  0.00     0.031 C 
ATOM     72  C   UNL     1      -7.829   8.692 -13.791  1.00  0.00     0.037 A 
BRANCH  59  73
ATOM     73  C   UNL     1      -5.621   2.926 -13.938  1.00  0.00     0.064 A 
ATOM     74  C   UNL     1      -6.175   1.767 -13.374  1.00  0.00     0.173 A 
ATOM     75  C   UNL     1      -5.028   2.821 -15.206  1.00  0.00     0.173 A 
ATOM     76  F   UNL     1      -6.736   1.810 -12.156  1.00  0.00    -0.203 F 
ATOM     77  C   UNL     1      -6.109   0.546 -14.040  1.00  0.00     0.198 A 
ATOM     78  C   UNL     1      -4.995   1.606 -15.883  1.00  0.00     0.198 A 
ATOM     79  F   UNL     1      -4.485   3.900 -15.790  1.00  0.00    -0.203 F 
ATOM     80  F   UNL     1      -6.594  -0.559 -13.458  1.00  0.00    -0.200 F 
ATOM     81  C   UNL     1      -5.526   0.468 -15.296  1.00  0.00     0.200 A 
ATOM     82  F   UNL     1      -4.442   1.535 -17.102  1.00  0.00    -0.200 F 
ATOM     83  F   UNL     1      -5.468  -0.707 -15.938  1.00  0.00    -0.200 F 
ENDBRANCH  59  73
BRANCH  60  84
ATOM     84  C   UNL     1      -5.561  11.573  -8.970  1.00  0.00     0.064 A 
ATOM     85  C   UNL     1      -6.721  12.090  -8.374  1.00  0.00     0.173 A 
ATOM     86  C   UNL     1      -4.398  12.356  -8.913  1.00  0.00     0.173 A 
ATOM     87  F   UNL     1      -7.868  11.397  -8.432  1.00  0.00    -0.203 F 
ATOM     88  C   UNL     1      -6.723  13.346  -7.769  1.00  0.00     0.198 A 
ATOM     89  C   UNL     1      -4.394  13.598  -8.280  1.00  0.00     0.198 A 
ATOM     90  F   UNL     1      -3.264  11.917  -9.478  1.00  0.00    -0.203 F 
ATOM     91  F   UNL     1      -7.860  13.840  -7.261  1.00  0.00    -0.200 F 
ATOM     92  C   UNL     1      -5.558  14.096  -7.717  1.00  0.00     0.200 A 
ATOM     93  F   UNL     1      -3.263  14.316  -8.226  1.00  0.00    -0.200 F 
ATOM     94  F   UNL     1      -5.561  15.304  -7.137  1.00  0.00    -0.200 F 
ENDBRANCH  60  84
BRANCH  72  95
ATOM     95  C   UNL     1      -8.804   9.342 -14.733  1.00  0.00     0.064 A 
ATOM     96  C   UNL     1      -8.412  10.340 -15.637  1.00  0.00     0.173 A 
ATOM     97  C   UNL     1     -10.140   8.911 -14.772  1.00  0.00     0.173 A 
ATOM     98  F   UNL     1      -7.151  10.796 -15.634  1.00  0.00    -0.203 F 
ATOM     99  C   UNL     1      -9.326  10.897 -16.530  1.00  0.00     0.198 A 
ATOM    100  C   UNL     1     -11.042   9.446 -15.688  1.00  0.00     0.198 A 
ATOM    101  F   UNL     1     -10.566   7.952 -13.937  1.00  0.00    -0.203 F 
ATOM    102  F   UNL     1      -8.939  11.879 -17.356  1.00  0.00    -0.200 F 
ATOM    103  C   UNL     1     -10.636  10.443 -16.561  1.00  0.00     0.200 A 
ATOM    104  F   UNL     1     -12.303   8.993 -15.728  1.00  0.00    -0.200 F 
ATOM    105  F   UNL     1     -11.509  10.970 -17.431  1.00  0.00    -0.200 F 
ENDBRANCH  72  95
ENDBRANCH  46  47
ENDBRANCH  39  41
ENDBRANCH  38  39
ENDBRANCH  37  38
ENDBRANCH  36  37
ENDBRANCH  35  36
ENDBRANCH  34  35
ENDBRANCH  33  34
ENDBRANCH   1  33
TORSDOF 22
