REMARK SMILES COc1ccc2cc([C@@H](C)C(=O)OCCOCCOCCOC(=O)c3ccc(-c4c5nc(c(-c6c(F)c(F)c(F)c(F)c6F)c6ccc([nH]6)c(-c6c(F)c(F)c(F)c(F)c6F)c6nc(c(-c7c(F)c(F)c(F)c(F)c7F)c7ccc4[nH]7)C=C6)C=C5)cc3)ccc2c1
REMARK SMILES IDX 17 1 16 2 15 3 14 4 13 5 11 6 12 7 9 8 10 9 8 10 3 11 4 12
REMARK SMILES IDX 91 13 5 14 90 15 6 16 89 17 7 18 88 19 2 20 1 21 18 22 19 23
REMARK SMILES IDX 20 24 21 25 22 26 23 27 24 28 25 29 26 30 87 31 27 32 86 33
REMARK SMILES IDX 28 34 29 35 30 36 80 37 31 38 85 39 79 40 81 41 32 42 84 43
REMARK SMILES IDX 78 44 77 45 33 47 65 48 45 49 64 50 46 51 49 52 63 53 82 54
REMARK SMILES IDX 47 55 48 56 62 58 83 59 50 60 34 61 35 62 43 63 36 64 37 65
REMARK SMILES IDX 41 66 44 67 38 68 39 69 42 70 40 71 66 72 67 73 75 74 68 75
REMARK SMILES IDX 69 76 73 77 76 78 70 79 71 80 74 81 72 82 51 83 52 84 60 85
REMARK SMILES IDX 53 86 54 87 58 88 61 89 55 90 56 91 59 92 57 93
REMARK H PARENT 81 46 49 57
REMARK Flexibility Score: inf
ROOT
ATOM      1  C   UNL     1       1.700   9.895  -1.959  1.00  0.00     0.188 C 
ENDROOT
BRANCH   1   2
ATOM      2  O   UNL     1       2.885  10.632  -2.240  1.00  0.00    -0.376 OA
BRANCH   2   3
ATOM      3  C   UNL     1       4.128  10.178  -1.719  1.00  0.00     0.202 C 
BRANCH   3   4
ATOM      4  C   UNL     1       4.256   9.976  -0.199  1.00  0.00     0.261 C 
BRANCH   4   5
ATOM      5  O   UNL     1       3.272   9.105   0.407  1.00  0.00    -0.463 OA
BRANCH   5   6
ATOM      6  C   UNL     1       2.466   9.665   1.344  1.00  0.00     0.313 C 
ATOM      7  O   UNL     1       2.569  10.836   1.707  1.00  0.00    -0.252 OA
BRANCH   6   8
ATOM      8  C   UNL     1       1.371   8.771   1.930  1.00  0.00     0.126 C 
ATOM      9  C   UNL     1       1.564   8.681   3.442  1.00  0.00     0.025 C 
BRANCH   8  10
ATOM     10  C   UNL     1       1.068   7.386   1.361  1.00  0.00    -0.033 A 
ATOM     11  C   UNL     1       0.990   2.537  -0.240  1.00  0.00     0.119 A 
ATOM     12  C   UNL     1       2.311   2.813   0.097  1.00  0.00     0.047 A 
ATOM     13  C   UNL     1       0.029   3.544  -0.145  1.00  0.00     0.055 A 
ATOM     14  C   UNL     1       2.662   4.082   0.575  1.00  0.00     0.012 A 
ATOM     15  C   UNL     1       0.366   4.819   0.347  1.00  0.00    -0.015 A 
ATOM     16  C   UNL     1       1.700   5.096   0.722  1.00  0.00    -0.018 A 
ATOM     17  C   UNL     1      -0.600   5.822   0.484  1.00  0.00     0.009 A 
ATOM     18  C   UNL     1       2.033   6.375   1.229  1.00  0.00     0.013 A 
ATOM     19  C   UNL     1      -0.256   7.080   0.990  1.00  0.00     0.005 A 
BRANCH  11  20
ATOM     20  O   UNL     1       0.562   1.333  -0.731  1.00  0.00    -0.497 OA
ATOM     21  C   UNL     1       1.062   0.206  -0.013  1.00  0.00     0.278 C 
ENDBRANCH  11  20
ENDBRANCH   8  10
ENDBRANCH   6   8
ENDBRANCH   5   6
ENDBRANCH   4   5
ENDBRANCH   3   4
ENDBRANCH   2   3
ENDBRANCH   1   2
BRANCH   1  22
ATOM     22  C   UNL     1       1.759   8.360  -1.893  1.00  0.00     0.188 C 
BRANCH  22  23
ATOM     23  O   UNL     1       2.979   7.808  -2.335  1.00  0.00    -0.376 OA
BRANCH  23  24
ATOM     24  C   UNL     1       2.909   6.878  -3.396  1.00  0.00     0.202 C 
BRANCH  24  25
ATOM     25  C   UNL     1       2.422   7.441  -4.739  1.00  0.00     0.261 C 
BRANCH  25  26
ATOM     26  O   UNL     1       1.223   8.239  -4.693  1.00  0.00    -0.460 OA
BRANCH  26  27
ATOM     27  C   UNL     1       0.049   7.589  -4.544  1.00  0.00     0.338 C 
ATOM     28  O   UNL     1      -0.119   6.379  -4.461  1.00  0.00    -0.246 OA
BRANCH  27  29
ATOM     29  C   UNL     1      -1.008   8.595  -4.298  1.00  0.00     0.060 A 
ATOM     30  C   UNL     1      -1.699   8.587  -3.077  1.00  0.00     0.016 A 
ATOM     31  C   UNL     1      -1.320   9.544  -5.273  1.00  0.00     0.016 A 
ATOM     32  C   UNL     1      -2.723   9.510  -2.841  1.00  0.00     0.010 A 
ATOM     33  C   UNL     1      -2.359  10.452  -5.044  1.00  0.00     0.010 A 
ATOM     34  C   UNL     1      -3.087  10.423  -3.840  1.00  0.00    -0.014 A 
BRANCH  34  35
ATOM     35  C   UNL     1      -4.332  11.225  -3.714  1.00  0.00     0.031 A 
ATOM     36  C   UNL     1      -5.565  10.751  -4.438  1.00  0.00     0.074 A 
ATOM     37  C   UNL     1      -4.373  12.361  -2.994  1.00  0.00     0.049 A 
ATOM     38  N   UNL     1      -6.729  11.334  -4.574  1.00  0.00    -0.248 NA
ATOM     39  C   UNL     1      -5.466   9.443  -5.106  1.00  0.00     0.031 C 
ATOM     40  C   UNL     1      -3.265  12.914  -2.220  1.00  0.00     0.029 A 
ATOM     41  N   UNL     1      -5.391  13.270  -2.820  1.00  0.00    -0.354 N 
ATOM     42  C   UNL     1      -7.489  10.479  -5.361  1.00  0.00     0.074 A 
ATOM     43  C   UNL     1      -6.654   9.343  -5.684  1.00  0.00     0.031 C 
ATOM     44  C   UNL     1      -3.652  14.083  -1.678  1.00  0.00     0.029 A 
ATOM     45  C   UNL     1      -5.021  14.380  -2.099  1.00  0.00     0.049 A 
ATOM     46  H   UNL     1      -6.299  13.138  -3.179  1.00  0.00     0.167 HD
ATOM     47  C   UNL     1      -8.768  10.629  -5.778  1.00  0.00     0.037 A 
ATOM     48  C   UNL     1      -5.697  15.519  -1.843  1.00  0.00     0.037 A 
ATOM     49  C   UNL     1      -9.605  11.750  -5.442  1.00  0.00     0.049 A 
ATOM     50  C   UNL     1      -7.106  15.681  -2.364  1.00  0.00     0.074 A 
ATOM     51  C   UNL     1     -10.932  11.962  -5.774  1.00  0.00     0.029 A 
ATOM     52  N   UNL     1      -9.195  12.852  -4.709  1.00  0.00    -0.354 N 
ATOM     53  N   UNL     1      -7.834  14.847  -3.066  1.00  0.00    -0.248 NA
ATOM     54  C   UNL     1      -7.789  16.947  -2.053  1.00  0.00     0.031 C 
ATOM     55  C   UNL     1     -11.305  13.223  -5.302  1.00  0.00     0.029 A 
ATOM     56  C   UNL     1     -10.233  13.765  -4.611  1.00  0.00     0.049 A 
ATOM     57  H   UNL     1      -8.300  12.970  -4.317  1.00  0.00     0.167 HD
ATOM     58  C   UNL     1      -9.065  15.469  -3.247  1.00  0.00     0.074 A 
ATOM     59  C   UNL     1      -8.993  16.744  -2.569  1.00  0.00     0.031 C 
ATOM     60  C   UNL     1     -10.157  15.024  -3.916  1.00  0.00     0.037 A 
BRANCH  47  61
ATOM     61  C   UNL     1      -9.346   9.575  -6.676  1.00  0.00     0.064 A 
ATOM     62  C   UNL     1      -9.686   8.300  -6.202  1.00  0.00     0.173 A 
ATOM     63  C   UNL     1      -9.639   9.878  -8.015  1.00  0.00     0.173 A 
ATOM     64  F   UNL     1      -9.416   7.957  -4.933  1.00  0.00    -0.203 F 
ATOM     65  C   UNL     1     -10.288   7.363  -7.039  1.00  0.00     0.198 A 
ATOM     66  C   UNL     1     -10.267   8.950  -8.840  1.00  0.00     0.198 A 
ATOM     67  F   UNL     1      -9.336  11.085  -8.517  1.00  0.00    -0.203 F 
ATOM     68  F   UNL     1     -10.578   6.140  -6.574  1.00  0.00    -0.200 F 
ATOM     69  C   UNL     1     -10.589   7.693  -8.352  1.00  0.00     0.200 A 
ATOM     70  F   UNL     1     -10.571   9.277 -10.104  1.00  0.00    -0.200 F 
ATOM     71  F   UNL     1     -11.189   6.798  -9.149  1.00  0.00    -0.200 F 
ENDBRANCH  47  61
BRANCH  48  72
ATOM     72  C   UNL     1      -5.047  16.629  -1.091  1.00  0.00     0.064 A 
ATOM     73  C   UNL     1      -5.527  17.041   0.161  1.00  0.00     0.173 A 
ATOM     74  C   UNL     1      -3.973  17.346  -1.641  1.00  0.00     0.173 A 
ATOM     75  F   UNL     1      -6.572  16.410   0.718  1.00  0.00    -0.203 F 
ATOM     76  C   UNL     1      -4.985  18.147   0.814  1.00  0.00     0.198 A 
ATOM     77  C   UNL     1      -3.407  18.428  -0.970  1.00  0.00     0.198 A 
ATOM     78  F   UNL     1      -3.477  17.000  -2.838  1.00  0.00    -0.203 F 
ATOM     79  F   UNL     1      -5.514  18.564   1.972  1.00  0.00    -0.200 F 
ATOM     80  C   UNL     1      -3.923  18.837   0.250  1.00  0.00     0.200 A 
ATOM     81  F   UNL     1      -2.374  19.085  -1.514  1.00  0.00    -0.200 F 
ATOM     82  F   UNL     1      -3.409  19.906   0.873  1.00  0.00    -0.200 F 
ENDBRANCH  48  72
BRANCH  60  83
ATOM     83  C   UNL     1     -11.386  15.889  -3.904  1.00  0.00     0.064 A 
ATOM     84  C   UNL     1     -11.447  17.104  -4.603  1.00  0.00     0.173 A 
ATOM     85  C   UNL     1     -12.539  15.470  -3.219  1.00  0.00     0.173 A 
ATOM     86  F   UNL     1     -10.371  17.557  -5.264  1.00  0.00    -0.203 F 
ATOM     87  C   UNL     1     -12.604  17.880  -4.592  1.00  0.00     0.198 A 
ATOM     88  C   UNL     1     -13.705  16.230  -3.241  1.00  0.00     0.198 A 
ATOM     89  F   UNL     1     -12.541  14.311  -2.543  1.00  0.00    -0.203 F 
ATOM     90  F   UNL     1     -12.621  19.062  -5.224  1.00  0.00    -0.200 F 
ATOM     91  C   UNL     1     -13.734  17.439  -3.920  1.00  0.00     0.200 A 
ATOM     92  F   UNL     1     -14.801  15.792  -2.607  1.00  0.00    -0.200 F 
ATOM     93  F   UNL     1     -14.849  18.181  -3.921  1.00  0.00    -0.200 F 
ENDBRANCH  60  83
ENDBRANCH  34  35
ENDBRANCH  27  29
ENDBRANCH  26  27
ENDBRANCH  25  26
ENDBRANCH  24  25
ENDBRANCH  23  24
ENDBRANCH  22  23
ENDBRANCH   1  22
TORSDOF 19
