REMARK SMILES Cc1cc(C)c2c(O[C@@H](C)C(=O)OCCOCCOCCOC(=O)c3ccc(-c4c5nc(c(-c6c(F)c(F)c(F)c(F)c6F)c6ccc([nH]6)c(-c6c(F)c(F)c(F)c(F)c6F)c6nc(c(-c7c(F)c(F)c(F)c(F)c7F)c7ccc4[nH]7)C=C6)C=C5)cc3)nsc2n1
REMARK SMILES IDX 17 1 16 2 15 3 14 4 13 5 11 6 12 7 9 8 10 9 8 10 7 11 1 12
REMARK SMILES IDX 2 13 3 14 91 15 4 16 90 17 5 18 6 19 89 20 88 21 18 22 19 23
REMARK SMILES IDX 20 24 21 25 22 26 23 27 24 28 25 29 26 30 87 31 27 32 86 33
REMARK SMILES IDX 28 34 29 35 30 36 80 37 31 38 85 39 79 40 81 41 32 42 84 43
REMARK SMILES IDX 78 44 77 45 33 47 65 48 45 49 64 50 46 51 49 52 63 53 82 54
REMARK SMILES IDX 47 55 48 56 62 58 83 59 50 60 34 61 35 62 43 63 36 64 37 65
REMARK SMILES IDX 41 66 44 67 38 68 39 69 42 70 40 71 66 72 67 73 75 74 68 75
REMARK SMILES IDX 69 76 73 77 76 78 70 79 71 80 74 81 72 82 51 83 52 84 60 85
REMARK SMILES IDX 53 86 54 87 58 88 61 89 55 90 56 91 59 92 57 93
REMARK H PARENT 81 46 49 57
REMARK Flexibility Score: inf
ROOT
ATOM      1  C   UNL     1       2.896  -3.609   6.806  1.00  0.00     0.188 C 
ENDROOT
BRANCH   1   2
ATOM      2  O   UNL     1       4.103  -3.526   6.070  1.00  0.00    -0.376 OA
BRANCH   2   3
ATOM      3  C   UNL     1       4.044  -3.276   4.671  1.00  0.00     0.202 C 
BRANCH   3   4
ATOM      4  C   UNL     1       2.876  -3.777   3.802  1.00  0.00     0.261 C 
BRANCH   4   5
ATOM      5  O   UNL     1       1.563  -3.500   4.318  1.00  0.00    -0.461 OA
BRANCH   5   6
ATOM      6  C   UNL     1       0.676  -4.521   4.431  1.00  0.00     0.347 C 
ATOM      7  O   UNL     1       0.925  -5.683   4.130  1.00  0.00    -0.248 OA
BRANCH   6   8
ATOM      8  C   UNL     1      -0.677  -4.071   5.037  1.00  0.00     0.281 C 
ATOM      9  C   UNL     1      -1.899  -4.784   4.459  1.00  0.00     0.066 C 
BRANCH   8  10
ATOM     10  O   UNL     1      -1.083  -2.775   5.355  1.00  0.00    -0.462 OA
BRANCH  10  11
ATOM     11  C   UNL     1      -0.895  -1.705   4.552  1.00  0.00     0.236 A 
ATOM     12  C   UNL     1       1.093   0.645  -0.229  1.00  0.00     0.067 C 
ATOM     13  C   UNL     1       0.537  -0.093   0.951  1.00  0.00     0.039 A 
ATOM     14  C   UNL     1       0.479  -1.473   0.924  1.00  0.00     0.027 A 
ATOM     15  N   UNL     1       0.128   0.635   1.992  1.00  0.00    -0.240 NA
ATOM     16  C   UNL     1      -0.060  -2.210   2.003  1.00  0.00    -0.034 A 
ATOM     17  C   UNL     1      -0.326  -0.081   3.039  1.00  0.00     0.147 A 
ATOM     18  C   UNL     1      -0.141  -3.686   1.713  1.00  0.00     0.045 C 
ATOM     19  C   UNL     1      -0.434  -1.476   3.179  1.00  0.00     0.078 A 
ATOM     20  S   UNL     1      -0.896   0.725   4.419  1.00  0.00    -0.012 S 
ATOM     21  N   UNL     1      -1.246  -0.631   5.262  1.00  0.00    -0.153 NA
ENDBRANCH  10  11
ENDBRANCH   8  10
ENDBRANCH   6   8
ENDBRANCH   5   6
ENDBRANCH   4   5
ENDBRANCH   3   4
ENDBRANCH   2   3
ENDBRANCH   1   2
BRANCH   1  22
ATOM     22  C   UNL     1       1.953  -2.388   6.860  1.00  0.00     0.188 C 
BRANCH  22  23
ATOM     23  O   UNL     1       2.052  -1.450   5.813  1.00  0.00    -0.376 OA
BRANCH  23  24
ATOM     24  C   UNL     1       2.887  -0.306   5.818  1.00  0.00     0.202 C 
BRANCH  24  25
ATOM     25  C   UNL     1       4.007  -0.023   6.814  1.00  0.00     0.261 C 
BRANCH  25  26
ATOM     26  O   UNL     1       4.163  -0.976   7.835  1.00  0.00    -0.460 OA
BRANCH  26  27
ATOM     27  C   UNL     1       3.400  -0.746   8.913  1.00  0.00     0.338 C 
ATOM     28  O   UNL     1       2.515   0.096   9.049  1.00  0.00    -0.246 OA
BRANCH  27  29
ATOM     29  C   UNL     1       3.805  -1.685   9.947  1.00  0.00     0.060 A 
ATOM     30  C   UNL     1       2.912  -1.919  10.992  1.00  0.00     0.016 A 
ATOM     31  C   UNL     1       5.159  -2.041  10.002  1.00  0.00     0.016 A 
ATOM     32  C   UNL     1       3.444  -2.252  12.211  1.00  0.00     0.010 A 
ATOM     33  C   UNL     1       5.690  -2.347  11.220  1.00  0.00     0.010 A 
ATOM     34  C   UNL     1       4.837  -2.330  12.318  1.00  0.00    -0.014 A 
BRANCH  34  35
ATOM     35  C   UNL     1       5.415  -2.436  13.633  1.00  0.00     0.031 A 
ATOM     36  C   UNL     1       5.287  -3.800  14.170  1.00  0.00     0.074 A 
ATOM     37  C   UNL     1       6.062  -1.398  14.197  1.00  0.00     0.049 A 
ATOM     38  N   UNL     1       4.519  -4.184  15.133  1.00  0.00    -0.248 NA
ATOM     39  C   UNL     1       5.911  -4.900  13.415  1.00  0.00     0.031 C 
ATOM     40  C   UNL     1       6.420  -0.114  13.586  1.00  0.00     0.029 A 
ATOM     41  N   UNL     1       6.624  -1.310  15.432  1.00  0.00    -0.354 N 
ATOM     42  C   UNL     1       4.762  -5.543  15.260  1.00  0.00     0.074 A 
ATOM     43  C   UNL     1       5.425  -5.964  14.055  1.00  0.00     0.031 C 
ATOM     44  C   UNL     1       7.327   0.518  14.366  1.00  0.00     0.029 A 
ATOM     45  C   UNL     1       7.509  -0.246  15.586  1.00  0.00     0.049 A 
ATOM     46  H   UNL     1       6.422  -1.945  16.156  1.00  0.00     0.167 HD
ATOM     47  C   UNL     1       4.725  -6.120  16.488  1.00  0.00     0.037 A 
ATOM     48  C   UNL     1       8.370  -0.083  16.622  1.00  0.00     0.037 A 
ATOM     49  C   UNL     1       3.984  -5.309  17.421  1.00  0.00     0.049 A 
ATOM     50  C   UNL     1       7.856  -0.917  17.738  1.00  0.00     0.074 A 
ATOM     51  C   UNL     1       2.685  -4.849  17.497  1.00  0.00     0.029 A 
ATOM     52  N   UNL     1       4.723  -4.518  18.263  1.00  0.00    -0.354 N 
ATOM     53  N   UNL     1       6.746  -0.674  18.377  1.00  0.00    -0.248 NA
ATOM     54  C   UNL     1       8.359  -2.277  17.853  1.00  0.00     0.031 C 
ATOM     55  C   UNL     1       2.778  -3.548  18.075  1.00  0.00     0.029 A 
ATOM     56  C   UNL     1       4.116  -3.298  18.383  1.00  0.00     0.049 A 
ATOM     57  H   UNL     1       5.559  -4.787  18.709  1.00  0.00     0.167 HD
ATOM     58  C   UNL     1       6.190  -1.925  18.600  1.00  0.00     0.074 A 
ATOM     59  C   UNL     1       7.276  -2.871  18.358  1.00  0.00     0.031 C 
ATOM     60  C   UNL     1       4.835  -2.075  18.663  1.00  0.00     0.037 A 
BRANCH  47  61
ATOM     61  C   UNL     1       5.746  -7.136  16.934  1.00  0.00     0.064 A 
ATOM     62  C   UNL     1       5.541  -7.821  18.144  1.00  0.00     0.173 A 
ATOM     63  C   UNL     1       7.044  -7.245  16.383  1.00  0.00     0.173 A 
ATOM     64  F   UNL     1       4.364  -7.735  18.783  1.00  0.00    -0.203 F 
ATOM     65  C   UNL     1       6.571  -8.525  18.773  1.00  0.00     0.198 A 
ATOM     66  C   UNL     1       8.049  -8.000  16.979  1.00  0.00     0.198 A 
ATOM     67  F   UNL     1       7.437  -6.531  15.322  1.00  0.00    -0.203 F 
ATOM     68  F   UNL     1       6.366  -9.059  19.984  1.00  0.00    -0.200 F 
ATOM     69  C   UNL     1       7.821  -8.619  18.187  1.00  0.00     0.200 A 
ATOM     70  F   UNL     1       9.262  -8.046  16.411  1.00  0.00    -0.200 F 
ATOM     71  F   UNL     1       8.822  -9.253  18.811  1.00  0.00    -0.200 F 
ENDBRANCH  47  61
BRANCH  48  72
ATOM     72  C   UNL     1       9.774   0.407  16.600  1.00  0.00     0.064 A 
ATOM     73  C   UNL     1      10.458   0.661  17.803  1.00  0.00     0.173 A 
ATOM     74  C   UNL     1      10.568   0.332  15.439  1.00  0.00     0.173 A 
ATOM     75  F   UNL     1       9.787   0.711  18.963  1.00  0.00    -0.203 F 
ATOM     76  C   UNL     1      11.852   0.781  17.849  1.00  0.00     0.198 A 
ATOM     77  C   UNL     1      11.958   0.459  15.485  1.00  0.00     0.198 A 
ATOM     78  F   UNL     1      10.025   0.032  14.251  1.00  0.00    -0.203 F 
ATOM     79  F   UNL     1      12.472   0.941  19.027  1.00  0.00    -0.200 F 
ATOM     80  C   UNL     1      12.602   0.664  16.692  1.00  0.00     0.200 A 
ATOM     81  F   UNL     1      12.676   0.308  14.363  1.00  0.00    -0.200 F 
ATOM     82  F   UNL     1      13.941   0.703  16.743  1.00  0.00    -0.200 F 
ENDBRANCH  48  72
BRANCH  60  83
ATOM     83  C   UNL     1       4.001  -0.836  18.842  1.00  0.00     0.064 A 
ATOM     84  C   UNL     1       3.879   0.189  17.887  1.00  0.00     0.173 A 
ATOM     85  C   UNL     1       3.171  -0.771  19.969  1.00  0.00     0.173 A 
ATOM     86  F   UNL     1       4.581   0.157  16.746  1.00  0.00    -0.203 F 
ATOM     87  C   UNL     1       2.978   1.238  18.069  1.00  0.00     0.198 A 
ATOM     88  C   UNL     1       2.246   0.255  20.129  1.00  0.00     0.198 A 
ATOM     89  F   UNL     1       3.217  -1.745  20.891  1.00  0.00    -0.203 F 
ATOM     90  F   UNL     1       2.877   2.208  17.147  1.00  0.00    -0.200 F 
ATOM     91  C   UNL     1       2.153   1.263  19.183  1.00  0.00     0.200 A 
ATOM     92  F   UNL     1       1.421   0.248  21.185  1.00  0.00    -0.200 F 
ATOM     93  F   UNL     1       1.250   2.241  19.332  1.00  0.00    -0.200 F 
ENDBRANCH  60  83
ENDBRANCH  34  35
ENDBRANCH  27  29
ENDBRANCH  26  27
ENDBRANCH  25  26
ENDBRANCH  24  25
ENDBRANCH  23  24
ENDBRANCH  22  23
ENDBRANCH   1  22
TORSDOF 19
