REMARK SMILES COc1ccc([C@H]2CC(c3ccccc3)=NN2C(=O)CCCC(=O)OCCOCCOCCOC(=O)c2ccc(-c3c4nc(c(-c5c(F)c(F)c(F)c(F)c5F)c5ccc([nH]5)c(-c5c(F)c(F)c(F)c(F)c5F)c5nc(c(-c6c(F)c(F)c(F)c(F)c6F)c6ccc3[nH]6)C=C5)C=C4)cc2)cc1
REMARK SMILES IDX 27 1 26 2 25 3 23 4 24 5 22 6 21 7 20 8 18 9 19 10 17 11
REMARK SMILES IDX 7 12 8 13 9 14 16 15 6 16 3 17 4 18 101 19 5 20 100 21 2 22
REMARK SMILES IDX 1 23 10 24 11 25 15 26 12 27 14 28 13 29 28 30 29 31 30 32
REMARK SMILES IDX 31 33 32 34 33 35 34 36 35 37 36 38 37 39 38 40 99 41 39 42
REMARK SMILES IDX 98 43 40 44 41 45 42 46 92 47 43 48 97 49 91 50 93 51 44 52
REMARK SMILES IDX 96 53 90 54 89 55 45 57 77 58 57 59 76 60 58 61 61 62 75 63
REMARK SMILES IDX 94 64 59 65 60 66 74 68 95 69 62 70 46 71 47 72 55 73 48 74
REMARK SMILES IDX 49 75 53 76 56 77 50 78 51 79 54 80 52 81 78 82 79 83 87 84
REMARK SMILES IDX 80 85 81 86 85 87 88 88 82 89 83 90 86 91 84 92 63 93 64 94
REMARK SMILES IDX 72 95 65 96 66 97 70 98 73 99 67 100 68 101 71 102 69 103
REMARK H PARENT 93 56 61 67
REMARK Flexibility Score: inf
ROOT
ATOM      1  C   UNL     1      -2.275   5.570  -6.095  1.00  0.00     0.202 C 
ENDROOT
BRANCH   1   2
ATOM      2  C   UNL     1      -0.958   5.328  -6.844  1.00  0.00     0.261 C 
BRANCH   2   3
ATOM      3  O   UNL     1      -0.322   4.058  -6.613  1.00  0.00    -0.463 OA
BRANCH   3   4
ATOM      4  C   UNL     1       0.116   3.813  -5.357  1.00  0.00     0.305 C 
ATOM      5  O   UNL     1      -0.039   4.587  -4.420  1.00  0.00    -0.252 OA
BRANCH   4   6
ATOM      6  C   UNL     1       0.822   2.474  -5.235  1.00  0.00     0.123 C 
BRANCH   6   7
ATOM      7  C   UNL     1       1.798   2.139  -6.346  1.00  0.00     0.022 C 
BRANCH   7   8
ATOM      8  C   UNL     1       2.785   3.255  -6.660  1.00  0.00     0.103 C 
BRANCH   8   9
ATOM      9  C   UNL     1       4.079   3.258  -5.862  1.00  0.00     0.243 C 
ATOM     10  O   UNL     1       5.029   2.583  -6.274  1.00  0.00    -0.273 OA
BRANCH   9  11
ATOM     11  N   UNL     1       4.197   4.159  -4.813  1.00  0.00    -0.225 N 
ATOM     12  C   UNL     1       3.219   4.608  -3.799  1.00  0.00     0.147 C 
ATOM     13  C   UNL     1       3.864   5.827  -3.158  1.00  0.00     0.091 C 
ATOM     14  C   UNL     1       5.170   5.831  -3.885  1.00  0.00     0.071 C 
ATOM     15  N   UNL     1       5.349   4.905  -4.771  1.00  0.00    -0.174 NA
BRANCH  12  16
ATOM     16  C   UNL     1       2.856   3.562  -2.745  1.00  0.00    -0.023 A 
ATOM     17  C   UNL     1       1.803   1.409  -1.284  1.00  0.00     0.118 A 
ATOM     18  C   UNL     1       1.097   2.605  -1.345  1.00  0.00     0.047 A 
ATOM     19  C   UNL     1       3.075   1.313  -1.842  1.00  0.00     0.047 A 
ATOM     20  C   UNL     1       1.639   3.690  -2.042  1.00  0.00     0.010 A 
ATOM     21  C   UNL     1       3.609   2.392  -2.558  1.00  0.00     0.010 A 
BRANCH  17  22
ATOM     22  O   UNL     1       1.167   0.272  -0.867  1.00  0.00    -0.497 OA
ATOM     23  C   UNL     1       1.308   0.072   0.535  1.00  0.00     0.278 C 
ENDBRANCH  17  22
ENDBRANCH  12  16
BRANCH  14  24
ATOM     24  C   UNL     1       6.143   6.895  -3.653  1.00  0.00    -0.002 A 
ATOM     25  C   UNL     1       6.556   7.670  -4.739  1.00  0.00     0.010 A 
ATOM     26  C   UNL     1       6.646   7.116  -2.372  1.00  0.00     0.010 A 
ATOM     27  C   UNL     1       7.485   8.686  -4.538  1.00  0.00     0.001 A 
ATOM     28  C   UNL     1       7.590   8.123  -2.183  1.00  0.00     0.001 A 
ATOM     29  C   UNL     1       8.006   8.907  -3.262  1.00  0.00     0.000 A 
ENDBRANCH  14  24
ENDBRANCH   9  11
ENDBRANCH   8   9
ENDBRANCH   7   8
ENDBRANCH   6   7
ENDBRANCH   4   6
ENDBRANCH   3   4
ENDBRANCH   2   3
ENDBRANCH   1   2
BRANCH   1  30
ATOM     30  O   UNL     1      -3.121   4.422  -6.078  1.00  0.00    -0.376 OA
BRANCH  30  31
ATOM     31  C   UNL     1      -3.093   3.744  -4.831  1.00  0.00     0.188 C 
BRANCH  31  32
ATOM     32  C   UNL     1      -2.682   2.280  -4.912  1.00  0.00     0.188 C 
BRANCH  32  33
ATOM     33  O   UNL     1      -2.010   1.788  -6.060  1.00  0.00    -0.376 OA
BRANCH  33  34
ATOM     34  C   UNL     1      -2.650   1.789  -7.330  1.00  0.00     0.202 C 
BRANCH  34  35
ATOM     35  C   UNL     1      -4.026   1.112  -7.448  1.00  0.00     0.261 C 
BRANCH  35  36
ATOM     36  O   UNL     1      -4.420   0.366  -6.291  1.00  0.00    -0.460 OA
BRANCH  36  37
ATOM     37  C   UNL     1      -3.634  -0.695  -5.992  1.00  0.00     0.338 C 
ATOM     38  O   UNL     1      -2.899  -1.294  -6.758  1.00  0.00    -0.246 OA
BRANCH  37  39
ATOM     39  C   UNL     1      -3.643  -0.872  -4.514  1.00  0.00     0.060 A 
ATOM     40  C   UNL     1      -2.442  -1.232  -3.892  1.00  0.00     0.016 A 
ATOM     41  C   UNL     1      -4.776  -0.591  -3.735  1.00  0.00     0.016 A 
ATOM     42  C   UNL     1      -2.390  -1.395  -2.506  1.00  0.00     0.010 A 
ATOM     43  C   UNL     1      -4.723  -0.748  -2.346  1.00  0.00     0.010 A 
ATOM     44  C   UNL     1      -3.546  -1.213  -1.734  1.00  0.00    -0.014 A 
BRANCH  44  45
ATOM     45  C   UNL     1      -3.613  -1.825  -0.382  1.00  0.00     0.031 A 
ATOM     46  C   UNL     1      -4.163  -3.227  -0.295  1.00  0.00     0.074 A 
ATOM     47  C   UNL     1      -3.189  -1.200   0.731  1.00  0.00     0.049 A 
ATOM     48  N   UNL     1      -4.318  -4.003   0.748  1.00  0.00    -0.248 NA
ATOM     49  C   UNL     1      -4.604  -3.835  -1.563  1.00  0.00     0.031 C 
ATOM     50  C   UNL     1      -2.630   0.147   0.795  1.00  0.00     0.029 A 
ATOM     51  N   UNL     1      -3.178  -1.632   2.037  1.00  0.00    -0.354 N 
ATOM     52  C   UNL     1      -4.871  -5.179   0.259  1.00  0.00     0.074 A 
ATOM     53  C   UNL     1      -5.062  -5.009  -1.162  1.00  0.00     0.031 C 
ATOM     54  C   UNL     1      -2.348   0.440   2.079  1.00  0.00     0.029 A 
ATOM     55  C   UNL     1      -2.712  -0.696   2.927  1.00  0.00     0.049 A 
ATOM     56  H   UNL     1      -3.476  -2.530   2.308  1.00  0.00     0.167 HD
ATOM     57  C   UNL     1      -5.180  -6.313   0.928  1.00  0.00     0.037 A 
ATOM     58  C   UNL     1      -2.606  -0.754   4.271  1.00  0.00     0.037 A 
ATOM     59  C   UNL     1      -4.984  -6.503   2.336  1.00  0.00     0.049 A 
ATOM     60  C   UNL     1      -2.999  -2.020   5.000  1.00  0.00     0.074 A 
ATOM     61  C   UNL     1      -5.221  -7.636   3.093  1.00  0.00     0.029 A 
ATOM     62  N   UNL     1      -4.515  -5.529   3.202  1.00  0.00    -0.354 N 
ATOM     63  N   UNL     1      -3.444  -3.155   4.518  1.00  0.00    -0.248 NA
ATOM     64  C   UNL     1      -2.862  -2.012   6.466  1.00  0.00     0.031 C 
ATOM     65  C   UNL     1      -4.944  -7.332   4.429  1.00  0.00     0.029 A 
ATOM     66  C   UNL     1      -4.487  -6.026   4.494  1.00  0.00     0.049 A 
ATOM     67  H   UNL     1      -4.243  -4.620   2.938  1.00  0.00     0.167 HD
ATOM     68  C   UNL     1      -3.608  -3.999   5.611  1.00  0.00     0.074 A 
ATOM     69  C   UNL     1      -3.199  -3.254   6.781  1.00  0.00     0.031 C 
ATOM     70  C   UNL     1      -4.061  -5.277   5.646  1.00  0.00     0.037 A 
BRANCH  57  71
ATOM     71  C   UNL     1      -5.782  -7.435   0.141  1.00  0.00     0.064 A 
ATOM     72  C   UNL     1      -5.015  -8.213  -0.738  1.00  0.00     0.173 A 
ATOM     73  C   UNL     1      -7.138  -7.758   0.299  1.00  0.00     0.173 A 
ATOM     74  F   UNL     1      -3.719  -7.927  -0.938  1.00  0.00    -0.203 F 
ATOM     75  C   UNL     1      -5.587  -9.269  -1.441  1.00  0.00     0.198 A 
ATOM     76  C   UNL     1      -7.700  -8.830  -0.386  1.00  0.00     0.198 A 
ATOM     77  F   UNL     1      -7.912  -7.039   1.125  1.00  0.00    -0.203 F 
ATOM     78  F   UNL     1      -4.846  -9.978  -2.303  1.00  0.00    -0.200 F 
ATOM     79  C   UNL     1      -6.926  -9.582  -1.258  1.00  0.00     0.200 A 
ATOM     80  F   UNL     1      -8.992  -9.136  -0.203  1.00  0.00    -0.200 F 
ATOM     81  F   UNL     1      -7.473 -10.607  -1.926  1.00  0.00    -0.200 F 
ENDBRANCH  57  71
BRANCH  58  82
ATOM     82  C   UNL     1      -2.121   0.422   5.043  1.00  0.00     0.064 A 
ATOM     83  C   UNL     1      -0.904   0.384   5.739  1.00  0.00     0.173 A 
ATOM     84  C   UNL     1      -2.907   1.577   5.170  1.00  0.00     0.173 A 
ATOM     85  F   UNL     1      -0.131  -0.711   5.674  1.00  0.00    -0.203 F 
ATOM     86  C   UNL     1      -0.509   1.438   6.560  1.00  0.00     0.198 A 
ATOM     87  C   UNL     1      -2.497   2.643   5.968  1.00  0.00     0.198 A 
ATOM     88  F   UNL     1      -4.082   1.663   4.531  1.00  0.00    -0.203 F 
ATOM     89  F   UNL     1       0.625   1.345   7.268  1.00  0.00    -0.200 F 
ATOM     90  C   UNL     1      -1.305   2.568   6.673  1.00  0.00     0.200 A 
ATOM     91  F   UNL     1      -3.265   3.736   6.069  1.00  0.00    -0.200 F 
ATOM     92  F   UNL     1      -0.932   3.576   7.473  1.00  0.00    -0.200 F 
ENDBRANCH  58  82
BRANCH  70  93
ATOM     93  C   UNL     1      -4.104  -5.967   6.979  1.00  0.00     0.064 A 
ATOM     94  C   UNL     1      -5.045  -5.619   7.959  1.00  0.00     0.173 A 
ATOM     95  C   UNL     1      -3.225  -7.025   7.260  1.00  0.00     0.173 A 
ATOM     96  F   UNL     1      -5.901  -4.609   7.744  1.00  0.00    -0.203 F 
ATOM     97  C   UNL     1      -5.086  -6.286   9.181  1.00  0.00     0.198 A 
ATOM     98  C   UNL     1      -3.289  -7.710   8.470  1.00  0.00     0.198 A 
ATOM     99  F   UNL     1      -2.313  -7.406   6.353  1.00  0.00    -0.203 F 
ATOM    100  F   UNL     1      -5.962  -5.904  10.121  1.00  0.00    -0.200 F 
ATOM    101  C   UNL     1      -4.214  -7.334   9.433  1.00  0.00     0.200 A 
ATOM    102  F   UNL     1      -2.457  -8.733   8.705  1.00  0.00    -0.200 F 
ATOM    103  F   UNL     1      -4.260  -7.979  10.607  1.00  0.00    -0.200 F 
ENDBRANCH  70  93
ENDBRANCH  44  45
ENDBRANCH  37  39
ENDBRANCH  36  37
ENDBRANCH  35  36
ENDBRANCH  34  35
ENDBRANCH  33  34
ENDBRANCH  32  33
ENDBRANCH  31  32
ENDBRANCH  30  31
ENDBRANCH   1  30
TORSDOF 24
