REMARK SMILES C/C(=N\NC(N)=S)c1nnn(-c2ccc(C(=O)OCCOCCOCCOC(=O)c3ccc(-c4c5nc(c(-c6c(F)c(F)c(F)c(F)c6F)c6ccc([nH]6)c(-c6c(F)c(F)c(F)c(F)c6F)c6nc(c(-c7c(F)c(F)c(F)c(F)c7F)c7ccc4[nH]7)C=C6)C=C5)cc3)cc2)c1C
REMARK SMILES IDX 21 1 20 2 19 3 18 4 16 5 17 6 15 7 12 8 13 9 94 10 14 11
REMARK SMILES IDX 93 12 11 13 8 14 9 15 95 16 10 17 96 18 2 19 1 20 3 21 4 22
REMARK SMILES IDX 5 24 7 25 6 26 22 29 23 30 24 31 25 32 26 33 27 34 28 35
REMARK SMILES IDX 29 36 30 37 31 38 92 39 32 40 91 41 33 42 34 43 35 44 85 45
REMARK SMILES IDX 36 46 90 47 84 48 86 49 37 50 89 51 83 52 82 53 38 55 70 56
REMARK SMILES IDX 50 57 69 58 51 59 54 60 68 61 87 62 52 63 53 64 67 66 88 67
REMARK SMILES IDX 55 68 39 69 40 70 48 71 41 72 42 73 46 74 49 75 43 76 44 77
REMARK SMILES IDX 47 78 45 79 71 80 72 81 80 82 73 83 74 84 78 85 81 86 75 87
REMARK SMILES IDX 76 88 79 89 77 90 56 91 57 92 65 93 58 94 59 95 63 96 66 97
REMARK SMILES IDX 60 98 61 99 64 100 62 101
REMARK H PARENT 4 23 6 27 6 28 86 54 54 65
REMARK Flexibility Score: inf
ROOT
ATOM      1  O   UNL     1       8.606   6.001  -7.497  1.00  0.00    -0.376 OA
ENDROOT
BRANCH   1   2
ATOM      2  C   UNL     1       9.408   6.196  -6.339  1.00  0.00     0.202 C 
BRANCH   2   3
ATOM      3  C   UNL     1       9.342   5.204  -5.159  1.00  0.00     0.261 C 
BRANCH   3   4
ATOM      4  O   UNL     1       8.117   4.485  -4.989  1.00  0.00    -0.460 OA
BRANCH   4   5
ATOM      5  C   UNL     1       7.200   5.018  -4.151  1.00  0.00     0.338 C 
ATOM      6  O   UNL     1       7.298   6.066  -3.539  1.00  0.00    -0.246 OA
BRANCH   5   7
ATOM      7  C   UNL     1       5.965   4.195  -4.191  1.00  0.00     0.060 A 
ATOM      8  C   UNL     1       3.622   2.710  -4.055  1.00  0.00     0.067 A 
ATOM      9  C   UNL     1       3.544   4.106  -4.048  1.00  0.00     0.029 A 
ATOM     10  C   UNL     1       4.845   2.056  -4.253  1.00  0.00     0.029 A 
ATOM     11  C   UNL     1       4.727   4.846  -4.084  1.00  0.00     0.018 A 
ATOM     12  C   UNL     1       6.019   2.802  -4.334  1.00  0.00     0.018 A 
BRANCH   8  13
ATOM     13  N   UNL     1       2.495   1.968  -3.644  1.00  0.00    -0.217 N 
ATOM     14  C   UNL     1       1.100   0.806  -2.443  1.00  0.00     0.132 A 
ATOM     15  N   UNL     1       0.396   1.485  -3.401  1.00  0.00    -0.128 NA
ATOM     16  C   UNL     1       2.442   1.117  -2.551  1.00  0.00     0.071 A 
ATOM     17  N   UNL     1       1.246   2.251  -4.073  1.00  0.00    -0.061 NA
ATOM     18  C   UNL     1       3.591   0.820  -1.662  1.00  0.00     0.069 C 
BRANCH  14  19
ATOM     19  C   UNL     1       0.455   0.054  -1.385  1.00  0.00     0.087 C 
ATOM     20  C   UNL     1       0.284   0.750  -0.056  1.00  0.00     0.071 C 
ATOM     21  N   UNL     1       0.078  -1.153  -1.692  1.00  0.00    -0.176 NA
BRANCH  21  22
ATOM     22  N   UNL     1      -0.519  -1.923  -0.736  1.00  0.00    -0.254 N 
ATOM     23  H   UNL     1      -1.494  -2.048  -0.799  1.00  0.00     0.193 HD
BRANCH  22  24
ATOM     24  C   UNL     1       0.133  -2.540   0.314  1.00  0.00     0.184 C 
ATOM     25  S   UNL     1       1.733  -2.425   0.758  1.00  0.00    -0.040 S 
BRANCH  24  26
ATOM     26  N   UNL     1      -0.702  -3.324   1.059  1.00  0.00    -0.375 N 
ATOM     27  H   UNL     1      -1.651  -3.405   0.813  1.00  0.00     0.159 HD
ATOM     28  H   UNL     1      -0.353  -3.807   1.843  1.00  0.00     0.159 HD
ENDBRANCH  24  26
ENDBRANCH  22  24
ENDBRANCH  21  22
ENDBRANCH  14  19
ENDBRANCH   8  13
ENDBRANCH   5   7
ENDBRANCH   4   5
ENDBRANCH   3   4
ENDBRANCH   2   3
ENDBRANCH   1   2
BRANCH   1  29
ATOM     29  C   UNL     1       7.213   5.861  -7.303  1.00  0.00     0.188 C 
BRANCH  29  30
ATOM     30  C   UNL     1       6.680   4.454  -7.650  1.00  0.00     0.188 C 
BRANCH  30  31
ATOM     31  O   UNL     1       7.562   3.341  -7.757  1.00  0.00    -0.376 OA
BRANCH  31  32
ATOM     32  C   UNL     1       8.772   3.437  -8.504  1.00  0.00     0.202 C 
BRANCH  32  33
ATOM     33  C   UNL     1       8.735   3.854  -9.975  1.00  0.00     0.261 C 
BRANCH  33  34
ATOM     34  O   UNL     1       8.052   5.082 -10.210  1.00  0.00    -0.460 OA
BRANCH  34  35
ATOM     35  C   UNL     1       6.806   4.935 -10.709  1.00  0.00     0.338 C 
ATOM     36  O   UNL     1       6.227   3.888 -10.940  1.00  0.00    -0.246 OA
BRANCH  35  37
ATOM     37  C   UNL     1       6.200   6.255 -10.955  1.00  0.00     0.060 A 
ATOM     38  C   UNL     1       4.852   6.258 -11.324  1.00  0.00     0.016 A 
ATOM     39  C   UNL     1       6.981   7.416 -11.032  1.00  0.00     0.016 A 
ATOM     40  C   UNL     1       4.350   7.351 -11.998  1.00  0.00     0.010 A 
ATOM     41  C   UNL     1       6.478   8.514 -11.706  1.00  0.00     0.010 A 
ATOM     42  C   UNL     1       5.210   8.416 -12.282  1.00  0.00    -0.014 A 
BRANCH  42  43
ATOM     43  C   UNL     1       4.837   9.256 -13.409  1.00  0.00     0.031 A 
ATOM     44  C   UNL     1       3.870  10.349 -13.190  1.00  0.00     0.074 A 
ATOM     45  C   UNL     1       5.390   9.040 -14.619  1.00  0.00     0.049 A 
ATOM     46  N   UNL     1       2.742  10.548 -13.793  1.00  0.00    -0.248 NA
ATOM     47  C   UNL     1       4.199  11.348 -12.167  1.00  0.00     0.031 C 
ATOM     48  C   UNL     1       6.549   8.201 -14.943  1.00  0.00     0.029 A 
ATOM     49  N   UNL     1       5.079   9.620 -15.812  1.00  0.00    -0.354 N 
ATOM     50  C   UNL     1       2.269  11.767 -13.323  1.00  0.00     0.074 A 
ATOM     51  C   UNL     1       3.169  12.186 -12.275  1.00  0.00     0.031 C 
ATOM     52  C   UNL     1       6.968   8.492 -16.193  1.00  0.00     0.029 A 
ATOM     53  C   UNL     1       6.039   9.437 -16.790  1.00  0.00     0.049 A 
ATOM     54  H   UNL     1       4.246  10.123 -15.964  1.00  0.00     0.167 HD
ATOM     55  C   UNL     1       1.251  12.438 -13.924  1.00  0.00     0.037 A 
ATOM     56  C   UNL     1       6.114  10.084 -17.976  1.00  0.00     0.037 A 
ATOM     57  C   UNL     1       0.462  11.604 -14.783  1.00  0.00     0.049 A 
ATOM     58  C   UNL     1       4.779  10.656 -18.276  1.00  0.00     0.074 A 
ATOM     59  C   UNL     1      -0.327  10.487 -14.587  1.00  0.00     0.029 A 
ATOM     60  N   UNL     1       0.623  11.707 -16.141  1.00  0.00    -0.354 N 
ATOM     61  N   UNL     1       3.732   9.958 -18.616  1.00  0.00    -0.248 NA
ATOM     62  C   UNL     1       4.506  12.017 -17.837  1.00  0.00     0.031 C 
ATOM     63  C   UNL     1      -0.213   9.727 -15.787  1.00  0.00     0.029 A 
ATOM     64  C   UNL     1       0.643  10.427 -16.636  1.00  0.00     0.049 A 
ATOM     65  H   UNL     1       0.708  12.539 -16.661  1.00  0.00     0.167 HD
ATOM     66  C   UNL     1       2.658  10.640 -18.064  1.00  0.00     0.074 A 
ATOM     67  C   UNL     1       3.180  11.951 -17.704  1.00  0.00     0.031 C 
ATOM     68  C   UNL     1       1.519   9.985 -17.694  1.00  0.00     0.037 A 
BRANCH  55  69
ATOM     69  C   UNL     1       1.116  13.930 -13.900  1.00  0.00     0.064 A 
ATOM     70  C   UNL     1      -0.123  14.538 -14.164  1.00  0.00     0.173 A 
ATOM     71  C   UNL     1       2.235  14.788 -13.867  1.00  0.00     0.173 A 
ATOM     72  F   UNL     1      -1.237  13.799 -14.268  1.00  0.00    -0.203 F 
ATOM     73  C   UNL     1      -0.230  15.912 -14.393  1.00  0.00     0.198 A 
ATOM     74  C   UNL     1       2.119  16.164 -14.045  1.00  0.00     0.198 A 
ATOM     75  F   UNL     1       3.482  14.305 -13.756  1.00  0.00    -0.203 F 
ATOM     76  F   UNL     1      -1.415  16.441 -14.728  1.00  0.00    -0.200 F 
ATOM     77  C   UNL     1       0.889  16.724 -14.327  1.00  0.00     0.200 A 
ATOM     78  F   UNL     1       3.217  16.932 -14.002  1.00  0.00    -0.200 F 
ATOM     79  F   UNL     1       0.793  18.036 -14.581  1.00  0.00    -0.200 F 
ENDBRANCH  55  69
BRANCH  56  80
ATOM     80  C   UNL     1       7.336  10.456 -18.719  1.00  0.00     0.064 A 
ATOM     81  C   UNL     1       7.288  10.780 -20.082  1.00  0.00     0.173 A 
ATOM     82  C   UNL     1       8.546  10.733 -18.050  1.00  0.00     0.173 A 
ATOM     83  F   UNL     1       6.157  10.600 -20.779  1.00  0.00    -0.203 F 
ATOM     84  C   UNL     1       8.384  11.351 -20.737  1.00  0.00     0.198 A 
ATOM     85  C   UNL     1       9.644  11.286 -18.706  1.00  0.00     0.198 A 
ATOM     86  F   UNL     1       8.658  10.556 -16.725  1.00  0.00    -0.203 F 
ATOM     87  F   UNL     1       8.284  11.699 -22.027  1.00  0.00    -0.200 F 
ATOM     88  C   UNL     1       9.559  11.605 -20.048  1.00  0.00     0.200 A 
ATOM     89  F   UNL     1      10.761  11.559 -18.018  1.00  0.00    -0.200 F 
ATOM     90  F   UNL     1      10.594  12.194 -20.664  1.00  0.00    -0.200 F 
ENDBRANCH  56  80
BRANCH  68  91
ATOM     91  C   UNL     1       1.334   8.579 -18.181  1.00  0.00     0.064 A 
ATOM     92  C   UNL     1       2.161   7.514 -17.786  1.00  0.00     0.173 A 
ATOM     93  C   UNL     1       0.200   8.273 -18.945  1.00  0.00     0.173 A 
ATOM     94  F   UNL     1       3.202   7.720 -16.968  1.00  0.00    -0.203 F 
ATOM     95  C   UNL     1       1.886   6.206 -18.180  1.00  0.00     0.198 A 
ATOM     96  C   UNL     1      -0.090   6.961 -19.309  1.00  0.00     0.198 A 
ATOM     97  F   UNL     1      -0.657   9.245 -19.296  1.00  0.00    -0.203 F 
ATOM     98  F   UNL     1       2.693   5.206 -17.798  1.00  0.00    -0.200 F 
ATOM     99  C   UNL     1       0.758   5.930 -18.936  1.00  0.00     0.200 A 
ATOM    100  F   UNL     1      -1.208   6.691 -19.998  1.00  0.00    -0.200 F 
ATOM    101  F   UNL     1       0.471   4.667 -19.280  1.00  0.00    -0.200 F 
ENDBRANCH  68  91
ENDBRANCH  42  43
ENDBRANCH  35  37
ENDBRANCH  34  35
ENDBRANCH  33  34
ENDBRANCH  32  33
ENDBRANCH  31  32
ENDBRANCH  30  31
ENDBRANCH  29  30
ENDBRANCH   1  29
TORSDOF 22
