REMARK SMILES C[C@@H](Sc1nnc(-c2ccc3c(c2)OCCCO3)n1C1CC1)C(=O)OCCOCCOCCOC(=O)c1ccc(-c2c3nc(c(-c4c(F)c(F)c(F)c(F)c4F)c4ccc([nH]4)c(-c4c(F)c(F)c(F)c(F)c4F)c4nc(c(-c5c(F)c(F)c(F)c(F)c5F)c5ccc2[nH]5)C=C4)C=C3)cc1
REMARK SMILES IDX 27 1 26 2 25 3 23 4 24 5 2 6 1 7 3 8 4 9 5 10 19 11 6 12
REMARK SMILES IDX 7 13 20 14 21 15 22 16 8 17 9 18 13 19 10 20 12 21 11 22
REMARK SMILES IDX 14 23 15 24 16 25 18 27 17 28 28 30 29 31 30 32 31 33 32 34
REMARK SMILES IDX 33 35 34 36 35 37 36 38 37 39 38 40 99 41 39 42 98 43 40 44
REMARK SMILES IDX 41 45 42 46 92 47 43 48 97 49 91 50 93 51 44 52 96 53 90 54
REMARK SMILES IDX 89 55 45 57 77 58 57 59 76 60 58 61 61 62 75 63 94 64 59 65
REMARK SMILES IDX 60 66 74 68 95 69 62 70 46 71 47 72 55 73 48 74 49 75 53 76
REMARK SMILES IDX 56 77 50 78 51 79 54 80 52 81 78 82 79 83 87 84 80 85 81 86
REMARK SMILES IDX 85 87 88 88 82 89 83 90 86 91 84 92 63 93 64 94 72 95 65 96
REMARK SMILES IDX 66 97 70 98 73 99 67 100 68 101 71 102 69 103
REMARK H PARENT 93 56 61 67
REMARK Flexibility Score: 80.00
ROOT
ATOM      1  C   UNL     1      -3.847   1.473   0.408  1.00  0.00     0.202 C 
ENDROOT
BRANCH   1   2
ATOM      2  C   UNL     1      -2.666   2.282   0.955  1.00  0.00     0.261 C 
BRANCH   2   3
ATOM      3  O   UNL     1      -1.472   1.980   0.194  1.00  0.00    -0.462 OA
BRANCH   3   4
ATOM      4  C   UNL     1      -0.295   2.447   0.696  1.00  0.00     0.319 C 
ATOM      5  O   UNL     1      -0.253   3.196   1.666  1.00  0.00    -0.251 OA
BRANCH   4   6
ATOM      6  C   UNL     1       0.943   1.743   0.052  1.00  0.00     0.161 C 
ATOM      7  C   UNL     1       0.809   1.369  -1.417  1.00  0.00     0.032 C 
BRANCH   6   8
ATOM      8  S   UNL     1       2.413   2.752   0.392  1.00  0.00    -0.071 SA
BRANCH   8   9
ATOM      9  C   UNL     1       3.897   2.029  -0.186  1.00  0.00     0.192 A 
ATOM     10  N   UNL     1       4.699   2.764  -0.941  1.00  0.00    -0.123 NA
ATOM     11  N   UNL     1       4.696   1.118   0.476  1.00  0.00    -0.299 N 
ATOM     12  N   UNL     1       6.013   2.398  -0.707  1.00  0.00    -0.129 NA
ATOM     13  C   UNL     1       6.015   1.447   0.201  1.00  0.00     0.165 A 
BRANCH  11  14
ATOM     14  C   UNL     1       4.450  -0.194   1.015  1.00  0.00     0.091 C 
ATOM     15  C   UNL     1       3.222  -0.914   1.322  1.00  0.00     0.028 C 
ATOM     16  C   UNL     1       3.922  -1.268   0.065  1.00  0.00     0.028 C 
ENDBRANCH  11  14
BRANCH  13  17
ATOM     17  C   UNL     1       7.121   0.565   0.598  1.00  0.00     0.023 A 
ATOM     18  C   UNL     1       7.660   0.578   1.898  1.00  0.00     0.016 A 
ATOM     19  C   UNL     1       7.352  -0.544  -0.224  1.00  0.00     0.062 A 
ATOM     20  C   UNL     1       8.401  -0.515   2.370  1.00  0.00     0.051 A 
ATOM     21  C   UNL     1       8.059  -1.636   0.261  1.00  0.00     0.161 A 
ATOM     22  C   UNL     1       8.608  -1.617   1.542  1.00  0.00     0.161 A 
BRANCH  21  23
ATOM     23  O   UNL     1       8.051  -2.766  -0.508  1.00  0.00    -0.490 OA
BRANCH  23  24
ATOM     24  C   UNL     1       9.360  -3.039  -0.997  1.00  0.00     0.233 C 
BRANCH  24  25
ATOM     25  C   UNL     1      10.200  -3.780   0.033  1.00  0.00     0.083 CG0
ATOM     26  G   UNL     1      10.472  -2.943   1.279  1.00  0.00     0.000 G0
ENDBRANCH  24  25
ENDBRANCH  23  24
ENDBRANCH  21  23
BRANCH  22  27
ATOM     27  O   UNL     1       9.293  -2.685   2.052  1.00  0.00    -0.490 OA
BRANCH  27  28
ATOM     28  C   UNL     1      10.472  -2.943   1.279  1.00  0.00     0.233 CG0
ATOM     29  G   UNL     1      10.200  -3.780   0.033  1.00  0.00     0.000 G0
ENDBRANCH  27  28
ENDBRANCH  22  27
ENDBRANCH  13  17
ENDBRANCH   8   9
ENDBRANCH   6   8
ENDBRANCH   4   6
ENDBRANCH   3   4
ENDBRANCH   2   3
ENDBRANCH   1   2
BRANCH   1  30
ATOM     30  O   UNL     1      -3.971   0.145   0.904  1.00  0.00    -0.376 OA
BRANCH  30  31
ATOM     31  C   UNL     1      -2.826  -0.691   0.885  1.00  0.00     0.188 C 
BRANCH  31  32
ATOM     32  C   UNL     1      -2.006  -0.792  -0.410  1.00  0.00     0.188 C 
BRANCH  32  33
ATOM     33  O   UNL     1      -2.657  -0.612  -1.653  1.00  0.00    -0.376 OA
BRANCH  33  34
ATOM     34  C   UNL     1      -3.749  -1.492  -1.919  1.00  0.00     0.202 C 
BRANCH  34  35
ATOM     35  C   UNL     1      -3.408  -2.993  -1.914  1.00  0.00     0.261 C 
BRANCH  35  36
ATOM     36  O   UNL     1      -3.135  -3.441  -0.568  1.00  0.00    -0.460 OA
BRANCH  36  37
ATOM     37  C   UNL     1      -2.153  -4.370  -0.448  1.00  0.00     0.338 C 
ATOM     38  O   UNL     1      -1.778  -5.151  -1.311  1.00  0.00    -0.246 OA
BRANCH  37  39
ATOM     39  C   UNL     1      -1.323  -3.958   0.712  1.00  0.00     0.060 A 
ATOM     40  C   UNL     1      -1.811  -3.734   2.004  1.00  0.00     0.016 A 
ATOM     41  C   UNL     1      -0.040  -3.536   0.388  1.00  0.00     0.016 A 
ATOM     42  C   UNL     1      -1.035  -3.015   2.947  1.00  0.00     0.010 A 
ATOM     43  C   UNL     1       0.690  -2.793   1.312  1.00  0.00     0.010 A 
ATOM     44  C   UNL     1       0.215  -2.482   2.599  1.00  0.00    -0.014 A 
BRANCH  44  45
ATOM     45  C   UNL     1       1.170  -1.973   3.635  1.00  0.00     0.031 A 
ATOM     46  C   UNL     1       1.890  -3.087   4.307  1.00  0.00     0.074 A 
ATOM     47  C   UNL     1       1.630  -0.717   3.932  1.00  0.00     0.049 A 
ATOM     48  N   UNL     1       1.877  -3.315   5.578  1.00  0.00    -0.248 NA
ATOM     49  C   UNL     1       2.641  -4.079   3.524  1.00  0.00     0.031 C 
ATOM     50  C   UNL     1       1.212   0.558   3.357  1.00  0.00     0.029 A 
ATOM     51  N   UNL     1       2.711  -0.323   4.724  1.00  0.00    -0.354 N 
ATOM     52  C   UNL     1       2.756  -4.364   5.780  1.00  0.00     0.074 A 
ATOM     53  C   UNL     1       3.099  -4.883   4.483  1.00  0.00     0.031 C 
ATOM     54  C   UNL     1       2.138   1.519   3.616  1.00  0.00     0.029 A 
ATOM     55  C   UNL     1       3.161   0.996   4.508  1.00  0.00     0.049 A 
ATOM     56  H   UNL     1       3.128  -0.922   5.385  1.00  0.00     0.167 HD
ATOM     57  C   UNL     1       3.325  -4.557   6.995  1.00  0.00     0.037 A 
ATOM     58  C   UNL     1       4.232   1.649   5.059  1.00  0.00     0.037 A 
ATOM     59  C   UNL     1       2.679  -3.789   8.025  1.00  0.00     0.049 A 
ATOM     60  C   UNL     1       4.366   1.098   6.417  1.00  0.00     0.074 A 
ATOM     61  C   UNL     1       1.464  -3.812   8.676  1.00  0.00     0.029 A 
ATOM     62  N   UNL     1       3.239  -2.567   8.266  1.00  0.00    -0.354 N 
ATOM     63  N   UNL     1       3.526   1.378   7.372  1.00  0.00    -0.248 NA
ATOM     64  C   UNL     1       5.401   0.122   6.745  1.00  0.00     0.031 C 
ATOM     65  C   UNL     1       1.240  -2.493   9.170  1.00  0.00     0.029 A 
ATOM     66  C   UNL     1       2.322  -1.702   8.806  1.00  0.00     0.049 A 
ATOM     67  H   UNL     1       4.177  -2.337   8.076  1.00  0.00     0.167 HD
ATOM     68  C   UNL     1       3.629   0.291   8.201  1.00  0.00     0.074 A 
ATOM     69  C   UNL     1       4.936  -0.283   7.929  1.00  0.00     0.031 C 
ATOM     70  C   UNL     1       2.492  -0.276   8.686  1.00  0.00     0.037 A 
BRANCH  57  71
ATOM     71  C   UNL     1       4.712  -5.101   7.180  1.00  0.00     0.064 A 
ATOM     72  C   UNL     1       5.101  -5.577   8.443  1.00  0.00     0.173 A 
ATOM     73  C   UNL     1       5.750  -4.898   6.245  1.00  0.00     0.173 A 
ATOM     74  F   UNL     1       4.192  -5.745   9.415  1.00  0.00    -0.203 F 
ATOM     75  C   UNL     1       6.441  -5.814   8.755  1.00  0.00     0.198 A 
ATOM     76  C   UNL     1       7.080  -5.189   6.541  1.00  0.00     0.198 A 
ATOM     77  F   UNL     1       5.526  -4.306   5.064  1.00  0.00    -0.203 F 
ATOM     78  F   UNL     1       6.781  -6.170  10.002  1.00  0.00    -0.200 F 
ATOM     79  C   UNL     1       7.428  -5.626   7.803  1.00  0.00     0.200 A 
ATOM     80  F   UNL     1       8.027  -4.969   5.619  1.00  0.00    -0.200 F 
ATOM     81  F   UNL     1       8.717  -5.815   8.114  1.00  0.00    -0.200 F 
ENDBRANCH  57  71
BRANCH  58  82
ATOM     82  C   UNL     1       5.111   2.825   4.715  1.00  0.00     0.064 A 
ATOM     83  C   UNL     1       6.068   3.337   5.625  1.00  0.00     0.173 A 
ATOM     84  C   UNL     1       5.263   3.278   3.403  1.00  0.00     0.173 A 
ATOM     85  F   UNL     1       6.031   3.002   6.922  1.00  0.00    -0.203 F 
ATOM     86  C   UNL     1       7.147   4.136   5.222  1.00  0.00     0.198 A 
ATOM     87  C   UNL     1       6.339   4.081   2.990  1.00  0.00     0.198 A 
ATOM     88  F   UNL     1       4.411   2.860   2.474  1.00  0.00    -0.203 F 
ATOM     89  F   UNL     1       8.077   4.500   6.116  1.00  0.00    -0.200 F 
ATOM     90  C   UNL     1       7.301   4.481   3.896  1.00  0.00     0.200 A 
ATOM     91  F   UNL     1       6.490   4.384   1.695  1.00  0.00    -0.200 F 
ATOM     92  F   UNL     1       8.390   5.147   3.488  1.00  0.00    -0.200 F 
ENDBRANCH  58  82
BRANCH  70  93
ATOM     93  C   UNL     1       1.305   0.625   8.832  1.00  0.00     0.064 A 
ATOM     94  C   UNL     1       0.578   1.155   7.753  1.00  0.00     0.173 A 
ATOM     95  C   UNL     1       0.868   0.943  10.121  1.00  0.00     0.173 A 
ATOM     96  F   UNL     1       0.893   0.842   6.493  1.00  0.00    -0.203 F 
ATOM     97  C   UNL     1      -0.513   1.997   7.956  1.00  0.00     0.198 A 
ATOM     98  C   UNL     1      -0.245   1.756  10.324  1.00  0.00     0.198 A 
ATOM     99  F   UNL     1       1.508   0.442  11.188  1.00  0.00    -0.203 F 
ATOM    100  F   UNL     1      -1.176   2.506   6.906  1.00  0.00    -0.200 F 
ATOM    101  C   UNL     1      -0.928   2.291   9.243  1.00  0.00     0.200 A 
ATOM    102  F   UNL     1      -0.665   2.008  11.571  1.00  0.00    -0.200 F 
ATOM    103  F   UNL     1      -2.000   3.071   9.442  1.00  0.00    -0.200 F 
ENDBRANCH  70  93
ENDBRANCH  44  45
ENDBRANCH  37  39
ENDBRANCH  36  37
ENDBRANCH  35  36
ENDBRANCH  34  35
ENDBRANCH  33  34
ENDBRANCH  32  33
ENDBRANCH  31  32
ENDBRANCH  30  31
ENDBRANCH   1  30
TORSDOF 21
