REMARK SMILES Cc1nc(N2CCN(c3ccccc3)CC2)nc(OCC(=O)OCCOCCOCCOC(=O)c2ccc(-c3c4nc(c(-c5c(F)c(F)c(F)c(F)c5F)c5ccc([nH]5)c(-c5c(F)c(F)c(F)c(F)c5F)c5nc(c(-c6c(F)c(F)c(F)c(F)c6F)c6ccc3[nH]6)C=C5)C=C4)cc2)c1C
REMARK SMILES IDX 27 1 26 2 25 3 24 4 23 5 21 6 22 7 20 8 19 9 18 10 1 11 2 12
REMARK SMILES IDX 3 13 98 14 4 15 99 16 17 17 5 18 6 19 16 20 7 21 15 22 8 23
REMARK SMILES IDX 9 24 10 25 14 26 11 27 13 28 12 29 28 30 29 31 30 32 31 33
REMARK SMILES IDX 32 34 33 35 34 36 35 37 36 38 97 39 37 40 96 41 38 42 39 43
REMARK SMILES IDX 40 44 90 45 41 46 95 47 89 48 91 49 42 50 94 51 88 52 87 53
REMARK SMILES IDX 43 55 75 56 55 57 74 58 56 59 59 60 73 61 92 62 57 63 58 64
REMARK SMILES IDX 72 66 93 67 60 68 44 69 45 70 53 71 46 72 47 73 51 74 54 75
REMARK SMILES IDX 48 76 49 77 52 78 50 79 76 80 77 81 85 82 78 83 79 84 83 85
REMARK SMILES IDX 86 86 80 87 81 88 84 89 82 90 61 91 62 92 70 93 63 94 64 95
REMARK SMILES IDX 68 96 71 97 65 98 66 99 69 100 67 101
REMARK H PARENT 91 54 59 65
REMARK Flexibility Score: inf
ROOT
ATOM      1  C   UNL     1       0.861   2.226   3.110  1.00  0.00     0.188 C 
ENDROOT
BRANCH   1   2
ATOM      2  O   UNL     1       0.719   2.632   4.466  1.00  0.00    -0.376 OA
BRANCH   2   3
ATOM      3  C   UNL     1       0.397   3.998   4.710  1.00  0.00     0.202 C 
BRANCH   3   4
ATOM      4  C   UNL     1       1.504   4.982   4.331  1.00  0.00     0.261 C 
BRANCH   4   5
ATOM      5  O   UNL     1       1.441   5.323   2.930  1.00  0.00    -0.461 OA
BRANCH   5   6
ATOM      6  C   UNL     1       2.567   5.166   2.183  1.00  0.00     0.344 C 
ATOM      7  O   UNL     1       3.629   4.714   2.592  1.00  0.00    -0.248 OA
BRANCH   6   8
ATOM      8  C   UNL     1       2.367   5.673   0.757  1.00  0.00     0.353 C 
BRANCH   8   9
ATOM      9  O   UNL     1       1.118   5.365   0.190  1.00  0.00    -0.465 OA
BRANCH   9  10
ATOM     10  C   UNL     1       0.853   4.407  -0.729  1.00  0.00     0.221 A 
ATOM     11  C   UNL     1       1.588   1.248  -2.673  1.00  0.00     0.067 C 
ATOM     12  C   UNL     1       0.990   2.487  -2.073  1.00  0.00     0.050 A 
ATOM     13  N   UNL     1      -0.263   2.703  -2.517  1.00  0.00    -0.218 NA
ATOM     14  C   UNL     1       1.614   3.315  -1.132  1.00  0.00     0.033 A 
ATOM     15  C   UNL     1      -0.911   3.780  -2.082  1.00  0.00     0.229 A 
ATOM     16  C   UNL     1       2.996   3.028  -0.644  1.00  0.00     0.052 C 
ATOM     17  N   UNL     1      -0.388   4.626  -1.202  1.00  0.00    -0.177 NA
BRANCH  15  18
ATOM     18  N   UNL     1      -2.119   4.116  -2.661  1.00  0.00    -0.337 N 
ATOM     19  C   UNL     1      -3.236   3.221  -2.330  1.00  0.00     0.141 C 
ATOM     20  C   UNL     1      -1.975   4.377  -4.098  1.00  0.00     0.141 C 
ATOM     21  C   UNL     1      -4.563   3.793  -2.897  1.00  0.00     0.138 C 
ATOM     22  C   UNL     1      -3.277   4.962  -4.671  1.00  0.00     0.138 C 
ATOM     23  N   UNL     1      -4.428   4.096  -4.336  1.00  0.00    -0.368 N 
BRANCH  23  24
ATOM     24  C   UNL     1      -5.555   4.299  -5.123  1.00  0.00     0.037 A 
ATOM     25  C   UNL     1      -6.707   4.943  -4.658  1.00  0.00     0.026 A 
ATOM     26  C   UNL     1      -5.538   3.873  -6.460  1.00  0.00     0.026 A 
ATOM     27  C   UNL     1      -7.799   5.164  -5.504  1.00  0.00     0.002 A 
ATOM     28  C   UNL     1      -6.629   4.080  -7.306  1.00  0.00     0.002 A 
ATOM     29  C   UNL     1      -7.761   4.731  -6.827  1.00  0.00     0.000 A 
ENDBRANCH  23  24
ENDBRANCH  15  18
ENDBRANCH   9  10
ENDBRANCH   8   9
ENDBRANCH   6   8
ENDBRANCH   5   6
ENDBRANCH   4   5
ENDBRANCH   3   4
ENDBRANCH   2   3
ENDBRANCH   1   2
BRANCH   1  30
ATOM     30  C   UNL     1      -0.220   2.693   2.118  1.00  0.00     0.188 C 
BRANCH  30  31
ATOM     31  O   UNL     1      -1.564   2.744   2.579  1.00  0.00    -0.376 OA
BRANCH  31  32
ATOM     32  C   UNL     1      -2.071   1.585   3.228  1.00  0.00     0.202 C 
BRANCH  32  33
ATOM     33  C   UNL     1      -2.176   0.366   2.317  1.00  0.00     0.261 C 
BRANCH  33  34
ATOM     34  O   UNL     1      -0.866  -0.131   1.995  1.00  0.00    -0.460 OA
BRANCH  34  35
ATOM     35  C   UNL     1      -0.875  -1.109   1.063  1.00  0.00     0.338 C 
ATOM     36  O   UNL     1      -1.857  -1.634   0.570  1.00  0.00    -0.246 OA
BRANCH  35  37
ATOM     37  C   UNL     1       0.507  -1.488   0.696  1.00  0.00     0.060 A 
ATOM     38  C   UNL     1       1.494  -0.531   0.450  1.00  0.00     0.016 A 
ATOM     39  C   UNL     1       0.772  -2.837   0.450  1.00  0.00     0.016 A 
ATOM     40  C   UNL     1       2.706  -0.916  -0.133  1.00  0.00     0.010 A 
ATOM     41  C   UNL     1       2.000  -3.223  -0.091  1.00  0.00     0.010 A 
ATOM     42  C   UNL     1       2.959  -2.260  -0.441  1.00  0.00    -0.014 A 
BRANCH  42  43
ATOM     43  C   UNL     1       4.158  -2.662  -1.224  1.00  0.00     0.031 A 
ATOM     44  C   UNL     1       3.983  -3.284  -2.586  1.00  0.00     0.074 A 
ATOM     45  C   UNL     1       5.404  -2.444  -0.764  1.00  0.00     0.049 A 
ATOM     46  N   UNL     1       4.850  -3.933  -3.321  1.00  0.00    -0.248 NA
ATOM     47  C   UNL     1       2.656  -3.141  -3.208  1.00  0.00     0.031 C 
ATOM     48  C   UNL     1       5.742  -1.725   0.462  1.00  0.00     0.029 A 
ATOM     49  N   UNL     1       6.622  -2.810  -1.285  1.00  0.00    -0.354 N 
ATOM     50  C   UNL     1       4.166  -4.311  -4.469  1.00  0.00     0.074 A 
ATOM     51  C   UNL     1       2.814  -3.811  -4.341  1.00  0.00     0.031 C 
ATOM     52  C   UNL     1       7.077  -1.681   0.588  1.00  0.00     0.029 A 
ATOM     53  C   UNL     1       7.683  -2.464  -0.485  1.00  0.00     0.049 A 
ATOM     54  H   UNL     1       6.724  -3.274  -2.147  1.00  0.00     0.167 HD
ATOM     55  C   UNL     1       4.626  -5.021  -5.528  1.00  0.00     0.037 A 
ATOM     56  C   UNL     1       8.986  -2.797  -0.565  1.00  0.00     0.037 A 
ATOM     57  C   UNL     1       5.978  -5.500  -5.657  1.00  0.00     0.049 A 
ATOM     58  C   UNL     1       9.448  -3.716  -1.661  1.00  0.00     0.074 A 
ATOM     59  C   UNL     1       6.527  -6.282  -6.659  1.00  0.00     0.029 A 
ATOM     60  N   UNL     1       6.998  -5.228  -4.759  1.00  0.00    -0.354 N 
ATOM     61  N   UNL     1       8.768  -4.207  -2.668  1.00  0.00    -0.248 NA
ATOM     62  C   UNL     1      10.848  -4.161  -1.607  1.00  0.00     0.031 C 
ATOM     63  C   UNL     1       7.872  -6.511  -6.349  1.00  0.00     0.029 A 
ATOM     64  C   UNL     1       8.170  -5.838  -5.176  1.00  0.00     0.049 A 
ATOM     65  H   UNL     1       6.903  -4.683  -3.945  1.00  0.00     0.167 HD
ATOM     66  C   UNL     1       9.654  -5.015  -3.369  1.00  0.00     0.074 A 
ATOM     67  C   UNL     1      10.926  -4.935  -2.682  1.00  0.00     0.031 C 
ATOM     68  C   UNL     1       9.428  -5.759  -4.478  1.00  0.00     0.037 A 
BRANCH  55  69
ATOM     69  C   UNL     1       3.653  -5.366  -6.616  1.00  0.00     0.064 A 
ATOM     70  C   UNL     1       3.236  -4.420  -7.562  1.00  0.00     0.173 A 
ATOM     71  C   UNL     1       3.185  -6.682  -6.750  1.00  0.00     0.173 A 
ATOM     72  F   UNL     1       3.644  -3.146  -7.468  1.00  0.00    -0.203 F 
ATOM     73  C   UNL     1       2.381  -4.779  -8.601  1.00  0.00     0.198 A 
ATOM     74  C   UNL     1       2.348  -7.043  -7.802  1.00  0.00     0.198 A 
ATOM     75  F   UNL     1       3.559  -7.625  -5.871  1.00  0.00    -0.203 F 
ATOM     76  F   UNL     1       1.975  -3.855  -9.483  1.00  0.00    -0.200 F 
ATOM     77  C   UNL     1       1.945  -6.091  -8.726  1.00  0.00     0.200 A 
ATOM     78  F   UNL     1       1.938  -8.312  -7.926  1.00  0.00    -0.200 F 
ATOM     79  F   UNL     1       1.134  -6.437  -9.735  1.00  0.00    -0.200 F 
ENDBRANCH  55  69
BRANCH  56  80
ATOM     80  C   UNL     1       9.926  -2.310   0.477  1.00  0.00     0.064 A 
ATOM     81  C   UNL     1      10.906  -1.358   0.172  1.00  0.00     0.173 A 
ATOM     82  C   UNL     1       9.832  -2.752   1.806  1.00  0.00     0.173 A 
ATOM     83  F   UNL     1      11.055  -0.930  -1.090  1.00  0.00    -0.203 F 
ATOM     84  C   UNL     1      11.746  -0.852   1.163  1.00  0.00     0.198 A 
ATOM     85  C   UNL     1      10.652  -2.224   2.799  1.00  0.00     0.198 A 
ATOM     86  F   UNL     1       8.916  -3.671   2.144  1.00  0.00    -0.203 F 
ATOM     87  F   UNL     1      12.687   0.047   0.844  1.00  0.00    -0.200 F 
ATOM     88  C   UNL     1      11.608  -1.274   2.477  1.00  0.00     0.200 A 
ATOM     89  F   UNL     1      10.503  -2.624   4.069  1.00  0.00    -0.200 F 
ATOM     90  F   UNL     1      12.397  -0.766   3.433  1.00  0.00    -0.200 F 
ENDBRANCH  56  80
BRANCH  68  91
ATOM     91  C   UNL     1      10.581  -6.541  -5.031  1.00  0.00     0.064 A 
ATOM     92  C   UNL     1      11.021  -7.723  -4.419  1.00  0.00     0.173 A 
ATOM     93  C   UNL     1      11.219  -6.131  -6.211  1.00  0.00     0.173 A 
ATOM     94  F   UNL     1      10.451  -8.146  -3.281  1.00  0.00    -0.203 F 
ATOM     95  C   UNL     1      12.071  -8.460  -4.962  1.00  0.00     0.198 A 
ATOM     96  C   UNL     1      12.253  -6.882  -6.763  1.00  0.00     0.198 A 
ATOM     97  F   UNL     1      10.829  -5.010  -6.836  1.00  0.00    -0.203 F 
ATOM     98  F   UNL     1      12.499  -9.569  -4.343  1.00  0.00    -0.200 F 
ATOM     99  C   UNL     1      12.681  -8.043  -6.136  1.00  0.00     0.200 A 
ATOM    100  F   UNL     1      12.835  -6.483  -7.902  1.00  0.00    -0.200 F 
ATOM    101  F   UNL     1      13.687  -8.757  -6.660  1.00  0.00    -0.200 F 
ENDBRANCH  68  91
ENDBRANCH  42  43
ENDBRANCH  35  37
ENDBRANCH  34  35
ENDBRANCH  33  34
ENDBRANCH  32  33
ENDBRANCH  31  32
ENDBRANCH  30  31
ENDBRANCH   1  30
TORSDOF 21
