REMARK SMILES O=C(OCCOCCOCCOC(=O)[C@]1(NC(=O)C2CCN(C(=O)C3CC3)CC2)CCCc2ccccc21)c1ccc(-c2c3nc(c(-c4c(F)c(F)c(F)c(F)c4F)c4ccc([nH]4)c(-c4c(F)c(F)c(F)c(F)c4F)c4nc(c(-c5c(F)c(F)c(F)c(F)c5F)c5ccc2[nH]5)C=C4)C=C3)cc1
REMARK SMILES IDX 8 1 7 2 6 3 5 4 4 5 3 6 2 7 1 8 39 9 40 10 101 11 41 12
REMARK SMILES IDX 100 13 42 14 43 15 44 16 94 17 45 18 99 19 93 20 95 21 46 22
REMARK SMILES IDX 98 23 92 24 91 25 47 27 79 28 59 29 78 30 60 31 63 32 77 33
REMARK SMILES IDX 96 34 61 35 62 36 76 38 97 39 64 40 48 41 49 42 57 43 50 44
REMARK SMILES IDX 51 45 55 46 58 47 52 48 53 49 56 50 54 51 80 52 81 53 89 54
REMARK SMILES IDX 82 55 83 56 87 57 90 58 84 59 85 60 88 61 86 62 65 63 66 64
REMARK SMILES IDX 74 65 67 66 68 67 72 68 75 69 69 70 70 71 73 72 71 73 9 74
REMARK SMILES IDX 10 75 11 76 12 77 13 78 14 79 15 80 30 81 38 82 31 83 33 84
REMARK SMILES IDX 37 85 32 86 34 87 36 88 35 89 16 90 17 91 18 93 19 94 20 95
REMARK SMILES IDX 29 96 21 97 28 98 22 99 23 100 24 101 25 102 26 103 27 104
REMARK H PARENT 95 26 63 37 16 92
REMARK Flexibility Score: inf
ROOT
ATOM      1  C   UNL     1       3.917   1.145  -4.056  1.00  0.00     0.188 C 
ENDROOT
BRANCH   1   2
ATOM      2  C   UNL     1       4.742   0.392  -3.005  1.00  0.00     0.188 C 
BRANCH   2   3
ATOM      3  O   UNL     1       4.325  -0.980  -2.990  1.00  0.00    -0.376 OA
BRANCH   3   4
ATOM      4  C   UNL     1       3.738  -1.528  -1.794  1.00  0.00     0.202 C 
BRANCH   4   5
ATOM      5  C   UNL     1       2.303  -0.892  -1.431  1.00  0.00     0.261 C 
BRANCH   5   6
ATOM      6  O   UNL     1       1.561  -0.329   0.281  1.00  0.00    -0.460 OA
BRANCH   6   7
ATOM      7  C   UNL     1       1.107   0.124   1.581  1.00  0.00     0.338 C 
ATOM      8  O   UNL     1      -0.028  -0.173   1.961  1.00  0.00    -0.246 OA
BRANCH   7   9
ATOM      9  C   UNL     1       1.906   0.901   2.649  1.00  0.00     0.060 A 
ATOM     10  C   UNL     1       2.884   1.837   2.365  1.00  0.00     0.016 A 
ATOM     11  C   UNL     1       1.672   0.732   4.025  1.00  0.00     0.016 A 
ATOM     12  C   UNL     1       3.745   2.398   3.281  1.00  0.00     0.010 A 
ATOM     13  C   UNL     1       2.465   1.403   5.007  1.00  0.00     0.010 A 
ATOM     14  C   UNL     1       3.541   2.224   4.631  1.00  0.00    -0.014 A 
BRANCH  14  15
ATOM     15  C   UNL     1       4.601   2.815   5.492  1.00  0.00     0.031 A 
ATOM     16  C   UNL     1       5.518   1.896   6.243  1.00  0.00     0.074 A 
ATOM     17  C   UNL     1       4.958   4.114   5.333  1.00  0.00     0.049 A 
ATOM     18  N   UNL     1       6.482   2.194   7.071  1.00  0.00    -0.248 NA
ATOM     19  C   UNL     1       5.345   0.451   6.020  1.00  0.00     0.031 C 
ATOM     20  C   UNL     1       4.283   5.069   4.445  1.00  0.00     0.029 A 
ATOM     21  N   UNL     1       6.047   4.819   5.785  1.00  0.00    -0.354 N 
ATOM     22  C   UNL     1       6.925   0.983   7.580  1.00  0.00     0.074 A 
ATOM     23  C   UNL     1       6.213  -0.062   6.880  1.00  0.00     0.031 C 
ATOM     24  C   UNL     1       5.060   6.150   4.283  1.00  0.00     0.029 A 
ATOM     25  C   UNL     1       6.202   6.050   5.183  1.00  0.00     0.049 A 
ATOM     26  H   UNL     1       6.660   4.478   6.476  1.00  0.00     0.167 HD
ATOM     27  C   UNL     1       7.790   0.792   8.602  1.00  0.00     0.037 A 
ATOM     28  C   UNL     1       7.144   6.998   5.365  1.00  0.00     0.037 A 
ATOM     29  C   UNL     1       8.524   1.865   9.216  1.00  0.00     0.049 A 
ATOM     30  C   UNL     1       8.142   6.771   6.469  1.00  0.00     0.074 A 
ATOM     31  C   UNL     1       9.282   1.866  10.372  1.00  0.00     0.029 A 
ATOM     32  N   UNL     1       8.617   3.141   8.674  1.00  0.00    -0.354 N 
ATOM     33  N   UNL     1       8.362   5.685   7.170  1.00  0.00    -0.248 NA
ATOM     34  C   UNL     1       8.963   7.922   6.867  1.00  0.00     0.031 C 
ATOM     35  C   UNL     1       9.815   3.152  10.539  1.00  0.00     0.029 A 
ATOM     36  C   UNL     1       9.422   3.937   9.466  1.00  0.00     0.049 A 
ATOM     37  H   UNL     1       8.173   3.435   7.846  1.00  0.00     0.167 HD
ATOM     38  C   UNL     1       9.299   6.034   8.130  1.00  0.00     0.074 A 
ATOM     39  C   UNL     1       9.672   7.410   7.865  1.00  0.00     0.031 C 
ATOM     40  C   UNL     1       9.767   5.304   9.172  1.00  0.00     0.037 A 
BRANCH  27  41
ATOM     41  C   UNL     1       7.812  -0.574   9.216  1.00  0.00     0.064 A 
ATOM     42  C   UNL     1       8.449  -1.672   8.625  1.00  0.00     0.173 A 
ATOM     43  C   UNL     1       7.105  -0.790  10.411  1.00  0.00     0.173 A 
ATOM     44  F   UNL     1       9.102  -1.529   7.462  1.00  0.00    -0.203 F 
ATOM     45  C   UNL     1       8.356  -2.942   9.195  1.00  0.00     0.198 A 
ATOM     46  C   UNL     1       7.033  -2.053  10.989  1.00  0.00     0.198 A 
ATOM     47  F   UNL     1       6.464   0.226  11.009  1.00  0.00    -0.203 F 
ATOM     48  F   UNL     1       8.921  -3.992   8.583  1.00  0.00    -0.200 F 
ATOM     49  C   UNL     1       7.650  -3.131  10.376  1.00  0.00     0.200 A 
ATOM     50  F   UNL     1       6.347  -2.230  12.127  1.00  0.00    -0.200 F 
ATOM     51  F   UNL     1       7.549  -4.355  10.912  1.00  0.00    -0.200 F 
ENDBRANCH  27  41
BRANCH  28  52
ATOM     52  C   UNL     1       7.149   8.262   4.569  1.00  0.00     0.064 A 
ATOM     53  C   UNL     1       8.256   8.611   3.779  1.00  0.00     0.173 A 
ATOM     54  C   UNL     1       6.067   9.157   4.581  1.00  0.00     0.173 A 
ATOM     55  F   UNL     1       9.334   7.814   3.747  1.00  0.00    -0.203 F 
ATOM     56  C   UNL     1       8.275   9.792   3.034  1.00  0.00     0.198 A 
ATOM     57  C   UNL     1       6.069  10.315   3.803  1.00  0.00     0.198 A 
ATOM     58  F   UNL     1       4.990   8.901   5.338  1.00  0.00    -0.203 F 
ATOM     59  F   UNL     1       9.360  10.110   2.314  1.00  0.00    -0.200 F 
ATOM     60  C   UNL     1       7.176  10.635   3.034  1.00  0.00     0.200 A 
ATOM     61  F   UNL     1       4.995  11.116   3.796  1.00  0.00    -0.200 F 
ATOM     62  F   UNL     1       7.183  11.754   2.297  1.00  0.00    -0.200 F 
ENDBRANCH  28  52
BRANCH  40  63
ATOM     63  C   UNL     1      10.701   5.999  10.110  1.00  0.00     0.064 A 
ATOM     64  C   UNL     1      10.223   6.936  11.039  1.00  0.00     0.173 A 
ATOM     65  C   UNL     1      12.070   5.705  10.106  1.00  0.00     0.173 A 
ATOM     66  F   UNL     1       8.920   7.256  11.066  1.00  0.00    -0.203 F 
ATOM     67  C   UNL     1      11.091   7.572  11.919  1.00  0.00     0.198 A 
ATOM     68  C   UNL     1      12.932   6.330  11.001  1.00  0.00     0.198 A 
ATOM     69  F   UNL     1      12.568   4.815   9.235  1.00  0.00    -0.203 F 
ATOM     70  F   UNL     1      10.622   8.493  12.772  1.00  0.00    -0.200 F 
ATOM     71  C   UNL     1      12.444   7.266  11.902  1.00  0.00     0.200 A 
ATOM     72  F   UNL     1      14.239   6.031  10.988  1.00  0.00    -0.200 F 
ATOM     73  F   UNL     1      13.280   7.880  12.750  1.00  0.00    -0.200 F 
ENDBRANCH  40  63
ENDBRANCH  14  15
ENDBRANCH   7   9
ENDBRANCH   6   7
ENDBRANCH   5   6
ENDBRANCH   4   5
ENDBRANCH   3   4
ENDBRANCH   2   3
ENDBRANCH   1   2
BRANCH   1  74
ATOM     74  O   UNL     1       4.676   1.761  -5.087  1.00  0.00    -0.376 OA
BRANCH  74  75
ATOM     75  C   UNL     1       5.578   2.797  -4.705  1.00  0.00     0.202 C 
BRANCH  75  76
ATOM     76  C   UNL     1       4.924   4.098  -4.235  1.00  0.00     0.261 C 
BRANCH  76  77
ATOM     77  O   UNL     1       4.539   4.069  -2.845  1.00  0.00    -0.461 OA
BRANCH  77  78
ATOM     78  C   UNL     1       3.221   4.323  -2.588  1.00  0.00     0.336 C 
ATOM     79  O   UNL     1       2.330   4.148  -3.413  1.00  0.00    -0.249 OA
BRANCH  78  80
ATOM     80  C   UNL     1       2.958   4.793  -1.123  1.00  0.00     0.164 C 
ATOM     81  C   UNL     1       1.657   5.645  -1.126  1.00  0.00     0.046 C 
ATOM     82  C   UNL     1       4.129   5.645  -0.568  1.00  0.00    -0.008 A 
ATOM     83  C   UNL     1       1.875   7.001  -1.789  1.00  0.00     0.008 C 
ATOM     84  C   UNL     1       4.074   7.053  -0.531  1.00  0.00    -0.042 A 
ATOM     85  C   UNL     1       5.280   5.006  -0.053  1.00  0.00     0.007 A 
ATOM     86  C   UNL     1       2.862   7.831  -0.982  1.00  0.00     0.036 C 
ATOM     87  C   UNL     1       5.151   7.777   0.014  1.00  0.00     0.004 A 
ATOM     88  C   UNL     1       6.335   5.735   0.492  1.00  0.00     0.000 A 
ATOM     89  C   UNL     1       6.273   7.122   0.517  1.00  0.00     0.000 A 
BRANCH  80  90
ATOM     90  N   UNL     1       2.796   3.644  -0.194  1.00  0.00    -0.336 N 
ATOM     91  C   UNL     1       1.768   2.739  -0.215  1.00  0.00     0.224 C 
ATOM     92  H   UNL     1       3.487   3.524   0.497  1.00  0.00     0.164 HD
ATOM     93  O   UNL     1       0.687   3.055   0.267  1.00  0.00    -0.275 OA
BRANCH  91  94
ATOM     94  C   UNL     1       2.122   1.306  -0.672  1.00  0.00     0.082 C 
ATOM     95  C   UNL     1       0.407   0.513  -1.085  1.00  0.00     0.035 C 
ATOM     96  C   UNL     1       3.434   0.139   0.228  1.00  0.00     0.035 C 
ATOM     97  C   UNL     1       0.044  -1.295  -0.604  1.00  0.00     0.120 C 
ATOM     98  C   UNL     1       2.905  -1.675   0.751  1.00  0.00     0.120 C 
ATOM     99  N   UNL     1       1.363  -2.352   0.076  1.00  0.00    -0.342 N 
ATOM    100  C   UNL     1       1.028  -3.705  -0.083  1.00  0.00     0.225 C 
ATOM    101  O   UNL     1      -0.023  -4.005  -0.653  1.00  0.00    -0.275 OA
BRANCH 100 102
ATOM    102  C   UNL     1       1.843  -4.868   0.359  1.00  0.00     0.079 C 
ATOM    103  C   UNL     1       3.314  -5.023   0.584  1.00  0.00     0.014 C 
ATOM    104  C   UNL     1       2.379  -4.962   1.761  1.00  0.00     0.014 C 
ENDBRANCH 100 102
ENDBRANCH  91  94
ENDBRANCH  80  90
ENDBRANCH  78  80
ENDBRANCH  77  78
ENDBRANCH  76  77
ENDBRANCH  75  76
ENDBRANCH  74  75
ENDBRANCH   1  74
TORSDOF 20
