REMARK SMILES O=C(OCCOCCOCCOC(=O)c1ccc(C[NH+]2CC3(CCCCCC3)C2)o1)c1ccc(-c2c3nc(c(-c4c(F)c(F)c(F)c(F)c4F)c4ccc([nH]4)c(-c4c(F)c(F)c(F)c(F)c4F)c4nc(c(-c5c(F)c(F)c(F)c(F)c5F)c5ccc2[nH]5)C=C4)C=C3)cc1
REMARK SMILES IDX 9 1 8 2 7 3 6 4 5 5 4 6 3 7 2 8 1 9 31 10 32 11 93 12 33 13
REMARK SMILES IDX 92 14 34 15 35 16 36 17 86 18 37 19 91 20 85 21 87 22 38 23
REMARK SMILES IDX 90 24 84 25 83 26 39 28 71 29 51 30 70 31 52 32 55 33 69 34
REMARK SMILES IDX 88 35 53 36 54 37 68 39 89 40 56 41 40 42 41 43 49 44 42 45
REMARK SMILES IDX 43 46 47 47 50 48 44 49 45 50 48 51 46 52 72 53 73 54 81 55
REMARK SMILES IDX 74 56 75 57 79 58 82 59 76 60 77 61 80 62 78 63 57 64 58 65
REMARK SMILES IDX 66 66 59 67 60 68 64 69 67 70 61 71 62 72 65 73 63 74 10 75
REMARK SMILES IDX 11 76 12 77 13 78 14 79 15 80 16 81 30 82 17 83 18 84 19 85
REMARK SMILES IDX 20 86 21 87 29 88 22 90 23 91 24 92 25 93 28 95 27 96 26 97
REMARK H PARENT 87 27 55 38 20 89
REMARK Flexibility Score: 90.00
ROOT
ATOM      1  O   UNL     1       2.573  -4.247  -1.424  1.00  0.00    -0.376 OA
ENDROOT
BRANCH   1   2
ATOM      2  C   UNL     1       2.004  -2.935  -1.348  1.00  0.00     0.188 C 
BRANCH   2   3
ATOM      3  C   UNL     1       2.549  -2.065  -0.212  1.00  0.00     0.188 C 
BRANCH   3   4
ATOM      4  O   UNL     1       3.875  -1.589  -0.499  1.00  0.00    -0.376 OA
BRANCH   4   5
ATOM      5  C   UNL     1       4.725  -1.534   0.652  1.00  0.00     0.202 C 
BRANCH   5   6
ATOM      6  C   UNL     1       4.630  -0.228   1.448  1.00  0.00     0.261 C 
BRANCH   6   7
ATOM      7  O   UNL     1       3.278   0.239   1.557  1.00  0.00    -0.460 OA
BRANCH   7   8
ATOM      8  C   UNL     1       2.628   1.140   0.782  1.00  0.00     0.338 C 
ATOM      9  O   UNL     1       1.486   1.460   1.114  1.00  0.00    -0.246 OA
BRANCH   8  10
ATOM     10  C   UNL     1       3.206   1.807  -0.435  1.00  0.00     0.060 A 
ATOM     11  C   UNL     1       4.346   1.413  -1.141  1.00  0.00     0.016 A 
ATOM     12  C   UNL     1       2.509   2.933  -0.913  1.00  0.00     0.016 A 
ATOM     13  C   UNL     1       4.857   2.180  -2.191  1.00  0.00     0.010 A 
ATOM     14  C   UNL     1       2.984   3.680  -1.995  1.00  0.00     0.010 A 
ATOM     15  C   UNL     1       4.196   3.335  -2.602  1.00  0.00    -0.014 A 
BRANCH  15  16
ATOM     16  C   UNL     1       4.849   4.269  -3.540  1.00  0.00     0.031 A 
ATOM     17  C   UNL     1       5.446   5.527  -2.987  1.00  0.00     0.074 A 
ATOM     18  C   UNL     1       4.963   3.982  -4.847  1.00  0.00     0.049 A 
ATOM     19  N   UNL     1       5.955   6.552  -3.616  1.00  0.00    -0.248 NA
ATOM     20  C   UNL     1       5.497   5.629  -1.519  1.00  0.00     0.031 C 
ATOM     21  C   UNL     1       4.557   2.726  -5.466  1.00  0.00     0.029 A 
ATOM     22  N   UNL     1       5.447   4.732  -5.889  1.00  0.00    -0.354 N 
ATOM     23  C   UNL     1       6.392   7.416  -2.624  1.00  0.00     0.074 A 
ATOM     24  C   UNL     1       6.059   6.816  -1.351  1.00  0.00     0.031 C 
ATOM     25  C   UNL     1       4.765   2.807  -6.790  1.00  0.00     0.029 A 
ATOM     26  C   UNL     1       5.261   4.139  -7.112  1.00  0.00     0.049 A 
ATOM     27  H   UNL     1       5.883   5.607  -5.770  1.00  0.00     0.167 HD
ATOM     28  C   UNL     1       7.028   8.601  -2.767  1.00  0.00     0.037 A 
ATOM     29  C   UNL     1       5.416   4.640  -8.353  1.00  0.00     0.037 A 
ATOM     30  C   UNL     1       7.336   9.194  -4.038  1.00  0.00     0.049 A 
ATOM     31  C   UNL     1       5.936   6.043  -8.499  1.00  0.00     0.074 A 
ATOM     32  C   UNL     1       7.941  10.406  -4.308  1.00  0.00     0.029 A 
ATOM     33  N   UNL     1       7.045   8.605  -5.262  1.00  0.00    -0.354 N 
ATOM     34  N   UNL     1       6.310   6.880  -7.562  1.00  0.00    -0.248 NA
ATOM     35  C   UNL     1       6.053   6.575  -9.863  1.00  0.00     0.031 C 
ATOM     36  C   UNL     1       7.983  10.568  -5.698  1.00  0.00     0.029 A 
ATOM     37  C   UNL     1       7.436   9.440  -6.293  1.00  0.00     0.049 A 
ATOM     38  H   UNL     1       6.623   7.723  -5.378  1.00  0.00     0.167 HD
ATOM     39  C   UNL     1       6.750   8.019  -8.219  1.00  0.00     0.074 A 
ATOM     40  C   UNL     1       6.575   7.774  -9.637  1.00  0.00     0.031 C 
ATOM     41  C   UNL     1       7.270   9.156  -7.696  1.00  0.00     0.037 A 
BRANCH  28  42
ATOM     42  C   UNL     1       7.378   9.328  -1.506  1.00  0.00     0.064 A 
ATOM     43  C   UNL     1       8.421   8.893  -0.674  1.00  0.00     0.173 A 
ATOM     44  C   UNL     1       6.620  10.433  -1.092  1.00  0.00     0.173 A 
ATOM     45  F   UNL     1       9.153   7.822  -1.013  1.00  0.00    -0.203 F 
ATOM     46  C   UNL     1       8.668   9.517   0.546  1.00  0.00     0.198 A 
ATOM     47  C   UNL     1       6.885  11.067   0.118  1.00  0.00     0.198 A 
ATOM     48  F   UNL     1       5.607  10.879  -1.849  1.00  0.00    -0.203 F 
ATOM     49  F   UNL     1       9.626   9.045   1.356  1.00  0.00    -0.200 F 
ATOM     50  C   UNL     1       7.901  10.602   0.941  1.00  0.00     0.200 A 
ATOM     51  F   UNL     1       6.141  12.114   0.501  1.00  0.00    -0.200 F 
ATOM     52  F   UNL     1       8.126  11.189   2.125  1.00  0.00    -0.200 F 
ENDBRANCH  28  42
BRANCH  29  53
ATOM     53  C   UNL     1       4.990   3.836  -9.529  1.00  0.00     0.064 A 
ATOM     54  C   UNL     1       5.904   3.333 -10.460  1.00  0.00     0.173 A 
ATOM     55  C   UNL     1       3.632   3.541  -9.728  1.00  0.00     0.173 A 
ATOM     56  F   UNL     1       7.211   3.600 -10.327  1.00  0.00    -0.203 F 
ATOM     57  C   UNL     1       5.475   2.569 -11.547  1.00  0.00     0.198 A 
ATOM     58  C   UNL     1       3.205   2.762 -10.799  1.00  0.00     0.198 A 
ATOM     59  F   UNL     1       2.721   3.993  -8.857  1.00  0.00    -0.203 F 
ATOM     60  F   UNL     1       6.367   2.118 -12.439  1.00  0.00    -0.200 F 
ATOM     61  C   UNL     1       4.127   2.279 -11.712  1.00  0.00     0.200 A 
ATOM     62  F   UNL     1       1.903   2.474 -10.938  1.00  0.00    -0.200 F 
ATOM     63  F   UNL     1       3.719   1.536 -12.750  1.00  0.00    -0.200 F 
ENDBRANCH  29  53
BRANCH  41  64
ATOM     64  C   UNL     1       7.752  10.192  -8.661  1.00  0.00     0.064 A 
ATOM     65  C   UNL     1       6.867  11.067  -9.302  1.00  0.00     0.173 A 
ATOM     66  C   UNL     1       9.127  10.351  -8.887  1.00  0.00     0.173 A 
ATOM     67  F   UNL     1       5.543  10.937  -9.126  1.00  0.00    -0.203 F 
ATOM     68  C   UNL     1       7.343  12.070 -10.141  1.00  0.00     0.198 A 
ATOM     69  C   UNL     1       9.601  11.366  -9.712  1.00  0.00     0.198 A 
ATOM     70  F   UNL     1      10.009   9.535  -8.292  1.00  0.00    -0.203 F 
ATOM     71  F   UNL     1       6.482  12.886 -10.763  1.00  0.00    -0.200 F 
ATOM     72  C   UNL     1       8.709  12.223 -10.338  1.00  0.00     0.200 A 
ATOM     73  F   UNL     1      10.919  11.518  -9.895  1.00  0.00    -0.200 F 
ATOM     74  F   UNL     1       9.165  13.198 -11.136  1.00  0.00    -0.200 F 
ENDBRANCH  41  64
ENDBRANCH  15  16
ENDBRANCH   8  10
ENDBRANCH   7   8
ENDBRANCH   6   7
ENDBRANCH   5   6
ENDBRANCH   4   5
ENDBRANCH   3   4
ENDBRANCH   2   3
ENDBRANCH   1   2
BRANCH   1  75
ATOM     75  C   UNL     1       3.976  -4.323  -1.658  1.00  0.00     0.202 C 
BRANCH  75  76
ATOM     76  C   UNL     1       4.415  -4.038  -3.094  1.00  0.00     0.261 C 
BRANCH  76  77
ATOM     77  O   UNL     1       3.892  -2.804  -3.608  1.00  0.00    -0.457 OA
BRANCH  77  78
ATOM     78  C   UNL     1       3.393  -2.877  -4.868  1.00  0.00     0.374 C 
ATOM     79  O   UNL     1       3.425  -3.897  -5.576  1.00  0.00    -0.242 OA
BRANCH  78  80
ATOM     80  C   UNL     1       2.953  -1.598  -5.353  1.00  0.00     0.212 A 
ATOM     81  C   UNL     1       3.141  -1.056  -6.609  1.00  0.00     0.059 A 
ATOM     82  O   UNL     1       2.155  -0.763  -4.603  1.00  0.00    -0.448 OA
ATOM     83  C   UNL     1       2.433   0.155  -6.641  1.00  0.00     0.053 A 
ATOM     84  C   UNL     1       1.789   0.276  -5.425  1.00  0.00     0.159 A 
BRANCH  84  85
ATOM     85  C   UNL     1       0.800   1.292  -4.923  1.00  0.00     0.338 C 
BRANCH  85  86
ATOM     86  N   UNL     1      -0.566   1.012  -5.409  1.00  0.00    -0.327 N 
ATOM     87  C   UNL     1      -0.688   1.175  -6.862  1.00  0.00     0.275 C 
ATOM     88  C   UNL     1      -1.488   2.137  -5.169  1.00  0.00     0.275 C 
ATOM     89  H   UNL     1      -0.750   0.103  -4.983  1.00  0.00     0.348 HD
ATOM     90  C   UNL     1      -1.498   2.485  -6.692  1.00  0.00     0.068 C 
BRANCH  90  91
ATOM     91  C   UNL     1      -2.876   2.388  -7.360  1.00  0.00     0.019 C 
BRANCH  91  92
ATOM     92  C   UNL     1      -2.786   2.424  -8.890  1.00  0.00     0.001 C 
BRANCH  92  93
ATOM     93  C   UNL     1      -2.644   3.840  -9.440  1.00  0.00     0.000 CG0
ATOM     94  G   UNL     1      -1.237   4.426  -9.445  1.00  0.00     0.000 G0
ENDBRANCH  92  93
ENDBRANCH  91  92
ENDBRANCH  90  91
BRANCH  90  95
ATOM     95  C   UNL     1      -0.797   3.827  -6.963  1.00  0.00     0.019 C 
BRANCH  95  96
ATOM     96  C   UNL     1      -0.255   3.949  -8.383  1.00  0.00     0.001 C 
BRANCH  96  97
ATOM     97  C   UNL     1      -1.237   4.426  -9.445  1.00  0.00     0.000 CG0
ATOM     98  G   UNL     1      -2.644   3.840  -9.440  1.00  0.00     0.000 G0
ENDBRANCH  96  97
ENDBRANCH  95  96
ENDBRANCH  90  95
ENDBRANCH  85  86
ENDBRANCH  84  85
ENDBRANCH  78  80
ENDBRANCH  77  78
ENDBRANCH  76  77
ENDBRANCH  75  76
ENDBRANCH   1  75
TORSDOF 19
