REMARK SMILES O=C(OCCOCCOCCOC(=O)[C@@H]1CN(c2ncnc3c2CCC3)CCO1)c1ccc(-c2c3nc(c(-c4c(F)c(F)c(F)c(F)c4F)c4ccc([nH]4)c(-c4c(F)c(F)c(F)c(F)c4F)c4nc(c(-c5c(F)c(F)c(F)c(F)c5F)c5ccc2[nH]5)C=C4)C=C3)cc1
REMARK SMILES IDX 7 1 6 2 5 3 4 4 3 5 2 6 1 7 30 8 31 9 92 10 32 11 91 12
REMARK SMILES IDX 33 13 34 14 35 15 85 16 36 17 90 18 84 19 86 20 37 21 89 22
REMARK SMILES IDX 83 23 82 24 38 26 70 27 50 28 69 29 51 30 54 31 68 32 87 33
REMARK SMILES IDX 52 34 53 35 67 37 88 38 55 39 39 40 40 41 48 42 41 43 42 44
REMARK SMILES IDX 46 45 49 46 43 47 44 48 47 49 45 50 71 51 72 52 80 53 73 54
REMARK SMILES IDX 74 55 78 56 81 57 75 58 76 59 79 60 77 61 56 62 57 63 65 64
REMARK SMILES IDX 58 65 59 66 63 67 66 68 60 69 61 70 64 71 62 72 8 73 9 74
REMARK SMILES IDX 10 75 11 76 12 77 13 78 14 79 15 80 16 81 29 82 17 83 28 84
REMARK SMILES IDX 27 85 18 86 19 87 23 88 20 89 22 90 24 91 21 92 26 93 25 94
REMARK H PARENT 86 25 54 36
REMARK Flexibility Score: inf
ROOT
ATOM      1  C   UNL     1       2.459   0.068  -2.099  1.00  0.00     0.188 C 
ENDROOT
BRANCH   1   2
ATOM      2  O   UNL     1       3.766   0.400  -1.612  1.00  0.00    -0.376 OA
BRANCH   2   3
ATOM      3  C   UNL     1       4.591  -0.738  -1.354  1.00  0.00     0.202 C 
BRANCH   3   4
ATOM      4  C   UNL     1       4.359  -1.409   0.008  1.00  0.00     0.261 C 
BRANCH   4   5
ATOM      5  O   UNL     1       3.004  -1.296   0.469  1.00  0.00    -0.460 OA
BRANCH   5   6
ATOM      6  C   UNL     1       2.489  -0.406   1.353  1.00  0.00     0.338 C 
ATOM      7  O   UNL     1       1.352  -0.602   1.780  1.00  0.00    -0.246 OA
BRANCH   6   8
ATOM      8  C   UNL     1       3.222   0.801   1.860  1.00  0.00     0.060 A 
ATOM      9  C   UNL     1       4.337   1.386   1.258  1.00  0.00     0.016 A 
ATOM     10  C   UNL     1       2.713   1.423   3.014  1.00  0.00     0.016 A 
ATOM     11  C   UNL     1       4.998   2.471   1.826  1.00  0.00     0.010 A 
ATOM     12  C   UNL     1       3.342   2.547   3.569  1.00  0.00     0.010 A 
ATOM     13  C   UNL     1       4.520   3.048   2.997  1.00  0.00    -0.014 A 
BRANCH  13  14
ATOM     14  C   UNL     1       5.360   4.046   3.695  1.00  0.00     0.031 A 
ATOM     15  C   UNL     1       6.077   3.608   4.938  1.00  0.00     0.074 A 
ATOM     16  C   UNL     1       5.569   5.276   3.188  1.00  0.00     0.049 A 
ATOM     17  N   UNL     1       6.866   4.295   5.720  1.00  0.00    -0.248 NA
ATOM     18  C   UNL     1       5.928   2.193   5.327  1.00  0.00     0.031 C 
ATOM     19  C   UNL     1       5.065   5.773   1.912  1.00  0.00     0.029 A 
ATOM     20  N   UNL     1       6.246   6.352   3.706  1.00  0.00    -0.354 N 
ATOM     21  C   UNL     1       7.350   3.386   6.648  1.00  0.00     0.074 A 
ATOM     22  C   UNL     1       6.705   2.119   6.396  1.00  0.00     0.031 C 
ATOM     23  C   UNL     1       5.324   7.089   1.809  1.00  0.00     0.029 A 
ATOM     24  C   UNL     1       6.039   7.513   3.000  1.00  0.00     0.049 A 
ATOM     25  H   UNL     1       6.821   6.297   4.503  1.00  0.00     0.167 HD
ATOM     26  C   UNL     1       8.297   3.583   7.591  1.00  0.00     0.037 A 
ATOM     27  C   UNL     1       6.365   8.777   3.314  1.00  0.00     0.037 A 
ATOM     28  C   UNL     1       8.933   4.844   7.838  1.00  0.00     0.049 A 
ATOM     29  C   UNL     1       7.243   9.014   4.506  1.00  0.00     0.074 A 
ATOM     30  C   UNL     1       9.922   5.149   8.753  1.00  0.00     0.029 A 
ATOM     31  N   UNL     1       8.624   6.018   7.168  1.00  0.00    -0.354 N 
ATOM     32  N   UNL     1       7.726   8.146   5.356  1.00  0.00    -0.248 NA
ATOM     33  C   UNL     1       7.666  10.401   4.747  1.00  0.00     0.031 C 
ATOM     34  C   UNL     1      10.174   6.522   8.676  1.00  0.00     0.029 A 
ATOM     35  C   UNL     1       9.369   7.061   7.687  1.00  0.00     0.049 A 
ATOM     36  H   UNL     1       7.972   6.097   6.435  1.00  0.00     0.167 HD
ATOM     37  C   UNL     1       8.533   8.871   6.214  1.00  0.00     0.074 A 
ATOM     38  C   UNL     1       8.477  10.252   5.782  1.00  0.00     0.031 C 
ATOM     39  C   UNL     1       9.272   8.429   7.257  1.00  0.00     0.037 A 
BRANCH  26  40
ATOM     40  C   UNL     1       8.711   2.403   8.409  1.00  0.00     0.064 A 
ATOM     41  C   UNL     1       9.541   1.406   7.876  1.00  0.00     0.173 A 
ATOM     42  C   UNL     1       8.315   2.291   9.748  1.00  0.00     0.173 A 
ATOM     43  F   UNL     1       9.924   1.460   6.591  1.00  0.00    -0.203 F 
ATOM     44  C   UNL     1       9.960   0.334   8.658  1.00  0.00     0.198 A 
ATOM     45  C   UNL     1       8.752   1.228  10.532  1.00  0.00     0.198 A 
ATOM     46  F   UNL     1       7.514   3.217  10.295  1.00  0.00    -0.203 F 
ATOM     47  F   UNL     1      10.734  -0.621   8.124  1.00  0.00    -0.200 F 
ATOM     48  C   UNL     1       9.573   0.252   9.988  1.00  0.00     0.200 A 
ATOM     49  F   UNL     1       8.379   1.150  11.817  1.00  0.00    -0.200 F 
ATOM     50  F   UNL     1       9.988  -0.774  10.744  1.00  0.00    -0.200 F 
ENDBRANCH  26  40
BRANCH  27  51
ATOM     51  C   UNL     1       5.816   9.941   2.581  1.00  0.00     0.064 A 
ATOM     52  C   UNL     1       6.583  10.671   1.668  1.00  0.00     0.173 A 
ATOM     53  C   UNL     1       4.558  10.447   2.944  1.00  0.00     0.173 A 
ATOM     54  F   UNL     1       7.798  10.232   1.312  1.00  0.00    -0.203 F 
ATOM     55  C   UNL     1       6.135  11.899   1.184  1.00  0.00     0.198 A 
ATOM     56  C   UNL     1       4.108  11.668   2.451  1.00  0.00     0.198 A 
ATOM     57  F   UNL     1       3.789   9.774   3.812  1.00  0.00    -0.203 F 
ATOM     58  F   UNL     1       6.905  12.610   0.350  1.00  0.00    -0.200 F 
ATOM     59  C   UNL     1       4.906  12.403   1.588  1.00  0.00     0.200 A 
ATOM     60  F   UNL     1       2.912  12.141   2.825  1.00  0.00    -0.200 F 
ATOM     61  F   UNL     1       4.484  13.590   1.133  1.00  0.00    -0.200 F 
ENDBRANCH  27  51
BRANCH  39  62
ATOM     62  C   UNL     1      10.067   9.452   7.998  1.00  0.00     0.064 A 
ATOM     63  C   UNL     1       9.446  10.360   8.866  1.00  0.00     0.173 A 
ATOM     64  C   UNL     1      11.461   9.503   7.864  1.00  0.00     0.173 A 
ATOM     65  F   UNL     1       8.110  10.364   8.997  1.00  0.00    -0.203 F 
ATOM     66  C   UNL     1      10.196  11.294   9.570  1.00  0.00     0.198 A 
ATOM     67  C   UNL     1      12.210  10.420   8.592  1.00  0.00     0.198 A 
ATOM     68  F   UNL     1      12.093   8.657   7.037  1.00  0.00    -0.203 F 
ATOM     69  F   UNL     1       9.582  12.182  10.364  1.00  0.00    -0.200 F 
ATOM     70  C   UNL     1      11.577  11.316   9.441  1.00  0.00     0.200 A 
ATOM     71  F   UNL     1      13.545  10.436   8.472  1.00  0.00    -0.200 F 
ATOM     72  F   UNL     1      12.300  12.209  10.130  1.00  0.00    -0.200 F 
ENDBRANCH  39  62
ENDBRANCH  13  14
ENDBRANCH   6   8
ENDBRANCH   5   6
ENDBRANCH   4   5
ENDBRANCH   3   4
ENDBRANCH   2   3
ENDBRANCH   1   2
BRANCH   1  73
ATOM     73  C   UNL     1       1.882   1.203  -2.948  1.00  0.00     0.188 C 
BRANCH  73  74
ATOM     74  O   UNL     1       2.501   1.435  -4.216  1.00  0.00    -0.376 OA
BRANCH  74  75
ATOM     75  C   UNL     1       3.919   1.557  -4.244  1.00  0.00     0.202 C 
BRANCH  75  76
ATOM     76  C   UNL     1       4.532   2.847  -3.676  1.00  0.00     0.261 C 
BRANCH  76  77
ATOM     77  O   UNL     1       3.858   3.373  -2.525  1.00  0.00    -0.461 OA
BRANCH  77  78
ATOM     78  C   UNL     1       3.024   4.419  -2.780  1.00  0.00     0.337 C 
ATOM     79  O   UNL     1       2.893   4.947  -3.882  1.00  0.00    -0.249 OA
BRANCH  78  80
ATOM     80  C   UNL     1       2.220   4.856  -1.549  1.00  0.00     0.247 C 
ATOM     81  C   UNL     1       2.154   6.390  -1.613  1.00  0.00     0.162 C 
ATOM     82  O   UNL     1       2.731   4.449  -0.268  1.00  0.00    -0.363 OA
ATOM     83  N   UNL     1       1.362   6.907  -0.500  1.00  0.00    -0.351 N 
ATOM     84  C   UNL     1       1.846   4.887   0.787  1.00  0.00     0.183 C 
ATOM     85  C   UNL     1       1.696   6.418   0.829  1.00  0.00     0.146 C 
BRANCH  83  86
ATOM     86  C   UNL     1       0.840   8.171  -0.601  1.00  0.00     0.135 A 
ATOM     87  N   UNL     1      -0.502   8.257  -0.611  1.00  0.00    -0.219 NA
ATOM     88  C   UNL     1       1.602   9.307  -0.709  1.00  0.00     0.016 A 
ATOM     89  C   UNL     1      -1.050   9.481  -0.743  1.00  0.00     0.224 A 
ATOM     90  C   UNL     1       0.932  10.512  -0.817  1.00  0.00     0.049 A 
ATOM     91  C   UNL     1       3.075   9.526  -0.663  1.00  0.00     0.042 C 
ATOM     92  N   UNL     1      -0.395  10.647  -0.840  1.00  0.00    -0.241 NA
ATOM     93  C   UNL     1       1.892  11.666  -0.856  1.00  0.00     0.057 C 
ATOM     94  C   UNL     1       3.183  10.941  -1.248  1.00  0.00     0.011 C 
ENDBRANCH  83  86
ENDBRANCH  78  80
ENDBRANCH  77  78
ENDBRANCH  76  77
ENDBRANCH  75  76
ENDBRANCH  74  75
ENDBRANCH  73  74
ENDBRANCH   1  73
TORSDOF 18
