REMARK SMILES C[C@H](c1ccncc1)[N@H+]1[C@@H]2CC[C@H]1C[C@H](CC(=O)OCCOCCOCCOC(=O)c1ccc(-c3c4nc(c(-c5c(F)c(F)c(F)c(F)c5F)c5ccc([nH]5)c(-c5c(F)c(F)c(F)c(F)c5F)c5nc(c(-c6c(F)c(F)c(F)c(F)c6F)c6ccc3[nH]6)C=C5)C=C4)cc1)C2
REMARK SMILES IDX 23 1 22 2 21 3 20 4 19 5 17 6 18 7 16 8 15 9 9 10 10 11
REMARK SMILES IDX 13 12 11 14 94 15 12 16 14 17 2 18 1 19 3 20 4 21 8 22 5 23
REMARK SMILES IDX 7 24 6 25 24 26 25 27 26 28 27 29 28 30 29 31 30 32 31 33
REMARK SMILES IDX 32 34 93 35 33 36 92 37 34 38 35 39 36 40 86 41 37 42 91 43
REMARK SMILES IDX 85 44 87 45 38 46 90 47 84 48 83 49 39 51 71 52 51 53 70 54
REMARK SMILES IDX 52 55 55 56 69 57 88 58 53 59 54 60 68 62 89 63 56 64 40 65
REMARK SMILES IDX 41 66 49 67 42 68 43 69 47 70 50 71 44 72 45 73 48 74 46 75
REMARK SMILES IDX 72 76 73 77 81 78 74 79 75 80 79 81 82 82 76 83 77 84 80 85
REMARK SMILES IDX 78 86 57 87 58 88 66 89 59 90 60 91 64 92 67 93 61 94 62 95
REMARK SMILES IDX 65 96 63 97
REMARK H PARENT 9 13 87 50 55 61
REMARK Flexibility Score: inf
ROOT
ATOM      1  C   UNL     1      -1.339  -0.324  -6.229  1.00  0.00     0.188 C 
ENDROOT
BRANCH   1   2
ATOM      2  O   UNL     1      -0.976  -1.620  -6.667  1.00  0.00    -0.376 OA
BRANCH   2   3
ATOM      3  C   UNL     1      -0.406  -2.493  -5.690  1.00  0.00     0.202 C 
BRANCH   3   4
ATOM      4  C   UNL     1       0.718  -1.923  -4.817  1.00  0.00     0.261 C 
BRANCH   4   5
ATOM      5  O   UNL     1       0.208  -0.898  -3.942  1.00  0.00    -0.463 OA
BRANCH   5   6
ATOM      6  C   UNL     1       0.965   0.216  -3.834  1.00  0.00     0.306 C 
ATOM      7  O   UNL     1       2.095   0.340  -4.300  1.00  0.00    -0.252 OA
BRANCH   6   8
ATOM      8  C   UNL     1       0.224   1.403  -3.256  1.00  0.00     0.126 C 
BRANCH   8   9
ATOM      9  C   UNL     1      -0.795   1.279  -2.101  1.00  0.00     0.012 C 
ATOM     10  N   UNL     1      -0.513   1.193   0.830  1.00  0.00    -0.324 N 
ATOM     11  C   UNL     1      -1.119   2.375   0.234  1.00  0.00     0.185 C 
ATOM     12  C   UNL     1      -1.179   0.072   0.171  1.00  0.00     0.185 C 
ATOM     13  H   UNL     1      -0.669   1.185   1.838  1.00  0.00     0.349 HD
ATOM     14  C   UNL     1      -2.610   2.024   0.297  1.00  0.00     0.071 C 
ATOM     15  C   UNL     1      -0.661   2.547  -1.213  1.00  0.00     0.069 C 
ATOM     16  C   UNL     1      -2.648   0.498   0.296  1.00  0.00     0.071 C 
ATOM     17  C   UNL     1      -0.787  -0.049  -1.314  1.00  0.00     0.069 C 
BRANCH  10  18
ATOM     18  C   UNL     1       0.907   1.135   1.214  1.00  0.00     0.212 C 
ATOM     19  C   UNL     1       1.630   2.493   1.310  1.00  0.00     0.081 C 
BRANCH  18  20
ATOM     20  C   UNL     1       1.767   0.091   0.504  1.00  0.00     0.012 A 
ATOM     21  C   UNL     1       2.478   0.353  -0.673  1.00  0.00     0.030 A 
ATOM     22  C   UNL     1       1.808  -1.220   1.003  1.00  0.00     0.030 A 
ATOM     23  C   UNL     1       3.126  -0.695  -1.318  1.00  0.00     0.111 A 
ATOM     24  C   UNL     1       2.493  -2.196   0.294  1.00  0.00     0.111 A 
ATOM     25  N   UNL     1       3.141  -1.966  -0.865  1.00  0.00    -0.265 NA
ENDBRANCH  18  20
ENDBRANCH  10  18
ENDBRANCH   8   9
ENDBRANCH   6   8
ENDBRANCH   5   6
ENDBRANCH   4   5
ENDBRANCH   3   4
ENDBRANCH   2   3
ENDBRANCH   1   2
BRANCH   1  26
ATOM     26  C   UNL     1      -2.558  -0.223  -5.314  1.00  0.00     0.188 C 
BRANCH  26  27
ATOM     27  O   UNL     1      -2.650  -0.995  -4.127  1.00  0.00    -0.376 OA
BRANCH  27  28
ATOM     28  C   UNL     1      -3.590  -2.071  -4.109  1.00  0.00     0.202 C 
BRANCH  28  29
ATOM     29  C   UNL     1      -5.090  -1.825  -4.407  1.00  0.00     0.261 C 
BRANCH  29  30
ATOM     30  O   UNL     1      -5.402  -0.620  -5.111  1.00  0.00    -0.460 OA
BRANCH  30  31
ATOM     31  C   UNL     1      -5.448   0.499  -4.343  1.00  0.00     0.338 C 
ATOM     32  O   UNL     1      -5.489   0.548  -3.132  1.00  0.00    -0.246 OA
BRANCH  31  33
ATOM     33  C   UNL     1      -5.188   1.678  -5.220  1.00  0.00     0.060 A 
ATOM     34  C   UNL     1      -4.377   2.699  -4.705  1.00  0.00     0.016 A 
ATOM     35  C   UNL     1      -5.623   1.741  -6.548  1.00  0.00     0.016 A 
ATOM     36  C   UNL     1      -4.015   3.788  -5.504  1.00  0.00     0.010 A 
ATOM     37  C   UNL     1      -5.277   2.842  -7.342  1.00  0.00     0.010 A 
ATOM     38  C   UNL     1      -4.492   3.885  -6.817  1.00  0.00    -0.014 A 
BRANCH  38  39
ATOM     39  C   UNL     1      -4.363   5.164  -7.564  1.00  0.00     0.031 A 
ATOM     40  C   UNL     1      -5.532   6.112  -7.542  1.00  0.00     0.074 A 
ATOM     41  C   UNL     1      -3.249   5.500  -8.240  1.00  0.00     0.049 A 
ATOM     42  N   UNL     1      -5.703   7.246  -8.172  1.00  0.00    -0.248 NA
ATOM     43  C   UNL     1      -6.667   5.719  -6.691  1.00  0.00     0.031 C 
ATOM     44  C   UNL     1      -2.023   4.710  -8.306  1.00  0.00     0.029 A 
ATOM     45  N   UNL     1      -2.981   6.604  -9.015  1.00  0.00    -0.354 N 
ATOM     46  C   UNL     1      -6.963   7.696  -7.801  1.00  0.00     0.074 A 
ATOM     47  C   UNL     1      -7.526   6.699  -6.916  1.00  0.00     0.031 C 
ATOM     48  C   UNL     1      -1.137   5.347  -9.094  1.00  0.00     0.029 A 
ATOM     49  C   UNL     1      -1.747   6.570  -9.619  1.00  0.00     0.049 A 
ATOM     50  H   UNL     1      -3.614   7.350  -9.128  1.00  0.00     0.167 HD
ATOM     51  C   UNL     1      -7.595   8.838  -8.157  1.00  0.00     0.037 A 
ATOM     52  C   UNL     1      -1.188   7.413 -10.512  1.00  0.00     0.037 A 
ATOM     53  C   UNL     1      -7.046   9.831  -9.042  1.00  0.00     0.049 A 
ATOM     54  C   UNL     1      -1.954   8.632 -10.974  1.00  0.00     0.074 A 
ATOM     55  C   UNL     1      -7.609  11.027  -9.449  1.00  0.00     0.029 A 
ATOM     56  N   UNL     1      -5.812   9.737  -9.666  1.00  0.00    -0.354 N 
ATOM     57  N   UNL     1      -3.135   9.063 -10.602  1.00  0.00    -0.248 NA
ATOM     58  C   UNL     1      -1.303   9.482 -11.984  1.00  0.00     0.031 C 
ATOM     59  C   UNL     1      -6.744  11.627 -10.370  1.00  0.00     0.029 A 
ATOM     60  C   UNL     1      -5.611  10.838 -10.484  1.00  0.00     0.049 A 
ATOM     61  H   UNL     1      -5.173   8.997  -9.547  1.00  0.00     0.167 HD
ATOM     62  C   UNL     1      -3.354  10.243 -11.306  1.00  0.00     0.074 A 
ATOM     63  C   UNL     1      -2.177  10.470 -12.116  1.00  0.00     0.031 C 
ATOM     64  C   UNL     1      -4.433  11.063 -11.283  1.00  0.00     0.037 A 
BRANCH  51  65
ATOM     65  C   UNL     1      -8.977   9.058  -7.614  1.00  0.00     0.064 A 
ATOM     66  C   UNL     1      -9.204   9.335  -6.258  1.00  0.00     0.173 A 
ATOM     67  C   UNL     1     -10.088   9.014  -8.470  1.00  0.00     0.173 A 
ATOM     68  F   UNL     1      -8.178   9.371  -5.394  1.00  0.00    -0.203 F 
ATOM     69  C   UNL     1     -10.495   9.529  -5.773  1.00  0.00     0.198 A 
ATOM     70  C   UNL     1     -11.373   9.242  -7.989  1.00  0.00     0.198 A 
ATOM     71  F   UNL     1      -9.926   8.755  -9.777  1.00  0.00    -0.203 F 
ATOM     72  F   UNL     1     -10.693   9.737  -4.464  1.00  0.00    -0.200 F 
ATOM     73  C   UNL     1     -11.577   9.490  -6.640  1.00  0.00     0.200 A 
ATOM     74  F   UNL     1     -12.416   9.217  -8.830  1.00  0.00    -0.200 F 
ATOM     75  F   UNL     1     -12.818   9.684  -6.173  1.00  0.00    -0.200 F 
ENDBRANCH  51  65
BRANCH  52  76
ATOM     76  C   UNL     1       0.165   7.130 -11.067  1.00  0.00     0.064 A 
ATOM     77  C   UNL     1       1.251   7.976 -10.798  1.00  0.00     0.173 A 
ATOM     78  C   UNL     1       0.389   6.037 -11.918  1.00  0.00     0.173 A 
ATOM     79  F   UNL     1       1.081   9.055 -10.020  1.00  0.00    -0.203 F 
ATOM     80  C   UNL     1       2.500   7.752 -11.374  1.00  0.00     0.198 A 
ATOM     81  C   UNL     1       1.646   5.796 -12.468  1.00  0.00     0.198 A 
ATOM     82  F   UNL     1      -0.617   5.203 -12.219  1.00  0.00    -0.203 F 
ATOM     83  F   UNL     1       3.504   8.611 -11.148  1.00  0.00    -0.200 F 
ATOM     84  C   UNL     1       2.699   6.659 -12.204  1.00  0.00     0.200 A 
ATOM     85  F   UNL     1       1.835   4.734 -13.264  1.00  0.00    -0.200 F 
ATOM     86  F   UNL     1       3.899   6.445 -12.759  1.00  0.00    -0.200 F 
ENDBRANCH  52  76
BRANCH  64  87
ATOM     87  C   UNL     1      -4.386  12.309 -12.124  1.00  0.00     0.064 A 
ATOM     88  C   UNL     1      -4.448  12.260 -13.525  1.00  0.00     0.173 A 
ATOM     89  C   UNL     1      -4.327  13.575 -11.518  1.00  0.00     0.173 A 
ATOM     90  F   UNL     1      -4.493  11.078 -14.158  1.00  0.00    -0.203 F 
ATOM     91  C   UNL     1      -4.425  13.427 -14.286  1.00  0.00     0.198 A 
ATOM     92  C   UNL     1      -4.340  14.740 -12.280  1.00  0.00     0.198 A 
ATOM     93  F   UNL     1      -4.277  13.682 -10.181  1.00  0.00    -0.203 F 
ATOM     94  F   UNL     1      -4.435  13.352 -15.624  1.00  0.00    -0.200 F 
ATOM     95  C   UNL     1      -4.380  14.665 -13.663  1.00  0.00     0.200 A 
ATOM     96  F   UNL     1      -4.315  15.935 -11.675  1.00  0.00    -0.200 F 
ATOM     97  F   UNL     1      -4.369  15.787 -14.397  1.00  0.00    -0.200 F 
ENDBRANCH  64  87
ENDBRANCH  38  39
ENDBRANCH  31  33
ENDBRANCH  30  31
ENDBRANCH  29  30
ENDBRANCH  28  29
ENDBRANCH  27  28
ENDBRANCH  26  27
ENDBRANCH   1  26
TORSDOF 20
