REMARK SMILES COc1nc2c(cc1C(=O)NCc1ccc(C(=O)OCCOCCOCCOC(=O)c3ccc(-c4c5nc(c(-c6c(F)c(F)c(F)c(F)c6F)c6ccc([nH]6)c(-c6c(F)c(F)c(F)c(F)c6F)c6nc(c(-c7c(F)c(F)c(F)c(F)c7F)c7ccc4[nH]7)C=C6)C=C5)cc3)s1)CCC2
REMARK SMILES IDX 23 1 22 2 21 3 20 4 19 5 17 6 18 7 16 8 13 9 14 10 94 11
REMARK SMILES IDX 15 12 12 13 11 14 9 15 10 16 8 18 3 19 4 20 5 21 7 22 6 23
REMARK SMILES IDX 97 24 95 25 96 26 2 27 1 28 24 29 25 30 26 31 27 32 28 33
REMARK SMILES IDX 29 34 30 35 31 36 32 37 93 38 33 39 92 40 34 41 35 42 36 43
REMARK SMILES IDX 86 44 37 45 91 46 85 47 87 48 38 49 90 50 84 51 83 52 39 54
REMARK SMILES IDX 71 55 51 56 70 57 52 58 55 59 69 60 88 61 53 62 54 63 68 65
REMARK SMILES IDX 89 66 56 67 40 68 41 69 49 70 42 71 43 72 47 73 50 74 44 75
REMARK SMILES IDX 45 76 48 77 46 78 72 79 73 80 81 81 74 82 75 83 79 84 82 85
REMARK SMILES IDX 76 86 77 87 80 88 78 89 57 90 58 91 66 92 59 93 60 94 64 95
REMARK SMILES IDX 67 96 61 97 62 98 65 99 63 100
REMARK H PARENT 11 17 87 53 55 64
REMARK Flexibility Score: inf
ROOT
ATOM      1  C   UNL     1       0.029   7.151  -1.582  1.00  0.00     0.188 C 
ENDROOT
BRANCH   1   2
ATOM      2  O   UNL     1       0.215   8.529  -1.860  1.00  0.00    -0.376 OA
BRANCH   2   3
ATOM      3  C   UNL     1       1.073   8.921  -2.927  1.00  0.00     0.202 C 
BRANCH   3   4
ATOM      4  C   UNL     1       2.504   8.388  -2.966  1.00  0.00     0.261 C 
BRANCH   4   5
ATOM      5  O   UNL     1       2.541   6.959  -3.092  1.00  0.00    -0.459 OA
BRANCH   5   6
ATOM      6  C   UNL     1       3.399   6.327  -2.238  1.00  0.00     0.348 C 
ATOM      7  O   UNL     1       4.215   6.901  -1.524  1.00  0.00    -0.245 OA
BRANCH   6   8
ATOM      8  C   UNL     1       3.084   4.917  -2.199  1.00  0.00     0.112 A 
ATOM      9  C   UNL     1       2.434   2.708  -1.312  1.00  0.00     0.025 A 
ATOM     10  C   UNL     1       2.272   2.785  -2.682  1.00  0.00     0.018 A 
ATOM     11  S   UNL     1       3.186   4.112  -0.692  1.00  0.00    -0.131 S 
ATOM     12  C   UNL     1       2.622   4.073  -3.191  1.00  0.00     0.028 A 
BRANCH   9  13
ATOM     13  C   UNL     1       1.954   1.650  -0.376  1.00  0.00     0.163 C 
BRANCH  13  14
ATOM     14  N   UNL     1       3.052   0.917   0.208  1.00  0.00    -0.347 N 
ATOM     15  C   UNL     1       3.158   0.327   1.443  1.00  0.00     0.257 C 
ATOM     16  O   UNL     1       4.206  -0.263   1.713  1.00  0.00    -0.269 OA
ATOM     17  H   UNL     1       3.846   0.828  -0.366  1.00  0.00     0.164 HD
BRANCH  15  18
ATOM     18  C   UNL     1       2.110   0.408   2.493  1.00  0.00     0.102 A 
ATOM     19  C   UNL     1       0.729   0.302   2.286  1.00  0.00     0.226 A 
ATOM     20  N   UNL     1      -0.212   0.421   3.261  1.00  0.00    -0.218 NA
ATOM     21  C   UNL     1       0.264   0.577   4.505  1.00  0.00     0.048 A 
ATOM     22  C   UNL     1       2.554   0.509   3.824  1.00  0.00     0.025 A 
ATOM     23  C   UNL     1       1.612   0.589   4.833  1.00  0.00    -0.025 A 
ATOM     24  C   UNL     1      -0.593   0.686   5.736  1.00  0.00     0.057 C 
ATOM     25  C   UNL     1       1.805   0.623   6.313  1.00  0.00     0.038 C 
ATOM     26  C   UNL     1       0.437   1.145   6.780  1.00  0.00     0.011 C 
BRANCH  19  27
ATOM     27  O   UNL     1       0.197   0.077   1.044  1.00  0.00    -0.480 OA
ATOM     28  C   UNL     1       0.133  -1.323   0.796  1.00  0.00     0.280 C 
ENDBRANCH  19  27
ENDBRANCH  15  18
ENDBRANCH  13  14
ENDBRANCH   9  13
ENDBRANCH   6   8
ENDBRANCH   5   6
ENDBRANCH   4   5
ENDBRANCH   3   4
ENDBRANCH   2   3
ENDBRANCH   1   2
BRANCH   1  29
ATOM     29  C   UNL     1      -0.572   6.208  -2.645  1.00  0.00     0.188 C 
BRANCH  29  30
ATOM     30  O   UNL     1      -0.852   6.683  -3.950  1.00  0.00    -0.376 OA
BRANCH  30  31
ATOM     31  C   UNL     1      -1.837   7.702  -4.112  1.00  0.00     0.202 C 
BRANCH  31  32
ATOM     32  C   UNL     1      -3.222   7.484  -3.506  1.00  0.00     0.261 C 
BRANCH  32  33
ATOM     33  O   UNL     1      -3.169   7.455  -2.071  1.00  0.00    -0.460 OA
BRANCH  33  34
ATOM     34  C   UNL     1      -3.868   6.447  -1.502  1.00  0.00     0.338 C 
ATOM     35  O   UNL     1      -4.568   5.616  -2.051  1.00  0.00    -0.246 OA
BRANCH  34  36
ATOM     36  C   UNL     1      -3.556   6.396  -0.068  1.00  0.00     0.060 A 
ATOM     37  C   UNL     1      -2.790   5.326   0.408  1.00  0.00     0.016 A 
ATOM     38  C   UNL     1      -4.112   7.330   0.806  1.00  0.00     0.016 A 
ATOM     39  C   UNL     1      -2.599   5.170   1.778  1.00  0.00     0.010 A 
ATOM     40  C   UNL     1      -3.942   7.158   2.181  1.00  0.00     0.010 A 
ATOM     41  C   UNL     1      -3.212   6.061   2.670  1.00  0.00    -0.014 A 
BRANCH  41  42
ATOM     42  C   UNL     1      -3.232   5.743   4.114  1.00  0.00     0.031 A 
ATOM     43  C   UNL     1      -4.329   4.864   4.642  1.00  0.00     0.074 A 
ATOM     44  C   UNL     1      -2.278   6.212   4.935  1.00  0.00     0.049 A 
ATOM     45  N   UNL     1      -4.541   4.445   5.863  1.00  0.00    -0.248 NA
ATOM     46  C   UNL     1      -5.319   4.389   3.660  1.00  0.00     0.031 C 
ATOM     47  C   UNL     1      -1.145   7.037   4.525  1.00  0.00     0.029 A 
ATOM     48  N   UNL     1      -2.118   6.059   6.288  1.00  0.00    -0.354 N 
ATOM     49  C   UNL     1      -5.667   3.637   5.790  1.00  0.00     0.074 A 
ATOM     50  C   UNL     1      -6.119   3.653   4.417  1.00  0.00     0.031 C 
ATOM     51  C   UNL     1      -0.405   7.326   5.611  1.00  0.00     0.029 A 
ATOM     52  C   UNL     1      -1.028   6.724   6.789  1.00  0.00     0.049 A 
ATOM     53  H   UNL     1      -2.727   5.524   6.847  1.00  0.00     0.167 HD
ATOM     54  C   UNL     1      -6.261   2.933   6.781  1.00  0.00     0.037 A 
ATOM     55  C   UNL     1      -0.595   6.841   8.059  1.00  0.00     0.037 A 
ATOM     56  C   UNL     1      -5.831   2.945   8.152  1.00  0.00     0.049 A 
ATOM     57  C   UNL     1      -1.349   6.149   9.164  1.00  0.00     0.074 A 
ATOM     58  C   UNL     1      -6.368   2.267   9.231  1.00  0.00     0.029 A 
ATOM     59  N   UNL     1      -4.767   3.692   8.635  1.00  0.00    -0.354 N 
ATOM     60  N   UNL     1      -2.388   5.354   9.085  1.00  0.00    -0.248 NA
ATOM     61  C   UNL     1      -0.873   6.375  10.537  1.00  0.00     0.031 C 
ATOM     62  C   UNL     1      -5.656   2.637  10.376  1.00  0.00     0.029 A 
ATOM     63  C   UNL     1      -4.649   3.514  10.002  1.00  0.00     0.049 A 
ATOM     64  H   UNL     1      -4.183   4.264   8.086  1.00  0.00     0.167 HD
ATOM     65  C   UNL     1      -2.676   4.969  10.387  1.00  0.00     0.074 A 
ATOM     66  C   UNL     1      -1.697   5.610  11.240  1.00  0.00     0.031 C 
ATOM     67  C   UNL     1      -3.664   4.155  10.834  1.00  0.00     0.037 A 
BRANCH  54  68
ATOM     68  C   UNL     1      -7.448   2.097   6.416  1.00  0.00     0.064 A 
ATOM     69  C   UNL     1      -7.298   0.889   5.719  1.00  0.00     0.173 A 
ATOM     70  C   UNL     1      -8.740   2.481   6.801  1.00  0.00     0.173 A 
ATOM     71  F   UNL     1      -6.082   0.487   5.320  1.00  0.00    -0.203 F 
ATOM     72  C   UNL     1      -8.403   0.102   5.408  1.00  0.00     0.198 A 
ATOM     73  C   UNL     1      -9.840   1.681   6.507  1.00  0.00     0.198 A 
ATOM     74  F   UNL     1      -8.933   3.627   7.471  1.00  0.00    -0.203 F 
ATOM     75  F   UNL     1      -8.241  -1.034   4.716  1.00  0.00    -0.200 F 
ATOM     76  C   UNL     1      -9.671   0.494   5.808  1.00  0.00     0.200 A 
ATOM     77  F   UNL     1     -11.065   2.057   6.901  1.00  0.00    -0.200 F 
ATOM     78  F   UNL     1     -10.733  -0.269   5.516  1.00  0.00    -0.200 F 
ENDBRANCH  54  68
BRANCH  55  79
ATOM     79  C   UNL     1       0.618   7.644   8.354  1.00  0.00     0.064 A 
ATOM     80  C   UNL     1       1.810   7.024   8.749  1.00  0.00     0.173 A 
ATOM     81  C   UNL     1       0.609   9.043   8.250  1.00  0.00     0.173 A 
ATOM     82  F   UNL     1       1.857   5.691   8.887  1.00  0.00    -0.203 F 
ATOM     83  C   UNL     1       2.948   7.774   9.037  1.00  0.00     0.198 A 
ATOM     84  C   UNL     1       1.754   9.790   8.517  1.00  0.00     0.198 A 
ATOM     85  F   UNL     1      -0.511   9.682   7.883  1.00  0.00    -0.203 F 
ATOM     86  F   UNL     1       4.067   7.160   9.446  1.00  0.00    -0.200 F 
ATOM     87  C   UNL     1       2.921   9.156   8.915  1.00  0.00     0.200 A 
ATOM     88  F   UNL     1       1.725  11.124   8.394  1.00  0.00    -0.200 F 
ATOM     89  F   UNL     1       4.017   9.876   9.190  1.00  0.00    -0.200 F 
ENDBRANCH  55  79
BRANCH  67  90
ATOM     90  C   UNL     1      -3.735   3.889  12.308  1.00  0.00     0.064 A 
ATOM     91  C   UNL     1      -4.239   4.846  13.199  1.00  0.00     0.173 A 
ATOM     92  C   UNL     1      -3.388   2.629  12.819  1.00  0.00     0.173 A 
ATOM     93  F   UNL     1      -4.572   6.068  12.758  1.00  0.00    -0.203 F 
ATOM     94  C   UNL     1      -4.391   4.552  14.551  1.00  0.00     0.198 A 
ATOM     95  C   UNL     1      -3.563   2.331  14.167  1.00  0.00     0.198 A 
ATOM     96  F   UNL     1      -2.908   1.678  12.003  1.00  0.00    -0.203 F 
ATOM     97  F   UNL     1      -4.856   5.488  15.390  1.00  0.00    -0.200 F 
ATOM     98  C   UNL     1      -4.064   3.292  15.031  1.00  0.00     0.200 A 
ATOM     99  F   UNL     1      -3.260   1.109  14.626  1.00  0.00    -0.200 F 
ATOM    100  F   UNL     1      -4.232   3.004  16.329  1.00  0.00    -0.200 F 
ENDBRANCH  67  90
ENDBRANCH  41  42
ENDBRANCH  34  36
ENDBRANCH  33  34
ENDBRANCH  32  33
ENDBRANCH  31  32
ENDBRANCH  30  31
ENDBRANCH  29  30
ENDBRANCH   1  29
TORSDOF 21
