REMARK SMILES CC[C@@H](Oc1ccccc1/C=C1/SC(Nc2ccc(F)cc2)=[NH+]C1=O)C(=O)OCCOCCOCCOC(=O)c1ccc(-c2c3nc(c(-c4c(F)c(F)c(F)c(F)c4F)c4ccc([nH]4)c(-c4c(F)c(F)c(F)c(F)c4F)c4nc(c(-c5c(F)c(F)c(F)c(F)c5F)c5ccc2[nH]5)C=C4)C=C3)cc1
REMARK SMILES IDX 32 1 31 2 30 3 29 4 28 5 26 6 27 7 3 8 2 9 1 10 4 11 5 12
REMARK SMILES IDX 6 13 10 14 7 15 9 16 8 17 11 18 12 19 13 20 24 21 14 22
REMARK SMILES IDX 23 23 25 24 15 25 16 28 17 29 22 30 18 31 21 32 19 33 20 34
REMARK SMILES IDX 33 35 34 36 35 37 36 38 37 39 38 40 39 41 40 42 41 43 102 44
REMARK SMILES IDX 42 45 101 46 43 47 44 48 45 49 95 50 46 51 100 52 94 53
REMARK SMILES IDX 96 54 47 55 99 56 93 57 92 58 48 60 80 61 60 62 79 63 61 64
REMARK SMILES IDX 64 65 78 66 97 67 62 68 63 69 77 71 98 72 65 73 49 74 50 75
REMARK SMILES IDX 58 76 51 77 52 78 56 79 59 80 53 81 54 82 57 83 55 84 81 85
REMARK SMILES IDX 82 86 90 87 83 88 84 89 88 90 91 91 85 92 86 93 89 94 87 95
REMARK SMILES IDX 66 96 67 97 75 98 68 99 69 100 73 101 76 102 70 103 71 104
REMARK SMILES IDX 74 105 72 106
REMARK H PARENT 23 26 15 27 96 59 64 70
REMARK Flexibility Score: inf
ROOT
ATOM      1  C   UNL     1       1.335   4.255  -3.382  1.00  0.00     0.188 C 
ENDROOT
BRANCH   1   2
ATOM      2  O   UNL     1       0.695   4.654  -4.580  1.00  0.00    -0.376 OA
BRANCH   2   3
ATOM      3  C   UNL     1      -0.659   4.239  -4.742  1.00  0.00     0.202 C 
BRANCH   3   4
ATOM      4  C   UNL     1      -0.981   2.732  -4.720  1.00  0.00     0.261 C 
BRANCH   4   5
ATOM      5  O   UNL     1      -0.438   1.971  -3.618  1.00  0.00    -0.461 OA
BRANCH   5   6
ATOM      6  C   UNL     1       0.517   1.042  -3.944  1.00  0.00     0.347 C 
ATOM      7  O   UNL     1       0.984   0.889  -5.069  1.00  0.00    -0.248 OA
BRANCH   6   8
ATOM      8  C   UNL     1       0.986   0.210  -2.742  1.00  0.00     0.282 C 
BRANCH   8   9
ATOM      9  C   UNL     1       1.409   1.095  -1.557  1.00  0.00     0.054 C 
ATOM     10  C   UNL     1       2.258   0.401  -0.495  1.00  0.00     0.008 C 
ENDBRANCH   8   9
BRANCH   8  11
ATOM     11  O   UNL     1      -0.126  -0.616  -2.388  1.00  0.00    -0.478 OA
BRANCH  11  12
ATOM     12  C   UNL     1       0.215  -1.867  -1.943  1.00  0.00     0.127 A 
ATOM     13  C   UNL     1       0.781  -2.795  -2.821  1.00  0.00     0.047 A 
ATOM     14  C   UNL     1      -0.063  -2.209  -0.604  1.00  0.00     0.018 A 
ATOM     15  C   UNL     1       1.144  -4.055  -2.349  1.00  0.00     0.004 A 
ATOM     16  C   UNL     1       0.324  -3.472  -0.143  1.00  0.00     0.012 A 
ATOM     17  C   UNL     1       0.925  -4.389  -1.012  1.00  0.00     0.001 A 
BRANCH  14  18
ATOM     18  C   UNL     1      -0.568  -1.210   0.355  1.00  0.00     0.036 C 
ATOM     19  C   UNL     1      -1.618  -0.399   0.163  1.00  0.00     0.110 C 
ATOM     20  S   UNL     1      -1.890   1.032   1.097  1.00  0.00     0.006 SA
ATOM     21  C   UNL     1      -2.655  -0.481  -0.914  1.00  0.00     0.346 C 
ATOM     22  C   UNL     1      -3.115   1.527  -0.052  1.00  0.00     0.322 C 
ATOM     23  N   UNL     1      -3.386   0.679  -0.986  1.00  0.00    -0.199 N 
ATOM     24  O   UNL     1      -2.880  -1.474  -1.584  1.00  0.00    -0.240 OA
ATOM     25  N   UNL     1      -3.680   2.759   0.125  1.00  0.00    -0.235 N 
ATOM     26  H   UNL     1      -4.056   0.849  -1.687  1.00  0.00     0.316 HD
ATOM     27  H   UNL     1      -3.207   3.412   0.691  1.00  0.00     0.313 HD
BRANCH  25  28
ATOM     28  C   UNL     1      -4.897   3.144  -0.458  1.00  0.00     0.125 A 
ATOM     29  C   UNL     1      -5.059   4.427  -0.995  1.00  0.00     0.055 A 
ATOM     30  C   UNL     1      -5.942   2.219  -0.621  1.00  0.00     0.055 A 
ATOM     31  C   UNL     1      -6.217   4.762  -1.704  1.00  0.00     0.043 A 
ATOM     32  C   UNL     1      -7.108   2.556  -1.306  1.00  0.00     0.043 A 
ATOM     33  C   UNL     1      -7.229   3.822  -1.854  1.00  0.00     0.123 A 
ATOM     34  F   UNL     1      -8.331   4.141  -2.543  1.00  0.00    -0.207 F 
ENDBRANCH  25  28
ENDBRANCH  14  18
ENDBRANCH  11  12
ENDBRANCH   8  11
ENDBRANCH   6   8
ENDBRANCH   5   6
ENDBRANCH   4   5
ENDBRANCH   3   4
ENDBRANCH   2   3
ENDBRANCH   1   2
BRANCH   1  35
ATOM     35  C   UNL     1       0.738   4.739  -2.058  1.00  0.00     0.188 C 
BRANCH  35  36
ATOM     36  O   UNL     1      -0.661   4.950  -2.032  1.00  0.00    -0.376 OA
BRANCH  36  37
ATOM     37  C   UNL     1      -1.185   5.568  -0.857  1.00  0.00     0.202 C 
BRANCH  37  38
ATOM     38  C   UNL     1      -0.615   6.949  -0.476  1.00  0.00     0.261 C 
BRANCH  38  39
ATOM     39  O   UNL     1       0.797   7.005  -0.186  1.00  0.00    -0.460 OA
BRANCH  39  40
ATOM     40  C   UNL     1       1.319   6.092   0.666  1.00  0.00     0.338 C 
ATOM     41  O   UNL     1       0.696   5.367   1.422  1.00  0.00    -0.246 OA
BRANCH  40  42
ATOM     42  C   UNL     1       2.761   5.914   0.325  1.00  0.00     0.060 A 
ATOM     43  C   UNL     1       3.310   4.625   0.402  1.00  0.00     0.016 A 
ATOM     44  C   UNL     1       3.543   6.970  -0.157  1.00  0.00     0.016 A 
ATOM     45  C   UNL     1       4.644   4.400   0.044  1.00  0.00     0.010 A 
ATOM     46  C   UNL     1       4.880   6.745  -0.509  1.00  0.00     0.010 A 
ATOM     47  C   UNL     1       5.450   5.466  -0.375  1.00  0.00    -0.014 A 
BRANCH  47  48
ATOM     48  C   UNL     1       6.927   5.308  -0.461  1.00  0.00     0.031 A 
ATOM     49  C   UNL     1       7.756   5.780   0.705  1.00  0.00     0.074 A 
ATOM     50  C   UNL     1       7.536   4.765  -1.531  1.00  0.00     0.049 A 
ATOM     51  N   UNL     1       9.056   5.826   0.845  1.00  0.00    -0.248 NA
ATOM     52  C   UNL     1       7.007   6.273   1.872  1.00  0.00     0.031 C 
ATOM     53  C   UNL     1       6.862   4.234  -2.713  1.00  0.00     0.029 A 
ATOM     54  N   UNL     1       8.874   4.588  -1.797  1.00  0.00    -0.354 N 
ATOM     55  C   UNL     1       9.279   6.358   2.109  1.00  0.00     0.074 A 
ATOM     56  C   UNL     1       7.984   6.653   2.680  1.00  0.00     0.031 C 
ATOM     57  C   UNL     1       7.791   3.804  -3.586  1.00  0.00     0.029 A 
ATOM     58  C   UNL     1       9.125   4.062  -3.041  1.00  0.00     0.049 A 
ATOM     59  H   UNL     1       9.585   4.816  -1.156  1.00  0.00     0.167 HD
ATOM     60  C   UNL     1      10.455   6.573   2.744  1.00  0.00     0.037 A 
ATOM     61  C   UNL     1      10.296   3.840  -3.675  1.00  0.00     0.037 A 
ATOM     62  C   UNL     1      11.748   6.290   2.180  1.00  0.00     0.049 A 
ATOM     63  C   UNL     1      11.597   4.165  -2.980  1.00  0.00     0.074 A 
ATOM     64  C   UNL     1      12.996   6.465   2.752  1.00  0.00     0.029 A 
ATOM     65  N   UNL     1      11.959   5.782   0.907  1.00  0.00    -0.354 N 
ATOM     66  N   UNL     1      11.800   4.644  -1.777  1.00  0.00    -0.248 NA
ATOM     67  C   UNL     1      12.835   3.914  -3.736  1.00  0.00     0.031 C 
ATOM     68  C   UNL     1      13.964   6.117   1.805  1.00  0.00     0.029 A 
ATOM     69  C   UNL     1      13.319   5.662   0.666  1.00  0.00     0.049 A 
ATOM     70  H   UNL     1      11.249   5.542   0.269  1.00  0.00     0.167 HD
ATOM     71  C   UNL     1      13.180   4.721  -1.620  1.00  0.00     0.074 A 
ATOM     72  C   UNL     1      13.768   4.227  -2.847  1.00  0.00     0.031 C 
ATOM     73  C   UNL     1      13.896   5.159  -0.554  1.00  0.00     0.037 A 
BRANCH  60  74
ATOM     74  C   UNL     1      10.395   7.173   4.120  1.00  0.00     0.064 A 
ATOM     75  C   UNL     1       9.902   6.452   5.218  1.00  0.00     0.173 A 
ATOM     76  C   UNL     1      10.853   8.480   4.345  1.00  0.00     0.173 A 
ATOM     77  F   UNL     1       9.435   5.205   5.054  1.00  0.00    -0.203 F 
ATOM     78  C   UNL     1       9.842   7.029   6.484  1.00  0.00     0.198 A 
ATOM     79  C   UNL     1      10.822   9.041   5.618  1.00  0.00     0.198 A 
ATOM     80  F   UNL     1      11.335   9.212   3.329  1.00  0.00    -0.203 F 
ATOM     81  F   UNL     1       9.314   6.342   7.507  1.00  0.00    -0.200 F 
ATOM     82  C   UNL     1      10.308   8.319   6.684  1.00  0.00     0.200 A 
ATOM     83  F   UNL     1      11.284  10.284   5.812  1.00  0.00    -0.200 F 
ATOM     84  F   UNL     1      10.252   8.872   7.904  1.00  0.00    -0.200 F 
ENDBRANCH  60  74
BRANCH  61  85
ATOM     85  C   UNL     1      10.303   3.299  -5.062  1.00  0.00     0.064 A 
ATOM     86  C   UNL     1      10.809   2.021  -5.341  1.00  0.00     0.173 A 
ATOM     87  C   UNL     1       9.839   4.063  -6.143  1.00  0.00     0.173 A 
ATOM     88  F   UNL     1      11.297   1.263  -4.348  1.00  0.00    -0.203 F 
ATOM     89  C   UNL     1      10.867   1.537  -6.647  1.00  0.00     0.198 A 
ATOM     90  C   UNL     1       9.869   3.566  -7.445  1.00  0.00     0.198 A 
ATOM     91  F   UNL     1       9.355   5.297  -5.935  1.00  0.00    -0.203 F 
ATOM     92  F   UNL     1      11.407   0.335  -6.890  1.00  0.00    -0.200 F 
ATOM     93  C   UNL     1      10.391   2.307  -7.697  1.00  0.00     0.200 A 
ATOM     94  F   UNL     1       9.402   4.312  -8.456  1.00  0.00    -0.200 F 
ATOM     95  F   UNL     1      10.448   1.842  -8.953  1.00  0.00    -0.200 F 
ENDBRANCH  61  85
BRANCH  73  96
ATOM     96  C   UNL     1      15.396   5.085  -0.639  1.00  0.00     0.064 A 
ATOM     97  C   UNL     1      16.134   5.932  -1.478  1.00  0.00     0.173 A 
ATOM     98  C   UNL     1      16.107   4.185   0.172  1.00  0.00     0.173 A 
ATOM     99  F   UNL     1      15.505   6.803  -2.281  1.00  0.00    -0.203 F 
ATOM    100  C   UNL     1      17.526   5.864  -1.521  1.00  0.00     0.198 A 
ATOM    101  C   UNL     1      17.498   4.143   0.151  1.00  0.00     0.198 A 
ATOM    102  F   UNL     1      15.451   3.358   1.001  1.00  0.00    -0.203 F 
ATOM    103  F   UNL     1      18.207   6.651  -2.365  1.00  0.00    -0.200 F 
ATOM    104  C   UNL     1      18.206   4.976  -0.701  1.00  0.00     0.200 A 
ATOM    105  F   UNL     1      18.154   3.296   0.957  1.00  0.00    -0.200 F 
ATOM    106  F   UNL     1      19.545   4.919  -0.736  1.00  0.00    -0.200 F 
ENDBRANCH  73  96
ENDBRANCH  47  48
ENDBRANCH  40  42
ENDBRANCH  39  40
ENDBRANCH  38  39
ENDBRANCH  37  38
ENDBRANCH  36  37
ENDBRANCH  35  36
ENDBRANCH   1  35
TORSDOF 22
