REMARK SMILES O=C(C[C@]12CSc3[nH]c(=O)sc3[C@H]1c1cc(Cl)ccc1OC2=O)OCCOCCOCCOC(=O)c1ccc(-c2c3nc(c(-c4c(F)c(F)c(F)c(F)c4F)c4ccc([nH]4)c(-c4c(F)c(F)c(F)c(F)c4F)c4nc(c(-c5c(F)c(F)c(F)c(F)c5F)c5ccc2[nH]5)C=C4)C=C3)cc1
REMARK SMILES IDX 29 1 28 2 27 3 26 4 25 5 24 6 2 7 1 8 3 9 4 10 5 11 13 12
REMARK SMILES IDX 22 13 6 14 12 15 14 16 21 17 23 18 7 19 11 20 15 21 20 22
REMARK SMILES IDX 8 23 9 24 16 25 19 26 10 28 17 29 18 30 30 31 31 32 32 33
REMARK SMILES IDX 33 34 34 35 35 36 36 37 37 38 98 39 38 40 97 41 39 42 40 43
REMARK SMILES IDX 41 44 91 45 42 46 96 47 90 48 92 49 43 50 95 51 89 52 88 53
REMARK SMILES IDX 44 55 76 56 56 57 75 58 57 59 60 60 74 61 93 62 58 63 59 64
REMARK SMILES IDX 73 66 94 67 61 68 45 69 46 70 54 71 47 72 48 73 52 74 55 75
REMARK SMILES IDX 49 76 50 77 53 78 51 79 77 80 78 81 86 82 79 83 80 84 84 85
REMARK SMILES IDX 87 86 81 87 82 88 85 89 83 90 62 91 63 92 71 93 64 94 65 95
REMARK SMILES IDX 69 96 72 97 66 98 67 99 70 100 68 101
REMARK H PARENT 8 27 92 54 60 65
REMARK Flexibility Score: inf
ROOT
ATOM      1  C   UNL     1       3.535   3.001   1.908  1.00  0.00     0.188 C 
ENDROOT
BRANCH   1   2
ATOM      2  C   UNL     1       4.594   1.850   1.698  1.00  0.00     0.188 C 
BRANCH   2   3
ATOM      3  O   UNL     1       5.415   2.151   0.564  1.00  0.00    -0.376 OA
BRANCH   3   4
ATOM      4  C   UNL     1       5.372   1.718  -0.811  1.00  0.00     0.202 C 
BRANCH   4   5
ATOM      5  C   UNL     1       4.177   1.662  -1.903  1.00  0.00     0.261 C 
BRANCH   5   6
ATOM      6  O   UNL     1       2.960   0.405  -1.975  1.00  0.00    -0.463 OA
BRANCH   6   7
ATOM      7  C   UNL     1       1.726  -0.720  -1.106  1.00  0.00     0.307 C 
ATOM      8  O   UNL     1       0.727  -0.319  -0.460  1.00  0.00    -0.252 OA
BRANCH   7   9
ATOM      9  C   UNL     1       1.949  -2.309  -0.825  1.00  0.00     0.143 C 
BRANCH   9  10
ATOM     10  C   UNL     1       3.322  -2.836  -0.299  1.00  0.00     0.100 C 
ATOM     11  C   UNL     1       3.127  -4.011   0.679  1.00  0.00     0.097 C 
ATOM     12  C   UNL     1       4.074  -1.689   0.382  1.00  0.00     0.085 C 
ATOM     13  C   UNL     1       4.111  -3.340  -1.524  1.00  0.00     0.319 C 
ATOM     14  S   UNL     1       4.586  -4.567   1.631  1.00  0.00    -0.106 SA
ATOM     15  C   UNL     1       5.437  -2.098   0.839  1.00  0.00     0.049 A 
ATOM     16  C   UNL     1       3.834  -0.610  -0.659  1.00  0.00     0.006 A 
ATOM     17  O   UNL     1       4.034  -2.564  -2.650  1.00  0.00    -0.426 OA
ATOM     18  O   UNL     1       4.779  -4.368  -1.534  1.00  0.00    -0.251 OA
ATOM     19  C   UNL     1       5.695  -3.300   1.374  1.00  0.00     0.090 A 
ATOM     20  S   UNL     1       6.865  -1.102   0.896  1.00  0.00    -0.077 S 
ATOM     21  C   UNL     1       2.763   0.812  -0.155  1.00  0.00     0.028 A 
ATOM     22  C   UNL     1       3.538  -1.322  -2.323  1.00  0.00     0.134 A 
ATOM     23  N   UNL     1       6.978  -3.466   1.804  1.00  0.00    -0.307 N 
ATOM     24  C   UNL     1       7.797  -2.392   1.664  1.00  0.00     0.305 A 
ATOM     25  C   UNL     1       1.537   1.523  -1.299  1.00  0.00     0.041 A 
ATOM     26  C   UNL     1       2.192  -0.705  -3.348  1.00  0.00     0.049 A 
ATOM     27  H   UNL     1       7.292  -4.315   2.192  1.00  0.00     0.171 HD
ATOM     28  O   UNL     1       8.974  -2.298   2.025  1.00  0.00    -0.257 OA
ATOM     29  Cl  UNL     1       0.772   3.019  -0.932  1.00  0.00    -0.084 Cl
ATOM     30  C   UNL     1       1.222   0.706  -2.839  1.00  0.00     0.024 A 
ENDBRANCH   9  10
ENDBRANCH   7   9
ENDBRANCH   6   7
ENDBRANCH   5   6
ENDBRANCH   4   5
ENDBRANCH   3   4
ENDBRANCH   2   3
ENDBRANCH   1   2
BRANCH   1  31
ATOM     31  O   UNL     1       4.095   4.282   2.125  1.00  0.00    -0.376 OA
BRANCH  31  32
ATOM     32  C   UNL     1       5.130   4.278   3.093  1.00  0.00     0.202 C 
BRANCH  32  33
ATOM     33  C   UNL     1       4.675   3.836   4.506  1.00  0.00     0.261 C 
BRANCH  33  34
ATOM     34  O   UNL     1       4.062   2.506   4.552  1.00  0.00    -0.460 OA
BRANCH  34  35
ATOM     35  C   UNL     1       2.813   2.424   5.106  1.00  0.00     0.338 C 
ATOM     36  O   UNL     1       2.308   3.256   5.842  1.00  0.00    -0.246 OA
BRANCH  35  37
ATOM     37  C   UNL     1       2.000   1.329   4.463  1.00  0.00     0.060 A 
ATOM     38  C   UNL     1       2.457   0.027   4.266  1.00  0.00     0.016 A 
ATOM     39  C   UNL     1       0.731   1.674   3.955  1.00  0.00     0.016 A 
ATOM     40  C   UNL     1       1.635  -0.908   3.594  1.00  0.00     0.010 A 
ATOM     41  C   UNL     1      -0.067   0.752   3.247  1.00  0.00     0.010 A 
ATOM     42  C   UNL     1       0.362  -0.562   3.071  1.00  0.00    -0.014 A 
BRANCH  42  43
ATOM     43  C   UNL     1      -0.559  -1.661   2.640  1.00  0.00     0.031 A 
ATOM     44  C   UNL     1      -0.903  -2.592   3.755  1.00  0.00     0.074 A 
ATOM     45  C   UNL     1      -1.304  -1.850   1.519  1.00  0.00     0.049 A 
ATOM     46  N   UNL     1      -0.689  -3.865   3.856  1.00  0.00    -0.248 NA
ATOM     47  C   UNL     1      -1.545  -1.985   4.931  1.00  0.00     0.031 C 
ATOM     48  C   UNL     1      -1.575  -0.898   0.450  1.00  0.00     0.029 A 
ATOM     49  N   UNL     1      -2.013  -2.969   1.103  1.00  0.00    -0.354 N 
ATOM     50  C   UNL     1      -1.306  -4.253   5.046  1.00  0.00     0.074 A 
ATOM     51  C   UNL     1      -1.719  -3.046   5.715  1.00  0.00     0.031 C 
ATOM     52  C   UNL     1      -2.358  -1.455  -0.494  1.00  0.00     0.029 A 
ATOM     53  C   UNL     1      -2.752  -2.779  -0.065  1.00  0.00     0.049 A 
ATOM     54  H   UNL     1      -1.997  -3.823   1.592  1.00  0.00     0.167 HD
ATOM     55  C   UNL     1      -1.605  -5.549   5.328  1.00  0.00     0.037 A 
ATOM     56  C   UNL     1      -3.702  -3.567  -0.639  1.00  0.00     0.037 A 
ATOM     57  C   UNL     1      -0.835  -6.472   4.543  1.00  0.00     0.049 A 
ATOM     58  C   UNL     1      -3.579  -4.938  -0.097  1.00  0.00     0.074 A 
ATOM     59  C   UNL     1       0.515  -6.706   4.365  1.00  0.00     0.029 A 
ATOM     60  N   UNL     1      -1.450  -7.180   3.543  1.00  0.00    -0.354 N 
ATOM     61  N   UNL     1      -2.614  -5.765  -0.381  1.00  0.00    -0.248 NA
ATOM     62  C   UNL     1      -4.340  -5.245   1.102  1.00  0.00     0.031 C 
ATOM     63  C   UNL     1       0.649  -7.081   2.996  1.00  0.00     0.029 A 
ATOM     64  C   UNL     1      -0.633  -7.087   2.446  1.00  0.00     0.049 A 
ATOM     65  H   UNL     1      -2.308  -7.660   3.602  1.00  0.00     0.167 HD
ATOM     66  C   UNL     1      -2.358  -6.418   0.813  1.00  0.00     0.074 A 
ATOM     67  C   UNL     1      -3.502  -6.115   1.667  1.00  0.00     0.031 C 
ATOM     68  C   UNL     1      -1.122  -6.922   1.098  1.00  0.00     0.037 A 
BRANCH  55  69
ATOM     69  C   UNL     1      -2.811  -5.967   6.128  1.00  0.00     0.064 A 
ATOM     70  C   UNL     1      -2.908  -7.282   6.619  1.00  0.00     0.173 A 
ATOM     71  C   UNL     1      -3.995  -5.200   6.194  1.00  0.00     0.173 A 
ATOM     72  F   UNL     1      -1.854  -8.111   6.561  1.00  0.00    -0.203 F 
ATOM     73  C   UNL     1      -4.113  -7.802   7.099  1.00  0.00     0.198 A 
ATOM     74  C   UNL     1      -5.180  -5.703   6.726  1.00  0.00     0.198 A 
ATOM     75  F   UNL     1      -4.075  -3.979   5.649  1.00  0.00    -0.203 F 
ATOM     76  F   UNL     1      -4.187  -9.094   7.449  1.00  0.00    -0.200 F 
ATOM     77  C   UNL     1      -5.247  -7.012   7.154  1.00  0.00     0.200 A 
ATOM     78  F   UNL     1      -6.275  -4.930   6.747  1.00  0.00    -0.200 F 
ATOM     79  F   UNL     1      -6.414  -7.524   7.565  1.00  0.00    -0.200 F 
ENDBRANCH  55  69
BRANCH  56  80
ATOM     80  C   UNL     1      -4.882  -3.118  -1.434  1.00  0.00     0.064 A 
ATOM     81  C   UNL     1      -5.619  -3.991  -2.252  1.00  0.00     0.173 A 
ATOM     82  C   UNL     1      -5.452  -1.841  -1.235  1.00  0.00     0.173 A 
ATOM     83  F   UNL     1      -5.195  -5.247  -2.456  1.00  0.00    -0.203 F 
ATOM     84  C   UNL     1      -6.837  -3.606  -2.834  1.00  0.00     0.198 A 
ATOM     85  C   UNL     1      -6.647  -1.449  -1.835  1.00  0.00     0.198 A 
ATOM     86  F   UNL     1      -4.905  -0.965  -0.381  1.00  0.00    -0.203 F 
ATOM     87  F   UNL     1      -7.538  -4.483  -3.566  1.00  0.00    -0.200 F 
ATOM     88  C   UNL     1      -7.348  -2.335  -2.625  1.00  0.00     0.200 A 
ATOM     89  F   UNL     1      -7.136  -0.224  -1.597  1.00  0.00    -0.200 F 
ATOM     90  F   UNL     1      -8.530  -1.978  -3.147  1.00  0.00    -0.200 F 
ENDBRANCH  56  80
BRANCH  68  91
ATOM     91  C   UNL     1      -0.119  -7.058  -0.015  1.00  0.00     0.064 A 
ATOM     92  C   UNL     1       0.321  -5.993  -0.818  1.00  0.00     0.173 A 
ATOM     93  C   UNL     1       0.541  -8.288  -0.168  1.00  0.00     0.173 A 
ATOM     94  F   UNL     1      -0.146  -4.748  -0.642  1.00  0.00    -0.203 F 
ATOM     95  C   UNL     1       1.342  -6.168  -1.754  1.00  0.00     0.198 A 
ATOM     96  C   UNL     1       1.596  -8.443  -1.064  1.00  0.00     0.198 A 
ATOM     97  F   UNL     1       0.199  -9.334   0.602  1.00  0.00    -0.203 F 
ATOM     98  F   UNL     1       1.755  -5.124  -2.489  1.00  0.00    -0.200 F 
ATOM     99  C   UNL     1       1.991  -7.385  -1.863  1.00  0.00     0.200 A 
ATOM    100  F   UNL     1       2.252  -9.610  -1.125  1.00  0.00    -0.200 F 
ATOM    101  F   UNL     1       3.022  -7.525  -2.708  1.00  0.00    -0.200 F 
ENDBRANCH  68  91
ENDBRANCH  42  43
ENDBRANCH  35  37
ENDBRANCH  34  35
ENDBRANCH  33  34
ENDBRANCH  32  33
ENDBRANCH  31  32
ENDBRANCH   1  31
TORSDOF 18
