REMARK SMILES [NH3+][C@H]1CCCCC[C@H]1C(=O)NC[C@@H]1CCC[C@@H]1C(=O)OCCOCCOCCOC(=O)c1ccc(-c2c3nc(c(-c4c(F)c(F)c(F)c(F)c4F)c4ccc([nH]4)c(-c4c(F)c(F)c(F)c(F)c4F)c4nc(c(-c5c(F)c(F)c(F)c(F)c5F)c5ccc2[nH]5)C=C4)C=C3)cc1
REMARK SMILES IDX 22 1 21 2 20 3 18 4 19 5 17 6 13 7 14 8 15 9 16 10 12 11
REMARK SMILES IDX 11 12 9 13 10 14 8 16 2 17 1 18 3 22 7 24 6 25 5 26 4 27
REMARK SMILES IDX 23 29 24 30 25 31 26 32 27 33 28 34 29 35 30 36 31 37 32 38
REMARK SMILES IDX 33 39 94 40 34 41 93 42 35 43 36 44 37 45 87 46 38 47 92 48
REMARK SMILES IDX 86 49 88 50 39 51 91 52 85 53 84 54 40 56 72 57 52 58 71 59
REMARK SMILES IDX 53 60 56 61 70 62 89 63 54 64 55 65 69 67 90 68 57 69 41 70
REMARK SMILES IDX 42 71 50 72 43 73 44 74 48 75 51 76 45 77 46 78 49 79 47 80
REMARK SMILES IDX 73 81 74 82 82 83 75 84 76 85 80 86 83 87 77 88 78 89 81 90
REMARK SMILES IDX 79 91 58 92 59 93 67 94 60 95 61 96 65 97 68 98 62 99 63 100
REMARK SMILES IDX 66 101 64 102
REMARK H PARENT 11 15 1 19 1 20 1 21 88 55 56 66
REMARK Flexibility Score: 90.00
ROOT
ATOM      1  C   UNL     1       0.696  -0.014  -1.356  1.00  0.00     0.202 C 
ENDROOT
BRANCH   1   2
ATOM      2  C   UNL     1       2.030  -0.567  -0.841  1.00  0.00     0.261 C 
BRANCH   2   3
ATOM      3  O   UNL     1       2.307  -0.284   0.557  1.00  0.00    -0.463 OA
BRANCH   3   4
ATOM      4  C   UNL     1       3.344   0.547   0.828  1.00  0.00     0.309 C 
ATOM      5  O   UNL     1       3.905   1.205  -0.041  1.00  0.00    -0.252 OA
BRANCH   4   6
ATOM      6  C   UNL     1       3.837   0.437   2.292  1.00  0.00     0.104 C 
ATOM      7  C   UNL     1       3.141   1.100   3.517  1.00  0.00     0.022 C 
ATOM      8  C   UNL     1       3.377   2.597   3.304  1.00  0.00     0.006 C 
ATOM      9  C   UNL     1       4.675   2.693   2.494  1.00  0.00     0.001 C 
ATOM     10  C   UNL     1       5.159   1.249   2.332  1.00  0.00     0.016 C 
BRANCH   7  11
ATOM     11  C   UNL     1       1.784   0.722   4.160  1.00  0.00     0.120 C 
BRANCH  11  12
ATOM     12  N   UNL     1       0.573   1.223   3.547  1.00  0.00    -0.355 N 
ATOM     13  C   UNL     1      -0.662   0.654   3.430  1.00  0.00     0.229 C 
ATOM     14  O   UNL     1      -1.611   1.439   3.583  1.00  0.00    -0.275 OA
ATOM     15  H   UNL     1       0.653   2.120   3.149  1.00  0.00     0.163 HD
BRANCH  13  16
ATOM     16  C   UNL     1      -0.971  -0.828   3.123  1.00  0.00     0.136 C 
BRANCH  16  17
ATOM     17  C   UNL     1      -0.042  -1.599   2.171  1.00  0.00     0.193 C 
BRANCH  17  18
ATOM     18  N   UNL     1       1.342  -1.724   2.622  1.00  0.00    -0.354 N 
ATOM     19  H   UNL     1       1.879  -2.248   1.931  1.00  0.00     0.344 HD
ATOM     20  H   UNL     1       1.365  -2.217   3.515  1.00  0.00     0.344 HD
ATOM     21  H   UNL     1       1.748  -0.795   2.736  1.00  0.00     0.344 HD
ENDBRANCH  17  18
BRANCH  17  22
ATOM     22  C   UNL     1      -0.490  -3.016   1.777  1.00  0.00     0.066 CG0
ATOM     23  G   UNL     1      -0.375  -4.032   2.914  1.00  0.00     0.000 G0
ENDBRANCH  17  22
ENDBRANCH  16  17
BRANCH  16  24
ATOM     24  C   UNL     1      -1.453  -1.575   4.375  1.00  0.00     0.020 C 
BRANCH  24  25
ATOM     25  C   UNL     1      -2.342  -2.780   4.032  1.00  0.00     0.001 C 
BRANCH  25  26
ATOM     26  C   UNL     1      -1.593  -4.092   3.823  1.00  0.00     0.000 C 
BRANCH  26  27
ATOM     27  C   UNL     1      -0.375  -4.032   2.914  1.00  0.00     0.006 CG0
ATOM     28  G   UNL     1      -0.490  -3.016   1.777  1.00  0.00     0.000 G0
ENDBRANCH  26  27
ENDBRANCH  25  26
ENDBRANCH  24  25
ENDBRANCH  16  24
ENDBRANCH  13  16
ENDBRANCH  11  12
ENDBRANCH   7  11
ENDBRANCH   4   6
ENDBRANCH   3   4
ENDBRANCH   2   3
ENDBRANCH   1   2
BRANCH   1  29
ATOM     29  O   UNL     1       0.706   1.345  -1.782  1.00  0.00    -0.376 OA
BRANCH  29  30
ATOM     30  C   UNL     1       0.853   2.361  -0.795  1.00  0.00     0.188 C 
BRANCH  30  31
ATOM     31  C   UNL     1       0.179   2.116   0.554  1.00  0.00     0.188 C 
BRANCH  31  32
ATOM     32  O   UNL     1      -1.146   1.607   0.519  1.00  0.00    -0.376 OA
BRANCH  32  33
ATOM     33  C   UNL     1      -2.127   2.397  -0.145  1.00  0.00     0.202 C 
BRANCH  33  34
ATOM     34  C   UNL     1      -2.436   3.730   0.540  1.00  0.00     0.261 C 
BRANCH  34  35
ATOM     35  O   UNL     1      -1.410   4.689   0.215  1.00  0.00    -0.460 OA
BRANCH  35  36
ATOM     36  C   UNL     1      -0.832   5.314   1.260  1.00  0.00     0.338 C 
ATOM     37  O   UNL     1      -1.149   5.257   2.445  1.00  0.00    -0.246 OA
BRANCH  36  38
ATOM     38  C   UNL     1       0.430   5.917   0.808  1.00  0.00     0.060 A 
ATOM     39  C   UNL     1       1.595   5.572   1.502  1.00  0.00     0.016 A 
ATOM     40  C   UNL     1       0.477   6.814  -0.259  1.00  0.00     0.016 A 
ATOM     41  C   UNL     1       2.819   6.125   1.141  1.00  0.00     0.010 A 
ATOM     42  C   UNL     1       1.699   7.396  -0.602  1.00  0.00     0.010 A 
ATOM     43  C   UNL     1       2.869   7.069   0.111  1.00  0.00    -0.014 A 
BRANCH  43  44
ATOM     44  C   UNL     1       4.099   7.863  -0.099  1.00  0.00     0.031 A 
ATOM     45  C   UNL     1       4.167   9.234   0.507  1.00  0.00     0.074 A 
ATOM     46  C   UNL     1       5.135   7.372  -0.799  1.00  0.00     0.049 A 
ATOM     47  N   UNL     1       5.045  10.185   0.326  1.00  0.00    -0.248 NA
ATOM     48  C   UNL     1       3.088   9.579   1.448  1.00  0.00     0.031 C 
ATOM     49  C   UNL     1       5.220   6.021  -1.348  1.00  0.00     0.029 A 
ATOM     50  N   UNL     1       6.312   7.967  -1.176  1.00  0.00    -0.354 N 
ATOM     51  C   UNL     1       4.610  11.249   1.104  1.00  0.00     0.074 A 
ATOM     52  C   UNL     1       3.388  10.831   1.756  1.00  0.00     0.031 C 
ATOM     53  C   UNL     1       6.383   5.895  -2.012  1.00  0.00     0.029 A 
ATOM     54  C   UNL     1       7.092   7.173  -1.979  1.00  0.00     0.049 A 
ATOM     55  H   UNL     1       6.572   8.875  -0.898  1.00  0.00     0.167 HD
ATOM     56  C   UNL     1       5.178  12.468   1.252  1.00  0.00     0.037 A 
ATOM     57  C   UNL     1       8.225   7.468  -2.644  1.00  0.00     0.037 A 
ATOM     58  C   UNL     1       6.396  12.868   0.599  1.00  0.00     0.049 A 
ATOM     59  C   UNL     1       8.794   8.861  -2.538  1.00  0.00     0.074 A 
ATOM     60  C   UNL     1       7.053  14.083   0.658  1.00  0.00     0.029 A 
ATOM     61  N   UNL     1       7.142  12.048  -0.237  1.00  0.00    -0.354 N 
ATOM     62  N   UNL     1       8.359   9.883  -1.840  1.00  0.00    -0.248 NA
ATOM     63  C   UNL     1      10.004   9.144  -3.323  1.00  0.00     0.031 C 
ATOM     64  C   UNL     1       8.174  14.013  -0.177  1.00  0.00     0.029 A 
ATOM     65  C   UNL     1       8.243  12.737  -0.715  1.00  0.00     0.049 A 
ATOM     66  H   UNL     1       6.920  11.115  -0.458  1.00  0.00     0.167 HD
ATOM     67  C   UNL     1       9.251  10.920  -2.080  1.00  0.00     0.074 A 
ATOM     68  C   UNL     1      10.260  10.399  -2.980  1.00  0.00     0.031 C 
ATOM     69  C   UNL     1       9.239  12.189  -1.602  1.00  0.00     0.037 A 
BRANCH  56  70
ATOM     70  C   UNL     1       4.454  13.465   2.108  1.00  0.00     0.064 A 
ATOM     71  C   UNL     1       4.381  13.331   3.503  1.00  0.00     0.173 A 
ATOM     72  C   UNL     1       3.813  14.566   1.520  1.00  0.00     0.173 A 
ATOM     73  F   UNL     1       4.958  12.285   4.112  1.00  0.00    -0.203 F 
ATOM     74  C   UNL     1       3.666  14.246   4.273  1.00  0.00     0.198 A 
ATOM     75  C   UNL     1       3.124  15.494   2.296  1.00  0.00     0.198 A 
ATOM     76  F   UNL     1       3.850  14.739   0.191  1.00  0.00    -0.203 F 
ATOM     77  F   UNL     1       3.562  14.067   5.598  1.00  0.00    -0.200 F 
ATOM     78  C   UNL     1       3.043  15.328   3.671  1.00  0.00     0.200 A 
ATOM     79  F   UNL     1       2.529  16.543   1.712  1.00  0.00    -0.200 F 
ATOM     80  F   UNL     1       2.353  16.205   4.413  1.00  0.00    -0.200 F 
ENDBRANCH  56  70
BRANCH  57  81
ATOM     81  C   UNL     1       8.876   6.441  -3.501  1.00  0.00     0.064 A 
ATOM     82  C   UNL     1      10.127   5.906  -3.165  1.00  0.00     0.173 A 
ATOM     83  C   UNL     1       8.268   5.984  -4.680  1.00  0.00     0.173 A 
ATOM     84  F   UNL     1      10.763   6.333  -2.064  1.00  0.00    -0.203 F 
ATOM     85  C   UNL     1      10.750   4.963  -3.980  1.00  0.00     0.198 A 
ATOM     86  C   UNL     1       8.878   5.020  -5.480  1.00  0.00     0.198 A 
ATOM     87  F   UNL     1       7.075   6.471  -5.053  1.00  0.00    -0.203 F 
ATOM     88  F   UNL     1      11.966   4.502  -3.659  1.00  0.00    -0.200 F 
ATOM     89  C   UNL     1      10.122   4.515  -5.133  1.00  0.00     0.200 A 
ATOM     90  F   UNL     1       8.264   4.585  -6.589  1.00  0.00    -0.200 F 
ATOM     91  F   UNL     1      10.720   3.606  -5.915  1.00  0.00    -0.200 F 
ENDBRANCH  57  81
BRANCH  69  92
ATOM     92  C   UNL     1      10.371  13.087  -2.007  1.00  0.00     0.064 A 
ATOM     93  C   UNL     1      10.466  13.615  -3.303  1.00  0.00     0.173 A 
ATOM     94  C   UNL     1      11.346  13.461  -1.070  1.00  0.00     0.173 A 
ATOM     95  F   UNL     1       9.566  13.276  -4.238  1.00  0.00    -0.203 F 
ATOM     96  C   UNL     1      11.509  14.469  -3.651  1.00  0.00     0.198 A 
ATOM     97  C   UNL     1      12.371  14.337  -1.414  1.00  0.00     0.198 A 
ATOM     98  F   UNL     1      11.295  12.988   0.184  1.00  0.00    -0.203 F 
ATOM     99  F   UNL     1      11.605  14.929  -4.906  1.00  0.00    -0.200 F 
ATOM    100  C   UNL     1      12.455  14.835  -2.705  1.00  0.00     0.200 A 
ATOM    101  F   UNL     1      13.276  14.701  -0.495  1.00  0.00    -0.200 F 
ATOM    102  F   UNL     1      13.454  15.664  -3.041  1.00  0.00    -0.200 F 
ENDBRANCH  69  92
ENDBRANCH  43  44
ENDBRANCH  36  38
ENDBRANCH  35  36
ENDBRANCH  34  35
ENDBRANCH  33  34
ENDBRANCH  32  33
ENDBRANCH  31  32
ENDBRANCH  30  31
ENDBRANCH  29  30
ENDBRANCH   1  29
TORSDOF 21
