REMARK SMILES C[C@H]1CC=C(C2=NN=C(C(=O)OCCOCCOCCOC(=O)c3ccc(-c4c5nc(c(-c6c(F)c(F)c(F)c(F)c6F)c6ccc([nH]6)c(-c6c(F)c(F)c(F)c(F)c6F)c6nc(c(-c7c(F)c(F)c(F)c(F)c7F)c7ccc4[nH]7)C=C6)C=C5)cc3)C2)O1
REMARK SMILES IDX 17 1 16 2 15 3 14 4 13 5 12 6 10 7 11 8 9 9 6 10 7 11 87 12
REMARK SMILES IDX 8 13 5 14 1 15 2 16 3 17 88 18 4 19 18 20 19 21 20 22 21 23
REMARK SMILES IDX 22 24 23 25 24 26 25 27 86 28 26 29 85 30 27 31 28 32 29 33
REMARK SMILES IDX 79 34 30 35 84 36 78 37 80 38 31 39 83 40 77 41 76 42 32 44
REMARK SMILES IDX 64 45 44 46 63 47 45 48 48 49 62 50 81 51 46 52 47 53 61 55
REMARK SMILES IDX 82 56 49 57 33 58 34 59 42 60 35 61 36 62 40 63 43 64 37 65
REMARK SMILES IDX 38 66 41 67 39 68 65 69 66 70 74 71 67 72 68 73 72 74 75 75
REMARK SMILES IDX 69 76 70 77 73 78 71 79 50 80 51 81 59 82 52 83 53 84 57 85
REMARK SMILES IDX 60 86 54 87 55 88 58 89 56 90
REMARK H PARENT 80 43 48 54
REMARK Flexibility Score: inf
ROOT
ATOM      1  C   UNL     1      -1.715   6.197   4.121  1.00  0.00     0.188 C 
ENDROOT
BRANCH   1   2
ATOM      2  C   UNL     1      -1.195   5.089   5.067  1.00  0.00     0.188 C 
BRANCH   2   3
ATOM      3  O   UNL     1      -0.865   5.370   6.423  1.00  0.00    -0.376 OA
BRANCH   3   4
ATOM      4  C   UNL     1      -0.186   6.580   6.742  1.00  0.00     0.202 C 
BRANCH   4   5
ATOM      5  C   UNL     1       1.128   6.906   6.012  1.00  0.00     0.261 C 
BRANCH   5   6
ATOM      6  O   UNL     1       1.063   6.744   4.586  1.00  0.00    -0.459 OA
BRANCH   6   7
ATOM      7  C   UNL     1       1.954   5.904   4.040  1.00  0.00     0.355 C 
ATOM      8  O   UNL     1       2.868   5.307   4.588  1.00  0.00    -0.245 OA
BRANCH   7   9
ATOM      9  C   UNL     1       1.597   5.586   2.620  1.00  0.00     0.154 C 
ATOM     10  C   UNL     1       1.207   4.429   0.757  1.00  0.00     0.111 C 
ATOM     11  N   UNL     1       1.270   5.689   0.447  1.00  0.00    -0.151 NA
ATOM     12  C   UNL     1       1.330   4.182   2.222  1.00  0.00     0.128 C 
ATOM     13  N   UNL     1       1.512   6.441   1.647  1.00  0.00    -0.147 NA
BRANCH  10  14
ATOM     14  C   UNL     1       1.103   3.292  -0.173  1.00  0.00     0.139 C 
ATOM     15  C   UNL     1      -0.416   0.486  -1.453  1.00  0.00     0.053 C 
ATOM     16  C   UNL     1       0.797   1.187  -0.858  1.00  0.00     0.174 C 
ATOM     17  C   UNL     1       1.621   1.920  -1.924  1.00  0.00     0.076 C 
ATOM     18  O   UNL     1       0.381   2.148   0.145  1.00  0.00    -0.489 OA
ATOM     19  C   UNL     1       1.824   3.237  -1.288  1.00  0.00     0.025 C 
ENDBRANCH  10  14
ENDBRANCH   7   9
ENDBRANCH   6   7
ENDBRANCH   5   6
ENDBRANCH   4   5
ENDBRANCH   3   4
ENDBRANCH   2   3
ENDBRANCH   1   2
BRANCH   1  20
ATOM     20  O   UNL     1      -1.739   7.497   4.691  1.00  0.00    -0.376 OA
BRANCH  20  21
ATOM     21  C   UNL     1      -3.009   8.134   4.735  1.00  0.00     0.202 C 
BRANCH  21  22
ATOM     22  C   UNL     1      -3.931   7.616   5.838  1.00  0.00     0.261 C 
BRANCH  22  23
ATOM     23  O   UNL     1      -4.075   6.198   5.871  1.00  0.00    -0.460 OA
BRANCH  23  24
ATOM     24  C   UNL     1      -4.779   5.645   4.868  1.00  0.00     0.338 C 
ATOM     25  O   UNL     1      -5.163   6.197   3.844  1.00  0.00    -0.246 OA
BRANCH  24  26
ATOM     26  C   UNL     1      -5.085   4.252   5.220  1.00  0.00     0.060 A 
ATOM     27  C   UNL     1      -5.599   3.422   4.220  1.00  0.00     0.016 A 
ATOM     28  C   UNL     1      -5.069   3.855   6.565  1.00  0.00     0.016 A 
ATOM     29  C   UNL     1      -6.273   2.274   4.593  1.00  0.00     0.010 A 
ATOM     30  C   UNL     1      -5.749   2.715   6.937  1.00  0.00     0.010 A 
ATOM     31  C   UNL     1      -6.421   1.989   5.954  1.00  0.00    -0.014 A 
BRANCH  31  32
ATOM     32  C   UNL     1      -7.410   0.993   6.335  1.00  0.00     0.031 A 
ATOM     33  C   UNL     1      -6.989  -0.418   6.260  1.00  0.00     0.074 A 
ATOM     34  C   UNL     1      -8.607   1.370   6.832  1.00  0.00     0.049 A 
ATOM     35  N   UNL     1      -7.572  -1.382   5.626  1.00  0.00    -0.248 NA
ATOM     36  C   UNL     1      -5.751  -0.808   6.951  1.00  0.00     0.031 C 
ATOM     37  C   UNL     1      -8.986   2.730   7.233  1.00  0.00     0.029 A 
ATOM     38  N   UNL     1      -9.692   0.620   7.197  1.00  0.00    -0.354 N 
ATOM     39  C   UNL     1      -6.889  -2.535   5.994  1.00  0.00     0.074 A 
ATOM     40  C   UNL     1      -5.709  -2.118   6.705  1.00  0.00     0.031 C 
ATOM     41  C   UNL     1     -10.112   2.677   7.973  1.00  0.00     0.029 A 
ATOM     42  C   UNL     1     -10.599   1.307   7.990  1.00  0.00     0.049 A 
ATOM     43  H   UNL     1      -9.817  -0.317   6.923  1.00  0.00     0.167 HD
ATOM     44  C   UNL     1      -7.496  -3.749   5.930  1.00  0.00     0.037 A 
ATOM     45  C   UNL     1     -11.653   0.802   8.671  1.00  0.00     0.037 A 
ATOM     46  C   UNL     1      -8.665  -3.741   5.095  1.00  0.00     0.049 A 
ATOM     47  C   UNL     1     -12.050  -0.490   8.068  1.00  0.00     0.074 A 
ATOM     48  C   UNL     1      -8.959  -3.926   3.764  1.00  0.00     0.029 A 
ATOM     49  N   UNL     1      -9.783  -3.237   5.693  1.00  0.00    -0.354 N 
ATOM     50  N   UNL     1     -12.572  -0.611   6.878  1.00  0.00    -0.248 NA
ATOM     51  C   UNL     1     -11.631  -1.740   8.696  1.00  0.00     0.031 C 
ATOM     52  C   UNL     1     -10.290  -3.446   3.567  1.00  0.00     0.029 A 
ATOM     53  C   UNL     1     -10.768  -2.969   4.781  1.00  0.00     0.049 A 
ATOM     54  H   UNL     1      -9.871  -3.084   6.662  1.00  0.00     0.167 HD
ATOM     55  C   UNL     1     -12.174  -1.863   6.462  1.00  0.00     0.074 A 
ATOM     56  C   UNL     1     -11.766  -2.574   7.662  1.00  0.00     0.031 C 
ATOM     57  C   UNL     1     -11.854  -2.099   5.160  1.00  0.00     0.037 A 
BRANCH  44  58
ATOM     58  C   UNL     1      -7.325  -4.822   6.976  1.00  0.00     0.064 A 
ATOM     59  C   UNL     1      -7.816  -6.116   6.718  1.00  0.00     0.173 A 
ATOM     60  C   UNL     1      -7.015  -4.539   8.324  1.00  0.00     0.173 A 
ATOM     61  F   UNL     1      -8.167  -6.477   5.474  1.00  0.00    -0.203 F 
ATOM     62  C   UNL     1      -8.037  -7.037   7.745  1.00  0.00     0.198 A 
ATOM     63  C   UNL     1      -7.185  -5.480   9.338  1.00  0.00     0.198 A 
ATOM     64  F   UNL     1      -6.652  -3.314   8.725  1.00  0.00    -0.203 F 
ATOM     65  F   UNL     1      -8.615  -8.214   7.471  1.00  0.00    -0.200 F 
ATOM     66  C   UNL     1      -7.724  -6.717   9.054  1.00  0.00     0.200 A 
ATOM     67  F   UNL     1      -6.899  -5.144  10.604  1.00  0.00    -0.200 F 
ATOM     68  F   UNL     1      -7.985  -7.578  10.046  1.00  0.00    -0.200 F 
ENDBRANCH  44  58
BRANCH  45  69
ATOM     69  C   UNL     1     -12.236   1.300   9.938  1.00  0.00     0.064 A 
ATOM     70  C   UNL     1     -13.535   0.945  10.331  1.00  0.00     0.173 A 
ATOM     71  C   UNL     1     -11.441   1.944  10.907  1.00  0.00     0.173 A 
ATOM     72  F   UNL     1     -14.340   0.286   9.485  1.00  0.00    -0.203 F 
ATOM     73  C   UNL     1     -14.006   1.205  11.621  1.00  0.00     0.198 A 
ATOM     74  C   UNL     1     -11.918   2.220  12.188  1.00  0.00     0.198 A 
ATOM     75  F   UNL     1     -10.157   2.240  10.661  1.00  0.00    -0.203 F 
ATOM     76  F   UNL     1     -15.230   0.794  11.980  1.00  0.00    -0.200 F 
ATOM     77  C   UNL     1     -13.196   1.838  12.549  1.00  0.00     0.200 A 
ATOM     78  F   UNL     1     -11.112   2.805  13.085  1.00  0.00    -0.200 F 
ATOM     79  F   UNL     1     -13.629   2.042  13.800  1.00  0.00    -0.200 F 
ENDBRANCH  45  69
BRANCH  57  80
ATOM     80  C   UNL     1     -12.502  -1.244   4.125  1.00  0.00     0.064 A 
ATOM     81  C   UNL     1     -12.237   0.123   3.964  1.00  0.00     0.173 A 
ATOM     82  C   UNL     1     -13.405  -1.846   3.238  1.00  0.00     0.173 A 
ATOM     83  F   UNL     1     -11.327   0.741   4.730  1.00  0.00    -0.203 F 
ATOM     84  C   UNL     1     -12.891   0.867   2.984  1.00  0.00     0.198 A 
ATOM     85  C   UNL     1     -14.032  -1.107   2.240  1.00  0.00     0.198 A 
ATOM     86  F   UNL     1     -13.660  -3.161   3.325  1.00  0.00    -0.203 F 
ATOM     87  F   UNL     1     -12.646   2.180   2.862  1.00  0.00    -0.200 F 
ATOM     88  C   UNL     1     -13.786   0.251   2.122  1.00  0.00     0.200 A 
ATOM     89  F   UNL     1     -14.868  -1.715   1.386  1.00  0.00    -0.200 F 
ATOM     90  F   UNL     1     -14.400   0.963   1.166  1.00  0.00    -0.200 F 
ENDBRANCH  57  80
ENDBRANCH  31  32
ENDBRANCH  24  26
ENDBRANCH  23  24
ENDBRANCH  22  23
ENDBRANCH  21  22
ENDBRANCH  20  21
ENDBRANCH   1  20
TORSDOF 18
