REMARK SMILES O=C(OCCOCCOCCOC(=O)c1ccc(-c2c3nc(c(-c4c(F)c(F)c(F)c(F)c4F)c4ccc([nH]4)c(-c4c(F)c(F)c(F)c(F)c4F)c4nc(c(-c5c(F)c(F)c(F)c(F)c5F)c5ccc2[nH]5)C=C4)C=C3)cc1)C1=Cc2cc(S(F)(F)(F)(F)F)cc(Br)c2O[C@H]1C(F)(F)F
REMARK SMILES IDX 8 1 7 2 6 3 5 4 4 5 3 6 2 7 1 8 78 9 79 10 94 11 80 12 93 13
REMARK SMILES IDX 81 14 92 15 82 16 90 17 89 18 91 19 95 20 96 21 97 22 98 23
REMARK SMILES IDX 83 24 84 25 85 26 86 27 87 28 88 29 9 30 10 31 11 32 12 33
REMARK SMILES IDX 13 34 14 35 15 36 16 37 77 38 17 39 76 40 18 41 19 42 20 43
REMARK SMILES IDX 70 44 21 45 75 46 69 47 71 48 22 49 74 50 68 51 67 52 23 54
REMARK SMILES IDX 55 55 35 56 54 57 36 58 39 59 53 60 72 61 37 62 38 63 52 65
REMARK SMILES IDX 73 66 40 67 24 68 25 69 33 70 26 71 27 72 31 73 34 74 28 75
REMARK SMILES IDX 29 76 32 77 30 78 56 79 57 80 65 81 58 82 59 83 63 84 66 85
REMARK SMILES IDX 60 86 61 87 64 88 62 89 41 90 42 91 50 92 43 93 44 94 48 95
REMARK SMILES IDX 51 96 45 97 46 98 49 99 47 100
REMARK H PARENT 71 53 39 64
REMARK Flexibility Score: inf
ROOT
ATOM      1  C   UNL     1       2.556   1.902  -1.716  1.00  0.00     0.188 C 
ENDROOT
BRANCH   1   2
ATOM      2  C   UNL     1       3.062   1.544  -0.328  1.00  0.00     0.188 C 
BRANCH   2   3
ATOM      3  O   UNL     1       4.482   1.544  -0.328  1.00  0.00    -0.376 OA
BRANCH   3   4
ATOM      4  C   UNL     1       4.956   0.588  -1.266  1.00  0.00     0.202 C 
BRANCH   4   5
ATOM      5  C   UNL     1       4.449  -0.792  -0.882  1.00  0.00     0.261 C 
BRANCH   5   6
ATOM      6  O   UNL     1       3.029  -0.792  -0.882  1.00  0.00    -0.460 OA
BRANCH   6   7
ATOM      7  C   UNL     1       2.319   0.085  -0.021  1.00  0.00     0.338 C 
ATOM      8  O   UNL     1       1.048   0.085  -0.021  1.00  0.00    -0.246 OA
BRANCH   7   9
ATOM      9  C   UNL     1       3.079   1.024   0.901  1.00  0.00     0.087 C 
ATOM     10  C   UNL     1       4.439   1.024   0.901  1.00  0.00     0.027 C 
ATOM     11  C   UNL     1       2.319   1.964   1.824  1.00  0.00     0.316 C 
ATOM     12  C   UNL     1       5.199   0.085  -0.021  1.00  0.00     0.020 A 
ATOM     13  O   UNL     1       3.763   0.576  -1.850  1.00  0.00    -0.474 OA
ATOM     14  C   UNL     1       6.188  -0.668   0.590  1.00  0.00     0.036 A 
ATOM     15  C   UNL     1       4.886  -0.097  -1.298  1.00  0.00     0.142 A 
ATOM     16  C   UNL     1       6.996  -1.397  -0.315  1.00  0.00     0.109 A 
ATOM     17  C   UNL     1       5.638  -0.929  -2.091  1.00  0.00     0.062 A 
ATOM     18  C   UNL     1       6.668  -1.660  -1.567  1.00  0.00     0.044 A 
ATOM     19  Br  UNL     1       5.228  -1.073  -4.003  1.00  0.00    -0.047 Br
BRANCH  11  20
ATOM     20  C   UNL     1       0.825   1.766   1.629  1.00  0.00     0.430 C 
ATOM     21  F   UNL     1       0.588   1.359   0.385  1.00  0.00    -0.167 F 
ATOM     22  F   UNL     1       0.384   0.849   2.486  1.00  0.00    -0.167 F 
ATOM     23  F   UNL     1       0.194   2.916   1.847  1.00  0.00    -0.167 F 
ENDBRANCH  11  20
BRANCH  16  24
ATOM     24  S   UNL     1       8.589  -2.011   0.285  1.00  0.00     0.310 S 
ATOM     25  F   UNL     1       8.091  -1.968   1.790  1.00  0.00    -0.094 F 
ATOM     26  F   UNL     1       9.076  -0.525   0.475  1.00  0.00    -0.094 F 
ATOM     27  F   UNL     1       9.947  -2.554   0.815  1.00  0.00    -0.094 F 
ATOM     28  F   UNL     1       8.033  -3.489   0.221  1.00  0.00    -0.094 F 
ATOM     29  F   UNL     1       7.167  -1.473  -0.146  1.00  0.00    -0.094 F 
ENDBRANCH  16  24
ENDBRANCH   7   9
ENDBRANCH   6   7
ENDBRANCH   5   6
ENDBRANCH   4   5
ENDBRANCH   3   4
ENDBRANCH   2   3
ENDBRANCH   1   2
BRANCH   1  30
ATOM     30  O   UNL     1       3.029   0.947  -2.654  1.00  0.00    -0.376 OA
BRANCH  30  31
ATOM     31  C   UNL     1       4.449   0.947  -2.654  1.00  0.00     0.202 C 
BRANCH  31  32
ATOM     32  C   UNL     1       4.956   2.327  -3.037  1.00  0.00     0.261 C 
BRANCH  32  33
ATOM     33  O   UNL     1       4.482   3.283  -2.099  1.00  0.00    -0.460 OA
BRANCH  33  34
ATOM     34  C   UNL     1       3.086   3.468  -1.917  1.00  0.00     0.338 C 
ATOM     35  O   UNL     1       2.260   2.779  -2.594  1.00  0.00    -0.246 OA
BRANCH  34  36
ATOM     36  C   UNL     1       2.580   4.490  -0.913  1.00  0.00     0.060 A 
ATOM     37  C   UNL     1       1.436   4.178  -0.197  1.00  0.00     0.016 A 
ATOM     38  C   UNL     1       3.118   5.703  -0.857  1.00  0.00     0.016 A 
ATOM     39  C   UNL     1       0.764   5.306   0.331  1.00  0.00     0.010 A 
ATOM     40  C   UNL     1       2.471   6.726  -0.208  1.00  0.00     0.010 A 
ATOM     41  C   UNL     1       1.306   6.503   0.471  1.00  0.00    -0.014 A 
BRANCH  41  42
ATOM     42  C   UNL     1       0.668   7.573   1.342  1.00  0.00     0.031 A 
ATOM     43  C   UNL     1       0.264   8.802   0.817  1.00  0.00     0.074 A 
ATOM     44  C   UNL     1       0.406   7.161   2.637  1.00  0.00     0.049 A 
ATOM     45  N   UNL     1      -0.448   9.752   1.425  1.00  0.00    -0.248 NA
ATOM     46  C   UNL     1       0.571   9.256  -0.548  1.00  0.00     0.031 C 
ATOM     47  C   UNL     1       0.803   5.920   3.172  1.00  0.00     0.029 A 
ATOM     48  N   UNL     1      -0.265   7.849   3.623  1.00  0.00    -0.354 N 
ATOM     49  C   UNL     1      -0.654  10.776   0.595  1.00  0.00     0.074 A 
ATOM     50  C   UNL     1       0.004  10.475  -0.684  1.00  0.00     0.031 C 
ATOM     51  C   UNL     1       0.387   5.865   4.464  1.00  0.00     0.029 A 
ATOM     52  C   UNL     1      -0.277   7.071   4.760  1.00  0.00     0.049 A 
ATOM     53  H   UNL     1      -0.667   8.743   3.532  1.00  0.00     0.167 HD
ATOM     54  C   UNL     1      -1.366  11.949   0.853  1.00  0.00     0.037 A 
ATOM     55  C   UNL     1      -0.829   7.378   5.993  1.00  0.00     0.037 A 
ATOM     56  C   UNL     1      -1.955  12.237   2.074  1.00  0.00     0.049 A 
ATOM     57  C   UNL     1      -1.491   8.576   6.270  1.00  0.00     0.074 A 
ATOM     58  C   UNL     1      -2.682  13.411   2.348  1.00  0.00     0.029 A 
ATOM     59  N   UNL     1      -1.945  11.469   3.217  1.00  0.00    -0.354 N 
ATOM     60  N   UNL     1      -1.730   9.583   5.428  1.00  0.00    -0.248 NA
ATOM     61  C   UNL     1      -2.051   8.926   7.582  1.00  0.00     0.031 C 
ATOM     62  C   UNL     1      -3.098  13.356   3.642  1.00  0.00     0.029 A 
ATOM     63  C   UNL     1      -2.636  12.147   4.197  1.00  0.00     0.049 A 
ATOM     64  H   UNL     1      -1.518  10.588   3.317  1.00  0.00     0.167 HD
ATOM     65  C   UNL     1      -2.407  10.551   6.049  1.00  0.00     0.074 A 
ATOM     66  C   UNL     1      -2.616  10.146   7.446  1.00  0.00     0.031 C 
ATOM     67  C   UNL     1      -2.861  11.754   5.507  1.00  0.00     0.037 A 
BRANCH  54  68
ATOM     68  C   UNL     1      -1.503  12.966  -0.268  1.00  0.00     0.064 A 
ATOM     69  C   UNL     1      -2.192  12.552  -1.396  1.00  0.00     0.173 A 
ATOM     70  C   UNL     1      -1.044  14.208  -0.158  1.00  0.00     0.173 A 
ATOM     71  F   UNL     1      -2.881  11.416  -1.448  1.00  0.00    -0.203 F 
ATOM     72  C   UNL     1      -2.096  13.448  -2.487  1.00  0.00     0.198 A 
ATOM     73  C   UNL     1      -1.107  15.073  -1.223  1.00  0.00     0.198 A 
ATOM     74  F   UNL     1      -0.521  14.617   0.994  1.00  0.00    -0.203 F 
ATOM     75  F   UNL     1      -2.406  12.986  -3.695  1.00  0.00    -0.200 F 
ATOM     76  C   UNL     1      -1.721  14.710  -2.389  1.00  0.00     0.200 A 
ATOM     77  F   UNL     1      -0.561  16.282  -1.119  1.00  0.00    -0.200 F 
ATOM     78  F   UNL     1      -1.929  15.581  -3.373  1.00  0.00    -0.200 F 
ENDBRANCH  54  68
BRANCH  55  79
ATOM     79  C   UNL     1      -0.706   6.353   7.109  1.00  0.00     0.064 A 
ATOM     80  C   UNL     1      -1.822   5.853   7.759  1.00  0.00     0.173 A 
ATOM     81  C   UNL     1       0.521   6.005   7.479  1.00  0.00     0.173 A 
ATOM     82  F   UNL     1      -3.055   5.966   7.275  1.00  0.00    -0.203 F 
ATOM     83  C   UNL     1      -1.530   5.210   8.986  1.00  0.00     0.198 A 
ATOM     84  C   UNL     1       0.724   5.260   8.616  1.00  0.00     0.198 A 
ATOM     85  F   UNL     1       1.563   6.381   6.743  1.00  0.00    -0.203 F 
ATOM     86  F   UNL     1      -2.532   5.023   9.840  1.00  0.00    -0.200 F 
ATOM     87  C   UNL     1      -0.332   4.782   9.341  1.00  0.00     0.200 A 
ATOM     88  F   UNL     1       1.965   5.000   9.017  1.00  0.00    -0.200 F 
ATOM     89  F   UNL     1      -0.162   3.933  10.351  1.00  0.00    -0.200 F 
ENDBRANCH  55  79
BRANCH  67  90
ATOM     90  C   UNL     1      -3.651  12.690   6.407  1.00  0.00     0.064 A 
ATOM     91  C   UNL     1      -3.058  13.049   7.607  1.00  0.00     0.173 A 
ATOM     92  C   UNL     1      -4.897  13.049   6.120  1.00  0.00     0.173 A 
ATOM     93  F   UNL     1      -1.753  12.936   7.833  1.00  0.00    -0.203 F 
ATOM     94  C   UNL     1      -3.968  13.546   8.569  1.00  0.00     0.198 A 
ATOM     95  C   UNL     1      -5.686  13.654   7.067  1.00  0.00     0.198 A 
ATOM     96  F   UNL     1      -5.385  12.820   4.904  1.00  0.00    -0.203 F 
ATOM     97  F   UNL     1      -3.572  13.575   9.839  1.00  0.00    -0.200 F 
ATOM     98  C   UNL     1      -5.184  13.985   8.295  1.00  0.00     0.200 A 
ATOM     99  F   UNL     1      -6.958  13.923   6.786  1.00  0.00    -0.200 F 
ATOM    100  F   UNL     1      -5.881  14.708   9.166  1.00  0.00    -0.200 F 
ENDBRANCH  67  90
ENDBRANCH  41  42
ENDBRANCH  34  36
ENDBRANCH  33  34
ENDBRANCH  32  33
ENDBRANCH  31  32
ENDBRANCH  30  31
ENDBRANCH   1  30
TORSDOF 19
