REMARK SMILES N#Cc1cc2c(nc1N1CC[NH+]([C@H](C(=O)OCCOCCOCCOC(=O)c3ccc(-c4c5nc(c(-c6c(F)c(F)c(F)c(F)c6F)c6ccc([nH]6)c(-c6c(F)c(F)c(F)c(F)c6F)c6nc(c(-c7c(F)c(F)c(F)c(F)c7F)c7ccc4[nH]7)C=C6)C=C5)cc3)c3c[nH]c4cc(Cl)ccc34)CC1)CCCC2
REMARK SMILES IDX 20 1 19 2 18 3 17 4 16 5 14 6 15 7 13 8 12 9 9 10 10 11
REMARK SMILES IDX 102 12 11 13 101 14 8 16 3 17 4 18 5 19 7 20 6 21 106 22
REMARK SMILES IDX 103 23 105 24 104 25 2 26 1 27 91 28 92 29 100 30 93 31
REMARK SMILES IDX 94 32 99 33 95 35 98 36 96 37 97 38 21 39 22 40 23 41 24 42
REMARK SMILES IDX 25 43 26 44 27 45 28 46 29 47 90 48 30 49 89 50 31 51 32 52
REMARK SMILES IDX 33 53 83 54 34 55 88 56 82 57 84 58 35 59 87 60 81 61 80 62
REMARK SMILES IDX 36 64 68 65 48 66 67 67 49 68 52 69 66 70 85 71 50 72 51 73
REMARK SMILES IDX 65 75 86 76 53 77 37 78 38 79 46 80 39 81 40 82 44 83 47 84
REMARK SMILES IDX 41 85 42 86 45 87 43 88 69 89 70 90 78 91 71 92 72 93 76 94
REMARK SMILES IDX 79 95 73 96 74 97 77 98 75 99 54 100 55 101 63 102 56 103
REMARK SMILES IDX 57 104 61 105 64 106 58 107 59 108 62 109 60 110
REMARK H PARENT 12 15 93 34 84 63 52 74
REMARK Flexibility Score: inf
ROOT
ATOM      1  C   UNL     1       2.076  -2.376   0.865  1.00  0.00     0.188 C 
ENDROOT
BRANCH   1   2
ATOM      2  O   UNL     1       0.826  -1.853   1.236  1.00  0.00    -0.376 OA
BRANCH   2   3
ATOM      3  C   UNL     1       0.006  -2.780   1.937  1.00  0.00     0.202 C 
BRANCH   3   4
ATOM      4  C   UNL     1      -0.075  -4.227   1.377  1.00  0.00     0.261 C 
BRANCH   4   5
ATOM      5  O   UNL     1       1.173  -5.000   1.370  1.00  0.00    -0.459 OA
BRANCH   5   6
ATOM      6  C   UNL     1       1.611  -5.611   0.218  1.00  0.00     0.370 C 
ATOM      7  O   UNL     1       1.052  -5.410  -0.861  1.00  0.00    -0.245 OA
BRANCH   6   8
ATOM      8  C   UNL     1       2.894  -6.576   0.333  1.00  0.00     0.328 C 
BRANCH   8   9
ATOM      9  N   UNL     1       4.070  -5.993  -0.432  1.00  0.00    -0.316 N 
ATOM     10  N   UNL     1       6.884  -6.135  -1.275  1.00  0.00    -0.344 N 
ATOM     11  C   UNL     1       5.921  -6.543  -2.294  1.00  0.00     0.179 C 
ATOM     12  C   UNL     1       6.379  -5.039  -0.469  1.00  0.00     0.179 C 
ATOM     13  C   UNL     1       4.514  -6.850  -1.589  1.00  0.00     0.285 C 
ATOM     14  C   UNL     1       5.220  -5.585   0.375  1.00  0.00     0.285 C 
ATOM     15  H   UNL     1       3.675  -5.128  -0.802  1.00  0.00     0.349 HD
BRANCH  10  16
ATOM     16  C   UNL     1       8.225  -6.424  -1.142  1.00  0.00     0.147 A 
ATOM     17  C   UNL     1       8.727  -6.858   0.090  1.00  0.00     0.095 A 
ATOM     18  C   UNL     1      10.085  -6.909   0.358  1.00  0.00     0.029 A 
ATOM     19  C   UNL     1      10.974  -6.659  -0.647  1.00  0.00    -0.025 A 
ATOM     20  N   UNL     1       9.104  -6.133  -2.133  1.00  0.00    -0.234 NA
ATOM     21  C   UNL     1      10.455  -6.258  -1.879  1.00  0.00     0.046 A 
ATOM     22  C   UNL     1      12.422  -6.864  -0.331  1.00  0.00     0.037 C 
ATOM     23  C   UNL     1      11.421  -5.988  -3.011  1.00  0.00     0.056 C 
ATOM     24  C   UNL     1      13.233  -7.048  -1.594  1.00  0.00     0.005 C 
ATOM     25  C   UNL     1      12.888  -5.918  -2.553  1.00  0.00     0.007 C 
BRANCH  17  26
ATOM     26  C   UNL     1       7.982  -7.444   1.139  1.00  0.00     0.103 C 
ATOM     27  N   UNL     1       7.699  -8.060   2.066  1.00  0.00    -0.192 NA
ENDBRANCH  17  26
ENDBRANCH  10  16
ENDBRANCH   8   9
BRANCH   8  28
ATOM     28  C   UNL     1       3.118  -7.305   1.723  1.00  0.00     0.046 A 
ATOM     29  C   UNL     1       2.031  -7.463   2.595  1.00  0.00     0.094 A 
ATOM     30  C   UNL     1       4.119  -7.172   2.760  1.00  0.00     0.009 A 
ATOM     31  N   UNL     1       2.236  -6.274   3.335  1.00  0.00    -0.361 N 
ATOM     32  C   UNL     1       3.579  -6.226   3.622  1.00  0.00     0.047 A 
ATOM     33  C   UNL     1       5.233  -7.858   3.277  1.00  0.00     0.012 A 
ATOM     34  H   UNL     1       1.553  -5.613   3.593  1.00  0.00     0.166 HD
ATOM     35  C   UNL     1       4.309  -5.560   4.606  1.00  0.00     0.047 A 
ATOM     36  C   UNL     1       5.966  -7.279   4.342  1.00  0.00     0.021 A 
ATOM     37  C   UNL     1       5.558  -6.083   4.915  1.00  0.00     0.043 A 
ATOM     38  Cl  UNL     1       6.525  -5.311   6.113  1.00  0.00    -0.084 Cl
ENDBRANCH   8  28
ENDBRANCH   6   8
ENDBRANCH   5   6
ENDBRANCH   4   5
ENDBRANCH   3   4
ENDBRANCH   2   3
ENDBRANCH   1   2
BRANCH   1  39
ATOM     39  C   UNL     1       2.964  -2.881   2.004  1.00  0.00     0.188 C 
BRANCH  39  40
ATOM     40  O   UNL     1       2.481  -3.274   3.269  1.00  0.00    -0.376 OA
BRANCH  40  41
ATOM     41  C   UNL     1       2.730  -2.385   4.354  1.00  0.00     0.202 C 
BRANCH  41  42
ATOM     42  C   UNL     1       4.151  -1.806   4.639  1.00  0.00     0.261 C 
BRANCH  42  43
ATOM     43  O   UNL     1       4.902  -1.257   3.530  1.00  0.00    -0.460 OA
BRANCH  43  44
ATOM     44  C   UNL     1       5.857  -2.063   2.987  1.00  0.00     0.338 C 
ATOM     45  O   UNL     1       6.188  -3.172   3.367  1.00  0.00    -0.246 OA
BRANCH  44  46
ATOM     46  C   UNL     1       6.324  -1.526   1.686  1.00  0.00     0.060 A 
ATOM     47  C   UNL     1       5.756  -2.020   0.514  1.00  0.00     0.016 A 
ATOM     48  C   UNL     1       7.415  -0.670   1.589  1.00  0.00     0.016 A 
ATOM     49  C   UNL     1       6.261  -1.692  -0.737  1.00  0.00     0.010 A 
ATOM     50  C   UNL     1       7.898  -0.299   0.316  1.00  0.00     0.010 A 
ATOM     51  C   UNL     1       7.332  -0.815  -0.867  1.00  0.00    -0.014 A 
BRANCH  51  52
ATOM     52  C   UNL     1       7.865  -0.534  -2.235  1.00  0.00     0.031 A 
ATOM     53  C   UNL     1       9.317  -0.792  -2.543  1.00  0.00     0.074 A 
ATOM     54  C   UNL     1       7.043  -0.132  -3.231  1.00  0.00     0.049 A 
ATOM     55  N   UNL     1      10.023  -0.411  -3.578  1.00  0.00    -0.248 NA
ATOM     56  C   UNL     1      10.084  -1.569  -1.554  1.00  0.00     0.031 C 
ATOM     57  C   UNL     1       5.591   0.044  -3.119  1.00  0.00     0.029 A 
ATOM     58  N   UNL     1       7.299   0.180  -4.547  1.00  0.00    -0.354 N 
ATOM     59  C   UNL     1      11.322  -0.837  -3.331  1.00  0.00     0.074 A 
ATOM     60  C   UNL     1      11.313  -1.510  -2.050  1.00  0.00     0.031 C 
ATOM     61  C   UNL     1       5.085   0.369  -4.316  1.00  0.00     0.029 A 
ATOM     62  C   UNL     1       6.182   0.570  -5.251  1.00  0.00     0.049 A 
ATOM     63  H   UNL     1       8.197   0.129  -4.947  1.00  0.00     0.167 HD
ATOM     64  C   UNL     1      12.416  -0.675  -4.112  1.00  0.00     0.037 A 
ATOM     65  C   UNL     1       6.052   1.101  -6.484  1.00  0.00     0.037 A 
ATOM     66  C   UNL     1      12.387  -0.092  -5.427  1.00  0.00     0.049 A 
ATOM     67  C   UNL     1       7.296   1.342  -7.294  1.00  0.00     0.074 A 
ATOM     68  C   UNL     1      13.442   0.106  -6.299  1.00  0.00     0.029 A 
ATOM     69  N   UNL     1      11.242   0.349  -6.071  1.00  0.00    -0.354 N 
ATOM     70  N   UNL     1       8.537   1.025  -7.014  1.00  0.00    -0.248 NA
ATOM     71  C   UNL     1       7.132   2.041  -8.577  1.00  0.00     0.031 C 
ATOM     72  C   UNL     1      12.945   0.725  -7.447  1.00  0.00     0.029 A 
ATOM     73  C   UNL     1      11.572   0.851  -7.319  1.00  0.00     0.049 A 
ATOM     74  H   UNL     1      10.332   0.312  -5.698  1.00  0.00     0.167 HD
ATOM     75  C   UNL     1       9.295   1.464  -8.089  1.00  0.00     0.074 A 
ATOM     76  C   UNL     1       8.374   2.048  -9.040  1.00  0.00     0.031 C 
ATOM     77  C   UNL     1      10.636   1.401  -8.265  1.00  0.00     0.037 A 
BRANCH  64  78
ATOM     78  C   UNL     1      13.750  -1.117  -3.588  1.00  0.00     0.064 A 
ATOM     79  C   UNL     1      14.094  -2.471  -3.515  1.00  0.00     0.173 A 
ATOM     80  C   UNL     1      14.742  -0.173  -3.276  1.00  0.00     0.173 A 
ATOM     81  F   UNL     1      13.188  -3.403  -3.839  1.00  0.00    -0.203 F 
ATOM     82  C   UNL     1      15.368  -2.870  -3.119  1.00  0.00     0.198 A 
ATOM     83  C   UNL     1      16.029  -0.573  -2.925  1.00  0.00     0.198 A 
ATOM     84  F   UNL     1      14.475   1.139  -3.360  1.00  0.00    -0.203 F 
ATOM     85  F   UNL     1      15.659  -4.175  -3.016  1.00  0.00    -0.200 F 
ATOM     86  C   UNL     1      16.339  -1.921  -2.838  1.00  0.00     0.200 A 
ATOM     87  F   UNL     1      16.974   0.348  -2.690  1.00  0.00    -0.200 F 
ATOM     88  F   UNL     1      17.575  -2.306  -2.494  1.00  0.00    -0.200 F 
ENDBRANCH  64  78
BRANCH  65  89
ATOM     89  C   UNL     1       4.711   1.510  -6.994  1.00  0.00     0.064 A 
ATOM     90  C   UNL     1       4.159   0.922  -8.141  1.00  0.00     0.173 A 
ATOM     91  C   UNL     1       3.955   2.507  -6.355  1.00  0.00     0.173 A 
ATOM     92  F   UNL     1       4.848  -0.012  -8.813  1.00  0.00    -0.203 F 
ATOM     93  C   UNL     1       2.915   1.321  -8.632  1.00  0.00     0.198 A 
ATOM     94  C   UNL     1       2.693   2.872  -6.819  1.00  0.00     0.198 A 
ATOM     95  F   UNL     1       4.433   3.118  -5.260  1.00  0.00    -0.203 F 
ATOM     96  F   UNL     1       2.438   0.780  -9.761  1.00  0.00    -0.200 F 
ATOM     97  C   UNL     1       2.178   2.286  -7.963  1.00  0.00     0.200 A 
ATOM     98  F   UNL     1       1.978   3.792  -6.157  1.00  0.00    -0.200 F 
ATOM     99  F   UNL     1       0.977   2.659  -8.428  1.00  0.00    -0.200 F 
ENDBRANCH  65  89
BRANCH  77 100
ATOM    100  C   UNL     1      11.198   1.940  -9.546  1.00  0.00     0.064 A 
ATOM    101  C   UNL     1      11.248   3.317  -9.801  1.00  0.00     0.173 A 
ATOM    102  C   UNL     1      11.784   1.073 -10.482  1.00  0.00     0.173 A 
ATOM    103  F   UNL     1      10.691   4.184  -8.941  1.00  0.00    -0.203 F 
ATOM    104  C   UNL     1      11.856   3.808 -10.952  1.00  0.00     0.198 A 
ATOM    105  C   UNL     1      12.423   1.570 -11.613  1.00  0.00     0.198 A 
ATOM    106  F   UNL     1      11.772  -0.253 -10.277  1.00  0.00    -0.203 F 
ATOM    107  F   UNL     1      11.863   5.126 -11.193  1.00  0.00    -0.200 F 
ATOM    108  C   UNL     1      12.455   2.936 -11.849  1.00  0.00     0.200 A 
ATOM    109  F   UNL     1      13.023   0.727 -12.465  1.00  0.00    -0.200 F 
ATOM    110  F   UNL     1      13.066   3.413 -12.942  1.00  0.00    -0.200 F 
ENDBRANCH  77 100
ENDBRANCH  51  52
ENDBRANCH  44  46
ENDBRANCH  43  44
ENDBRANCH  42  43
ENDBRANCH  41  42
ENDBRANCH  40  41
ENDBRANCH  39  40
ENDBRANCH   1  39
TORSDOF 21
