REMARK SMILES Cc1cc(C(=O)Nc2nc(CC(=O)OCCOCCOCCOC(=O)c3ccc(-c4c5nc(c(-c6c(F)c(F)c(F)c(F)c6F)c6ccc([nH]6)c(-c6c(F)c(F)c(F)c(F)c6F)c6nc(c(-c7c(F)c(F)c(F)c(F)c7F)c7ccc4[nH]7)C=C6)C=C5)cc3)cs2)sc1C
REMARK SMILES IDX 18 1 17 2 16 3 15 4 14 5 12 6 13 7 11 8 10 9 8 10 9 11 90 12
REMARK SMILES IDX 89 13 7 14 5 15 6 16 4 18 1 19 2 20 3 21 92 22 91 23 93 24
REMARK SMILES IDX 19 25 20 26 21 27 22 28 23 29 24 30 25 31 26 32 27 33 88 34
REMARK SMILES IDX 28 35 87 36 29 37 30 38 31 39 81 40 32 41 86 42 80 43 82 44
REMARK SMILES IDX 33 45 85 46 79 47 78 48 34 50 66 51 46 52 65 53 47 54 50 55
REMARK SMILES IDX 64 56 83 57 48 58 49 59 63 61 84 62 51 63 35 64 36 65 44 66
REMARK SMILES IDX 37 67 38 68 42 69 45 70 39 71 40 72 43 73 41 74 67 75 68 76
REMARK SMILES IDX 76 77 69 78 70 79 74 80 77 81 71 82 72 83 75 84 73 85 52 86
REMARK SMILES IDX 53 87 61 88 54 89 55 90 59 91 62 92 56 93 57 94 60 95 58 96
REMARK H PARENT 7 17 82 49 50 60
REMARK Flexibility Score: inf
ROOT
ATOM      1  C   UNL     1       6.661   4.411   1.573  1.00  0.00     0.188 C 
ENDROOT
BRANCH   1   2
ATOM      2  O   UNL     1       7.126   4.783   2.865  1.00  0.00    -0.376 OA
BRANCH   2   3
ATOM      3  C   UNL     1       7.105   3.825   3.919  1.00  0.00     0.202 C 
BRANCH   3   4
ATOM      4  C   UNL     1       5.738   3.265   4.345  1.00  0.00     0.261 C 
BRANCH   4   5
ATOM      5  O   UNL     1       5.013   2.525   3.329  1.00  0.00    -0.463 OA
BRANCH   5   6
ATOM      6  C   UNL     1       3.769   2.974   3.022  1.00  0.00     0.311 C 
ATOM      7  O   UNL     1       3.248   3.942   3.576  1.00  0.00    -0.252 OA
BRANCH   6   8
ATOM      8  C   UNL     1       3.031   2.273   1.899  1.00  0.00     0.179 C 
BRANCH   8   9
ATOM      9  C   UNL     1       3.649   1.139   1.134  1.00  0.00     0.065 A 
ATOM     10  C   UNL     1       3.682  -0.963   0.462  1.00  0.00     0.189 A 
ATOM     11  N   UNL     1       3.220  -0.160   1.391  1.00  0.00    -0.224 NA
ATOM     12  S   UNL     1       4.865  -0.320  -0.581  1.00  0.00    -0.105 S 
ATOM     13  C   UNL     1       4.371   1.236  -0.048  1.00  0.00     0.093 A 
BRANCH  10  14
ATOM     14  N   UNL     1       3.212  -2.178   0.073  1.00  0.00    -0.297 N 
ATOM     15  C   UNL     1       1.879  -2.522  -0.005  1.00  0.00     0.267 C 
ATOM     16  O   UNL     1       1.631  -3.728  -0.113  1.00  0.00    -0.268 OA
ATOM     17  H   UNL     1       3.874  -2.865  -0.172  1.00  0.00     0.172 HD
BRANCH  15  18
ATOM     18  C   UNL     1       0.808  -1.521  -0.080  1.00  0.00     0.093 A 
ATOM     19  C   UNL     1      -2.817  -0.513   0.222  1.00  0.00     0.045 C 
ATOM     20  C   UNL     1      -1.339  -0.542   0.032  1.00  0.00    -0.037 A 
ATOM     21  C   UNL     1      -0.539  -1.730   0.164  1.00  0.00     0.029 A 
ATOM     22  C   UNL     1      -0.540   0.549  -0.259  1.00  0.00     0.005 A 
ATOM     23  S   UNL     1       1.000   0.036  -0.776  1.00  0.00    -0.135 S 
ATOM     24  C   UNL     1      -0.874   2.003  -0.265  1.00  0.00     0.056 C 
ENDBRANCH  15  18
ENDBRANCH  10  14
ENDBRANCH   8   9
ENDBRANCH   6   8
ENDBRANCH   5   6
ENDBRANCH   4   5
ENDBRANCH   3   4
ENDBRANCH   2   3
ENDBRANCH   1   2
BRANCH   1  25
ATOM     25  C   UNL     1       6.812   2.957   1.127  1.00  0.00     0.188 C 
BRANCH  25  26
ATOM     26  O   UNL     1       7.845   2.263   1.786  1.00  0.00    -0.376 OA
BRANCH  26  27
ATOM     27  C   UNL     1       8.775   1.578   0.977  1.00  0.00     0.202 C 
BRANCH  27  28
ATOM     28  C   UNL     1       9.712   2.517   0.208  1.00  0.00     0.261 C 
BRANCH  28  29
ATOM     29  O   UNL     1       9.068   3.528  -0.597  1.00  0.00    -0.460 OA
BRANCH  29  30
ATOM     30  C   UNL     1       8.448   3.127  -1.728  1.00  0.00     0.338 C 
ATOM     31  O   UNL     1       8.358   1.983  -2.152  1.00  0.00    -0.246 OA
BRANCH  30  32
ATOM     32  C   UNL     1       7.686   4.279  -2.262  1.00  0.00     0.060 A 
ATOM     33  C   UNL     1       6.289   4.201  -2.337  1.00  0.00     0.016 A 
ATOM     34  C   UNL     1       8.339   5.444  -2.665  1.00  0.00     0.016 A 
ATOM     35  C   UNL     1       5.538   5.291  -2.785  1.00  0.00     0.010 A 
ATOM     36  C   UNL     1       7.589   6.525  -3.146  1.00  0.00     0.010 A 
ATOM     37  C   UNL     1       6.185   6.458  -3.209  1.00  0.00    -0.014 A 
BRANCH  37  38
ATOM     38  C   UNL     1       5.417   7.584  -3.801  1.00  0.00     0.031 A 
ATOM     39  C   UNL     1       5.416   7.766  -5.293  1.00  0.00     0.074 A 
ATOM     40  C   UNL     1       4.745   8.450  -3.020  1.00  0.00     0.049 A 
ATOM     41  N   UNL     1       4.965   8.763  -6.010  1.00  0.00    -0.248 NA
ATOM     42  C   UNL     1       6.004   6.672  -6.083  1.00  0.00     0.031 C 
ATOM     43  C   UNL     1       4.610   8.350  -1.568  1.00  0.00     0.029 A 
ATOM     44  N   UNL     1       4.069   9.603  -3.341  1.00  0.00    -0.354 N 
ATOM     45  C   UNL     1       5.225   8.425  -7.332  1.00  0.00     0.074 A 
ATOM     46  C   UNL     1       5.889   7.139  -7.318  1.00  0.00     0.031 C 
ATOM     47  C   UNL     1       3.921   9.414  -1.120  1.00  0.00     0.029 A 
ATOM     48  C   UNL     1       3.615  10.296  -2.244  1.00  0.00     0.049 A 
ATOM     49  H   UNL     1       3.924   9.904  -4.268  1.00  0.00     0.167 HD
ATOM     50  C   UNL     1       4.932   9.126  -8.453  1.00  0.00     0.037 A 
ATOM     51  C   UNL     1       3.063  11.523  -2.155  1.00  0.00     0.037 A 
ATOM     52  C   UNL     1       4.273  10.406  -8.463  1.00  0.00     0.049 A 
ATOM     53  C   UNL     1       2.858  12.335  -3.411  1.00  0.00     0.074 A 
ATOM     54  C   UNL     1       3.929  11.191  -9.550  1.00  0.00     0.029 A 
ATOM     55  N   UNL     1       3.865  11.094  -7.329  1.00  0.00    -0.354 N 
ATOM     56  N   UNL     1       3.098  12.010  -4.659  1.00  0.00    -0.248 NA
ATOM     57  C   UNL     1       2.312  13.691  -3.245  1.00  0.00     0.031 C 
ATOM     58  C   UNL     1       3.366  12.379  -9.072  1.00  0.00     0.029 A 
ATOM     59  C   UNL     1       3.304  12.309  -7.690  1.00  0.00     0.049 A 
ATOM     60  H   UNL     1       3.960  10.767  -6.405  1.00  0.00     0.167 HD
ATOM     61  C   UNL     1       2.712  13.106  -5.421  1.00  0.00     0.074 A 
ATOM     62  C   UNL     1       2.197  14.096  -4.501  1.00  0.00     0.031 C 
ATOM     63  C   UNL     1       2.786  13.282  -6.764  1.00  0.00     0.037 A 
BRANCH  50  64
ATOM     64  C   UNL     1       5.343   8.541  -9.773  1.00  0.00     0.064 A 
ATOM     65  C   UNL     1       4.684   7.432 -10.324  1.00  0.00     0.173 A 
ATOM     66  C   UNL     1       6.359   9.144 -10.530  1.00  0.00     0.173 A 
ATOM     67  F   UNL     1       3.714   6.812  -9.636  1.00  0.00    -0.203 F 
ATOM     68  C   UNL     1       5.038   6.940 -11.578  1.00  0.00     0.198 A 
ATOM     69  C   UNL     1       6.690   8.668 -11.796  1.00  0.00     0.198 A 
ATOM     70  F   UNL     1       7.017  10.211 -10.051  1.00  0.00    -0.203 F 
ATOM     71  F   UNL     1       4.418   5.859 -12.071  1.00  0.00    -0.200 F 
ATOM     72  C   UNL     1       6.033   7.564 -12.317  1.00  0.00     0.200 A 
ATOM     73  F   UNL     1       7.641   9.282 -12.514  1.00  0.00    -0.200 F 
ATOM     74  F   UNL     1       6.359   7.101 -13.531  1.00  0.00    -0.200 F 
ENDBRANCH  50  64
BRANCH  51  75
ATOM     75  C   UNL     1       2.716  12.102  -0.826  1.00  0.00     0.064 A 
ATOM     76  C   UNL     1       1.388  12.406  -0.493  1.00  0.00     0.173 A 
ATOM     77  C   UNL     1       3.710  12.423   0.111  1.00  0.00     0.173 A 
ATOM     78  F   UNL     1       0.404  12.149  -1.367  1.00  0.00    -0.203 F 
ATOM     79  C   UNL     1       1.073  13.038   0.709  1.00  0.00     0.198 A 
ATOM     80  C   UNL     1       3.389  13.021   1.328  1.00  0.00     0.198 A 
ATOM     81  F   UNL     1       4.998  12.164  -0.158  1.00  0.00    -0.203 F 
ATOM     82  F   UNL     1      -0.196  13.383   0.968  1.00  0.00    -0.200 F 
ATOM     83  C   UNL     1       2.073  13.341   1.621  1.00  0.00     0.200 A 
ATOM     84  F   UNL     1       4.358  13.302   2.210  1.00  0.00    -0.200 F 
ATOM     85  F   UNL     1       1.769  13.956   2.772  1.00  0.00    -0.200 F 
ENDBRANCH  51  75
BRANCH  63  86
ATOM     86  C   UNL     1       2.272  14.579  -7.324  1.00  0.00     0.064 A 
ATOM     87  C   UNL     1       2.955  15.787  -7.123  1.00  0.00     0.173 A 
ATOM     88  C   UNL     1       1.109  14.606  -8.110  1.00  0.00     0.173 A 
ATOM     89  F   UNL     1       4.063  15.819  -6.368  1.00  0.00    -0.203 F 
ATOM     90  C   UNL     1       2.479  16.978  -7.667  1.00  0.00     0.198 A 
ATOM     91  C   UNL     1       0.656  15.792  -8.680  1.00  0.00     0.198 A 
ATOM     92  F   UNL     1       0.422  13.477  -8.340  1.00  0.00    -0.203 F 
ATOM     93  F   UNL     1       3.121  18.128  -7.420  1.00  0.00    -0.200 F 
ATOM     94  C   UNL     1       1.336  16.978  -8.452  1.00  0.00     0.200 A 
ATOM     95  F   UNL     1      -0.440  15.786  -9.452  1.00  0.00    -0.200 F 
ATOM     96  F   UNL     1       0.886  18.123  -8.983  1.00  0.00    -0.200 F 
ENDBRANCH  63  86
ENDBRANCH  37  38
ENDBRANCH  30  32
ENDBRANCH  29  30
ENDBRANCH  28  29
ENDBRANCH  27  28
ENDBRANCH  26  27
ENDBRANCH  25  26
ENDBRANCH   1  25
TORSDOF 20
