REMARK SMILES CN(Cc1ccc(C(=O)OCCOCCOCCOC(=O)c2ccc(-c3c4nc(c(-c5c(F)c(F)c(F)c(F)c5F)c5ccc([nH]5)c(-c5c(F)c(F)c(F)c(F)c5F)c5nc(c(-c6c(F)c(F)c(F)c(F)c6F)c6ccc3[nH]6)C=C5)C=C4)cc2)cc1)c1ccccc1N
REMARK SMILES IDX 14 1 13 2 12 3 11 4 10 5 8 6 9 7 7 8 4 9 5 10 86 11 6 12
REMARK SMILES IDX 85 13 3 14 2 15 1 16 87 17 88 18 92 19 89 20 91 21 90 22
REMARK SMILES IDX 93 23 15 26 16 27 17 28 18 29 19 30 20 31 21 32 22 33 23 34
REMARK SMILES IDX 84 35 24 36 83 37 25 38 26 39 27 40 77 41 28 42 82 43 76 44
REMARK SMILES IDX 78 45 29 46 81 47 75 48 74 49 30 51 62 52 42 53 61 54 43 55
REMARK SMILES IDX 46 56 60 57 79 58 44 59 45 60 59 62 80 63 47 64 31 65 32 66
REMARK SMILES IDX 40 67 33 68 34 69 38 70 41 71 35 72 36 73 39 74 37 75 63 76
REMARK SMILES IDX 64 77 72 78 65 79 66 80 70 81 73 82 67 83 68 84 71 85 69 86
REMARK SMILES IDX 48 87 49 88 57 89 50 90 51 91 55 92 58 93 52 94 53 95 56 96
REMARK SMILES IDX 54 97
REMARK H PARENT 93 24 93 25 78 50 46 61
REMARK Flexibility Score: inf
ROOT
ATOM      1  C   UNL     1      -7.324  -3.001  -0.596  1.00  0.00     0.188 C 
ENDROOT
BRANCH   1   2
ATOM      2  O   UNL     1      -8.290  -3.454  -1.527  1.00  0.00    -0.376 OA
BRANCH   2   3
ATOM      3  C   UNL     1      -8.027  -4.590  -2.336  1.00  0.00     0.202 C 
BRANCH   3   4
ATOM      4  C   UNL     1      -6.710  -4.725  -3.103  1.00  0.00     0.261 C 
BRANCH   4   5
ATOM      5  O   UNL     1      -5.548  -4.562  -2.282  1.00  0.00    -0.460 OA
BRANCH   5   6
ATOM      6  C   UNL     1      -4.773  -3.497  -2.609  1.00  0.00     0.338 C 
ATOM      7  O   UNL     1      -4.918  -2.748  -3.550  1.00  0.00    -0.246 OA
BRANCH   6   8
ATOM      8  C   UNL     1      -3.786  -3.240  -1.537  1.00  0.00     0.060 A 
ATOM      9  C   UNL     1      -1.661  -2.580   0.140  1.00  0.00    -0.029 A 
ATOM     10  C   UNL     1      -2.527  -1.574  -0.317  1.00  0.00     0.006 A 
ATOM     11  C   UNL     1      -1.977  -3.930  -0.105  1.00  0.00     0.006 A 
ATOM     12  C   UNL     1      -3.572  -1.903  -1.177  1.00  0.00     0.016 A 
ATOM     13  C   UNL     1      -3.040  -4.263  -0.948  1.00  0.00     0.016 A 
BRANCH   9  14
ATOM     14  C   UNL     1      -0.290  -2.207   0.670  1.00  0.00     0.151 C 
BRANCH  14  15
ATOM     15  N   UNL     1       0.509  -1.470  -0.323  1.00  0.00    -0.369 N 
ATOM     16  C   UNL     1       0.722  -0.040  -0.156  1.00  0.00     0.144 C 
BRANCH  15  17
ATOM     17  C   UNL     1       0.963  -2.062  -1.506  1.00  0.00     0.060 A 
ATOM     18  C   UNL     1       0.058  -2.577  -2.452  1.00  0.00     0.028 A 
ATOM     19  C   UNL     1       2.337  -2.142  -1.838  1.00  0.00     0.055 A 
ATOM     20  C   UNL     1       0.461  -3.185  -3.641  1.00  0.00     0.002 A 
ATOM     21  C   UNL     1       2.735  -2.693  -3.070  1.00  0.00     0.027 A 
ATOM     22  C   UNL     1       1.806  -3.241  -3.953  1.00  0.00     0.002 A 
BRANCH  19  23
ATOM     23  N   UNL     1       3.315  -1.587  -1.009  1.00  0.00    -0.397 N 
ATOM     24  H   UNL     1       3.062  -1.196  -0.142  1.00  0.00     0.156 HD
ATOM     25  H   UNL     1       4.258  -1.588  -1.292  1.00  0.00     0.156 HD
ENDBRANCH  19  23
ENDBRANCH  15  17
ENDBRANCH  14  15
ENDBRANCH   9  14
ENDBRANCH   6   8
ENDBRANCH   5   6
ENDBRANCH   4   5
ENDBRANCH   3   4
ENDBRANCH   2   3
ENDBRANCH   1   2
BRANCH   1  26
ATOM     26  C   UNL     1      -6.697  -3.961   0.437  1.00  0.00     0.188 C 
BRANCH  26  27
ATOM     27  O   UNL     1      -7.077  -5.315   0.470  1.00  0.00    -0.376 OA
BRANCH  27  28
ATOM     28  C   UNL     1      -8.365  -5.711   0.903  1.00  0.00     0.202 C 
BRANCH  28  29
ATOM     29  C   UNL     1      -9.296  -4.876   1.798  1.00  0.00     0.261 C 
BRANCH  29  30
ATOM     30  O   UNL     1      -9.151  -3.458   1.758  1.00  0.00    -0.460 OA
BRANCH  30  31
ATOM     31  C   UNL     1      -8.627  -2.903   2.880  1.00  0.00     0.338 C 
ATOM     32  O   UNL     1      -8.250  -3.476   3.887  1.00  0.00    -0.246 OA
BRANCH  31  33
ATOM     33  C   UNL     1      -8.417  -1.465   2.651  1.00  0.00     0.060 A 
ATOM     34  C   UNL     1      -7.107  -0.971   2.673  1.00  0.00     0.016 A 
ATOM     35  C   UNL     1      -9.501  -0.607   2.474  1.00  0.00     0.016 A 
ATOM     36  C   UNL     1      -6.877   0.398   2.547  1.00  0.00     0.010 A 
ATOM     37  C   UNL     1      -9.273   0.768   2.366  1.00  0.00     0.010 A 
ATOM     38  C   UNL     1      -7.963   1.277   2.434  1.00  0.00    -0.014 A 
BRANCH  38  39
ATOM     39  C   UNL     1      -7.740   2.736   2.566  1.00  0.00     0.031 A 
ATOM     40  C   UNL     1      -7.945   3.377   3.910  1.00  0.00     0.074 A 
ATOM     41  C   UNL     1      -7.349   3.477   1.516  1.00  0.00     0.049 A 
ATOM     42  N   UNL     1      -7.845   4.634   4.258  1.00  0.00    -0.248 NA
ATOM     43  C   UNL     1      -8.315   2.474   5.011  1.00  0.00     0.031 C 
ATOM     44  C   UNL     1      -7.085   2.968   0.172  1.00  0.00     0.029 A 
ATOM     45  N   UNL     1      -7.115   4.827   1.419  1.00  0.00    -0.354 N 
ATOM     46  C   UNL     1      -8.142   4.674   5.613  1.00  0.00     0.074 A 
ATOM     47  C   UNL     1      -8.457   3.321   6.019  1.00  0.00     0.031 C 
ATOM     48  C   UNL     1      -6.739   3.996  -0.622  1.00  0.00     0.029 A 
ATOM     49  C   UNL     1      -6.785   5.237   0.152  1.00  0.00     0.049 A 
ATOM     50  H   UNL     1      -7.179   5.441   2.185  1.00  0.00     0.167 HD
ATOM     51  C   UNL     1      -8.144   5.741   6.447  1.00  0.00     0.037 A 
ATOM     52  C   UNL     1      -6.566   6.476  -0.329  1.00  0.00     0.037 A 
ATOM     53  C   UNL     1      -7.839   7.087   6.040  1.00  0.00     0.049 A 
ATOM     54  C   UNL     1      -6.647   7.659   0.603  1.00  0.00     0.074 A 
ATOM     55  C   UNL     1      -7.795   8.234   6.814  1.00  0.00     0.029 A 
ATOM     56  N   UNL     1      -7.537   7.469   4.742  1.00  0.00    -0.354 N 
ATOM     57  N   UNL     1      -6.893   7.686   1.891  1.00  0.00    -0.248 NA
ATOM     58  C   UNL     1      -6.414   8.985   0.012  1.00  0.00     0.031 C 
ATOM     59  C   UNL     1      -7.518   9.318   5.974  1.00  0.00     0.029 A 
ATOM     60  C   UNL     1      -7.332   8.839   4.687  1.00  0.00     0.049 A 
ATOM     61  H   UNL     1      -7.476   6.858   3.972  1.00  0.00     0.167 HD
ATOM     62  C   UNL     1      -6.816   9.021   2.269  1.00  0.00     0.074 A 
ATOM     63  C   UNL     1      -6.487   9.773   1.076  1.00  0.00     0.031 C 
ATOM     64  C   UNL     1      -6.998   9.574   3.493  1.00  0.00     0.037 A 
BRANCH  51  65
ATOM     65  C   UNL     1      -8.517   5.495   7.879  1.00  0.00     0.064 A 
ATOM     66  C   UNL     1      -7.664   4.805   8.755  1.00  0.00     0.173 A 
ATOM     67  C   UNL     1      -9.733   5.973   8.387  1.00  0.00     0.173 A 
ATOM     68  F   UNL     1      -6.496   4.314   8.313  1.00  0.00    -0.203 F 
ATOM     69  C   UNL     1      -8.030   4.579  10.079  1.00  0.00     0.198 A 
ATOM     70  C   UNL     1     -10.082   5.771   9.720  1.00  0.00     0.198 A 
ATOM     71  F   UNL     1     -10.583   6.641   7.593  1.00  0.00    -0.203 F 
ATOM     72  F   UNL     1      -7.223   3.873  10.884  1.00  0.00    -0.200 F 
ATOM     73  C   UNL     1      -9.235   5.067  10.562  1.00  0.00     0.200 A 
ATOM     74  F   UNL     1     -11.242   6.253  10.188  1.00  0.00    -0.200 F 
ATOM     75  F   UNL     1      -9.584   4.851  11.838  1.00  0.00    -0.200 F 
ENDBRANCH  51  65
BRANCH  52  76
ATOM     76  C   UNL     1      -6.258   6.670  -1.770  1.00  0.00     0.064 A 
ATOM     77  C   UNL     1      -4.990   7.099  -2.187  1.00  0.00     0.173 A 
ATOM     78  C   UNL     1      -7.231   6.453  -2.757  1.00  0.00     0.173 A 
ATOM     79  F   UNL     1      -4.036   7.348  -1.278  1.00  0.00    -0.203 F 
ATOM     80  C   UNL     1      -4.713   7.322  -3.534  1.00  0.00     0.198 A 
ATOM     81  C   UNL     1      -6.944   6.649  -4.106  1.00  0.00     0.198 A 
ATOM     82  F   UNL     1      -8.461   6.047  -2.410  1.00  0.00    -0.203 F 
ATOM     83  F   UNL     1      -3.509   7.782  -3.900  1.00  0.00    -0.200 F 
ATOM     84  C   UNL     1      -5.688   7.091  -4.493  1.00  0.00     0.200 A 
ATOM     85  F   UNL     1      -7.886   6.418  -5.030  1.00  0.00    -0.200 F 
ATOM     86  F   UNL     1      -5.421   7.307  -5.788  1.00  0.00    -0.200 F 
ENDBRANCH  52  76
BRANCH  64  87
ATOM     87  C   UNL     1      -6.809  11.059   3.618  1.00  0.00     0.064 A 
ATOM     88  C   UNL     1      -7.731  11.970   3.081  1.00  0.00     0.173 A 
ATOM     89  C   UNL     1      -5.710  11.577   4.323  1.00  0.00     0.173 A 
ATOM     90  F   UNL     1      -8.790  11.527   2.388  1.00  0.00    -0.203 F 
ATOM     91  C   UNL     1      -7.546  13.343   3.223  1.00  0.00     0.198 A 
ATOM     92  C   UNL     1      -5.546  12.949   4.489  1.00  0.00     0.198 A 
ATOM     93  F   UNL     1      -4.803  10.750   4.864  1.00  0.00    -0.203 F 
ATOM     94  F   UNL     1      -8.414  14.195   2.660  1.00  0.00    -0.200 F 
ATOM     95  C   UNL     1      -6.459  13.831   3.932  1.00  0.00     0.200 A 
ATOM     96  F   UNL     1      -4.503  13.418   5.188  1.00  0.00    -0.200 F 
ATOM     97  F   UNL     1      -6.287  15.153   4.074  1.00  0.00    -0.200 F 
ENDBRANCH  64  87
ENDBRANCH  38  39
ENDBRANCH  31  33
ENDBRANCH  30  31
ENDBRANCH  29  30
ENDBRANCH  28  29
ENDBRANCH  27  28
ENDBRANCH  26  27
ENDBRANCH   1  26
TORSDOF 21
