REMARK SMILES Cc1oc(C)c(S(=O)(=O)Nn2c(C)ccc2C)c1C(=O)OCCOCCOCCOC(=O)c1ccc(-c2c3nc(c(-c4c(F)c(F)c(F)c(F)c4F)c4ccc([nH]4)c(-c4c(F)c(F)c(F)c(F)c4F)c4nc(c(-c5c(F)c(F)c(F)c(F)c5F)c5ccc2[nH]5)C=C4)C=C3)cc1
REMARK SMILES IDX 25 1 24 2 23 3 22 4 21 5 19 6 20 7 18 8 1 9 2 10 3 11 4 12
REMARK SMILES IDX 6 13 5 14 7 15 8 16 9 17 10 18 11 20 12 21 16 22 13 23 14 24
REMARK SMILES IDX 15 25 17 26 26 27 27 28 28 29 29 30 30 31 31 32 32 33 33 34
REMARK SMILES IDX 34 35 95 36 35 37 94 38 36 39 37 40 38 41 88 42 39 43 93 44
REMARK SMILES IDX 87 45 89 46 40 47 92 48 86 49 85 50 41 52 73 53 53 54 72 55
REMARK SMILES IDX 54 56 57 57 71 58 90 59 55 60 56 61 70 63 91 64 58 65 42 66
REMARK SMILES IDX 43 67 51 68 44 69 45 70 49 71 52 72 46 73 47 74 50 75 48 76
REMARK SMILES IDX 74 77 75 78 83 79 76 80 77 81 81 82 84 83 78 84 79 85 82 86
REMARK SMILES IDX 80 87 59 88 60 89 68 90 61 91 62 92 66 93 69 94 63 95 64 96
REMARK SMILES IDX 67 97 65 98
REMARK H PARENT 10 19 89 51 57 62
REMARK Flexibility Score: inf
ROOT
ATOM      1  C   UNL     1       2.540   3.282  -2.727  1.00  0.00     0.188 C 
ENDROOT
BRANCH   1   2
ATOM      2  O   UNL     1       3.898   3.007  -2.371  1.00  0.00    -0.376 OA
BRANCH   2   3
ATOM      3  C   UNL     1       4.261   3.600  -1.104  1.00  0.00     0.202 C 
BRANCH   3   4
ATOM      4  C   UNL     1       3.956   2.750   0.151  1.00  0.00     0.261 C 
BRANCH   4   5
ATOM      5  O   UNL     1       2.676   2.100   0.076  1.00  0.00    -0.460 OA
BRANCH   5   6
ATOM      6  C   UNL     1       1.833   2.028   1.162  1.00  0.00     0.343 C 
ATOM      7  O   UNL     1       1.946   2.638   2.186  1.00  0.00    -0.246 OA
BRANCH   6   8
ATOM      8  C   UNL     1       0.798   1.032   0.885  1.00  0.00     0.122 A 
ATOM      9  C   UNL     1       2.400  -0.946   0.121  1.00  0.00     0.088 C 
ATOM     10  C   UNL     1       1.131  -0.227   0.393  1.00  0.00     0.117 A 
ATOM     11  O   UNL     1       0.023  -0.957   0.145  1.00  0.00    -0.464 OA
ATOM     12  C   UNL     1      -1.047  -0.212   0.506  1.00  0.00     0.122 A 
ATOM     13  C   UNL     1      -0.639   1.018   1.014  1.00  0.00     0.145 A 
ATOM     14  C   UNL     1      -2.342  -0.900   0.293  1.00  0.00     0.089 C 
BRANCH  13  15
ATOM     15  S   UNL     1      -1.795   2.124   1.658  1.00  0.00     0.279 S 
ATOM     16  O   UNL     1      -2.918   2.030   0.746  1.00  0.00    -0.200 OA
ATOM     17  O   UNL     1      -1.945   1.659   3.021  1.00  0.00    -0.200 OA
BRANCH  15  18
ATOM     18  N   UNL     1      -1.520   3.745   1.748  1.00  0.00    -0.216 N 
ATOM     19  H   UNL     1      -2.118   4.269   2.328  1.00  0.00     0.202 HD
BRANCH  18  20
ATOM     20  N   UNL     1      -0.532   4.430   1.088  1.00  0.00    -0.256 N 
ATOM     21  C   UNL     1      -0.040   4.244  -0.174  1.00  0.00     0.038 A 
ATOM     22  C   UNL     1       0.038   5.543   1.654  1.00  0.00     0.038 A 
ATOM     23  C   UNL     1      -0.655   3.420  -1.252  1.00  0.00     0.067 C 
ATOM     24  C   UNL     1       1.104   5.021  -0.215  1.00  0.00     0.025 A 
ATOM     25  C   UNL     1       1.210   5.763   0.971  1.00  0.00     0.025 A 
ATOM     26  C   UNL     1      -0.499   6.282   2.820  1.00  0.00     0.067 C 
ENDBRANCH  18  20
ENDBRANCH  15  18
ENDBRANCH  13  15
ENDBRANCH   6   8
ENDBRANCH   5   6
ENDBRANCH   4   5
ENDBRANCH   3   4
ENDBRANCH   2   3
ENDBRANCH   1   2
BRANCH   1  27
ATOM     27  C   UNL     1       2.084   2.883  -4.134  1.00  0.00     0.188 C 
BRANCH  27  28
ATOM     28  O   UNL     1       2.813   3.416  -5.236  1.00  0.00    -0.376 OA
BRANCH  28  29
ATOM     29  C   UNL     1       3.143   4.810  -5.232  1.00  0.00     0.202 C 
BRANCH  29  30
ATOM     30  C   UNL     1       2.364   5.678  -6.265  1.00  0.00     0.261 C 
BRANCH  30  31
ATOM     31  O   UNL     1       1.420   6.724  -5.834  1.00  0.00    -0.460 OA
BRANCH  31  32
ATOM     32  C   UNL     1       0.104   6.538  -6.168  1.00  0.00     0.338 C 
ATOM     33  O   UNL     1      -0.401   5.424  -6.263  1.00  0.00    -0.246 OA
BRANCH  32  34
ATOM     34  C   UNL     1      -0.750   7.798  -6.409  1.00  0.00     0.060 A 
ATOM     35  C   UNL     1      -2.029   7.818  -5.877  1.00  0.00     0.016 A 
ATOM     36  C   UNL     1      -0.481   8.864  -7.297  1.00  0.00     0.016 A 
ATOM     37  C   UNL     1      -2.967   8.851  -6.213  1.00  0.00     0.010 A 
ATOM     38  C   UNL     1      -1.491   9.881  -7.702  1.00  0.00     0.010 A 
ATOM     39  C   UNL     1      -2.804   9.901  -7.198  1.00  0.00    -0.014 A 
BRANCH  39  40
ATOM     40  C   UNL     1      -4.171  10.687  -7.717  1.00  0.00     0.031 A 
ATOM     41  C   UNL     1      -5.266   9.725  -7.407  1.00  0.00     0.074 A 
ATOM     42  C   UNL     1      -4.709  11.797  -8.398  1.00  0.00     0.049 A 
ATOM     43  N   UNL     1      -5.237   8.518  -7.898  1.00  0.00    -0.248 NA
ATOM     44  C   UNL     1      -6.208   9.920  -6.303  1.00  0.00     0.031 C 
ATOM     45  C   UNL     1      -4.013  12.940  -9.014  1.00  0.00     0.029 A 
ATOM     46  N   UNL     1      -6.075  12.167  -8.722  1.00  0.00    -0.354 N 
ATOM     47  C   UNL     1      -6.315   7.865  -7.367  1.00  0.00     0.074 A 
ATOM     48  C   UNL     1      -6.773   8.708  -6.273  1.00  0.00     0.031 C 
ATOM     49  C   UNL     1      -4.885  13.874  -9.507  1.00  0.00     0.029 A 
ATOM     50  C   UNL     1      -6.279  13.449  -9.358  1.00  0.00     0.049 A 
ATOM     51  H   UNL     1      -6.830  11.569  -8.518  1.00  0.00     0.167 HD
ATOM     52  C   UNL     1      -7.011   7.059  -8.211  1.00  0.00     0.037 A 
ATOM     53  C   UNL     1      -7.431  14.095  -9.822  1.00  0.00     0.037 A 
ATOM     54  C   UNL     1      -8.288   7.612  -8.550  1.00  0.00     0.049 A 
ATOM     55  C   UNL     1      -8.460  13.076 -10.083  1.00  0.00     0.074 A 
ATOM     56  C   UNL     1      -9.266   8.258  -7.823  1.00  0.00     0.029 A 
ATOM     57  N   UNL     1      -8.465   7.995  -9.864  1.00  0.00    -0.354 N 
ATOM     58  N   UNL     1      -8.419  12.358 -11.162  1.00  0.00    -0.248 NA
ATOM     59  C   UNL     1      -9.691  12.946  -9.304  1.00  0.00     0.031 C 
ATOM     60  C   UNL     1      -9.572   9.403  -8.598  1.00  0.00     0.029 A 
ATOM     61  C   UNL     1      -9.030   9.248  -9.870  1.00  0.00     0.049 A 
ATOM     62  H   UNL     1      -8.228   7.464 -10.658  1.00  0.00     0.167 HD
ATOM     63  C   UNL     1      -9.300  11.363 -10.911  1.00  0.00     0.074 A 
ATOM     64  C   UNL     1     -10.239  11.916  -9.956  1.00  0.00     0.031 C 
ATOM     65  C   UNL     1      -8.790  10.113 -10.998  1.00  0.00     0.037 A 
BRANCH  52  66
ATOM     66  C   UNL     1      -6.148   6.292  -9.173  1.00  0.00     0.064 A 
ATOM     67  C   UNL     1      -6.013   4.912  -9.010  1.00  0.00     0.173 A 
ATOM     68  C   UNL     1      -5.356   6.912 -10.162  1.00  0.00     0.173 A 
ATOM     69  F   UNL     1      -6.790   4.260  -8.132  1.00  0.00    -0.203 F 
ATOM     70  C   UNL     1      -5.077   4.194  -9.754  1.00  0.00     0.198 A 
ATOM     71  C   UNL     1      -4.377   6.208 -10.851  1.00  0.00     0.198 A 
ATOM     72  F   UNL     1      -5.537   8.207 -10.474  1.00  0.00    -0.203 F 
ATOM     73  F   UNL     1      -4.987   2.866  -9.606  1.00  0.00    -0.200 F 
ATOM     74  C   UNL     1      -4.234   4.848 -10.643  1.00  0.00     0.200 A 
ATOM     75  F   UNL     1      -3.580   6.849 -11.718  1.00  0.00    -0.200 F 
ATOM     76  F   UNL     1      -3.303   4.163 -11.319  1.00  0.00    -0.200 F 
ENDBRANCH  52  66
BRANCH  53  77
ATOM     77  C   UNL     1      -7.989  15.447 -10.378  1.00  0.00     0.064 A 
ATOM     78  C   UNL     1      -8.977  15.473 -11.429  1.00  0.00     0.173 A 
ATOM     79  C   UNL     1      -7.947  16.634  -9.634  1.00  0.00     0.173 A 
ATOM     80  F   UNL     1      -9.123  14.445 -12.277  1.00  0.00    -0.203 F 
ATOM     81  C   UNL     1      -9.906  16.511 -11.617  1.00  0.00     0.198 A 
ATOM     82  C   UNL     1      -8.852  17.707  -9.862  1.00  0.00     0.198 A 
ATOM     83  F   UNL     1      -7.097  16.746  -8.606  1.00  0.00    -0.203 F 
ATOM     84  F   UNL     1     -10.889  16.385 -12.525  1.00  0.00    -0.200 F 
ATOM     85  C   UNL     1      -9.852  17.628 -10.821  1.00  0.00     0.200 A 
ATOM     86  F   UNL     1      -8.799  18.802  -9.089  1.00  0.00    -0.200 F 
ATOM     87  F   UNL     1     -10.768  18.601 -10.956  1.00  0.00    -0.200 F 
ENDBRANCH  53  77
BRANCH  65  88
ATOM     88  C   UNL     1      -7.812   9.863 -12.146  1.00  0.00     0.064 A 
ATOM     89  C   UNL     1      -6.687  10.656 -12.496  1.00  0.00     0.173 A 
ATOM     90  C   UNL     1      -8.098   8.806 -13.018  1.00  0.00     0.173 A 
ATOM     91  F   UNL     1      -6.205  11.610 -11.689  1.00  0.00    -0.203 F 
ATOM     92  C   UNL     1      -5.991  10.474 -13.694  1.00  0.00     0.198 A 
ATOM     93  C   UNL     1      -7.358   8.584 -14.183  1.00  0.00     0.198 A 
ATOM     94  F   UNL     1      -9.098   7.959 -12.733  1.00  0.00    -0.203 F 
ATOM     95  F   UNL     1      -4.993  11.308 -14.027  1.00  0.00    -0.200 F 
ATOM     96  C   UNL     1      -6.328   9.438 -14.539  1.00  0.00     0.200 A 
ATOM     97  F   UNL     1      -7.655   7.538 -14.965  1.00  0.00    -0.200 F 
ATOM     98  F   UNL     1      -5.652   9.247 -15.680  1.00  0.00    -0.200 F 
ENDBRANCH  65  88
ENDBRANCH  39  40
ENDBRANCH  32  34
ENDBRANCH  31  32
ENDBRANCH  30  31
ENDBRANCH  29  30
ENDBRANCH  28  29
ENDBRANCH  27  28
ENDBRANCH   1  27
TORSDOF 20
