REMARK SMILES COc1cc([C@@H]2CC(=O)Nc3c(C(=O)OCCOCCOCCOC(=O)c4ccc(-c5c6nc(c(-c7c(F)c(F)c(F)c(F)c7F)c7ccc([nH]7)c(-c7c(F)c(F)c(F)c(F)c7F)c7nc(c(-c8c(F)c(F)c(F)c(F)c8F)c8ccc5[nH]8)C=C7)C=C6)cc4)cn(-c4ccc(F)cc4)c32)c(OC)c2c1OCO2
REMARK SMILES IDX 19 1 18 2 17 3 16 4 15 5 13 6 14 7 12 8 6 9 7 10 99 11 8 12
REMARK SMILES IDX 11 13 91 14 9 15 10 16 90 17 5 19 3 20 4 21 104 22 103 23
REMARK SMILES IDX 105 24 100 25 107 26 106 27 2 28 1 29 101 30 102 31 92 32
REMARK SMILES IDX 93 33 98 34 94 35 97 36 95 37 96 38 20 39 21 40 22 41 23 42
REMARK SMILES IDX 24 43 25 44 26 45 27 46 28 47 89 48 29 49 88 50 30 51 31 52
REMARK SMILES IDX 32 53 82 54 33 55 87 56 81 57 83 58 34 59 86 60 80 61 79 62
REMARK SMILES IDX 35 64 67 65 47 66 66 67 48 68 51 69 65 70 84 71 49 72 50 73
REMARK SMILES IDX 64 75 85 76 52 77 36 78 37 79 45 80 38 81 39 82 43 83 46 84
REMARK SMILES IDX 40 85 41 86 44 87 42 88 68 89 69 90 77 91 70 92 71 93 75 94
REMARK SMILES IDX 78 95 72 96 73 97 76 98 74 99 53 100 54 101 62 102 55 103
REMARK SMILES IDX 56 104 60 105 63 106 57 107 58 108 61 109 59 110
REMARK H PARENT 10 18 83 63 51 74
REMARK Flexibility Score: inf
ROOT
ATOM      1  C   UNL     1      -2.230   0.599 -11.126  1.00  0.00     0.188 C 
ENDROOT
BRANCH   1   2
ATOM      2  O   UNL     1      -1.551   1.018 -12.302  1.00  0.00    -0.376 OA
BRANCH   2   3
ATOM      3  C   UNL     1      -0.291   0.462 -12.658  1.00  0.00     0.202 C 
BRANCH   3   4
ATOM      4  C   UNL     1       0.874   0.372 -11.649  1.00  0.00     0.261 C 
BRANCH   4   5
ATOM      5  O   UNL     1       0.552  -0.149 -10.353  1.00  0.00    -0.460 OA
BRANCH   5   6
ATOM      6  C   UNL     1       0.380   0.785  -9.374  1.00  0.00     0.341 C 
ATOM      7  O   UNL     1       0.610   1.977  -9.507  1.00  0.00    -0.246 OA
BRANCH   6   8
ATOM      8  C   UNL     1      -0.237   0.236  -8.174  1.00  0.00     0.102 A 
ATOM      9  C   UNL     1      -0.648  -2.104  -5.350  1.00  0.00     0.082 C 
ATOM     10  C   UNL     1      -0.481  -3.450  -6.074  1.00  0.00     0.115 C 
ATOM     11  C   UNL     1      -0.757  -1.005  -6.362  1.00  0.00     0.055 A 
ATOM     12  C   UNL     1       0.318  -3.409  -7.374  1.00  0.00     0.225 C 
ATOM     13  C   UNL     1      -0.220  -1.069  -7.627  1.00  0.00     0.078 A 
ATOM     14  N   UNL     1      -1.371   0.218  -6.224  1.00  0.00    -0.317 N 
ATOM     15  O   UNL     1       0.871  -4.419  -7.813  1.00  0.00    -0.275 OA
ATOM     16  N   UNL     1       0.316  -2.243  -8.104  1.00  0.00    -0.324 N 
ATOM     17  C   UNL     1      -1.051   0.978  -7.325  1.00  0.00     0.109 A 
ATOM     18  H   UNL     1       0.714  -2.249  -9.004  1.00  0.00     0.170 HD
BRANCH   9  19
ATOM     19  C   UNL     1       0.458  -1.836  -4.315  1.00  0.00     0.012 A 
ATOM     20  C   UNL     1       0.971  -1.396  -1.952  1.00  0.00     0.165 A 
ATOM     21  C   UNL     1       0.083  -1.814  -2.947  1.00  0.00     0.059 A 
ATOM     22  C   UNL     1       2.264  -1.091  -2.328  1.00  0.00     0.211 A 
ATOM     23  C   UNL     1       2.668  -1.166  -3.647  1.00  0.00     0.211 A 
ATOM     24  O   UNL     1       3.279  -0.706  -1.503  1.00  0.00    -0.449 OA
ATOM     25  C   UNL     1       1.797  -1.533  -4.663  1.00  0.00     0.168 A 
ATOM     26  O   UNL     1       3.982  -0.823  -3.786  1.00  0.00    -0.449 OA
ATOM     27  C   UNL     1       4.374  -0.610  -2.425  1.00  0.00     0.468 C 
BRANCH  20  28
ATOM     28  O   UNL     1       0.469  -1.345  -0.683  1.00  0.00    -0.493 OA
ATOM     29  C   UNL     1       0.852  -0.181   0.045  1.00  0.00     0.278 C 
ENDBRANCH  20  28
BRANCH  25  30
ATOM     30  O   UNL     1       2.116  -1.626  -5.981  1.00  0.00    -0.492 OA
ATOM     31  C   UNL     1       3.424  -1.311  -6.426  1.00  0.00     0.278 C 
ENDBRANCH  25  30
ENDBRANCH   9  19
BRANCH  14  32
ATOM     32  C   UNL     1      -2.180   0.658  -5.160  1.00  0.00     0.046 A 
ATOM     33  C   UNL     1      -1.607   0.856  -3.903  1.00  0.00     0.029 A 
ATOM     34  C   UNL     1      -3.546   0.876  -5.374  1.00  0.00     0.029 A 
ATOM     35  C   UNL     1      -2.417   1.209  -2.827  1.00  0.00     0.041 A 
ATOM     36  C   UNL     1      -4.352   1.230  -4.290  1.00  0.00     0.041 A 
ATOM     37  C   UNL     1      -3.783   1.382  -3.027  1.00  0.00     0.123 A 
ATOM     38  F   UNL     1      -4.562   1.703  -1.987  1.00  0.00    -0.207 F 
ENDBRANCH  14  32
ENDBRANCH   6   8
ENDBRANCH   5   6
ENDBRANCH   4   5
ENDBRANCH   3   4
ENDBRANCH   2   3
ENDBRANCH   1   2
BRANCH   1  39
ATOM     39  C   UNL     1      -2.290  -0.893 -10.727  1.00  0.00     0.188 C 
BRANCH  39  40
ATOM     40  O   UNL     1      -1.383  -1.717 -11.426  1.00  0.00    -0.376 OA
BRANCH  40  41
ATOM     41  C   UNL     1      -1.841  -2.629 -12.412  1.00  0.00     0.202 C 
BRANCH  41  42
ATOM     42  C   UNL     1      -2.914  -2.267 -13.441  1.00  0.00     0.261 C 
BRANCH  42  43
ATOM     43  O   UNL     1      -3.715  -1.142 -13.136  1.00  0.00    -0.460 OA
BRANCH  43  44
ATOM     44  C   UNL     1      -4.799  -1.419 -12.385  1.00  0.00     0.338 C 
ATOM     45  O   UNL     1      -5.051  -2.461 -11.809  1.00  0.00    -0.246 OA
BRANCH  44  46
ATOM     46  C   UNL     1      -5.692  -0.257 -12.412  1.00  0.00     0.060 A 
ATOM     47  C   UNL     1      -6.771  -0.288 -11.529  1.00  0.00     0.016 A 
ATOM     48  C   UNL     1      -5.635   0.625 -13.502  1.00  0.00     0.016 A 
ATOM     49  C   UNL     1      -7.921   0.360 -11.905  1.00  0.00     0.010 A 
ATOM     50  C   UNL     1      -6.789   1.261 -13.885  1.00  0.00     0.010 A 
ATOM     51  C   UNL     1      -7.938   1.019 -13.140  1.00  0.00    -0.014 A 
BRANCH  51  52
ATOM     52  C   UNL     1      -9.234   1.372 -13.666  1.00  0.00     0.031 A 
ATOM     53  C   UNL     1      -9.842   2.563 -13.050  1.00  0.00     0.074 A 
ATOM     54  C   UNL     1      -9.803   0.665 -14.658  1.00  0.00     0.049 A 
ATOM     55  N   UNL     1     -10.928   2.623 -12.357  1.00  0.00    -0.248 NA
ATOM     56  C   UNL     1      -9.083   3.818 -13.114  1.00  0.00     0.031 C 
ATOM     57  C   UNL     1      -9.195  -0.348 -15.525  1.00  0.00     0.029 A 
ATOM     58  N   UNL     1     -11.053   0.799 -15.170  1.00  0.00    -0.354 N 
ATOM     59  C   UNL     1     -11.080   3.961 -12.020  1.00  0.00     0.074 A 
ATOM     60  C   UNL     1      -9.855   4.624 -12.387  1.00  0.00     0.031 C 
ATOM     61  C   UNL     1     -10.000  -0.550 -16.593  1.00  0.00     0.029 A 
ATOM     62  C   UNL     1     -11.216   0.228 -16.420  1.00  0.00     0.049 A 
ATOM     63  H   UNL     1     -11.779   1.262 -14.694  1.00  0.00     0.167 HD
ATOM     64  C   UNL     1     -12.289   4.464 -11.658  1.00  0.00     0.037 A 
ATOM     65  C   UNL     1     -12.233   0.492 -17.277  1.00  0.00     0.037 A 
ATOM     66  C   UNL     1     -13.200   3.428 -11.250  1.00  0.00     0.049 A 
ATOM     67  C   UNL     1     -13.347   1.082 -16.483  1.00  0.00     0.074 A 
ATOM     68  C   UNL     1     -13.183   2.470 -10.254  1.00  0.00     0.029 A 
ATOM     69  N   UNL     1     -14.181   3.032 -12.126  1.00  0.00    -0.354 N 
ATOM     70  N   UNL     1     -14.066   0.416 -15.623  1.00  0.00    -0.248 NA
ATOM     71  C   UNL     1     -13.373   2.531 -16.324  1.00  0.00     0.031 C 
ATOM     72  C   UNL     1     -13.800   1.321 -10.830  1.00  0.00     0.029 A 
ATOM     73  C   UNL     1     -14.187   1.660 -12.126  1.00  0.00     0.049 A 
ATOM     74  H   UNL     1     -14.768   3.621 -12.653  1.00  0.00     0.167 HD
ATOM     75  C   UNL     1     -14.280   1.304 -14.578  1.00  0.00     0.074 A 
ATOM     76  C   UNL     1     -13.915   2.614 -15.106  1.00  0.00     0.031 C 
ATOM     77  C   UNL     1     -14.455   0.863 -13.298  1.00  0.00     0.037 A 
BRANCH  64  78
ATOM     78  C   UNL     1     -12.740   5.856 -11.998  1.00  0.00     0.064 A 
ATOM     79  C   UNL     1     -13.909   6.365 -11.406  1.00  0.00     0.173 A 
ATOM     80  C   UNL     1     -12.235   6.590 -13.094  1.00  0.00     0.173 A 
ATOM     81  F   UNL     1     -14.486   5.727 -10.376  1.00  0.00    -0.203 F 
ATOM     82  C   UNL     1     -14.562   7.487 -11.919  1.00  0.00     0.198 A 
ATOM     83  C   UNL     1     -12.856   7.743 -13.565  1.00  0.00     0.198 A 
ATOM     84  F   UNL     1     -11.195   6.161 -13.820  1.00  0.00    -0.203 F 
ATOM     85  F   UNL     1     -15.740   7.862 -11.404  1.00  0.00    -0.200 F 
ATOM     86  C   UNL     1     -14.037   8.173 -12.999  1.00  0.00     0.200 A 
ATOM     87  F   UNL     1     -12.341   8.382 -14.625  1.00  0.00    -0.200 F 
ATOM     88  F   UNL     1     -14.692   9.213 -13.529  1.00  0.00    -0.200 F 
ENDBRANCH  64  78
BRANCH  65  89
ATOM     89  C   UNL     1     -12.163   0.597 -18.755  1.00  0.00     0.064 A 
ATOM     90  C   UNL     1     -13.336   0.658 -19.524  1.00  0.00     0.173 A 
ATOM     91  C   UNL     1     -10.963   0.909 -19.426  1.00  0.00     0.173 A 
ATOM     92  F   UNL     1     -14.528   0.421 -18.957  1.00  0.00    -0.203 F 
ATOM     93  C   UNL     1     -13.313   1.036 -20.871  1.00  0.00     0.198 A 
ATOM     94  C   UNL     1     -10.938   1.269 -20.773  1.00  0.00     0.198 A 
ATOM     95  F   UNL     1      -9.795   0.967 -18.770  1.00  0.00    -0.203 F 
ATOM     96  F   UNL     1     -14.461   1.151 -21.552  1.00  0.00    -0.200 F 
ATOM     97  C   UNL     1     -12.115   1.349 -21.491  1.00  0.00     0.200 A 
ATOM     98  F   UNL     1      -9.775   1.602 -21.350  1.00  0.00    -0.200 F 
ATOM     99  F   UNL     1     -12.098   1.768 -22.764  1.00  0.00    -0.200 F 
ENDBRANCH  65  89
BRANCH  77 100
ATOM    100  C   UNL     1     -14.680  -0.607 -13.084  1.00  0.00     0.064 A 
ATOM    101  C   UNL     1     -13.744  -1.598 -13.428  1.00  0.00     0.173 A 
ATOM    102  C   UNL     1     -15.819  -1.013 -12.377  1.00  0.00     0.173 A 
ATOM    103  F   UNL     1     -12.578  -1.276 -14.002  1.00  0.00    -0.203 F 
ATOM    104  C   UNL     1     -13.970  -2.940 -13.128  1.00  0.00     0.198 A 
ATOM    105  C   UNL     1     -16.024  -2.349 -12.043  1.00  0.00     0.198 A 
ATOM    106  F   UNL     1     -16.717  -0.103 -11.966  1.00  0.00    -0.203 F 
ATOM    107  F   UNL     1     -13.071  -3.869 -13.484  1.00  0.00    -0.200 F 
ATOM    108  C   UNL     1     -15.107  -3.313 -12.431  1.00  0.00     0.200 A 
ATOM    109  F   UNL     1     -17.098  -2.699 -11.322  1.00  0.00    -0.200 F 
ATOM    110  F   UNL     1     -15.306  -4.599 -12.107  1.00  0.00    -0.200 F 
ENDBRANCH  77 100
ENDBRANCH  51  52
ENDBRANCH  44  46
ENDBRANCH  43  44
ENDBRANCH  42  43
ENDBRANCH  41  42
ENDBRANCH  40  41
ENDBRANCH  39  40
ENDBRANCH   1  39
TORSDOF 21
