REMARK SMILES COC1=CC2=NC(C(=O)OCCOCCOCCOC(=O)c3ccc(-c4c5nc(c(-c6c(F)c(F)c(F)c(F)c6F)c6ccc([nH]6)c(-c6c(F)c(F)c(F)c(F)c6F)c6nc(c(-c7c(F)c(F)c(F)c(F)c7F)c7ccc4[nH]7)C=C6)C=C5)cc3)=C[C@@H]2C(OC)=C1
REMARK SMILES IDX 15 1 14 2 13 3 12 4 11 5 10 6 8 7 9 8 7 9 3 10 4 11 90 12
REMARK SMILES IDX 5 13 87 14 6 15 86 16 85 17 2 18 1 19 88 20 89 21 16 22
REMARK SMILES IDX 17 23 18 24 19 25 20 26 21 27 22 28 23 29 84 30 24 31 83 32
REMARK SMILES IDX 25 33 26 34 27 35 77 36 28 37 82 38 76 39 78 40 29 41 81 42
REMARK SMILES IDX 75 43 74 44 30 46 62 47 42 48 61 49 43 50 46 51 60 52 79 53
REMARK SMILES IDX 44 54 45 55 59 57 80 58 47 59 31 60 32 61 40 62 33 63 34 64
REMARK SMILES IDX 38 65 41 66 35 67 36 68 39 69 37 70 63 71 64 72 72 73 65 74
REMARK SMILES IDX 66 75 70 76 73 77 67 78 68 79 71 80 69 81 48 82 49 83 57 84
REMARK SMILES IDX 50 85 51 86 55 87 58 88 52 89 53 90 56 91 54 92
REMARK H PARENT 78 45 46 56
REMARK Flexibility Score: inf
ROOT
ATOM      1  C   UNL     1       2.275   6.807   4.002  1.00  0.00     0.188 C 
ENDROOT
BRANCH   1   2
ATOM      2  C   UNL     1       1.105   7.576   4.649  1.00  0.00     0.188 C 
BRANCH   2   3
ATOM      3  O   UNL     1       1.497   8.494   5.655  1.00  0.00    -0.376 OA
BRANCH   3   4
ATOM      4  C   UNL     1       1.071   8.174   6.976  1.00  0.00     0.202 C 
BRANCH   4   5
ATOM      5  C   UNL     1       1.625   6.890   7.627  1.00  0.00     0.261 C 
BRANCH   5   6
ATOM      6  O   UNL     1       1.719   5.733   6.781  1.00  0.00    -0.459 OA
BRANCH   6   7
ATOM      7  C   UNL     1       0.609   4.964   6.651  1.00  0.00     0.356 C 
ATOM      8  O   UNL     1      -0.460   5.167   7.206  1.00  0.00    -0.244 OA
BRANCH   7   9
ATOM      9  C   UNL     1       0.849   3.902   5.620  1.00  0.00     0.145 C 
ATOM     10  C   UNL     1       0.950   1.865   1.713  1.00  0.00     0.124 C 
ATOM     11  C   UNL     1       0.014   2.319   2.560  1.00  0.00     0.071 C 
ATOM     12  C   UNL     1       2.370   1.881   2.039  1.00  0.00     0.089 C 
ATOM     13  C   UNL     1       0.501   2.750   3.881  1.00  0.00     0.060 C 
ATOM     14  C   UNL     1       2.809   2.039   3.307  1.00  0.00     0.112 C 
ATOM     15  N   UNL     1      -0.085   3.628   4.637  1.00  0.00    -0.245 NA
ATOM     16  C   UNL     1       1.800   2.167   4.416  1.00  0.00     0.129 C 
ATOM     17  C   UNL     1       1.982   3.190   5.489  1.00  0.00     0.027 C 
BRANCH  10  18
ATOM     18  O   UNL     1       0.610   1.517   0.421  1.00  0.00    -0.497 OA
ATOM     19  C   UNL     1       0.895   0.148   0.127  1.00  0.00     0.278 C 
ENDBRANCH  10  18
BRANCH  14  20
ATOM     20  O   UNL     1       4.121   1.983   3.729  1.00  0.00    -0.500 OA
ATOM     21  C   UNL     1       5.094   1.528   2.792  1.00  0.00     0.278 C 
ENDBRANCH  14  20
ENDBRANCH   7   9
ENDBRANCH   6   7
ENDBRANCH   5   6
ENDBRANCH   4   5
ENDBRANCH   3   4
ENDBRANCH   2   3
ENDBRANCH   1   2
BRANCH   1  22
ATOM     22  O   UNL     1       3.576   6.807   4.581  1.00  0.00    -0.376 OA
BRANCH  22  23
ATOM     23  C   UNL     1       4.156   8.003   5.088  1.00  0.00     0.202 C 
BRANCH  23  24
ATOM     24  C   UNL     1       4.352   9.204   4.164  1.00  0.00     0.261 C 
BRANCH  24  25
ATOM     25  O   UNL     1       3.172   9.615   3.482  1.00  0.00    -0.460 OA
BRANCH  25  26
ATOM     26  C   UNL     1       3.109   9.199   2.198  1.00  0.00     0.338 C 
ATOM     27  O   UNL     1       3.887   8.456   1.628  1.00  0.00    -0.246 OA
BRANCH  26  28
ATOM     28  C   UNL     1       1.965   9.829   1.520  1.00  0.00     0.060 A 
ATOM     29  C   UNL     1       1.706   9.394   0.218  1.00  0.00     0.016 A 
ATOM     30  C   UNL     1       1.329  10.960   2.053  1.00  0.00     0.016 A 
ATOM     31  C   UNL     1       0.986  10.214  -0.623  1.00  0.00     0.010 A 
ATOM     32  C   UNL     1       0.606  11.784   1.207  1.00  0.00     0.010 A 
ATOM     33  C   UNL     1       0.532  11.448  -0.143  1.00  0.00    -0.014 A 
BRANCH  33  34
ATOM     34  C   UNL     1       0.134  12.415  -1.150  1.00  0.00     0.031 A 
ATOM     35  C   UNL     1      -1.172  12.212  -1.802  1.00  0.00     0.074 A 
ATOM     36  C   UNL     1       0.942  13.429  -1.511  1.00  0.00     0.049 A 
ATOM     37  N   UNL     1      -1.403  11.950  -3.048  1.00  0.00    -0.248 NA
ATOM     38  C   UNL     1      -2.368  12.276  -0.956  1.00  0.00     0.031 C 
ATOM     39  C   UNL     1       2.129  13.928  -0.813  1.00  0.00     0.029 A 
ATOM     40  N   UNL     1       0.812  14.280  -2.570  1.00  0.00    -0.354 N 
ATOM     41  C   UNL     1      -2.785  11.961  -3.183  1.00  0.00     0.074 A 
ATOM     42  C   UNL     1      -3.333  12.080  -1.854  1.00  0.00     0.031 C 
ATOM     43  C   UNL     1       2.500  15.106  -1.361  1.00  0.00     0.029 A 
ATOM     44  C   UNL     1       1.664  15.368  -2.522  1.00  0.00     0.049 A 
ATOM     45  H   UNL     1       0.171  14.132  -3.303  1.00  0.00     0.167 HD
ATOM     46  C   UNL     1      -3.386  12.057  -4.397  1.00  0.00     0.037 A 
ATOM     47  C   UNL     1       1.650  16.441  -3.344  1.00  0.00     0.037 A 
ATOM     48  C   UNL     1      -2.507  11.708  -5.478  1.00  0.00     0.049 A 
ATOM     49  C   UNL     1       0.950  16.066  -4.594  1.00  0.00     0.074 A 
ATOM     50  C   UNL     1      -1.848  10.560  -5.868  1.00  0.00     0.029 A 
ATOM     51  N   UNL     1      -1.964  12.724  -6.221  1.00  0.00    -0.354 N 
ATOM     52  N   UNL     1       1.435  15.266  -5.502  1.00  0.00    -0.248 NA
ATOM     53  C   UNL     1      -0.475  16.342  -4.706  1.00  0.00     0.031 C 
ATOM     54  C   UNL     1      -0.664  11.001  -6.528  1.00  0.00     0.029 A 
ATOM     55  C   UNL     1      -0.661  12.395  -6.493  1.00  0.00     0.049 A 
ATOM     56  H   UNL     1      -2.427  13.544  -6.507  1.00  0.00     0.167 HD
ATOM     57  C   UNL     1       0.327  14.628  -6.036  1.00  0.00     0.074 A 
ATOM     58  C   UNL     1      -0.812  15.434  -5.625  1.00  0.00     0.031 C 
ATOM     59  C   UNL     1       0.418  13.354  -6.517  1.00  0.00     0.037 A 
BRANCH  46  60
ATOM     60  C   UNL     1      -4.693  12.762  -4.619  1.00  0.00     0.064 A 
ATOM     61  C   UNL     1      -5.410  12.556  -5.811  1.00  0.00     0.173 A 
ATOM     62  C   UNL     1      -5.120  13.843  -3.819  1.00  0.00     0.173 A 
ATOM     63  F   UNL     1      -5.051  11.584  -6.663  1.00  0.00    -0.203 F 
ATOM     64  C   UNL     1      -6.460  13.396  -6.189  1.00  0.00     0.198 A 
ATOM     65  C   UNL     1      -6.202  14.646  -4.173  1.00  0.00     0.198 A 
ATOM     66  F   UNL     1      -4.441  14.222  -2.728  1.00  0.00    -0.203 F 
ATOM     67  F   UNL     1      -7.049  13.229  -7.381  1.00  0.00    -0.200 F 
ATOM     68  C   UNL     1      -6.856  14.438  -5.369  1.00  0.00     0.200 A 
ATOM     69  F   UNL     1      -6.555  15.666  -3.379  1.00  0.00    -0.200 F 
ATOM     70  F   UNL     1      -7.833  15.271  -5.753  1.00  0.00    -0.200 F 
ENDBRANCH  46  60
BRANCH  47  71
ATOM     71  C   UNL     1       2.022  17.833  -3.020  1.00  0.00     0.064 A 
ATOM     72  C   UNL     1       2.361  18.753  -4.022  1.00  0.00     0.173 A 
ATOM     73  C   UNL     1       1.813  18.355  -1.728  1.00  0.00     0.173 A 
ATOM     74  F   UNL     1       2.527  18.343  -5.288  1.00  0.00    -0.203 F 
ATOM     75  C   UNL     1       2.473  20.119  -3.749  1.00  0.00     0.198 A 
ATOM     76  C   UNL     1       1.938  19.715  -1.454  1.00  0.00     0.198 A 
ATOM     77  F   UNL     1       1.397  17.566  -0.726  1.00  0.00    -0.203 F 
ATOM     78  F   UNL     1       2.743  20.978  -4.742  1.00  0.00    -0.200 F 
ATOM     79  C   UNL     1       2.257  20.599  -2.467  1.00  0.00     0.200 A 
ATOM     80  F   UNL     1       1.692  20.169  -0.217  1.00  0.00    -0.200 F 
ATOM     81  F   UNL     1       2.315  21.914  -2.216  1.00  0.00    -0.200 F 
ENDBRANCH  47  71
BRANCH  59  82
ATOM     82  C   UNL     1       1.793  12.833  -6.814  1.00  0.00     0.064 A 
ATOM     83  C   UNL     1       2.769  12.612  -5.827  1.00  0.00     0.173 A 
ATOM     84  C   UNL     1       2.095  12.446  -8.126  1.00  0.00     0.173 A 
ATOM     85  F   UNL     1       2.510  12.864  -4.536  1.00  0.00    -0.203 F 
ATOM     86  C   UNL     1       4.014  12.080  -6.155  1.00  0.00     0.198 A 
ATOM     87  C   UNL     1       3.327  11.882  -8.444  1.00  0.00     0.198 A 
ATOM     88  F   UNL     1       1.177  12.580  -9.096  1.00  0.00    -0.203 F 
ATOM     89  F   UNL     1       4.940  11.898  -5.202  1.00  0.00    -0.200 F 
ATOM     90  C   UNL     1       4.291  11.712  -7.462  1.00  0.00     0.200 A 
ATOM     91  F   UNL     1       3.574  11.482  -9.700  1.00  0.00    -0.200 F 
ATOM     92  F   UNL     1       5.477  11.170  -7.772  1.00  0.00    -0.200 F 
ENDBRANCH  59  82
ENDBRANCH  33  34
ENDBRANCH  26  28
ENDBRANCH  25  26
ENDBRANCH  24  25
ENDBRANCH  23  24
ENDBRANCH  22  23
ENDBRANCH   1  22
TORSDOF 19
