REMARK SMILES O=C(/C=N\OCc1ccccc1)OCCOCCOCCOC(=O)c1ccc(-c2c3nc(c(-c4c(F)c(F)c(F)c(F)c4F)c4ccc([nH]4)c(-c4c(F)c(F)c(F)c(F)c4F)c4nc(c(-c5c(F)c(F)c(F)c(F)c5F)c5ccc2[nH]5)C=C4)C=C3)cc1
REMARK SMILES IDX 17 1 16 2 15 3 14 4 13 5 2 6 1 7 3 8 4 9 5 10 6 11 7 12 8 13
REMARK SMILES IDX 12 14 9 15 11 16 10 17 18 18 19 19 20 20 21 21 22 22 23 23
REMARK SMILES IDX 24 24 25 25 26 26 87 27 27 28 86 29 28 30 29 31 30 32 80 33
REMARK SMILES IDX 31 34 85 35 79 36 81 37 32 38 84 39 78 40 77 41 33 43 65 44
REMARK SMILES IDX 45 45 64 46 46 47 49 48 63 49 82 50 47 51 48 52 62 54 83 55
REMARK SMILES IDX 50 56 34 57 35 58 43 59 36 60 37 61 41 62 44 63 38 64 39 65
REMARK SMILES IDX 42 66 40 67 66 68 67 69 75 70 68 71 69 72 73 73 76 74 70 75
REMARK SMILES IDX 71 76 74 77 72 78 51 79 52 80 60 81 53 82 54 83 58 84 61 85
REMARK SMILES IDX 55 86 56 87 59 88 57 89
REMARK H PARENT 81 42 49 53
REMARK Flexibility Score: inf
ROOT
ATOM      1  C   UNL     1       2.636   1.148  -1.079  1.00  0.00     0.188 C 
ENDROOT
BRANCH   1   2
ATOM      2  O   UNL     1       4.036   0.930  -0.964  1.00  0.00    -0.376 OA
BRANCH   2   3
ATOM      3  C   UNL     1       4.507  -0.295  -1.516  1.00  0.00     0.202 C 
BRANCH   3   4
ATOM      4  C   UNL     1       4.323  -1.554  -0.665  1.00  0.00     0.261 C 
BRANCH   4   5
ATOM      5  O   UNL     1       3.157  -1.524   0.158  1.00  0.00    -0.459 OA
BRANCH   5   6
ATOM      6  C   UNL     1       3.401  -1.576   1.477  1.00  0.00     0.352 C 
ATOM      7  O   UNL     1       3.099  -2.511   2.201  1.00  0.00    -0.245 OA
BRANCH   6   8
ATOM      8  C   UNL     1       3.690  -0.227   2.087  1.00  0.00     0.247 C 
ATOM      9  N   UNL     1       4.849   0.338   2.231  1.00  0.00    -0.087 NA
BRANCH   9  10
ATOM     10  O   UNL     1       5.869  -0.383   1.599  1.00  0.00    -0.391 OA
BRANCH  10  11
ATOM     11  C   UNL     1       7.142   0.245   1.810  1.00  0.00     0.299 C 
BRANCH  11  12
ATOM     12  C   UNL     1       7.413   1.490   0.985  1.00  0.00    -0.008 A 
ATOM     13  C   UNL     1       8.648   1.645   0.333  1.00  0.00     0.007 A 
ATOM     14  C   UNL     1       6.512   2.564   0.950  1.00  0.00     0.007 A 
ATOM     15  C   UNL     1       8.966   2.837  -0.327  1.00  0.00     0.000 A 
ATOM     16  C   UNL     1       6.828   3.753   0.288  1.00  0.00     0.000 A 
ATOM     17  C   UNL     1       8.058   3.892  -0.345  1.00  0.00     0.000 A 
ENDBRANCH  11  12
ENDBRANCH  10  11
ENDBRANCH   9  10
ENDBRANCH   6   8
ENDBRANCH   5   6
ENDBRANCH   4   5
ENDBRANCH   3   4
ENDBRANCH   2   3
ENDBRANCH   1   2
BRANCH   1  18
ATOM     18  C   UNL     1       2.065   1.581  -2.441  1.00  0.00     0.188 C 
BRANCH  18  19
ATOM     19  O   UNL     1       2.766   1.307  -3.634  1.00  0.00    -0.376 OA
BRANCH  19  20
ATOM     20  C   UNL     1       4.016   1.925  -3.902  1.00  0.00     0.202 C 
BRANCH  20  21
ATOM     21  C   UNL     1       4.411   3.336  -3.432  1.00  0.00     0.261 C 
BRANCH  21  22
ATOM     22  O   UNL     1       3.841   3.810  -2.211  1.00  0.00    -0.460 OA
BRANCH  22  23
ATOM     23  C   UNL     1       2.977   4.837  -2.359  1.00  0.00     0.338 C 
ATOM     24  O   UNL     1       2.570   5.336  -3.399  1.00  0.00    -0.246 OA
BRANCH  23  25
ATOM     25  C   UNL     1       2.507   5.282  -1.044  1.00  0.00     0.060 A 
ATOM     26  C   UNL     1       1.202   4.970  -0.655  1.00  0.00     0.016 A 
ATOM     27  C   UNL     1       3.300   6.142  -0.280  1.00  0.00     0.016 A 
ATOM     28  C   UNL     1       0.667   5.560   0.486  1.00  0.00     0.010 A 
ATOM     29  C   UNL     1       2.761   6.733   0.865  1.00  0.00     0.010 A 
ATOM     30  C   UNL     1       1.427   6.478   1.227  1.00  0.00    -0.014 A 
BRANCH  30  31
ATOM     31  C   UNL     1       0.756   7.277   2.279  1.00  0.00     0.031 A 
ATOM     32  C   UNL     1       0.271   8.662   1.950  1.00  0.00     0.074 A 
ATOM     33  C   UNL     1       0.518   6.745   3.490  1.00  0.00     0.049 A 
ATOM     34  N   UNL     1      -0.412   9.500   2.690  1.00  0.00    -0.248 NA
ATOM     35  C   UNL     1       0.595   9.171   0.608  1.00  0.00     0.031 C 
ATOM     36  C   UNL     1       0.931   5.412   3.921  1.00  0.00     0.029 A 
ATOM     37  N   UNL     1      -0.140   7.264   4.575  1.00  0.00    -0.354 N 
ATOM     38  C   UNL     1      -0.615  10.623   1.899  1.00  0.00     0.074 A 
ATOM     39  C   UNL     1       0.057  10.382   0.640  1.00  0.00     0.031 C 
ATOM     40  C   UNL     1       0.515   5.215   5.183  1.00  0.00     0.029 A 
ATOM     41  C   UNL     1      -0.183   6.412   5.649  1.00  0.00     0.049 A 
ATOM     42  H   UNL     1      -0.543   8.163   4.582  1.00  0.00     0.167 HD
ATOM     43  C   UNL     1      -1.314  11.745   2.188  1.00  0.00     0.037 A 
ATOM     44  C   UNL     1      -0.725   6.583   6.870  1.00  0.00     0.037 A 
ATOM     45  C   UNL     1      -1.972  11.994   3.444  1.00  0.00     0.049 A 
ATOM     46  C   UNL     1      -1.464   7.858   7.180  1.00  0.00     0.074 A 
ATOM     47  C   UNL     1      -2.699  13.104   3.835  1.00  0.00     0.029 A 
ATOM     48  N   UNL     1      -1.976  11.115   4.516  1.00  0.00    -0.354 N 
ATOM     49  N   UNL     1      -1.679   8.900   6.414  1.00  0.00    -0.248 NA
ATOM     50  C   UNL     1      -2.050   7.973   8.523  1.00  0.00     0.031 C 
ATOM     51  C   UNL     1      -3.114  12.912   5.158  1.00  0.00     0.029 A 
ATOM     52  C   UNL     1      -2.682  11.664   5.575  1.00  0.00     0.049 A 
ATOM     53  H   UNL     1      -1.541  10.232   4.525  1.00  0.00     0.167 HD
ATOM     54  C   UNL     1      -2.435   9.783   7.172  1.00  0.00     0.074 A 
ATOM     55  C   UNL     1      -2.665   9.145   8.451  1.00  0.00     0.031 C 
ATOM     56  C   UNL     1      -2.896  11.015   6.843  1.00  0.00     0.037 A 
BRANCH  43  57
ATOM     57  C   UNL     1      -1.401  12.796   1.121  1.00  0.00     0.064 A 
ATOM     58  C   UNL     1      -2.207  12.618  -0.014  1.00  0.00     0.173 A 
ATOM     59  C   UNL     1      -0.703  14.005   1.249  1.00  0.00     0.173 A 
ATOM     60  F   UNL     1      -2.883  11.472  -0.188  1.00  0.00    -0.203 F 
ATOM     61  C   UNL     1      -2.295  13.605  -0.991  1.00  0.00     0.198 A 
ATOM     62  C   UNL     1      -0.812  15.000   0.281  1.00  0.00     0.198 A 
ATOM     63  F   UNL     1       0.079  14.225   2.316  1.00  0.00    -0.203 F 
ATOM     64  F   UNL     1      -3.041  13.399  -2.085  1.00  0.00    -0.200 F 
ATOM     65  C   UNL     1      -1.603  14.798  -0.840  1.00  0.00     0.200 A 
ATOM     66  F   UNL     1      -0.150  16.156   0.432  1.00  0.00    -0.200 F 
ATOM     67  F   UNL     1      -1.694  15.750  -1.778  1.00  0.00    -0.200 F 
ENDBRANCH  43  57
BRANCH  44  68
ATOM     68  C   UNL     1      -0.593   5.515   7.893  1.00  0.00     0.064 A 
ATOM     69  C   UNL     1      -1.701   4.767   8.311  1.00  0.00     0.173 A 
ATOM     70  C   UNL     1       0.646   5.238   8.489  1.00  0.00     0.173 A 
ATOM     71  F   UNL     1      -2.911   5.013   7.787  1.00  0.00    -0.203 F 
ATOM     72  C   UNL     1      -1.580   3.795   9.302  1.00  0.00     0.198 A 
ATOM     73  C   UNL     1       0.772   4.248   9.461  1.00  0.00     0.198 A 
ATOM     74  F   UNL     1       1.736   5.928   8.124  1.00  0.00    -0.203 F 
ATOM     75  F   UNL     1      -2.664   3.127   9.718  1.00  0.00    -0.200 F 
ATOM     76  C   UNL     1      -0.343   3.533   9.872  1.00  0.00     0.200 A 
ATOM     77  F   UNL     1       1.970   3.992  10.002  1.00  0.00    -0.200 F 
ATOM     78  F   UNL     1      -0.227   2.599  10.826  1.00  0.00    -0.200 F 
ENDBRANCH  44  68
BRANCH  56  79
ATOM     79  C   UNL     1      -3.703  11.743   7.878  1.00  0.00     0.064 A 
ATOM     80  C   UNL     1      -3.106  12.282   9.027  1.00  0.00     0.173 A 
ATOM     81  C   UNL     1      -5.085  11.918   7.711  1.00  0.00     0.173 A 
ATOM     82  F   UNL     1      -1.790  12.129   9.238  1.00  0.00    -0.203 F 
ATOM     83  C   UNL     1      -3.868  12.942   9.987  1.00  0.00     0.198 A 
ATOM     84  C   UNL     1      -5.840  12.602   8.660  1.00  0.00     0.198 A 
ATOM     85  F   UNL     1      -5.703  11.427   6.626  1.00  0.00    -0.203 F 
ATOM     86  F   UNL     1      -3.284  13.403  11.102  1.00  0.00    -0.200 F 
ATOM     87  C   UNL     1      -5.232  13.105   9.801  1.00  0.00     0.200 A 
ATOM     88  F   UNL     1      -7.156  12.768   8.474  1.00  0.00    -0.200 F 
ATOM     89  F   UNL     1      -5.965  13.739  10.727  1.00  0.00    -0.200 F 
ENDBRANCH  56  79
ENDBRANCH  30  31
ENDBRANCH  23  25
ENDBRANCH  22  23
ENDBRANCH  21  22
ENDBRANCH  20  21
ENDBRANCH  19  20
ENDBRANCH  18  19
ENDBRANCH   1  18
TORSDOF 20
