REMARK SMILES Cc1nc(-c2ccccc2Cl)nc2sc(C(=O)OCCOCCOCCOC(=O)c3ccc(-c4c5nc(c(-c6c(F)c(F)c(F)c(F)c6F)c6ccc([nH]6)c(-c6c(F)c(F)c(F)c(F)c6F)c6nc(c(-c7c(F)c(F)c(F)c(F)c7F)c7ccc4[nH]7)C=C6)C=C5)cc3)c(N)c12
REMARK SMILES IDX 23 1 22 2 21 3 20 4 19 5 18 6 16 7 17 8 15 9 1 10 2 11 3 12
REMARK SMILES IDX 95 13 4 14 13 15 93 16 12 17 14 18 5 19 6 20 10 21 7 22 9 23
REMARK SMILES IDX 11 24 8 25 94 26 24 29 25 30 26 31 27 32 28 33 29 34 30 35
REMARK SMILES IDX 31 36 92 37 32 38 91 39 33 40 34 41 35 42 85 43 36 44 90 45
REMARK SMILES IDX 84 46 86 47 37 48 89 49 83 50 82 51 38 53 70 54 50 55 69 56
REMARK SMILES IDX 51 57 54 58 68 59 87 60 52 61 53 62 67 64 88 65 55 66 39 67
REMARK SMILES IDX 40 68 48 69 41 70 42 71 46 72 49 73 43 74 44 75 47 76 45 77
REMARK SMILES IDX 71 78 72 79 80 80 73 81 74 82 78 83 81 84 75 85 76 86 79 87
REMARK SMILES IDX 77 88 56 89 57 90 65 91 58 92 59 93 63 94 66 95 60 96 61 97
REMARK SMILES IDX 64 98 62 99
REMARK H PARENT 94 27 94 28 86 52 54 63
REMARK Flexibility Score: inf
ROOT
ATOM      1  C   UNL     1       4.565   5.746  -0.224  1.00  0.00     0.188 C 
ENDROOT
BRANCH   1   2
ATOM      2  C   UNL     1       4.948   5.357  -1.671  1.00  0.00     0.188 C 
BRANCH   2   3
ATOM      3  O   UNL     1       5.276   6.346  -2.640  1.00  0.00    -0.376 OA
BRANCH   3   4
ATOM      4  C   UNL     1       4.542   7.560  -2.717  1.00  0.00     0.202 C 
BRANCH   4   5
ATOM      5  C   UNL     1       3.003   7.569  -2.792  1.00  0.00     0.261 C 
BRANCH   5   6
ATOM      6  O   UNL     1       2.312   6.719  -1.871  1.00  0.00    -0.459 OA
BRANCH   6   7
ATOM      7  C   UNL     1       1.843   5.532  -2.356  1.00  0.00     0.350 C 
ATOM      8  O   UNL     1       1.962   5.166  -3.518  1.00  0.00    -0.245 OA
BRANCH   7   9
ATOM      9  C   UNL     1       1.338   4.707  -1.274  1.00  0.00     0.138 A 
ATOM     10  C   UNL     1       1.046   0.279   0.075  1.00  0.00     0.067 C 
ATOM     11  C   UNL     1       0.580   1.579   0.656  1.00  0.00     0.052 A 
ATOM     12  N   UNL     1      -0.159   1.496   1.801  1.00  0.00    -0.233 NA
ATOM     13  C   UNL     1       0.801   2.850   0.080  1.00  0.00     0.057 A 
ATOM     14  C   UNL     1      -0.627   2.621   2.372  1.00  0.00     0.162 A 
ATOM     15  C   UNL     1       0.249   3.915   0.771  1.00  0.00     0.130 A 
ATOM     16  C   UNL     1       1.471   3.336  -1.103  1.00  0.00     0.069 A 
ATOM     17  N   UNL     1      -0.451   3.861   1.908  1.00  0.00    -0.217 NA
ATOM     18  S   UNL     1       0.486   5.417   0.023  1.00  0.00    -0.106 S 
BRANCH  14  19
ATOM     19  C   UNL     1      -1.544   2.517   3.511  1.00  0.00     0.038 A 
ATOM     20  C   UNL     1      -2.766   3.228   3.447  1.00  0.00     0.013 A 
ATOM     21  C   UNL     1      -1.267   1.813   4.693  1.00  0.00     0.052 A 
ATOM     22  C   UNL     1      -3.662   3.256   4.514  1.00  0.00     0.001 A 
ATOM     23  C   UNL     1      -2.170   1.842   5.768  1.00  0.00     0.021 A 
ATOM     24  Cl  UNL     1       0.206   0.938   4.933  1.00  0.00    -0.084 Cl
ATOM     25  C   UNL     1      -3.360   2.566   5.680  1.00  0.00     0.002 A 
ENDBRANCH  14  19
BRANCH  16  26
ATOM     26  N   UNL     1       2.173   2.560  -1.959  1.00  0.00    -0.397 N 
ATOM     27  H   UNL     1       2.605   2.962  -2.747  1.00  0.00     0.156 HD
ATOM     28  H   UNL     1       2.253   1.592  -1.794  1.00  0.00     0.156 HD
ENDBRANCH  16  26
ENDBRANCH   7   9
ENDBRANCH   6   7
ENDBRANCH   5   6
ENDBRANCH   4   5
ENDBRANCH   3   4
ENDBRANCH   2   3
ENDBRANCH   1   2
BRANCH   1  29
ATOM     29  O   UNL     1       4.342   7.127  -0.036  1.00  0.00    -0.376 OA
BRANCH  29  30
ATOM     30  C   UNL     1       5.283   7.923   0.664  1.00  0.00     0.202 C 
BRANCH  30  31
ATOM     31  C   UNL     1       6.788   7.812   0.420  1.00  0.00     0.261 C 
BRANCH  31  32
ATOM     32  O   UNL     1       7.227   6.620  -0.200  1.00  0.00    -0.460 OA
BRANCH  32  33
ATOM     33  C   UNL     1       7.490   5.615   0.657  1.00  0.00     0.338 C 
ATOM     34  O   UNL     1       7.162   5.535   1.827  1.00  0.00    -0.246 OA
BRANCH  33  35
ATOM     35  C   UNL     1       8.377   4.663  -0.011  1.00  0.00     0.060 A 
ATOM     36  C   UNL     1       8.613   3.469   0.669  1.00  0.00     0.016 A 
ATOM     37  C   UNL     1       9.242   5.160  -0.998  1.00  0.00     0.016 A 
ATOM     38  C   UNL     1       9.870   2.927   0.573  1.00  0.00     0.010 A 
ATOM     39  C   UNL     1      10.505   4.635  -1.069  1.00  0.00     0.010 A 
ATOM     40  C   UNL     1      10.825   3.594  -0.205  1.00  0.00    -0.014 A 
BRANCH  40  41
ATOM     41  C   UNL     1      12.180   3.102  -0.166  1.00  0.00     0.031 A 
ATOM     42  C   UNL     1      12.324   1.842  -0.918  1.00  0.00     0.074 A 
ATOM     43  C   UNL     1      13.177   3.768   0.441  1.00  0.00     0.049 A 
ATOM     44  N   UNL     1      12.563   0.671  -0.434  1.00  0.00    -0.248 NA
ATOM     45  C   UNL     1      11.956   1.849  -2.343  1.00  0.00     0.031 C 
ATOM     46  C   UNL     1      13.170   5.121   1.000  1.00  0.00     0.029 A 
ATOM     47  N   UNL     1      14.466   3.375   0.614  1.00  0.00    -0.354 N 
ATOM     48  C   UNL     1      12.571  -0.182  -1.528  1.00  0.00     0.074 A 
ATOM     49  C   UNL     1      11.999   0.548  -2.626  1.00  0.00     0.031 C 
ATOM     50  C   UNL     1      14.445   5.509   1.244  1.00  0.00     0.029 A 
ATOM     51  C   UNL     1      15.336   4.392   0.981  1.00  0.00     0.049 A 
ATOM     52  H   UNL     1      14.759   2.443   0.489  1.00  0.00     0.167 HD
ATOM     53  C   UNL     1      13.309  -1.322  -1.502  1.00  0.00     0.037 A 
ATOM     54  C   UNL     1      16.691   4.310   0.993  1.00  0.00     0.037 A 
ATOM     55  C   UNL     1      13.606  -1.712  -0.146  1.00  0.00     0.049 A 
ATOM     56  C   UNL     1      17.043   2.866   1.017  1.00  0.00     0.074 A 
ATOM     57  C   UNL     1      12.836  -2.059   0.948  1.00  0.00     0.029 A 
ATOM     58  N   UNL     1      14.850  -1.409   0.350  1.00  0.00    -0.354 N 
ATOM     59  N   UNL     1      16.842   2.092   2.047  1.00  0.00    -0.248 NA
ATOM     60  C   UNL     1      17.187   2.181  -0.261  1.00  0.00     0.031 C 
ATOM     61  C   UNL     1      13.515  -1.507   2.072  1.00  0.00     0.029 A 
ATOM     62  C   UNL     1      14.690  -0.910   1.616  1.00  0.00     0.049 A 
ATOM     63  H   UNL     1      15.706  -1.528  -0.121  1.00  0.00     0.167 HD
ATOM     64  C   UNL     1      16.404   0.893   1.504  1.00  0.00     0.074 A 
ATOM     65  C   UNL     1      16.722   0.976   0.081  1.00  0.00     0.031 C 
ATOM     66  C   UNL     1      15.562   0.079   2.204  1.00  0.00     0.037 A 
BRANCH  53  67
ATOM     67  C   UNL     1      14.092  -1.825  -2.687  1.00  0.00     0.064 A 
ATOM     68  C   UNL     1      14.765  -3.056  -2.578  1.00  0.00     0.173 A 
ATOM     69  C   UNL     1      14.459  -1.028  -3.796  1.00  0.00     0.173 A 
ATOM     70  F   UNL     1      14.511  -3.885  -1.554  1.00  0.00    -0.203 F 
ATOM     71  C   UNL     1      15.786  -3.417  -3.460  1.00  0.00     0.198 A 
ATOM     72  C   UNL     1      15.437  -1.418  -4.705  1.00  0.00     0.198 A 
ATOM     73  F   UNL     1      13.981   0.206  -3.989  1.00  0.00    -0.203 F 
ATOM     74  F   UNL     1      16.490  -4.534  -3.236  1.00  0.00    -0.200 F 
ATOM     75  C   UNL     1      16.125  -2.596  -4.519  1.00  0.00     0.200 A 
ATOM     76  F   UNL     1      15.762  -0.596  -5.713  1.00  0.00    -0.200 F 
ATOM     77  F   UNL     1      17.145  -2.910  -5.327  1.00  0.00    -0.200 F 
ENDBRANCH  53  67
BRANCH  54  78
ATOM     78  C   UNL     1      17.699   5.358   0.704  1.00  0.00     0.064 A 
ATOM     79  C   UNL     1      19.051   5.174   1.042  1.00  0.00     0.173 A 
ATOM     80  C   UNL     1      17.414   6.429  -0.164  1.00  0.00     0.173 A 
ATOM     81  F   UNL     1      19.418   4.151   1.828  1.00  0.00    -0.203 F 
ATOM     82  C   UNL     1      20.058   5.994   0.520  1.00  0.00     0.198 A 
ATOM     83  C   UNL     1      18.419   7.250  -0.680  1.00  0.00     0.198 A 
ATOM     84  F   UNL     1      16.166   6.641  -0.608  1.00  0.00    -0.203 F 
ATOM     85  F   UNL     1      21.342   5.746   0.814  1.00  0.00    -0.200 F 
ATOM     86  C   UNL     1      19.742   7.023  -0.350  1.00  0.00     0.200 A 
ATOM     87  F   UNL     1      18.103   8.220  -1.550  1.00  0.00    -0.200 F 
ATOM     88  F   UNL     1      20.710   7.768  -0.902  1.00  0.00    -0.200 F 
ENDBRANCH  54  78
BRANCH  66  89
ATOM     89  C   UNL     1      15.342   0.384   3.659  1.00  0.00     0.064 A 
ATOM     90  C   UNL     1      14.712   1.549   4.130  1.00  0.00     0.173 A 
ATOM     91  C   UNL     1      15.625  -0.621   4.592  1.00  0.00     0.173 A 
ATOM     92  F   UNL     1      14.327   2.516   3.287  1.00  0.00    -0.203 F 
ATOM     93  C   UNL     1      14.405   1.706   5.481  1.00  0.00     0.198 A 
ATOM     94  C   UNL     1      15.284  -0.477   5.933  1.00  0.00     0.198 A 
ATOM     95  F   UNL     1      16.180  -1.775   4.189  1.00  0.00    -0.203 F 
ATOM     96  F   UNL     1      13.805   2.827   5.909  1.00  0.00    -0.200 F 
ATOM     97  C   UNL     1      14.680   0.688   6.379  1.00  0.00     0.200 A 
ATOM     98  F   UNL     1      15.507  -1.485   6.788  1.00  0.00    -0.200 F 
ATOM     99  F   UNL     1      14.337   0.816   7.668  1.00  0.00    -0.200 F 
ENDBRANCH  66  89
ENDBRANCH  40  41
ENDBRANCH  33  35
ENDBRANCH  32  33
ENDBRANCH  31  32
ENDBRANCH  30  31
ENDBRANCH  29  30
ENDBRANCH   1  29
TORSDOF 19
