REMARK SMILES Cc1c(CC(=O)OCCOCCOCCOC(=O)c2ccc(-c3c4nc(c(-c5c(F)c(F)c(F)c(F)c5F)c5ccc([nH]5)c(-c5c(F)c(F)c(F)c(F)c5F)c5nc(c(-c6c(F)c(F)c(F)c(F)c6F)c6ccc3[nH]6)C=C5)C=C4)cc2)c2cc(O)ccc2n1C(=O)c1ccc(Cl)cc1
REMARK SMILES IDX 11 1 10 2 9 3 8 4 7 5 5 6 6 7 4 8 3 9 1 10 2 11 89 12 82 13
REMARK SMILES IDX 88 14 83 15 87 16 84 17 86 18 90 19 91 20 92 21 93 22 98 23
REMARK SMILES IDX 94 24 97 25 95 26 96 27 85 28 12 30 13 31 14 32 15 33 16 34
REMARK SMILES IDX 17 35 18 36 19 37 20 38 81 39 21 40 80 41 22 42 23 43 24 44
REMARK SMILES IDX 74 45 25 46 79 47 73 48 75 49 26 50 78 51 72 52 71 53 27 55
REMARK SMILES IDX 59 56 39 57 58 58 40 59 43 60 57 61 76 62 41 63 42 64 56 66
REMARK SMILES IDX 77 67 44 68 28 69 29 70 37 71 30 72 31 73 35 74 38 75 32 76
REMARK SMILES IDX 33 77 36 78 34 79 60 80 61 81 69 82 62 83 63 84 67 85 70 86
REMARK SMILES IDX 64 87 65 88 68 89 66 90 45 91 46 92 54 93 47 94 48 95 52 96
REMARK SMILES IDX 55 97 49 98 50 99 53 100 51 101
REMARK H PARENT 85 29 75 54 43 65
REMARK Flexibility Score: inf
ROOT
ATOM      1  C   UNL     1      -3.777  -1.805  -3.886  1.00  0.00     0.188 C 
ENDROOT
BRANCH   1   2
ATOM      2  O   UNL     1      -4.684  -2.421  -3.002  1.00  0.00    -0.376 OA
BRANCH   2   3
ATOM      3  C   UNL     1      -4.969  -1.798  -1.768  1.00  0.00     0.202 C 
BRANCH   3   4
ATOM      4  C   UNL     1      -3.888  -1.895  -0.677  1.00  0.00     0.261 C 
BRANCH   4   5
ATOM      5  O   UNL     1      -2.722  -1.035  -0.848  1.00  0.00    -0.463 OA
BRANCH   5   6
ATOM      6  C   UNL     1      -1.734  -1.633  -1.546  1.00  0.00     0.310 C 
ATOM      7  O   UNL     1      -1.883  -2.778  -1.974  1.00  0.00    -0.252 OA
BRANCH   6   8
ATOM      8  C   UNL     1      -0.442  -0.894  -1.842  1.00  0.00     0.160 C 
BRANCH   8   9
ATOM      9  C   UNL     1      -0.167   0.591  -1.785  1.00  0.00    -0.008 A 
ATOM     10  C   UNL     1       0.871   0.599   0.606  1.00  0.00     0.065 C 
ATOM     11  C   UNL     1       0.484   1.194  -0.711  1.00  0.00     0.028 A 
ATOM     12  N   UNL     1       0.808   2.502  -1.060  1.00  0.00    -0.280 N 
ATOM     13  C   UNL     1      -0.076   1.542  -2.882  1.00  0.00     0.008 A 
ATOM     14  C   UNL     1       0.716   2.605  -2.451  1.00  0.00     0.057 A 
ATOM     15  C   UNL     1      -0.469   1.594  -4.241  1.00  0.00     0.056 A 
ATOM     16  C   UNL     1       1.233   3.553  -3.375  1.00  0.00     0.031 A 
ATOM     17  C   UNL     1       0.053   2.514  -5.157  1.00  0.00     0.116 A 
ATOM     18  C   UNL     1       0.914   3.486  -4.727  1.00  0.00     0.048 A 
BRANCH  12  19
ATOM     19  C   UNL     1       1.177   3.559  -0.190  1.00  0.00     0.262 C 
ATOM     20  O   UNL     1       1.476   3.312   0.978  1.00  0.00    -0.268 OA
BRANCH  19  21
ATOM     21  C   UNL     1       1.182   4.959  -0.645  1.00  0.00     0.040 A 
ATOM     22  C   UNL     1      -0.024   5.532  -1.072  1.00  0.00     0.015 A 
ATOM     23  C   UNL     1       2.413   5.564  -0.913  1.00  0.00     0.015 A 
ATOM     24  C   UNL     1       0.011   6.689  -1.849  1.00  0.00     0.021 A 
ATOM     25  C   UNL     1       2.438   6.713  -1.706  1.00  0.00     0.021 A 
ATOM     26  C   UNL     1       1.242   7.257  -2.185  1.00  0.00     0.041 A 
ATOM     27  Cl  UNL     1       1.290   8.591  -3.269  1.00  0.00    -0.084 Cl
ENDBRANCH  19  21
ENDBRANCH  12  19
BRANCH  17  28
ATOM     28  O   UNL     1      -0.223   2.478  -6.493  1.00  0.00    -0.508 OA
ATOM     29  H   UNL     1      -0.808   1.830  -6.833  1.00  0.00     0.293 HD
ENDBRANCH  17  28
ENDBRANCH   8   9
ENDBRANCH   6   8
ENDBRANCH   5   6
ENDBRANCH   4   5
ENDBRANCH   3   4
ENDBRANCH   2   3
ENDBRANCH   1   2
BRANCH   1  30
ATOM     30  C   UNL     1      -3.360  -0.338  -3.731  1.00  0.00     0.188 C 
BRANCH  30  31
ATOM     31  O   UNL     1      -4.337   0.663  -3.622  1.00  0.00    -0.376 OA
BRANCH  31  32
ATOM     32  C   UNL     1      -5.185   0.801  -4.748  1.00  0.00     0.202 C 
BRANCH  32  33
ATOM     33  C   UNL     1      -4.515   0.771  -6.150  1.00  0.00     0.261 C 
BRANCH  33  34
ATOM     34  O   UNL     1      -3.889  -0.516  -6.486  1.00  0.00    -0.460 OA
BRANCH  34  35
ATOM     35  C   UNL     1      -2.617  -0.476  -6.990  1.00  0.00     0.338 C 
ATOM     36  O   UNL     1      -2.101   0.532  -7.461  1.00  0.00    -0.246 OA
BRANCH  35  37
ATOM     37  C   UNL     1      -1.744  -1.606  -6.481  1.00  0.00     0.060 A 
ATOM     38  C   UNL     1      -2.025  -2.967  -6.353  1.00  0.00     0.016 A 
ATOM     39  C   UNL     1      -0.533  -1.167  -5.940  1.00  0.00     0.016 A 
ATOM     40  C   UNL     1      -1.175  -3.793  -5.543  1.00  0.00     0.010 A 
ATOM     41  C   UNL     1       0.296  -1.963  -5.158  1.00  0.00     0.010 A 
ATOM     42  C   UNL     1      -0.054  -3.269  -4.852  1.00  0.00    -0.014 A 
BRANCH  42  43
ATOM     43  C   UNL     1       1.011  -4.065  -4.178  1.00  0.00     0.031 A 
ATOM     44  C   UNL     1       1.890  -4.611  -5.218  1.00  0.00     0.074 A 
ATOM     45  C   UNL     1       1.433  -4.249  -2.895  1.00  0.00     0.049 A 
ATOM     46  N   UNL     1       1.623  -5.705  -5.843  1.00  0.00    -0.248 NA
ATOM     47  C   UNL     1       2.988  -3.826  -5.794  1.00  0.00     0.031 C 
ATOM     48  C   UNL     1       0.885  -3.740  -1.659  1.00  0.00     0.029 A 
ATOM     49  N   UNL     1       2.506  -4.974  -2.402  1.00  0.00    -0.354 N 
ATOM     50  C   UNL     1       2.705  -5.901  -6.665  1.00  0.00     0.074 A 
ATOM     51  C   UNL     1       3.317  -4.607  -6.830  1.00  0.00     0.031 C 
ATOM     52  C   UNL     1       1.709  -3.896  -0.603  1.00  0.00     0.029 A 
ATOM     53  C   UNL     1       2.759  -4.788  -1.036  1.00  0.00     0.049 A 
ATOM     54  H   UNL     1       3.048  -5.571  -2.966  1.00  0.00     0.167 HD
ATOM     55  C   UNL     1       3.212  -7.156  -6.770  1.00  0.00     0.037 A 
ATOM     56  C   UNL     1       3.490  -5.525  -0.162  1.00  0.00     0.037 A 
ATOM     57  C   UNL     1       2.349  -8.115  -6.106  1.00  0.00     0.049 A 
ATOM     58  C   UNL     1       3.475  -6.905  -0.675  1.00  0.00     0.074 A 
ATOM     59  C   UNL     1       1.103  -8.663  -6.333  1.00  0.00     0.029 A 
ATOM     60  N   UNL     1       2.611  -8.268  -4.767  1.00  0.00    -0.354 N 
ATOM     61  N   UNL     1       2.408  -7.655  -0.701  1.00  0.00    -0.248 NA
ATOM     62  C   UNL     1       4.588  -7.353  -1.499  1.00  0.00     0.031 C 
ATOM     63  C   UNL     1       0.585  -9.054  -5.060  1.00  0.00     0.029 A 
ATOM     64  C   UNL     1       1.533  -8.770  -4.082  1.00  0.00     0.049 A 
ATOM     65  H   UNL     1       3.473  -8.043  -4.347  1.00  0.00     0.167 HD
ATOM     66  C   UNL     1       2.550  -8.379  -1.865  1.00  0.00     0.074 A 
ATOM     67  C   UNL     1       3.962  -8.292  -2.211  1.00  0.00     0.031 C 
ATOM     68  C   UNL     1       1.472  -8.690  -2.636  1.00  0.00     0.037 A 
BRANCH  55  69
ATOM     69  C   UNL     1       4.661  -7.465  -7.018  1.00  0.00     0.064 A 
ATOM     70  C   UNL     1       5.011  -8.784  -7.353  1.00  0.00     0.173 A 
ATOM     71  C   UNL     1       5.734  -6.606  -6.701  1.00  0.00     0.173 A 
ATOM     72  F   UNL     1       4.063  -9.693  -7.624  1.00  0.00    -0.203 F 
ATOM     73  C   UNL     1       6.338  -9.216  -7.342  1.00  0.00     0.198 A 
ATOM     74  C   UNL     1       7.060  -7.021  -6.754  1.00  0.00     0.198 A 
ATOM     75  F   UNL     1       5.550  -5.374  -6.213  1.00  0.00    -0.203 F 
ATOM     76  F   UNL     1       6.618 -10.507  -7.562  1.00  0.00    -0.200 F 
ATOM     77  C   UNL     1       7.362  -8.332  -7.051  1.00  0.00     0.200 A 
ATOM     78  F   UNL     1       8.034  -6.156  -6.435  1.00  0.00    -0.200 F 
ATOM     79  F   UNL     1       8.632  -8.752  -7.004  1.00  0.00    -0.200 F 
ENDBRANCH  55  69
BRANCH  56  80
ATOM     80  C   UNL     1       4.202  -5.124   1.078  1.00  0.00     0.064 A 
ATOM     81  C   UNL     1       4.699  -6.081   1.982  1.00  0.00     0.173 A 
ATOM     82  C   UNL     1       4.678  -3.809   1.240  1.00  0.00     0.173 A 
ATOM     83  F   UNL     1       4.295  -7.357   1.908  1.00  0.00    -0.203 F 
ATOM     84  C   UNL     1       5.680  -5.762   2.927  1.00  0.00     0.198 A 
ATOM     85  C   UNL     1       5.658  -3.492   2.186  1.00  0.00     0.198 A 
ATOM     86  F   UNL     1       4.266  -2.829   0.423  1.00  0.00    -0.203 F 
ATOM     87  F   UNL     1       6.191  -6.723   3.710  1.00  0.00    -0.200 F 
ATOM     88  C   UNL     1       6.179  -4.474   3.009  1.00  0.00     0.200 A 
ATOM     89  F   UNL     1       6.147  -2.245   2.244  1.00  0.00    -0.200 F 
ATOM     90  F   UNL     1       7.186  -4.189   3.847  1.00  0.00    -0.200 F 
ENDBRANCH  56  80
BRANCH  68  91
ATOM     91  C   UNL     1       0.141  -8.830  -1.962  1.00  0.00     0.064 A 
ATOM     92  C   UNL     1      -0.593  -7.779  -1.391  1.00  0.00     0.173 A 
ATOM     93  C   UNL     1      -0.454 -10.101  -1.967  1.00  0.00     0.173 A 
ATOM     94  F   UNL     1      -0.111  -6.530  -1.379  1.00  0.00    -0.203 F 
ATOM     95  C   UNL     1      -1.863  -7.995  -0.851  1.00  0.00     0.198 A 
ATOM     96  C   UNL     1      -1.730 -10.310  -1.454  1.00  0.00     0.198 A 
ATOM     97  F   UNL     1       0.198 -11.143  -2.509  1.00  0.00    -0.203 F 
ATOM     98  F   UNL     1      -2.546  -6.978  -0.305  1.00  0.00    -0.200 F 
ATOM     99  C   UNL     1      -2.434  -9.258  -0.894  1.00  0.00     0.200 A 
ATOM    100  F   UNL     1      -2.284 -11.528  -1.523  1.00  0.00    -0.200 F 
ATOM    101  F   UNL     1      -3.668  -9.459  -0.410  1.00  0.00    -0.200 F 
ENDBRANCH  68  91
ENDBRANCH  42  43
ENDBRANCH  35  37
ENDBRANCH  34  35
ENDBRANCH  33  34
ENDBRANCH  32  33
ENDBRANCH  31  32
ENDBRANCH  30  31
ENDBRANCH   1  30
TORSDOF 21
