REMARK SMILES Cc1cccc(S(=O)(=O)Nc2cc(C(=O)OCCOCCOCCOC(=O)c3ccc(-c4c5nc(c(-c6c(F)c(F)c(F)c(F)c6F)c6ccc([nH]6)c(-c6c(F)c(F)c(F)c(F)c6F)c6nc(c(-c7c(F)c(F)c(F)c(F)c7F)c7ccc4[nH]7)C=C6)C=C5)cc3)ccc2N2CCC[C@H](C[NH+]3CCCC3)C2)c1
REMARK SMILES IDX 20 1 19 2 18 3 17 4 16 5 14 6 15 7 13 8 11 9 12 10 93 11
REMARK SMILES IDX 92 12 91 13 10 14 7 16 8 17 9 18 6 19 1 20 2 21 3 22 106 23
REMARK SMILES IDX 4 24 5 25 94 26 95 27 105 28 96 29 98 30 97 31 99 32 100 33
REMARK SMILES IDX 101 34 104 35 102 37 103 38 21 39 22 40 23 41 24 42 25 43
REMARK SMILES IDX 26 44 27 45 28 46 29 47 90 48 30 49 89 50 31 51 32 52 33 53
REMARK SMILES IDX 83 54 34 55 88 56 82 57 84 58 35 59 87 60 81 61 80 62 36 64
REMARK SMILES IDX 68 65 48 66 67 67 49 68 52 69 66 70 85 71 50 72 51 73 65 75
REMARK SMILES IDX 86 76 53 77 37 78 38 79 46 80 39 81 40 82 44 83 47 84 41 85
REMARK SMILES IDX 42 86 45 87 43 88 69 89 70 90 78 91 71 92 72 93 76 94 79 95
REMARK SMILES IDX 73 96 74 97 77 98 75 99 54 100 55 101 63 102 56 103 57 104
REMARK SMILES IDX 61 105 64 106 58 107 59 108 62 109 60 110
REMARK H PARENT 10 15 100 36 84 63 52 74
REMARK Flexibility Score: inf
ROOT
ATOM      1  C   UNL     1       4.699   0.496  -5.203  1.00  0.00     0.188 C 
ENDROOT
BRANCH   1   2
ATOM      2  O   UNL     1       3.749  -0.540  -5.429  1.00  0.00    -0.376 OA
BRANCH   2   3
ATOM      3  C   UNL     1       2.354  -0.202  -5.564  1.00  0.00     0.202 C 
BRANCH   3   4
ATOM      4  C   UNL     1       1.410  -0.344  -4.331  1.00  0.00     0.261 C 
BRANCH   4   5
ATOM      5  O   UNL     1       1.246   0.790  -3.364  1.00  0.00    -0.460 OA
BRANCH   5   6
ATOM      6  C   UNL     1       0.273   1.766  -3.289  1.00  0.00     0.338 C 
ATOM      7  O   UNL     1      -0.549   1.923  -4.180  1.00  0.00    -0.246 OA
BRANCH   6   8
ATOM      8  C   UNL     1       0.338   2.776  -2.026  1.00  0.00     0.062 A 
ATOM      9  C   UNL     1      -0.791   4.174  -0.356  1.00  0.00     0.073 A 
ATOM     10  C   UNL     1      -0.805   3.396  -1.572  1.00  0.00     0.044 A 
ATOM     11  C   UNL     1       0.368   4.566   0.365  1.00  0.00     0.061 A 
ATOM     12  C   UNL     1       1.506   3.958  -0.084  1.00  0.00     0.029 A 
ATOM     13  C   UNL     1       1.428   3.062  -1.167  1.00  0.00     0.018 A 
BRANCH   9  14
ATOM     14  N   UNL     1      -2.019   4.394   0.286  1.00  0.00    -0.277 N 
ATOM     15  H   UNL     1      -2.358   5.310   0.407  1.00  0.00     0.180 HD
BRANCH  14  16
ATOM     16  S   UNL     1      -2.906   3.086   0.846  1.00  0.00     0.261 S 
ATOM     17  O   UNL     1      -3.623   2.571  -0.285  1.00  0.00    -0.201 OA
ATOM     18  O   UNL     1      -3.618   3.618   2.009  1.00  0.00    -0.201 OA
BRANCH  16  19
ATOM     19  C   UNL     1      -1.927   1.707   1.480  1.00  0.00     0.088 A 
ATOM     20  C   UNL     1       1.518   0.502   2.681  1.00  0.00     0.044 C 
ATOM     21  C   UNL     1       0.037   0.540   2.382  1.00  0.00    -0.050 A 
ATOM     22  C   UNL     1      -0.698  -0.646   2.450  1.00  0.00     0.003 A 
ATOM     23  C   UNL     1      -0.598   1.720   1.920  1.00  0.00     0.025 A 
ATOM     24  C   UNL     1      -2.019  -0.674   2.012  1.00  0.00     0.002 A 
ATOM     25  C   UNL     1      -2.620   0.486   1.516  1.00  0.00     0.022 A 
ENDBRANCH  16  19
ENDBRANCH  14  16
ENDBRANCH   9  14
BRANCH  11  26
ATOM     26  N   UNL     1       0.477   5.354   1.515  1.00  0.00    -0.369 N 
ATOM     27  C   UNL     1       1.077   6.684   1.284  1.00  0.00     0.116 C 
ATOM     28  C   UNL     1      -0.357   5.210   2.715  1.00  0.00     0.126 C 
ATOM     29  C   UNL     1       1.687   7.279   2.557  1.00  0.00     0.022 C 
ATOM     30  C   UNL     1       0.345   5.708   4.001  1.00  0.00     0.064 C 
ATOM     31  C   UNL     1       0.756   7.162   3.760  1.00  0.00     0.013 C 
BRANCH  30  32
ATOM     32  C   UNL     1       1.493   4.765   4.462  1.00  0.00     0.267 C 
BRANCH  32  33
ATOM     33  N   UNL     1       1.997   4.831   5.844  1.00  0.00    -0.335 N 
ATOM     34  C   UNL     1       1.018   4.553   6.893  1.00  0.00     0.262 C 
ATOM     35  C   UNL     1       2.728   6.031   6.246  1.00  0.00     0.262 C 
ATOM     36  H   UNL     1       2.667   4.065   5.772  1.00  0.00     0.348 HD
ATOM     37  C   UNL     1       0.623   5.909   7.445  1.00  0.00     0.067 C 
ATOM     38  C   UNL     1       1.879   6.749   7.293  1.00  0.00     0.067 C 
ENDBRANCH  32  33
ENDBRANCH  30  32
ENDBRANCH  11  26
ENDBRANCH   6   8
ENDBRANCH   5   6
ENDBRANCH   4   5
ENDBRANCH   3   4
ENDBRANCH   2   3
ENDBRANCH   1   2
BRANCH   1  39
ATOM     39  C   UNL     1       4.817   1.631  -6.215  1.00  0.00     0.188 C 
BRANCH  39  40
ATOM     40  O   UNL     1       3.603   2.366  -6.208  1.00  0.00    -0.376 OA
BRANCH  40  41
ATOM     41  C   UNL     1       3.378   3.195  -7.335  1.00  0.00     0.202 C 
BRANCH  41  42
ATOM     42  C   UNL     1       4.233   4.469  -7.313  1.00  0.00     0.261 C 
BRANCH  42  43
ATOM     43  O   UNL     1       3.990   5.207  -6.091  1.00  0.00    -0.460 OA
BRANCH  43  44
ATOM     44  C   UNL     1       5.005   5.235  -5.175  1.00  0.00     0.338 C 
ATOM     45  O   UNL     1       6.173   5.485  -5.433  1.00  0.00    -0.246 OA
BRANCH  44  46
ATOM     46  C   UNL     1       4.540   4.611  -3.889  1.00  0.00     0.060 A 
ATOM     47  C   UNL     1       5.420   4.076  -2.944  1.00  0.00     0.016 A 
ATOM     48  C   UNL     1       3.261   4.141  -3.860  1.00  0.00     0.016 A 
ATOM     49  C   UNL     1       5.053   2.928  -2.156  1.00  0.00     0.010 A 
ATOM     50  C   UNL     1       3.096   2.851  -3.341  1.00  0.00     0.010 A 
ATOM     51  C   UNL     1       3.906   2.162  -2.408  1.00  0.00    -0.014 A 
BRANCH  51  52
ATOM     52  C   UNL     1       3.644   0.636  -1.877  1.00  0.00     0.031 A 
ATOM     53  C   UNL     1       2.344  -0.205  -1.351  1.00  0.00     0.074 A 
ATOM     54  C   UNL     1       4.707  -0.185  -2.037  1.00  0.00     0.049 A 
ATOM     55  N   UNL     1       2.168  -1.503  -1.492  1.00  0.00    -0.248 NA
ATOM     56  C   UNL     1       1.125   0.288  -0.686  1.00  0.00     0.031 C 
ATOM     57  C   UNL     1       4.765  -1.643  -2.029  1.00  0.00     0.029 A 
ATOM     58  N   UNL     1       6.053   0.189  -2.031  1.00  0.00    -0.354 N 
ATOM     59  C   UNL     1       0.873  -1.875  -1.154  1.00  0.00     0.074 A 
ATOM     60  C   UNL     1       0.198  -0.666  -0.830  1.00  0.00     0.031 C 
ATOM     61  C   UNL     1       5.972  -2.025  -1.602  1.00  0.00     0.029 A 
ATOM     62  C   UNL     1       6.708  -0.823  -1.304  1.00  0.00     0.049 A 
ATOM     63  H   UNL     1       6.456   0.987  -2.444  1.00  0.00     0.167 HD
ATOM     64  C   UNL     1       0.490  -3.124  -0.755  1.00  0.00     0.037 A 
ATOM     65  C   UNL     1       7.306  -0.519  -0.125  1.00  0.00     0.037 A 
ATOM     66  C   UNL     1       1.629  -3.753  -0.127  1.00  0.00     0.049 A 
ATOM     67  C   UNL     1       6.651  -1.222   1.038  1.00  0.00     0.074 A 
ATOM     68  C   UNL     1       2.652  -4.571  -0.548  1.00  0.00     0.029 A 
ATOM     69  N   UNL     1       2.011  -3.228   1.101  1.00  0.00    -0.354 N 
ATOM     70  N   UNL     1       5.445  -1.735   1.027  1.00  0.00    -0.248 NA
ATOM     71  C   UNL     1       7.351  -1.453   2.293  1.00  0.00     0.031 C 
ATOM     72  C   UNL     1       3.724  -4.394   0.378  1.00  0.00     0.029 A 
ATOM     73  C   UNL     1       3.323  -3.524   1.387  1.00  0.00     0.049 A 
ATOM     74  H   UNL     1       1.418  -2.709   1.692  1.00  0.00     0.167 HD
ATOM     75  C   UNL     1       5.200  -2.340   2.238  1.00  0.00     0.074 A 
ATOM     76  C   UNL     1       6.437  -2.162   2.973  1.00  0.00     0.031 C 
ATOM     77  C   UNL     1       4.012  -2.951   2.550  1.00  0.00     0.037 A 
BRANCH  64  78
ATOM     78  C   UNL     1      -0.944  -3.636  -0.661  1.00  0.00     0.064 A 
ATOM     79  C   UNL     1      -1.257  -4.859  -0.026  1.00  0.00     0.173 A 
ATOM     80  C   UNL     1      -2.041  -3.011  -1.300  1.00  0.00     0.173 A 
ATOM     81  F   UNL     1      -0.299  -5.597   0.553  1.00  0.00    -0.203 F 
ATOM     82  C   UNL     1      -2.562  -5.380   0.014  1.00  0.00     0.198 A 
ATOM     83  C   UNL     1      -3.352  -3.509  -1.220  1.00  0.00     0.198 A 
ATOM     84  F   UNL     1      -1.870  -1.914  -2.050  1.00  0.00    -0.203 F 
ATOM     85  F   UNL     1      -2.797  -6.558   0.611  1.00  0.00    -0.200 F 
ATOM     86  C   UNL     1      -3.613  -4.693  -0.564  1.00  0.00     0.200 A 
ATOM     87  F   UNL     1      -4.359  -2.835  -1.796  1.00  0.00    -0.200 F 
ATOM     88  F   UNL     1      -4.862  -5.178  -0.505  1.00  0.00    -0.200 F 
ENDBRANCH  64  78
BRANCH  65  89
ATOM     89  C   UNL     1       8.002   0.801  -0.192  1.00  0.00     0.064 A 
ATOM     90  C   UNL     1       8.896   0.959  -1.283  1.00  0.00     0.173 A 
ATOM     91  C   UNL     1       7.537   1.970   0.420  1.00  0.00     0.173 A 
ATOM     92  F   UNL     1       9.374  -0.127  -1.914  1.00  0.00    -0.203 F 
ATOM     93  C   UNL     1       9.142   2.201  -1.859  1.00  0.00     0.198 A 
ATOM     94  C   UNL     1       7.850   3.229  -0.122  1.00  0.00     0.198 A 
ATOM     95  F   UNL     1       6.646   1.906   1.420  1.00  0.00    -0.203 F 
ATOM     96  F   UNL     1       9.786   2.275  -3.032  1.00  0.00    -0.200 F 
ATOM     97  C   UNL     1       8.605   3.337  -1.286  1.00  0.00     0.200 A 
ATOM     98  F   UNL     1       7.269   4.332   0.377  1.00  0.00    -0.200 F 
ATOM     99  F   UNL     1       8.729   4.519  -1.907  1.00  0.00    -0.200 F 
ENDBRANCH  65  89
BRANCH  77 100
ATOM    100  C   UNL     1       3.500  -3.161   3.980  1.00  0.00     0.064 A 
ATOM    101  C   UNL     1       4.112  -2.612   5.128  1.00  0.00     0.173 A 
ATOM    102  C   UNL     1       2.288  -3.842   4.258  1.00  0.00     0.173 A 
ATOM    103  F   UNL     1       5.111  -1.728   5.042  1.00  0.00    -0.203 F 
ATOM    104  C   UNL     1       3.669  -2.873   6.429  1.00  0.00     0.198 A 
ATOM    105  C   UNL     1       1.802  -4.038   5.558  1.00  0.00     0.198 A 
ATOM    106  F   UNL     1       1.485  -4.285   3.282  1.00  0.00    -0.203 F 
ATOM    107  F   UNL     1       4.358  -2.383   7.470  1.00  0.00    -0.200 F 
ATOM    108  C   UNL     1       2.517  -3.592   6.646  1.00  0.00     0.200 A 
ATOM    109  F   UNL     1       0.618  -4.639   5.740  1.00  0.00    -0.200 F 
ATOM    110  F   UNL     1       2.073  -3.808   7.891  1.00  0.00    -0.200 F 
ENDBRANCH  77 100
ENDBRANCH  51  52
ENDBRANCH  44  46
ENDBRANCH  43  44
ENDBRANCH  42  43
ENDBRANCH  41  42
ENDBRANCH  40  41
ENDBRANCH  39  40
ENDBRANCH   1  39
TORSDOF 23
