REMARK SMILES C#CCN(CC(=O)OCCOCCOCCOC(=O)c1ccc(-c2c3nc(c(-c4c(F)c(F)c(F)c(F)c4F)c4ccc([nH]4)c(-c4c(F)c(F)c(F)c(F)c4F)c4nc(c(-c5c(F)c(F)c(F)c(F)c5F)c5ccc2[nH]5)C=C4)C=C3)cc1)C(=O)NCc1ccnc(C)n1
REMARK SMILES IDX 12 1 11 2 10 3 9 4 8 5 6 6 7 7 5 8 4 9 3 10 2 11 1 12 83 13
REMARK SMILES IDX 84 14 85 15 86 17 87 18 88 19 93 20 89 21 91 22 90 23 92 24
REMARK SMILES IDX 13 25 14 26 15 27 16 28 17 29 18 30 19 31 20 32 21 33 82 34
REMARK SMILES IDX 22 35 81 36 23 37 24 38 25 39 75 40 26 41 80 42 74 43 76 44
REMARK SMILES IDX 27 45 79 46 73 47 72 48 28 50 60 51 40 52 59 53 41 54 44 55
REMARK SMILES IDX 58 56 77 57 42 58 43 59 57 61 78 62 45 63 29 64 30 65 38 66
REMARK SMILES IDX 31 67 32 68 36 69 39 70 33 71 34 72 37 73 35 74 61 75 62 76
REMARK SMILES IDX 70 77 63 78 64 79 68 80 71 81 65 82 66 83 69 84 67 85 46 86
REMARK SMILES IDX 47 87 55 88 48 89 49 90 53 91 56 92 50 93 51 94 54 95 52 96
REMARK H PARENT 85 16 76 49 44 60
REMARK Flexibility Score: inf
ROOT
ATOM      1  C   UNL     1      -4.980  -2.235   0.979  1.00  0.00     0.188 C 
ENDROOT
BRANCH   1   2
ATOM      2  O   UNL     1      -6.102  -2.329   1.848  1.00  0.00    -0.376 OA
BRANCH   2   3
ATOM      3  C   UNL     1      -7.180  -1.476   1.457  1.00  0.00     0.202 C 
BRANCH   3   4
ATOM      4  C   UNL     1      -6.905   0.035   1.225  1.00  0.00     0.261 C 
BRANCH   4   5
ATOM      5  O   UNL     1      -5.528   0.382   0.942  1.00  0.00    -0.462 OA
BRANCH   5   6
ATOM      6  C   UNL     1      -4.869   1.093   1.897  1.00  0.00     0.325 C 
ATOM      7  O   UNL     1      -5.436   1.676   2.820  1.00  0.00    -0.250 OA
BRANCH   6   8
ATOM      8  C   UNL     1      -3.338   1.221   1.672  1.00  0.00     0.245 C 
BRANCH   8   9
ATOM      9  N   UNL     1      -2.486   0.061   1.344  1.00  0.00    -0.303 N 
BRANCH   9  10
ATOM     10  C   UNL     1      -1.905  -0.035  -0.047  1.00  0.00     0.211 C 
BRANCH  10  11
ATOM     11  C   UNL     1      -0.385  -0.035  -0.047  1.00  0.00    -0.085 C 
ATOM     12  C   UNL     1       0.919  -0.035  -0.047  1.00  0.00     0.006 C 
ENDBRANCH  10  11
ENDBRANCH   9  10
BRANCH   9  13
ATOM     13  C   UNL     1      -2.151  -0.941   2.220  1.00  0.00     0.319 C 
ATOM     14  O   UNL     1      -1.348  -1.825   1.905  1.00  0.00    -0.249 OA
ATOM     15  N   UNL     1      -2.711  -1.139   3.421  1.00  0.00    -0.332 N 
ATOM     16  H   UNL     1      -2.469  -2.041   3.733  1.00  0.00     0.165 HD
BRANCH  15  17
ATOM     17  C   UNL     1      -3.545  -0.510   4.432  1.00  0.00     0.174 C 
BRANCH  17  18
ATOM     18  C   UNL     1      -4.821  -1.270   4.803  1.00  0.00     0.063 A 
ATOM     19  C   UNL     1      -5.908  -0.527   5.235  1.00  0.00     0.046 A 
ATOM     20  N   UNL     1      -4.844  -2.631   4.823  1.00  0.00    -0.236 NA
ATOM     21  C   UNL     1      -7.021  -1.222   5.642  1.00  0.00     0.115 A 
ATOM     22  C   UNL     1      -6.005  -3.219   5.221  1.00  0.00     0.125 A 
ATOM     23  N   UNL     1      -7.096  -2.557   5.644  1.00  0.00    -0.242 NA
ATOM     24  C   UNL     1      -6.140  -4.712   5.216  1.00  0.00     0.089 C 
ENDBRANCH  17  18
ENDBRANCH  15  17
ENDBRANCH   9  13
ENDBRANCH   8   9
ENDBRANCH   6   8
ENDBRANCH   5   6
ENDBRANCH   4   5
ENDBRANCH   3   4
ENDBRANCH   2   3
ENDBRANCH   1   2
BRANCH   1  25
ATOM     25  C   UNL     1      -3.962  -3.355   1.077  1.00  0.00     0.188 C 
BRANCH  25  26
ATOM     26  O   UNL     1      -4.383  -4.529   0.406  1.00  0.00    -0.376 OA
BRANCH  26  27
ATOM     27  C   UNL     1      -5.155  -5.389   1.234  1.00  0.00     0.202 C 
BRANCH  27  28
ATOM     28  C   UNL     1      -4.291  -6.273   2.148  1.00  0.00     0.261 C 
BRANCH  28  29
ATOM     29  O   UNL     1      -3.788  -5.595   3.327  1.00  0.00    -0.460 OA
BRANCH  29  30
ATOM     30  C   UNL     1      -2.445  -5.424   3.429  1.00  0.00     0.338 C 
ATOM     31  O   UNL     1      -1.607  -5.744   2.596  1.00  0.00    -0.246 OA
BRANCH  30  32
ATOM     32  C   UNL     1      -2.083  -4.748   4.706  1.00  0.00     0.060 A 
ATOM     33  C   UNL     1      -1.071  -3.781   4.704  1.00  0.00     0.016 A 
ATOM     34  C   UNL     1      -2.669  -5.108   5.923  1.00  0.00     0.016 A 
ATOM     35  C   UNL     1      -0.687  -3.142   5.894  1.00  0.00     0.010 A 
ATOM     36  C   UNL     1      -2.279  -4.481   7.120  1.00  0.00     0.010 A 
ATOM     37  C   UNL     1      -1.269  -3.504   7.118  1.00  0.00    -0.014 A 
BRANCH  37  38
ATOM     38  C   UNL     1      -0.630  -3.071   8.395  1.00  0.00     0.031 A 
ATOM     39  C   UNL     1       0.485  -3.924   8.943  1.00  0.00     0.074 A 
ATOM     40  C   UNL     1      -0.978  -1.947   9.051  1.00  0.00     0.049 A 
ATOM     41  N   UNL     1       1.232  -3.749  10.005  1.00  0.00    -0.248 NA
ATOM     42  C   UNL     1       0.800  -5.142   8.179  1.00  0.00     0.031 C 
ATOM     43  C   UNL     1      -2.014  -1.007   8.634  1.00  0.00     0.029 A 
ATOM     44  N   UNL     1      -0.483  -1.403  10.216  1.00  0.00    -0.354 N 
ATOM     45  C   UNL     1       2.117  -4.819  10.021  1.00  0.00     0.074 A 
ATOM     46  C   UNL     1       1.789  -5.659   8.889  1.00  0.00     0.031 C 
ATOM     47  C   UNL     1      -2.074   0.001   9.526  1.00  0.00     0.029 A 
ATOM     48  C   UNL     1      -1.101  -0.235  10.595  1.00  0.00     0.049 A 
ATOM     49  H   UNL     1       0.248  -1.815  10.732  1.00  0.00     0.167 HD
ATOM     50  C   UNL     1       3.121  -5.082  10.891  1.00  0.00     0.037 A 
ATOM     51  C   UNL     1      -0.912   0.544  11.682  1.00  0.00     0.037 A 
ATOM     52  C   UNL     1       3.432  -4.283  12.045  1.00  0.00     0.049 A 
ATOM     53  C   UNL     1       0.147   0.173  12.698  1.00  0.00     0.074 A 
ATOM     54  C   UNL     1       4.419  -4.485  12.993  1.00  0.00     0.029 A 
ATOM     55  N   UNL     1       2.745  -3.139  12.420  1.00  0.00    -0.354 N 
ATOM     56  N   UNL     1       1.005  -0.818  12.682  1.00  0.00    -0.248 NA
ATOM     57  C   UNL     1       0.262   1.035  13.887  1.00  0.00     0.031 C 
ATOM     58  C   UNL     1       4.290  -3.499  13.976  1.00  0.00     0.029 A 
ATOM     59  C   UNL     1       3.268  -2.641  13.603  1.00  0.00     0.049 A 
ATOM     60  H   UNL     1       1.997  -2.739  11.920  1.00  0.00     0.167 HD
ATOM     61  C   UNL     1       1.780  -0.677  13.830  1.00  0.00     0.074 A 
ATOM     62  C   UNL     1       1.301   0.503  14.515  1.00  0.00     0.031 C 
ATOM     63  C   UNL     1       2.798  -1.456  14.274  1.00  0.00     0.037 A 
BRANCH  50  64
ATOM     64  C   UNL     1       3.932  -6.320  10.641  1.00  0.00     0.064 A 
ATOM     65  C   UNL     1       4.820  -6.412   9.558  1.00  0.00     0.173 A 
ATOM     66  C   UNL     1       3.821  -7.426  11.495  1.00  0.00     0.173 A 
ATOM     67  F   UNL     1       4.949  -5.387   8.702  1.00  0.00    -0.203 F 
ATOM     68  C   UNL     1       5.542  -7.579   9.322  1.00  0.00     0.198 A 
ATOM     69  C   UNL     1       4.568  -8.579  11.275  1.00  0.00     0.198 A 
ATOM     70  F   UNL     1       2.987  -7.388  12.546  1.00  0.00    -0.203 F 
ATOM     71  F   UNL     1       6.342  -7.665   8.250  1.00  0.00    -0.200 F 
ATOM     72  C   UNL     1       5.420  -8.658  10.184  1.00  0.00     0.200 A 
ATOM     73  F   UNL     1       4.458  -9.617  12.116  1.00  0.00    -0.200 F 
ATOM     74  F   UNL     1       6.117  -9.780   9.957  1.00  0.00    -0.200 F 
ENDBRANCH  50  64
BRANCH  51  75
ATOM     75  C   UNL     1      -1.748   1.761  11.899  1.00  0.00     0.064 A 
ATOM     76  C   UNL     1      -1.182   3.045  11.902  1.00  0.00     0.173 A 
ATOM     77  C   UNL     1      -3.120   1.659  12.178  1.00  0.00     0.173 A 
ATOM     78  F   UNL     1       0.131   3.198  11.678  1.00  0.00    -0.203 F 
ATOM     79  C   UNL     1      -1.947   4.173  12.200  1.00  0.00     0.198 A 
ATOM     80  C   UNL     1      -3.890   2.790  12.443  1.00  0.00     0.198 A 
ATOM     81  F   UNL     1      -3.713   0.457  12.202  1.00  0.00    -0.203 F 
ATOM     82  F   UNL     1      -1.366   5.379  12.259  1.00  0.00    -0.200 F 
ATOM     83  C   UNL     1      -3.302   4.045  12.464  1.00  0.00     0.200 A 
ATOM     84  F   UNL     1      -5.201   2.662  12.690  1.00  0.00    -0.200 F 
ATOM     85  F   UNL     1      -4.037   5.128  12.754  1.00  0.00    -0.200 F 
ENDBRANCH  51  75
BRANCH  63  86
ATOM     86  C   UNL     1       3.505  -1.039  15.536  1.00  0.00     0.064 A 
ATOM     87  C   UNL     1       2.890  -1.116  16.794  1.00  0.00     0.173 A 
ATOM     88  C   UNL     1       4.840  -0.606  15.488  1.00  0.00     0.173 A 
ATOM     89  F   UNL     1       1.613  -1.514  16.898  1.00  0.00    -0.203 F 
ATOM     90  C   UNL     1       3.574  -0.748  17.951  1.00  0.00     0.198 A 
ATOM     91  C   UNL     1       5.532  -0.272  16.649  1.00  0.00     0.198 A 
ATOM     92  F   UNL     1       5.483  -0.522  14.313  1.00  0.00    -0.203 F 
ATOM     93  F   UNL     1       2.949  -0.783  19.136  1.00  0.00    -0.200 F 
ATOM     94  C   UNL     1       4.896  -0.335  17.879  1.00  0.00     0.200 A 
ATOM     95  F   UNL     1       6.815   0.109  16.578  1.00  0.00    -0.200 F 
ATOM     96  F   UNL     1       5.555   0.008  18.994  1.00  0.00    -0.200 F 
ENDBRANCH  63  86
ENDBRANCH  37  38
ENDBRANCH  30  32
ENDBRANCH  29  30
ENDBRANCH  28  29
ENDBRANCH  27  28
ENDBRANCH  26  27
ENDBRANCH  25  26
ENDBRANCH   1  25
TORSDOF 23
