REMARK SMILES CC[C@](C)(NC(=O)N1CCC[C@@H]1C)C(=O)OCCOCCOCCOC(=O)c1ccc(-c2c3nc(c(-c4c(F)c(F)c(F)c(F)c4F)c4ccc([nH]4)c(-c4c(F)c(F)c(F)c(F)c4F)c4nc(c(-c5c(F)c(F)c(F)c(F)c5F)c5ccc2[nH]5)C=C4)C=C3)cc1
REMARK SMILES IDX 20 1 19 2 18 3 17 4 16 5 14 6 15 7 3 8 4 9 2 10 1 11 5 12
REMARK SMILES IDX 6 13 7 15 8 16 9 17 12 18 10 19 11 20 13 21 21 22 22 23
REMARK SMILES IDX 23 24 24 25 25 26 26 27 27 28 28 29 29 30 90 31 30 32 89 33
REMARK SMILES IDX 31 34 32 35 33 36 83 37 34 38 88 39 82 40 84 41 35 42 87 43
REMARK SMILES IDX 81 44 80 45 36 47 68 48 48 49 67 50 49 51 52 52 66 53 85 54
REMARK SMILES IDX 50 55 51 56 65 58 86 59 53 60 37 61 38 62 46 63 39 64 40 65
REMARK SMILES IDX 44 66 47 67 41 68 42 69 45 70 43 71 69 72 70 73 78 74 71 75
REMARK SMILES IDX 72 76 76 77 79 78 73 79 74 80 77 81 75 82 54 83 55 84 63 85
REMARK SMILES IDX 56 86 57 87 61 88 64 89 58 90 59 91 62 92 60 93
REMARK H PARENT 5 14 84 46 52 57
REMARK Flexibility Score: inf
ROOT
ATOM      1  C   UNL     1       3.064   1.609  -2.293  1.00  0.00     0.188 C 
ENDROOT
BRANCH   1   2
ATOM      2  O   UNL     1       4.250   1.622  -1.501  1.00  0.00    -0.376 OA
BRANCH   2   3
ATOM      3  C   UNL     1       4.991   0.403  -1.349  1.00  0.00     0.202 C 
BRANCH   3   4
ATOM      4  C   UNL     1       4.352  -0.919  -0.870  1.00  0.00     0.261 C 
BRANCH   4   5
ATOM      5  O   UNL     1       3.325  -1.380  -1.749  1.00  0.00    -0.462 OA
BRANCH   5   6
ATOM      6  C   UNL     1       2.058  -1.284  -1.290  1.00  0.00     0.331 C 
ATOM      7  O   UNL     1       1.770  -1.157  -0.105  1.00  0.00    -0.249 OA
BRANCH   6   8
ATOM      8  C   UNL     1       1.027  -1.209  -2.448  1.00  0.00     0.136 C 
ATOM      9  C   UNL     1       0.196   0.095  -2.264  1.00  0.00     0.047 C 
BRANCH   8  10
ATOM     10  C   UNL     1       0.035  -2.408  -2.244  1.00  0.00     0.037 C 
ATOM     11  C   UNL     1      -0.941  -2.333  -1.063  1.00  0.00     0.007 C 
ENDBRANCH   8  10
BRANCH   8  12
ATOM     12  N   UNL     1       1.542  -1.354  -3.889  1.00  0.00    -0.322 N 
ATOM     13  C   UNL     1       2.531  -0.845  -4.685  1.00  0.00     0.318 C 
ATOM     14  H   UNL     1       1.000  -2.008  -4.388  1.00  0.00     0.166 HD
ATOM     15  O   UNL     1       2.167  -0.444  -5.795  1.00  0.00    -0.249 OA
BRANCH  13  16
ATOM     16  N   UNL     1       3.881  -1.015  -4.396  1.00  0.00    -0.322 N 
ATOM     17  C   UNL     1       4.842  -0.001  -4.828  1.00  0.00     0.122 C 
ATOM     18  C   UNL     1       4.519  -2.318  -4.606  1.00  0.00     0.083 C 
ATOM     19  C   UNL     1       6.235  -0.568  -4.727  1.00  0.00     0.024 C 
ATOM     20  C   UNL     1       6.012  -2.040  -4.938  1.00  0.00     0.027 C 
ATOM     21  C   UNL     1       3.930  -3.085  -5.788  1.00  0.00     0.031 C 
ENDBRANCH  13  16
ENDBRANCH   8  12
ENDBRANCH   6   8
ENDBRANCH   5   6
ENDBRANCH   4   5
ENDBRANCH   3   4
ENDBRANCH   2   3
ENDBRANCH   1   2
BRANCH   1  22
ATOM     22  C   UNL     1       2.982   2.599  -3.481  1.00  0.00     0.188 C 
BRANCH  22  23
ATOM     23  O   UNL     1       3.175   1.980  -4.747  1.00  0.00    -0.376 OA
BRANCH  23  24
ATOM     24  C   UNL     1       3.255   2.742  -5.954  1.00  0.00     0.202 C 
BRANCH  24  25
ATOM     25  C   UNL     1       4.458   3.699  -6.025  1.00  0.00     0.261 C 
BRANCH  25  26
ATOM     26  O   UNL     1       4.370   4.747  -5.048  1.00  0.00    -0.460 OA
BRANCH  26  27
ATOM     27  C   UNL     1       3.241   5.494  -5.152  1.00  0.00     0.338 C 
ATOM     28  O   UNL     1       2.555   5.650  -6.137  1.00  0.00    -0.246 OA
BRANCH  27  29
ATOM     29  C   UNL     1       2.787   5.790  -3.777  1.00  0.00     0.060 A 
ATOM     30  C   UNL     1       1.482   5.398  -3.448  1.00  0.00     0.016 A 
ATOM     31  C   UNL     1       3.636   6.335  -2.812  1.00  0.00     0.016 A 
ATOM     32  C   UNL     1       1.003   5.590  -2.161  1.00  0.00     0.010 A 
ATOM     33  C   UNL     1       3.132   6.598  -1.536  1.00  0.00     0.010 A 
ATOM     34  C   UNL     1       1.796   6.275  -1.233  1.00  0.00    -0.014 A 
BRANCH  34  35
ATOM     35  C   UNL     1       1.079   6.971  -0.144  1.00  0.00     0.031 A 
ATOM     36  C   UNL     1       0.550   8.345  -0.461  1.00  0.00     0.074 A 
ATOM     37  C   UNL     1       0.783   6.367   1.017  1.00  0.00     0.049 A 
ATOM     38  N   UNL     1      -0.167   9.156   0.272  1.00  0.00    -0.248 NA
ATOM     39  C   UNL     1       0.860   8.869  -1.805  1.00  0.00     0.031 C 
ATOM     40  C   UNL     1       1.173   5.011   1.394  1.00  0.00     0.029 A 
ATOM     41  N   UNL     1       0.065   6.827   2.090  1.00  0.00    -0.354 N 
ATOM     42  C   UNL     1      -0.404  10.267  -0.527  1.00  0.00     0.074 A 
ATOM     43  C   UNL     1       0.273  10.052  -1.784  1.00  0.00     0.031 C 
ATOM     44  C   UNL     1       0.700   4.753   2.626  1.00  0.00     0.029 A 
ATOM     45  C   UNL     1      -0.002   5.934   3.129  1.00  0.00     0.049 A 
ATOM     46  H   UNL     1      -0.362   7.714   2.113  1.00  0.00     0.167 HD
ATOM     47  C   UNL     1      -1.136  11.368  -0.243  1.00  0.00     0.037 A 
ATOM     48  C   UNL     1      -0.549   6.077   4.351  1.00  0.00     0.037 A 
ATOM     49  C   UNL     1      -1.787  11.589   1.018  1.00  0.00     0.049 A 
ATOM     50  C   UNL     1      -1.270   7.362   4.684  1.00  0.00     0.074 A 
ATOM     51  C   UNL     1      -2.517  12.687   1.432  1.00  0.00     0.029 A 
ATOM     52  N   UNL     1      -1.775  10.690   2.074  1.00  0.00    -0.354 N 
ATOM     53  N   UNL     1      -1.482   8.417   3.933  1.00  0.00    -0.248 NA
ATOM     54  C   UNL     1      -1.837   7.469   6.035  1.00  0.00     0.031 C 
ATOM     55  C   UNL     1      -2.902  12.475   2.759  1.00  0.00     0.029 A 
ATOM     56  C   UNL     1      -2.470  11.217   3.149  1.00  0.00     0.049 A 
ATOM     57  H   UNL     1      -1.337   9.808   2.061  1.00  0.00     0.167 HD
ATOM     58  C   UNL     1      -2.224   9.299   4.709  1.00  0.00     0.074 A 
ATOM     59  C   UNL     1      -2.451   8.642   5.979  1.00  0.00     0.031 C 
ATOM     60  C   UNL     1      -2.677  10.543   4.405  1.00  0.00     0.037 A 
BRANCH  47  61
ATOM     61  C   UNL     1      -1.231  12.424  -1.305  1.00  0.00     0.064 A 
ATOM     62  C   UNL     1      -1.965  12.223  -2.484  1.00  0.00     0.173 A 
ATOM     63  C   UNL     1      -0.584  13.657  -1.136  1.00  0.00     0.173 A 
ATOM     64  F   UNL     1      -2.578  11.050  -2.707  1.00  0.00    -0.203 F 
ATOM     65  C   UNL     1      -2.033  13.212  -3.462  1.00  0.00     0.198 A 
ATOM     66  C   UNL     1      -0.681  14.655  -2.102  1.00  0.00     0.198 A 
ATOM     67  F   UNL     1       0.140  13.896  -0.032  1.00  0.00    -0.203 F 
ATOM     68  F   UNL     1      -2.699  12.980  -4.602  1.00  0.00    -0.200 F 
ATOM     69  C   UNL     1      -1.399  14.430  -3.266  1.00  0.00     0.200 A 
ATOM     70  F   UNL     1      -0.074  15.834  -1.907  1.00  0.00    -0.200 F 
ATOM     71  F   UNL     1      -1.474  15.384  -4.204  1.00  0.00    -0.200 F 
ENDBRANCH  47  61
BRANCH  48  72
ATOM     72  C   UNL     1      -0.407   4.997   5.365  1.00  0.00     0.064 A 
ATOM     73  C   UNL     1      -1.518   4.303   5.863  1.00  0.00     0.173 A 
ATOM     74  C   UNL     1       0.852   4.672   5.895  1.00  0.00     0.173 A 
ATOM     75  F   UNL     1      -2.748   4.596   5.413  1.00  0.00    -0.203 F 
ATOM     76  C   UNL     1      -1.380   3.348   6.870  1.00  0.00     0.198 A 
ATOM     77  C   UNL     1       0.993   3.692   6.875  1.00  0.00     0.198 A 
ATOM     78  F   UNL     1       1.949   5.310   5.461  1.00  0.00    -0.203 F 
ATOM     79  F   UNL     1      -2.467   2.748   7.374  1.00  0.00    -0.200 F 
ATOM     80  C   UNL     1      -0.124   3.040   7.371  1.00  0.00     0.200 A 
ATOM     81  F   UNL     1       2.210   3.392   7.348  1.00  0.00    -0.200 F 
ATOM     82  F   UNL     1       0.007   2.125   8.341  1.00  0.00    -0.200 F 
ENDBRANCH  48  72
BRANCH  60  83
ATOM     83  C   UNL     1      -3.486  11.252   5.455  1.00  0.00     0.064 A 
ATOM     84  C   UNL     1      -2.911  11.700   6.654  1.00  0.00     0.173 A 
ATOM     85  C   UNL     1      -4.853  11.498   5.253  1.00  0.00     0.173 A 
ATOM     86  F   UNL     1      -1.610  11.484   6.902  1.00  0.00    -0.203 F 
ATOM     87  C   UNL     1      -3.684  12.322   7.631  1.00  0.00     0.198 A 
ATOM     88  C   UNL     1      -5.614  12.156   6.215  1.00  0.00     0.198 A 
ATOM     89  F   UNL     1      -5.451  11.106   4.118  1.00  0.00    -0.203 F 
ATOM     90  F   UNL     1      -3.128  12.674   8.799  1.00  0.00    -0.200 F 
ATOM     91  C   UNL     1      -5.033  12.553   7.409  1.00  0.00     0.200 A 
ATOM     92  F   UNL     1      -6.913  12.397   5.989  1.00  0.00    -0.200 F 
ATOM     93  F   UNL     1      -5.776  13.149   8.351  1.00  0.00    -0.200 F 
ENDBRANCH  60  83
ENDBRANCH  34  35
ENDBRANCH  27  29
ENDBRANCH  26  27
ENDBRANCH  25  26
ENDBRANCH  24  25
ENDBRANCH  23  24
ENDBRANCH  22  23
ENDBRANCH   1  22
TORSDOF 20
