REMARK SMILES O=C(OCCOCCOCCOC(=O)c1cc(S(=O)(=O)NNC(=O)[C@H]2C=C(c3ccccc3)N=N2)ccc1F)c1ccc(-c2c3nc(c(-c4c(F)c(F)c(F)c(F)c4F)c4ccc([nH]4)c(-c4c(F)c(F)c(F)c(F)c4F)c4nc(c(-c5c(F)c(F)c(F)c(F)c5F)c5ccc2[nH]5)C=C4)C=C3)cc1
REMARK SMILES IDX 9 1 8 2 7 3 6 4 5 5 4 6 3 7 2 8 1 9 40 10 41 11 102 12 42 13
REMARK SMILES IDX 101 14 43 15 44 16 45 17 95 18 46 19 100 20 94 21 96 22
REMARK SMILES IDX 47 23 99 24 93 25 92 26 48 28 80 29 60 30 79 31 61 32 64 33
REMARK SMILES IDX 78 34 97 35 62 36 63 37 77 39 98 40 65 41 49 42 50 43 58 44
REMARK SMILES IDX 51 45 52 46 56 47 59 48 53 49 54 50 57 51 55 52 81 53 82 54
REMARK SMILES IDX 90 55 83 56 84 57 88 58 91 59 85 60 86 61 89 62 87 63 66 64
REMARK SMILES IDX 67 65 75 66 68 67 69 68 73 69 76 70 70 71 71 72 74 73 72 74
REMARK SMILES IDX 10 75 11 76 12 77 13 78 14 79 15 80 16 81 38 82 17 83 37 84
REMARK SMILES IDX 39 85 36 86 18 87 19 88 20 89 21 90 22 92 23 93 24 95 25 96
REMARK SMILES IDX 26 97 35 98 27 99 34 100 28 101 29 102 33 103 30 104 32 105
REMARK SMILES IDX 31 106
REMARK H PARENT 96 27 64 38 21 91 22 94
REMARK Flexibility Score: inf
ROOT
ATOM      1  O   UNL     1      -6.298  -0.813  -3.803  1.00  0.00    -0.376 OA
ENDROOT
BRANCH   1   2
ATOM      2  C   UNL     1      -5.398  -1.073  -2.737  1.00  0.00     0.188 C 
BRANCH   2   3
ATOM      3  C   UNL     1      -4.735   0.082  -1.949  1.00  0.00     0.188 C 
BRANCH   3   4
ATOM      4  O   UNL     1      -4.950   1.385  -2.432  1.00  0.00    -0.376 OA
BRANCH   4   5
ATOM      5  C   UNL     1      -4.024   2.053  -3.265  1.00  0.00     0.202 C 
BRANCH   5   6
ATOM      6  C   UNL     1      -2.995   1.362  -4.167  1.00  0.00     0.261 C 
BRANCH   6   7
ATOM      7  O   UNL     1      -2.977  -0.062  -4.157  1.00  0.00    -0.460 OA
BRANCH   7   8
ATOM      8  C   UNL     1      -2.100  -0.909  -3.585  1.00  0.00     0.338 C 
ATOM      9  O   UNL     1      -2.020  -2.058  -4.018  1.00  0.00    -0.246 OA
BRANCH   8  10
ATOM     10  C   UNL     1      -1.350  -0.600  -2.334  1.00  0.00     0.060 A 
ATOM     11  C   UNL     1      -0.900   0.656  -1.927  1.00  0.00     0.016 A 
ATOM     12  C   UNL     1      -1.036  -1.723  -1.542  1.00  0.00     0.016 A 
ATOM     13  C   UNL     1       0.009   0.758  -0.885  1.00  0.00     0.010 A 
ATOM     14  C   UNL     1      -0.155  -1.622  -0.480  1.00  0.00     0.010 A 
ATOM     15  C   UNL     1       0.443  -0.395  -0.232  1.00  0.00    -0.014 A 
BRANCH  15  16
ATOM     16  C   UNL     1       1.578  -0.265   0.667  1.00  0.00     0.031 A 
ATOM     17  C   UNL     1       1.364   0.603   1.855  1.00  0.00     0.074 A 
ATOM     18  C   UNL     1       2.733  -0.917   0.423  1.00  0.00     0.049 A 
ATOM     19  N   UNL     1       2.014   1.667   2.203  1.00  0.00    -0.248 NA
ATOM     20  C   UNL     1       0.209   0.298   2.712  1.00  0.00     0.031 C 
ATOM     21  C   UNL     1       2.994  -1.972  -0.562  1.00  0.00     0.029 A 
ATOM     22  N   UNL     1       3.920  -0.820   1.080  1.00  0.00    -0.354 N 
ATOM     23  C   UNL     1       1.457   2.077   3.413  1.00  0.00     0.074 A 
ATOM     24  C   UNL     1       0.280   1.275   3.616  1.00  0.00     0.031 C 
ATOM     25  C   UNL     1       4.173  -2.570  -0.279  1.00  0.00     0.029 A 
ATOM     26  C   UNL     1       4.809  -1.849   0.808  1.00  0.00     0.049 A 
ATOM     27  H   UNL     1       4.130  -0.082   1.696  1.00  0.00     0.167 HD
ATOM     28  C   UNL     1       2.124   2.910   4.259  1.00  0.00     0.037 A 
ATOM     29  C   UNL     1       5.944  -2.125   1.495  1.00  0.00     0.037 A 
ATOM     30  C   UNL     1       3.100   3.700   3.556  1.00  0.00     0.049 A 
ATOM     31  C   UNL     1       6.325  -0.891   2.228  1.00  0.00     0.074 A 
ATOM     32  C   UNL     1       3.031   4.641   2.547  1.00  0.00     0.029 A 
ATOM     33  N   UNL     1       4.421   3.336   3.623  1.00  0.00    -0.354 N 
ATOM     34  N   UNL     1       6.729   0.205   1.648  1.00  0.00    -0.248 NA
ATOM     35  C   UNL     1       5.819  -0.733   3.584  1.00  0.00     0.031 C 
ATOM     36  C   UNL     1       4.184   4.405   1.743  1.00  0.00     0.029 A 
ATOM     37  C   UNL     1       4.910   3.377   2.342  1.00  0.00     0.049 A 
ATOM     38  H   UNL     1       4.922   3.092   4.435  1.00  0.00     0.167 HD
ATOM     39  C   UNL     1       6.157   1.229   2.388  1.00  0.00     0.074 A 
ATOM     40  C   UNL     1       5.670   0.594   3.609  1.00  0.00     0.031 C 
ATOM     41  C   UNL     1       5.879   2.441   1.825  1.00  0.00     0.037 A 
BRANCH  28  42
ATOM     42  C   UNL     1       2.125   2.755   5.761  1.00  0.00     0.064 A 
ATOM     43  C   UNL     1       1.762   1.562   6.426  1.00  0.00     0.173 A 
ATOM     44  C   UNL     1       2.792   3.709   6.557  1.00  0.00     0.173 A 
ATOM     45  F   UNL     1       1.192   0.533   5.789  1.00  0.00    -0.203 F 
ATOM     46  C   UNL     1       2.070   1.328   7.765  1.00  0.00     0.198 A 
ATOM     47  C   UNL     1       3.143   3.450   7.885  1.00  0.00     0.198 A 
ATOM     48  F   UNL     1       3.197   4.876   6.032  1.00  0.00    -0.203 F 
ATOM     49  F   UNL     1       1.729   0.157   8.322  1.00  0.00    -0.200 F 
ATOM     50  C   UNL     1       2.790   2.256   8.485  1.00  0.00     0.200 A 
ATOM     51  F   UNL     1       3.886   4.336   8.562  1.00  0.00    -0.200 F 
ATOM     52  F   UNL     1       3.179   1.978   9.736  1.00  0.00    -0.200 F 
ENDBRANCH  28  42
BRANCH  29  53
ATOM     53  C   UNL     1       6.453  -3.468   1.871  1.00  0.00     0.064 A 
ATOM     54  C   UNL     1       5.585  -4.569   2.022  1.00  0.00     0.173 A 
ATOM     55  C   UNL     1       7.757  -3.631   2.367  1.00  0.00     0.173 A 
ATOM     56  F   UNL     1       4.298  -4.489   1.659  1.00  0.00    -0.203 F 
ATOM     57  C   UNL     1       5.989  -5.749   2.647  1.00  0.00     0.198 A 
ATOM     58  C   UNL     1       8.158  -4.812   3.001  1.00  0.00     0.198 A 
ATOM     59  F   UNL     1       8.631  -2.616   2.306  1.00  0.00    -0.203 F 
ATOM     60  F   UNL     1       5.109  -6.745   2.818  1.00  0.00    -0.200 F 
ATOM     61  C   UNL     1       7.271  -5.865   3.150  1.00  0.00     0.200 A 
ATOM     62  F   UNL     1       9.389  -4.905   3.523  1.00  0.00    -0.200 F 
ATOM     63  F   UNL     1       7.633  -6.970   3.816  1.00  0.00    -0.200 F 
ENDBRANCH  29  53
BRANCH  41  64
ATOM     64  C   UNL     1       6.405   2.717   0.445  1.00  0.00     0.064 A 
ATOM     65  C   UNL     1       7.210   3.847   0.251  1.00  0.00     0.173 A 
ATOM     66  C   UNL     1       5.986   2.018  -0.701  1.00  0.00     0.173 A 
ATOM     67  F   UNL     1       7.592   4.588   1.304  1.00  0.00    -0.203 F 
ATOM     68  C   UNL     1       7.573   4.265  -1.026  1.00  0.00     0.198 A 
ATOM     69  C   UNL     1       6.380   2.418  -1.977  1.00  0.00     0.198 A 
ATOM     70  F   UNL     1       5.135   0.990  -0.606  1.00  0.00    -0.203 F 
ATOM     71  F   UNL     1       8.287   5.389  -1.181  1.00  0.00    -0.200 F 
ATOM     72  C   UNL     1       7.163   3.548  -2.139  1.00  0.00     0.200 A 
ATOM     73  F   UNL     1       5.960   1.738  -3.054  1.00  0.00    -0.200 F 
ATOM     74  F   UNL     1       7.494   3.967  -3.369  1.00  0.00    -0.200 F 
ENDBRANCH  41  64
ENDBRANCH  15  16
ENDBRANCH   8  10
ENDBRANCH   7   8
ENDBRANCH   6   7
ENDBRANCH   5   6
ENDBRANCH   4   5
ENDBRANCH   3   4
ENDBRANCH   2   3
ENDBRANCH   1   2
BRANCH   1  75
ATOM     75  C   UNL     1      -7.176   0.295  -3.732  1.00  0.00     0.202 C 
BRANCH  75  76
ATOM     76  C   UNL     1      -8.161   0.394  -2.558  1.00  0.00     0.261 C 
BRANCH  76  77
ATOM     77  O   UNL     1      -7.590   0.246  -1.246  1.00  0.00    -0.460 OA
BRANCH  77  78
ATOM     78  C   UNL     1      -7.942  -0.867  -0.556  1.00  0.00     0.341 C 
ATOM     79  O   UNL     1      -8.639  -1.791  -0.931  1.00  0.00    -0.246 OA
BRANCH  78  80
ATOM     80  C   UNL     1      -7.234  -0.878   0.733  1.00  0.00     0.097 A 
ATOM     81  C   UNL     1      -6.102  -1.684   0.908  1.00  0.00     0.040 A 
ATOM     82  C   UNL     1      -7.702  -0.106   1.788  1.00  0.00     0.137 A 
ATOM     83  C   UNL     1      -5.400  -1.647   2.123  1.00  0.00     0.085 A 
ATOM     84  C   UNL     1      -7.036  -0.117   3.017  1.00  0.00     0.041 A 
ATOM     85  F   UNL     1      -8.802   0.646   1.651  1.00  0.00    -0.206 F 
ATOM     86  C   UNL     1      -5.870  -0.876   3.187  1.00  0.00     0.025 A 
BRANCH  83  87
ATOM     87  S   UNL     1      -3.915  -2.618   2.234  1.00  0.00     0.257 S 
ATOM     88  O   UNL     1      -4.159  -3.853   1.531  1.00  0.00    -0.205 OA
ATOM     89  O   UNL     1      -2.819  -1.737   1.881  1.00  0.00    -0.205 OA
BRANCH  87  90
ATOM     90  N   UNL     1      -3.707  -3.007   3.874  1.00  0.00    -0.123 NA
ATOM     91  H   UNL     1      -3.610  -2.124   4.376  1.00  0.00     0.167 HD
BRANCH  90  92
ATOM     92  N   UNL     1      -4.716  -3.770   4.562  1.00  0.00    -0.275 N 
ATOM     93  C   UNL     1      -4.487  -4.664   5.578  1.00  0.00     0.265 C 
ATOM     94  H   UNL     1      -5.650  -3.640   4.279  1.00  0.00     0.186 HD
ATOM     95  O   UNL     1      -5.464  -5.060   6.223  1.00  0.00    -0.271 OA
BRANCH  93  96
ATOM     96  C   UNL     1      -3.051  -5.103   5.908  1.00  0.00     0.244 C 
ATOM     97  C   UNL     1      -3.071  -6.402   6.627  1.00  0.00     0.042 C 
ATOM     98  N   UNL     1      -2.342  -5.461   4.644  1.00  0.00    -0.171 NA
ATOM     99  C   UNL     1      -2.561  -7.292   5.774  1.00  0.00     0.091 C 
ATOM    100  N   UNL     1      -2.099  -6.703   4.624  1.00  0.00    -0.155 NA
BRANCH  99 101
ATOM    101  C   UNL     1      -2.564  -8.741   5.985  1.00  0.00     0.002 A 
ATOM    102  C   UNL     1      -1.394  -9.496   5.838  1.00  0.00     0.010 A 
ATOM    103  C   UNL     1      -3.760  -9.401   6.310  1.00  0.00     0.010 A 
ATOM    104  C   UNL     1      -1.417 -10.880   6.038  1.00  0.00     0.001 A 
ATOM    105  C   UNL     1      -3.783 -10.784   6.499  1.00  0.00     0.001 A 
ATOM    106  C   UNL     1      -2.610 -11.523   6.368  1.00  0.00     0.000 A 
ENDBRANCH  99 101
ENDBRANCH  93  96
ENDBRANCH  90  92
ENDBRANCH  87  90
ENDBRANCH  83  87
ENDBRANCH  78  80
ENDBRANCH  77  78
ENDBRANCH  76  77
ENDBRANCH  75  76
ENDBRANCH   1  75
TORSDOF 22
