REMARK SMILES C[C@H](Nc1ccc(F)cc1Br)[C@@H](C)C(=O)OCCOCCOCCOC(=O)c1ccc(-c2c3nc(c(-c4c(F)c(F)c(F)c(F)c4F)c4ccc([nH]4)c(-c4c(F)c(F)c(F)c(F)c4F)c4nc(c(-c5c(F)c(F)c(F)c(F)c5F)c5ccc2[nH]5)C=C4)C=C3)cc1
REMARK SMILES IDX 20 1 19 2 18 3 17 4 16 5 14 6 15 7 12 8 13 9 2 10 1 11 3 12
REMARK SMILES IDX 4 14 5 15 10 16 6 17 9 18 11 19 7 20 8 21 21 22 22 23 23 24
REMARK SMILES IDX 24 25 25 26 26 27 27 28 28 29 29 30 90 31 30 32 89 33 31 34
REMARK SMILES IDX 32 35 33 36 83 37 34 38 88 39 82 40 84 41 35 42 87 43 81 44
REMARK SMILES IDX 80 45 36 47 68 48 48 49 67 50 49 51 52 52 66 53 85 54 50 55
REMARK SMILES IDX 51 56 65 58 86 59 53 60 37 61 38 62 46 63 39 64 40 65 44 66
REMARK SMILES IDX 47 67 41 68 42 69 45 70 43 71 69 72 70 73 78 74 71 75 72 76
REMARK SMILES IDX 76 77 79 78 73 79 74 80 77 81 75 82 54 83 55 84 63 85 56 86
REMARK SMILES IDX 57 87 61 88 64 89 58 90 59 91 62 92 60 93
REMARK H PARENT 3 13 84 46 52 57
REMARK Flexibility Score: inf
ROOT
ATOM      1  C   UNL     1      -2.103  -2.917   4.195  1.00  0.00     0.188 C 
ENDROOT
BRANCH   1   2
ATOM      2  O   UNL     1      -2.756  -4.167   4.062  1.00  0.00    -0.376 OA
BRANCH   2   3
ATOM      3  C   UNL     1      -2.397  -5.046   3.002  1.00  0.00     0.202 C 
BRANCH   3   4
ATOM      4  C   UNL     1      -2.484  -4.549   1.544  1.00  0.00     0.261 C 
BRANCH   4   5
ATOM      5  O   UNL     1      -1.552  -3.517   1.103  1.00  0.00    -0.463 OA
BRANCH   5   6
ATOM      6  C   UNL     1      -2.096  -2.291   0.886  1.00  0.00     0.310 C 
ATOM      7  O   UNL     1      -3.265  -2.020   1.160  1.00  0.00    -0.252 OA
BRANCH   6   8
ATOM      8  C   UNL     1      -1.206  -1.236   0.219  1.00  0.00     0.118 C 
ATOM      9  C   UNL     1      -1.763  -1.104  -1.211  1.00  0.00     0.022 C 
BRANCH   8  10
ATOM     10  C   UNL     1       0.345  -1.351   0.192  1.00  0.00     0.090 C 
ATOM     11  C   UNL     1       1.049  -1.074   1.532  1.00  0.00     0.031 C 
BRANCH  10  12
ATOM     12  N   UNL     1       0.875  -0.313  -0.721  1.00  0.00    -0.381 N 
ATOM     13  H   UNL     1       0.359   0.507  -0.897  1.00  0.00     0.160 HD
BRANCH  12  14
ATOM     14  C   UNL     1       2.116  -0.512  -1.331  1.00  0.00     0.049 A 
ATOM     15  C   UNL     1       2.350  -1.674  -2.076  1.00  0.00     0.030 A 
ATOM     16  C   UNL     1       3.189   0.385  -1.136  1.00  0.00     0.044 A 
ATOM     17  C   UNL     1       3.615  -1.949  -2.594  1.00  0.00     0.041 A 
ATOM     18  C   UNL     1       4.460   0.106  -1.639  1.00  0.00     0.057 A 
ATOM     19  Br  UNL     1       2.961   1.988  -0.136  1.00  0.00    -0.048 Br
ATOM     20  C   UNL     1       4.658  -1.063  -2.359  1.00  0.00     0.124 A 
ATOM     21  F   UNL     1       5.878  -1.345  -2.834  1.00  0.00    -0.207 F 
ENDBRANCH  12  14
ENDBRANCH  10  12
ENDBRANCH   8  10
ENDBRANCH   6   8
ENDBRANCH   5   6
ENDBRANCH   4   5
ENDBRANCH   3   4
ENDBRANCH   2   3
ENDBRANCH   1   2
BRANCH   1  22
ATOM     22  C   UNL     1      -0.641  -2.795   3.780  1.00  0.00     0.188 C 
BRANCH  22  23
ATOM     23  O   UNL     1       0.004  -4.024   3.532  1.00  0.00    -0.376 OA
BRANCH  23  24
ATOM     24  C   UNL     1       1.289  -4.268   4.077  1.00  0.00     0.202 C 
BRANCH  24  25
ATOM     25  C   UNL     1       1.334  -4.293   5.611  1.00  0.00     0.261 C 
BRANCH  25  26
ATOM     26  O   UNL     1       0.991  -3.044   6.244  1.00  0.00    -0.460 OA
BRANCH  26  27
ATOM     27  C   UNL     1       1.783  -1.986   5.953  1.00  0.00     0.338 C 
ATOM     28  O   UNL     1       2.826  -2.004   5.314  1.00  0.00    -0.246 OA
BRANCH  27  29
ATOM     29  C   UNL     1       1.046  -0.747   6.289  1.00  0.00     0.060 A 
ATOM     30  C   UNL     1       0.917   0.233   5.294  1.00  0.00     0.016 A 
ATOM     31  C   UNL     1       0.447  -0.561   7.536  1.00  0.00     0.016 A 
ATOM     32  C   UNL     1       0.224   1.414   5.554  1.00  0.00     0.010 A 
ATOM     33  C   UNL     1      -0.232   0.634   7.804  1.00  0.00     0.010 A 
ATOM     34  C   UNL     1      -0.319   1.642   6.826  1.00  0.00    -0.014 A 
BRANCH  34  35
ATOM     35  C   UNL     1      -0.810   3.002   7.169  1.00  0.00     0.031 A 
ATOM     36  C   UNL     1       0.078   3.907   7.980  1.00  0.00     0.074 A 
ATOM     37  C   UNL     1      -1.991   3.459   6.712  1.00  0.00     0.049 A 
ATOM     38  N   UNL     1      -0.131   5.131   8.395  1.00  0.00    -0.248 NA
ATOM     39  C   UNL     1       1.383   3.354   8.376  1.00  0.00     0.031 C 
ATOM     40  C   UNL     1      -2.922   2.705   5.877  1.00  0.00     0.029 A 
ATOM     41  N   UNL     1      -2.603   4.677   6.885  1.00  0.00    -0.354 N 
ATOM     42  C   UNL     1       1.009   5.489   9.104  1.00  0.00     0.074 A 
ATOM     43  C   UNL     1       1.891   4.343   9.095  1.00  0.00     0.031 C 
ATOM     44  C   UNL     1      -3.989   3.478   5.606  1.00  0.00     0.029 A 
ATOM     45  C   UNL     1      -3.832   4.767   6.279  1.00  0.00     0.049 A 
ATOM     46  H   UNL     1      -2.198   5.415   7.396  1.00  0.00     0.167 HD
ATOM     47  C   UNL     1       1.300   6.671   9.699  1.00  0.00     0.037 A 
ATOM     48  C   UNL     1      -4.735   5.769   6.285  1.00  0.00     0.037 A 
ATOM     49  C   UNL     1       0.425   7.814   9.705  1.00  0.00     0.049 A 
ATOM     50  C   UNL     1      -4.418   7.048   7.020  1.00  0.00     0.074 A 
ATOM     51  C   UNL     1       0.637   9.060  10.270  1.00  0.00     0.029 A 
ATOM     52  N   UNL     1      -0.834   7.849   9.124  1.00  0.00    -0.354 N 
ATOM     53  N   UNL     1      -3.333   7.385   7.674  1.00  0.00    -0.248 NA
ATOM     54  C   UNL     1      -5.457   8.089   7.013  1.00  0.00     0.031 C 
ATOM     55  C   UNL     1      -0.518   9.826  10.087  1.00  0.00     0.029 A 
ATOM     56  C   UNL     1      -1.424   9.085   9.346  1.00  0.00     0.049 A 
ATOM     57  H   UNL     1      -1.249   7.107   8.628  1.00  0.00     0.167 HD
ATOM     58  C   UNL     1      -3.545   8.681   8.129  1.00  0.00     0.074 A 
ATOM     59  C   UNL     1      -4.854   9.078   7.658  1.00  0.00     0.031 C 
ATOM     60  C   UNL     1      -2.729   9.471   8.872  1.00  0.00     0.037 A 
BRANCH  47  61
ATOM     61  C   UNL     1       2.610   6.774  10.428  1.00  0.00     0.064 A 
ATOM     62  C   UNL     1       3.839   6.787   9.752  1.00  0.00     0.173 A 
ATOM     63  C   UNL     1       2.632   6.890  11.827  1.00  0.00     0.173 A 
ATOM     64  F   UNL     1       3.876   6.663   8.416  1.00  0.00    -0.203 F 
ATOM     65  C   UNL     1       5.041   6.880  10.449  1.00  0.00     0.198 A 
ATOM     66  C   UNL     1       3.833   7.018  12.518  1.00  0.00     0.198 A 
ATOM     67  F   UNL     1       1.486   6.886  12.525  1.00  0.00    -0.203 F 
ATOM     68  F   UNL     1       6.205   6.834   9.786  1.00  0.00    -0.200 F 
ATOM     69  C   UNL     1       5.037   7.004  11.831  1.00  0.00     0.200 A 
ATOM     70  F   UNL     1       3.826   7.153  13.852  1.00  0.00    -0.200 F 
ATOM     71  F   UNL     1       6.194   7.102  12.500  1.00  0.00    -0.200 F 
ENDBRANCH  47  61
BRANCH  48  72
ATOM     72  C   UNL     1      -6.038   5.604   5.584  1.00  0.00     0.064 A 
ATOM     73  C   UNL     1      -6.370   6.386   4.468  1.00  0.00     0.173 A 
ATOM     74  C   UNL     1      -6.993   4.682   6.038  1.00  0.00     0.173 A 
ATOM     75  F   UNL     1      -5.505   7.304   4.013  1.00  0.00    -0.203 F 
ATOM     76  C   UNL     1      -7.613   6.267   3.849  1.00  0.00     0.198 A 
ATOM     77  C   UNL     1      -8.222   4.540   5.397  1.00  0.00     0.198 A 
ATOM     78  F   UNL     1      -6.731   3.914   7.107  1.00  0.00    -0.203 F 
ATOM     79  F   UNL     1      -7.926   7.067   2.821  1.00  0.00    -0.200 F 
ATOM     80  C   UNL     1      -8.535   5.339   4.309  1.00  0.00     0.200 A 
ATOM     81  F   UNL     1      -9.105   3.634   5.840  1.00  0.00    -0.200 F 
ATOM     82  F   UNL     1      -9.729   5.224   3.712  1.00  0.00    -0.200 F 
ENDBRANCH  48  72
BRANCH  60  83
ATOM     83  C   UNL     1      -3.213  10.860   9.190  1.00  0.00     0.064 A 
ATOM     84  C   UNL     1      -4.291  11.089  10.059  1.00  0.00     0.173 A 
ATOM     85  C   UNL     1      -2.576  11.979   8.632  1.00  0.00     0.173 A 
ATOM     86  F   UNL     1      -4.944  10.055  10.613  1.00  0.00    -0.203 F 
ATOM     87  C   UNL     1      -4.738  12.382  10.323  1.00  0.00     0.198 A 
ATOM     88  C   UNL     1      -3.001  13.272   8.928  1.00  0.00     0.198 A 
ATOM     89  F   UNL     1      -1.533  11.822   7.803  1.00  0.00    -0.203 F 
ATOM     90  F   UNL     1      -5.811  12.571  11.104  1.00  0.00    -0.200 F 
ATOM     91  C   UNL     1      -4.090  13.472   9.763  1.00  0.00     0.200 A 
ATOM     92  F   UNL     1      -2.361  14.324   8.400  1.00  0.00    -0.200 F 
ATOM     93  F   UNL     1      -4.520  14.714  10.020  1.00  0.00    -0.200 F 
ENDBRANCH  60  83
ENDBRANCH  34  35
ENDBRANCH  27  29
ENDBRANCH  26  27
ENDBRANCH  25  26
ENDBRANCH  24  25
ENDBRANCH  23  24
ENDBRANCH  22  23
ENDBRANCH   1  22
TORSDOF 20
