REMARK SMILES O=C(OCCOCCOCCOC(=O)c1ccccc1/C=C1\SC(=S)N(Cc2ccccc2)C1=O)c1ccc(-c2c3nc(c(-c4c(F)c(F)c(F)c(F)c4F)c4ccc([nH]4)c(-c4c(F)c(F)c(F)c(F)c4F)c4nc(c(-c5c(F)c(F)c(F)c(F)c5F)c5ccc2[nH]5)C=C4)C=C3)cc1
REMARK SMILES IDX 8 1 7 2 6 3 5 4 4 5 3 6 2 7 1 8 36 9 37 10 98 11 38 12 97 13
REMARK SMILES IDX 39 14 40 15 41 16 91 17 42 18 96 19 90 20 92 21 43 22 95 23
REMARK SMILES IDX 89 24 88 25 44 27 76 28 56 29 75 30 57 31 60 32 74 33 93 34
REMARK SMILES IDX 58 35 59 36 73 38 94 39 61 40 45 41 46 42 54 43 47 44 48 45
REMARK SMILES IDX 52 46 55 47 49 48 50 49 53 50 51 51 77 52 78 53 86 54 79 55
REMARK SMILES IDX 80 56 84 57 87 58 81 59 82 60 85 61 83 62 62 63 63 64 71 65
REMARK SMILES IDX 64 66 65 67 69 68 72 69 66 70 67 71 70 72 68 73 9 74 10 75
REMARK SMILES IDX 11 76 12 77 13 78 14 79 15 80 16 81 20 82 17 83 19 84 18 85
REMARK SMILES IDX 21 86 22 87 23 88 34 89 24 90 26 91 35 92 25 93 27 94 28 95
REMARK SMILES IDX 29 96 33 97 30 98 32 99 31 100
REMARK H PARENT 92 26 60 37
REMARK Flexibility Score: inf
ROOT
ATOM      1  C   UNL     1       1.974   2.107  -2.456  1.00  0.00     0.188 C 
ENDROOT
BRANCH   1   2
ATOM      2  C   UNL     1       2.540   0.827  -1.854  1.00  0.00     0.188 C 
BRANCH   2   3
ATOM      3  O   UNL     1       3.832   1.006  -1.263  1.00  0.00    -0.376 OA
BRANCH   3   4
ATOM      4  C   UNL     1       4.733  -0.070  -1.550  1.00  0.00     0.202 C 
BRANCH   4   5
ATOM      5  C   UNL     1       4.491  -1.348  -0.729  1.00  0.00     0.261 C 
BRANCH   5   6
ATOM      6  O   UNL     1       3.115  -1.532  -0.352  1.00  0.00    -0.460 OA
BRANCH   6   7
ATOM      7  C   UNL     1       2.483  -1.125   0.778  1.00  0.00     0.338 C 
ATOM      8  O   UNL     1       1.300  -1.425   0.931  1.00  0.00    -0.246 OA
BRANCH   7   9
ATOM      9  C   UNL     1       3.146  -0.349   1.871  1.00  0.00     0.060 A 
ATOM     10  C   UNL     1       4.285   0.440   1.715  1.00  0.00     0.016 A 
ATOM     11  C   UNL     1       2.550  -0.393   3.144  1.00  0.00     0.016 A 
ATOM     12  C   UNL     1       4.902   1.045   2.798  1.00  0.00     0.010 A 
ATOM     13  C   UNL     1       3.132   0.263   4.236  1.00  0.00     0.010 A 
ATOM     14  C   UNL     1       4.345   0.937   4.068  1.00  0.00    -0.014 A 
BRANCH  14  15
ATOM     15  C   UNL     1       5.167   1.385   5.207  1.00  0.00     0.031 A 
ATOM     16  C   UNL     1       5.859   0.338   6.028  1.00  0.00     0.074 A 
ATOM     17  C   UNL     1       5.430   2.693   5.369  1.00  0.00     0.049 A 
ATOM     18  N   UNL     1       6.659   0.477   7.050  1.00  0.00    -0.248 NA
ATOM     19  C   UNL     1       5.635  -1.062   5.626  1.00  0.00     0.031 C 
ATOM     20  C   UNL     1       4.910   3.763   4.517  1.00  0.00     0.029 A 
ATOM     21  N   UNL     1       6.235   3.340   6.266  1.00  0.00    -0.354 N 
ATOM     22  C   UNL     1       7.008  -0.812   7.429  1.00  0.00     0.074 A 
ATOM     23  C   UNL     1       6.329  -1.723   6.538  1.00  0.00     0.031 C 
ATOM     24  C   UNL     1       5.441   4.931   4.910  1.00  0.00     0.029 A 
ATOM     25  C   UNL     1       6.275   4.700   6.082  1.00  0.00     0.049 A 
ATOM     26  H   UNL     1       6.737   2.876   6.974  1.00  0.00     0.167 HD
ATOM     27  C   UNL     1       7.824  -1.194   8.438  1.00  0.00     0.037 A 
ATOM     28  C   UNL     1       6.899   5.649   6.806  1.00  0.00     0.037 A 
ATOM     29  C   UNL     1       8.491  -0.260   9.304  1.00  0.00     0.049 A 
ATOM     30  C   UNL     1       7.712   5.202   7.991  1.00  0.00     0.074 A 
ATOM     31  C   UNL     1       9.292  -0.512  10.401  1.00  0.00     0.029 A 
ATOM     32  N   UNL     1       8.426   1.121   9.159  1.00  0.00    -0.354 N 
ATOM     33  N   UNL     1       7.984   3.982   8.394  1.00  0.00    -0.248 NA
ATOM     34  C   UNL     1       8.290   6.256   8.830  1.00  0.00     0.031 C 
ATOM     35  C   UNL     1       9.670   0.718  10.950  1.00  0.00     0.029 A 
ATOM     36  C   UNL     1       9.154   1.737  10.161  1.00  0.00     0.049 A 
ATOM     37  H   UNL     1       7.934   1.591   8.448  1.00  0.00     0.167 HD
ATOM     38  C   UNL     1       8.784   4.120   9.518  1.00  0.00     0.074 A 
ATOM     39  C   UNL     1       8.967   5.545   9.721  1.00  0.00     0.031 C 
ATOM     40  C   UNL     1       9.317   3.161  10.317  1.00  0.00     0.037 A 
BRANCH  27  41
ATOM     41  C   UNL     1       7.954  -2.668   8.689  1.00  0.00     0.064 A 
ATOM     42  C   UNL     1       8.633  -3.521   7.806  1.00  0.00     0.173 A 
ATOM     43  C   UNL     1       7.336  -3.244   9.809  1.00  0.00     0.173 A 
ATOM     44  F   UNL     1       9.215  -3.027   6.702  1.00  0.00    -0.203 F 
ATOM     45  C   UNL     1       8.653  -4.899   8.013  1.00  0.00     0.198 A 
ATOM     46  C   UNL     1       7.383  -4.618  10.030  1.00  0.00     0.198 A 
ATOM     47  F   UNL     1       6.666  -2.476  10.681  1.00  0.00    -0.203 F 
ATOM     48  F   UNL     1       9.245  -5.702   7.117  1.00  0.00    -0.200 F 
ATOM     49  C   UNL     1       8.031  -5.446   9.126  1.00  0.00     0.200 A 
ATOM     50  F   UNL     1       6.783  -5.143  11.107  1.00  0.00    -0.200 F 
ATOM     51  F   UNL     1       8.038  -6.772   9.316  1.00  0.00    -0.200 F 
ENDBRANCH  27  41
BRANCH  28  52
ATOM     52  C   UNL     1       6.747   7.088   6.458  1.00  0.00     0.064 A 
ATOM     53  C   UNL     1       7.845   7.864   6.061  1.00  0.00     0.173 A 
ATOM     54  C   UNL     1       5.497   7.725   6.526  1.00  0.00     0.173 A 
ATOM     55  F   UNL     1       9.066   7.312   5.996  1.00  0.00    -0.203 F 
ATOM     56  C   UNL     1       7.703   9.219   5.765  1.00  0.00     0.198 A 
ATOM     57  C   UNL     1       5.350   9.072   6.198  1.00  0.00     0.198 A 
ATOM     58  F   UNL     1       4.408   7.034   6.895  1.00  0.00    -0.203 F 
ATOM     59  F   UNL     1       8.779   9.947   5.433  1.00  0.00    -0.200 F 
ATOM     60  C   UNL     1       6.455   9.821   5.828  1.00  0.00     0.200 A 
ATOM     61  F   UNL     1       4.138   9.640   6.242  1.00  0.00    -0.200 F 
ATOM     62  F   UNL     1       6.319  11.122   5.539  1.00  0.00    -0.200 F 
ENDBRANCH  28  52
BRANCH  40  63
ATOM     63  C   UNL     1      10.178   3.631  11.451  1.00  0.00     0.064 A 
ATOM     64  C   UNL     1       9.631   4.254  12.581  1.00  0.00     0.173 A 
ATOM     65  C   UNL     1      11.564   3.416  11.418  1.00  0.00     0.173 A 
ATOM     66  F   UNL     1       8.313   4.495  12.648  1.00  0.00    -0.203 F 
ATOM     67  C   UNL     1      10.446   4.671  13.628  1.00  0.00     0.198 A 
ATOM     68  C   UNL     1      12.371   3.804  12.482  1.00  0.00     0.198 A 
ATOM     69  F   UNL     1      12.131   2.817  10.360  1.00  0.00    -0.203 F 
ATOM     70  F   UNL     1       9.911   5.312  14.677  1.00  0.00    -0.200 F 
ATOM     71  C   UNL     1      11.813   4.438  13.582  1.00  0.00     0.200 A 
ATOM     72  F   UNL     1      13.689   3.564  12.442  1.00  0.00    -0.200 F 
ATOM     73  F   UNL     1      12.596   4.833  14.595  1.00  0.00    -0.200 F 
ENDBRANCH  40  63
ENDBRANCH  14  15
ENDBRANCH   7   9
ENDBRANCH   6   7
ENDBRANCH   5   6
ENDBRANCH   4   5
ENDBRANCH   3   4
ENDBRANCH   2   3
ENDBRANCH   1   2
BRANCH   1  74
ATOM     74  O   UNL     1       2.721   2.708  -3.506  1.00  0.00    -0.376 OA
BRANCH  74  75
ATOM     75  C   UNL     1       4.060   3.098  -3.231  1.00  0.00     0.202 C 
BRANCH  75  76
ATOM     76  C   UNL     1       4.294   4.267  -2.266  1.00  0.00     0.261 C 
BRANCH  76  77
ATOM     77  O   UNL     1       3.793   4.130  -0.923  1.00  0.00    -0.460 OA
BRANCH  77  78
ATOM     78  C   UNL     1       2.624   4.782  -0.695  1.00  0.00     0.338 C 
ATOM     79  O   UNL     1       1.863   5.232  -1.539  1.00  0.00    -0.246 OA
BRANCH  78  80
ATOM     80  C   UNL     1       2.365   4.967   0.745  1.00  0.00     0.067 A 
ATOM     81  C   UNL     1       1.244   4.338   1.294  1.00  0.00     0.016 A 
ATOM     82  C   UNL     1       3.110   5.895   1.499  1.00  0.00    -0.010 A 
ATOM     83  C   UNL     1       0.853   4.640   2.597  1.00  0.00     0.001 A 
ATOM     84  C   UNL     1       2.680   6.220   2.790  1.00  0.00     0.009 A 
ATOM     85  C   UNL     1       1.554   5.596   3.334  1.00  0.00     0.001 A 
BRANCH  82  86
ATOM     86  C   UNL     1       4.386   6.422   1.006  1.00  0.00     0.030 C 
ATOM     87  C   UNL     1       4.558   7.212  -0.058  1.00  0.00     0.081 C 
ATOM     88  S   UNL     1       3.402   8.061  -0.992  1.00  0.00    -0.054 SA
ATOM     89  C   UNL     1       5.888   7.253  -0.713  1.00  0.00     0.266 C 
ATOM     90  C   UNL     1       4.526   8.288  -2.329  1.00  0.00     0.148 C 
ATOM     91  N   UNL     1       5.785   7.877  -1.945  1.00  0.00    -0.288 N 
ATOM     92  O   UNL     1       6.879   6.727  -0.245  1.00  0.00    -0.268 OA
ATOM     93  S   UNL     1       4.042   8.898  -3.804  1.00  0.00    -0.052 S 
BRANCH  91  94
ATOM     94  C   UNL     1       7.014   8.117  -2.695  1.00  0.00     0.163 C 
BRANCH  94  95
ATOM     95  C   UNL     1       7.630   9.415  -2.216  1.00  0.00    -0.028 A 
ATOM     96  C   UNL     1       7.406  10.610  -2.910  1.00  0.00     0.005 A 
ATOM     97  C   UNL     1       8.313   9.459  -0.990  1.00  0.00     0.005 A 
ATOM     98  C   UNL     1       7.824  11.825  -2.369  1.00  0.00     0.000 A 
ATOM     99  C   UNL     1       8.714  10.675  -0.442  1.00  0.00     0.000 A 
ATOM    100  C   UNL     1       8.463  11.859  -1.130  1.00  0.00     0.000 A 
ENDBRANCH  94  95
ENDBRANCH  91  94
ENDBRANCH  82  86
ENDBRANCH  78  80
ENDBRANCH  77  78
ENDBRANCH  76  77
ENDBRANCH  75  76
ENDBRANCH  74  75
ENDBRANCH   1  74
TORSDOF 20
