REMARK SMILES Cc1ccc(C(=O)[C@@H]2CCC[C@H]2C(=O)OCCOCCOCCOC(=O)c2ccc(-c3c4nc(c(-c5c(F)c(F)c(F)c(F)c5F)c5ccc([nH]5)c(-c5c(F)c(F)c(F)c(F)c5F)c5nc(c(-c6c(F)c(F)c(F)c(F)c6F)c6ccc3[nH]6)C=C5)C=C4)cc2)c(C)c1
REMARK SMILES IDX 19 1 18 2 17 3 16 4 15 5 13 6 14 7 12 8 8 9 9 10 10 11 11 12
REMARK SMILES IDX 6 13 7 14 5 15 1 16 2 17 3 18 92 19 4 20 90 21 91 22 20 23
REMARK SMILES IDX 21 24 22 25 23 26 24 27 25 28 26 29 27 30 28 31 89 32 29 33
REMARK SMILES IDX 88 34 30 35 31 36 32 37 82 38 33 39 87 40 81 41 83 42 34 43
REMARK SMILES IDX 86 44 80 45 79 46 35 48 67 49 47 50 66 51 48 52 51 53 65 54
REMARK SMILES IDX 84 55 49 56 50 57 64 59 85 60 52 61 36 62 37 63 45 64 38 65
REMARK SMILES IDX 39 66 43 67 46 68 40 69 41 70 44 71 42 72 68 73 69 74 77 75
REMARK SMILES IDX 70 76 71 77 75 78 78 79 72 80 73 81 76 82 74 83 53 84 54 85
REMARK SMILES IDX 62 86 55 87 56 88 60 89 63 90 57 91 58 92 61 93 59 94
REMARK H PARENT 83 47 51 58
REMARK Flexibility Score: inf
ROOT
ATOM      1  C   UNL     1      -2.765  -1.325  -3.687  1.00  0.00     0.188 C 
ENDROOT
BRANCH   1   2
ATOM      2  O   UNL     1      -3.148  -1.958  -4.902  1.00  0.00    -0.376 OA
BRANCH   2   3
ATOM      3  C   UNL     1      -4.083  -3.024  -4.864  1.00  0.00     0.202 C 
BRANCH   3   4
ATOM      4  C   UNL     1      -3.575  -4.344  -4.280  1.00  0.00     0.261 C 
BRANCH   4   5
ATOM      5  O   UNL     1      -3.189  -4.279  -2.889  1.00  0.00    -0.463 OA
BRANCH   5   6
ATOM      6  C   UNL     1      -1.860  -4.353  -2.645  1.00  0.00     0.309 C 
ATOM      7  O   UNL     1      -1.000  -4.443  -3.518  1.00  0.00    -0.252 OA
BRANCH   6   8
ATOM      8  C   UNL     1      -1.467  -4.415  -1.175  1.00  0.00     0.110 C 
ATOM      9  C   UNL     1      -2.391  -3.911  -0.058  1.00  0.00     0.075 C 
ATOM     10  C   UNL     1      -2.123  -4.819   1.150  1.00  0.00     0.013 C 
ATOM     11  C   UNL     1      -1.541  -6.112   0.617  1.00  0.00     0.002 C 
ATOM     12  C   UNL     1      -1.273  -5.906  -0.862  1.00  0.00     0.016 C 
BRANCH   9  13
ATOM     13  C   UNL     1      -2.341  -2.456   0.462  1.00  0.00     0.167 C 
ATOM     14  O   UNL     1      -3.423  -1.935   0.749  1.00  0.00    -0.294 OA
BRANCH  13  15
ATOM     15  C   UNL     1      -1.071  -1.665   0.736  1.00  0.00     0.021 A 
ATOM     16  C   UNL     1       2.623   0.585   1.226  1.00  0.00     0.044 C 
ATOM     17  C   UNL     1       1.351  -0.206   1.130  1.00  0.00    -0.051 A 
ATOM     18  C   UNL     1       1.378  -1.563   0.832  1.00  0.00     0.004 A 
ATOM     19  C   UNL     1       0.110   0.413   1.282  1.00  0.00     0.007 A 
ATOM     20  C   UNL     1       0.187  -2.285   0.681  1.00  0.00     0.012 A 
ATOM     21  C   UNL     1      -1.105  -0.285   1.074  1.00  0.00    -0.040 A 
ATOM     22  C   UNL     1      -2.363   0.522   1.297  1.00  0.00     0.045 C 
ENDBRANCH  13  15
ENDBRANCH   9  13
ENDBRANCH   6   8
ENDBRANCH   5   6
ENDBRANCH   4   5
ENDBRANCH   3   4
ENDBRANCH   2   3
ENDBRANCH   1   2
BRANCH   1  23
ATOM     23  C   UNL     1      -3.728  -1.318  -2.487  1.00  0.00     0.188 C 
BRANCH  23  24
ATOM     24  O   UNL     1      -5.093  -1.148  -2.841  1.00  0.00    -0.376 OA
BRANCH  24  25
ATOM     25  C   UNL     1      -5.703   0.008  -2.280  1.00  0.00     0.202 C 
BRANCH  25  26
ATOM     26  C   UNL     1      -5.403   1.227  -3.147  1.00  0.00     0.261 C 
BRANCH  26  27
ATOM     27  O   UNL     1      -4.002   1.557  -3.119  1.00  0.00    -0.460 OA
BRANCH  27  28
ATOM     28  C   UNL     1      -3.613   2.420  -2.158  1.00  0.00     0.338 C 
ATOM     29  O   UNL     1      -4.309   2.976  -1.331  1.00  0.00    -0.246 OA
BRANCH  28  30
ATOM     30  C   UNL     1      -2.153   2.601  -2.257  1.00  0.00     0.060 A 
ATOM     31  C   UNL     1      -1.293   1.557  -1.918  1.00  0.00     0.016 A 
ATOM     32  C   UNL     1      -1.636   3.852  -2.587  1.00  0.00     0.016 A 
ATOM     33  C   UNL     1       0.080   1.776  -1.839  1.00  0.00     0.010 A 
ATOM     34  C   UNL     1      -0.252   4.061  -2.541  1.00  0.00     0.010 A 
ATOM     35  C   UNL     1       0.615   3.038  -2.116  1.00  0.00    -0.014 A 
BRANCH  35  36
ATOM     36  C   UNL     1       2.039   3.329  -1.796  1.00  0.00     0.031 A 
ATOM     37  C   UNL     1       2.354   4.315  -0.703  1.00  0.00     0.074 A 
ATOM     38  C   UNL     1       3.052   2.663  -2.380  1.00  0.00     0.049 A 
ATOM     39  N   UNL     1       3.497   4.862  -0.376  1.00  0.00    -0.248 NA
ATOM     40  C   UNL     1       1.225   4.733   0.145  1.00  0.00     0.031 C 
ATOM     41  C   UNL     1       2.911   1.567  -3.335  1.00  0.00     0.029 A 
ATOM     42  N   UNL     1       4.411   2.797  -2.224  1.00  0.00    -0.354 N 
ATOM     43  C   UNL     1       3.211   5.743   0.660  1.00  0.00     0.074 A 
ATOM     44  C   UNL     1       1.793   5.637   0.928  1.00  0.00     0.031 C 
ATOM     45  C   UNL     1       4.130   1.093  -3.640  1.00  0.00     0.029 A 
ATOM     46  C   UNL     1       5.142   1.917  -2.983  1.00  0.00     0.049 A 
ATOM     47  H   UNL     1       4.822   3.462  -1.625  1.00  0.00     0.167 HD
ATOM     48  C   UNL     1       4.054   6.577   1.314  1.00  0.00     0.037 A 
ATOM     49  C   UNL     1       6.473   1.817  -3.164  1.00  0.00     0.037 A 
ATOM     50  C   UNL     1       5.473   6.641   1.086  1.00  0.00     0.049 A 
ATOM     51  C   UNL     1       7.384   2.820  -2.508  1.00  0.00     0.074 A 
ATOM     52  C   UNL     1       6.409   7.475   1.673  1.00  0.00     0.029 A 
ATOM     53  N   UNL     1       6.165   5.820   0.209  1.00  0.00    -0.354 N 
ATOM     54  N   UNL     1       7.097   3.756  -1.637  1.00  0.00    -0.248 NA
ATOM     55  C   UNL     1       8.801   2.778  -2.899  1.00  0.00     0.031 C 
ATOM     56  C   UNL     1       7.663   7.180   1.126  1.00  0.00     0.029 A 
ATOM     57  C   UNL     1       7.514   6.136   0.228  1.00  0.00     0.049 A 
ATOM     58  H   UNL     1       5.758   5.115  -0.345  1.00  0.00     0.167 HD
ATOM     59  C   UNL     1       8.293   4.413  -1.374  1.00  0.00     0.074 A 
ATOM     60  C   UNL     1       9.315   3.752  -2.159  1.00  0.00     0.031 C 
ATOM     61  C   UNL     1       8.520   5.475  -0.562  1.00  0.00     0.037 A 
BRANCH  48  62
ATOM     62  C   UNL     1       3.444   7.542   2.286  1.00  0.00     0.064 A 
ATOM     63  C   UNL     1       2.963   7.141   3.540  1.00  0.00     0.173 A 
ATOM     64  C   UNL     1       3.339   8.900   1.946  1.00  0.00     0.173 A 
ATOM     65  F   UNL     1       3.020   5.850   3.902  1.00  0.00    -0.203 F 
ATOM     66  C   UNL     1       2.373   8.059   4.406  1.00  0.00     0.198 A 
ATOM     67  C   UNL     1       2.774   9.820   2.824  1.00  0.00     0.198 A 
ATOM     68  F   UNL     1       3.785   9.335   0.757  1.00  0.00    -0.203 F 
ATOM     69  F   UNL     1       1.872   7.645   5.578  1.00  0.00    -0.200 F 
ATOM     70  C   UNL     1       2.284   9.397   4.050  1.00  0.00     0.200 A 
ATOM     71  F   UNL     1       2.696  11.112   2.480  1.00  0.00    -0.200 F 
ATOM     72  F   UNL     1       1.714  10.278   4.883  1.00  0.00    -0.200 F 
ENDBRANCH  48  62
BRANCH  49  73
ATOM     73  C   UNL     1       7.027   0.756  -4.045  1.00  0.00     0.064 A 
ATOM     74  C   UNL     1       7.802  -0.283  -3.511  1.00  0.00     0.173 A 
ATOM     75  C   UNL     1       6.801   0.757  -5.429  1.00  0.00     0.173 A 
ATOM     76  F   UNL     1       8.076  -0.308  -2.199  1.00  0.00    -0.203 F 
ATOM     77  C   UNL     1       8.326  -1.282  -4.329  1.00  0.00     0.198 A 
ATOM     78  C   UNL     1       7.301  -0.258  -6.241  1.00  0.00     0.198 A 
ATOM     79  F   UNL     1       6.080   1.738  -5.991  1.00  0.00    -0.203 F 
ATOM     80  F   UNL     1       9.091  -2.246  -3.799  1.00  0.00    -0.200 F 
ATOM     81  C   UNL     1       8.066  -1.275  -5.691  1.00  0.00     0.200 A 
ATOM     82  F   UNL     1       7.040  -0.251  -7.555  1.00  0.00    -0.200 F 
ATOM     83  F   UNL     1       8.560  -2.243  -6.475  1.00  0.00    -0.200 F 
ENDBRANCH  49  73
BRANCH  61  84
ATOM     84  C   UNL     1       9.929   5.981  -0.471  1.00  0.00     0.064 A 
ATOM     85  C   UNL     1      10.512   6.714  -1.515  1.00  0.00     0.173 A 
ATOM     86  C   UNL     1      10.692   5.762   0.686  1.00  0.00     0.173 A 
ATOM     87  F   UNL     1       9.828   6.935  -2.648  1.00  0.00    -0.203 F 
ATOM     88  C   UNL     1      11.815   7.193  -1.412  1.00  0.00     0.198 A 
ATOM     89  C   UNL     1      11.986   6.263   0.795  1.00  0.00     0.198 A 
ATOM     90  F   UNL     1      10.178   5.071   1.714  1.00  0.00    -0.203 F 
ATOM     91  F   UNL     1      12.367   7.856  -2.438  1.00  0.00    -0.200 F 
ATOM     92  C   UNL     1      12.549   6.973  -0.256  1.00  0.00     0.200 A 
ATOM     93  F   UNL     1      12.691   6.058   1.917  1.00  0.00    -0.200 F 
ATOM     94  F   UNL     1      13.802   7.438  -0.157  1.00  0.00    -0.200 F 
ENDBRANCH  61  84
ENDBRANCH  35  36
ENDBRANCH  28  30
ENDBRANCH  27  28
ENDBRANCH  26  27
ENDBRANCH  25  26
ENDBRANCH  24  25
ENDBRANCH  23  24
ENDBRANCH   1  23
TORSDOF 19
