REMARK SMILES O=C(OCCOCCOCCOC(=O)[C@H](c1c[nH]c2cc(F)ccc12)[NH+]1CC[NH+](Cc2cccc(Cl)c2)CC1)c1ccc(-c2c3nc(c(-c4c(F)c(F)c(F)c(F)c4F)c4ccc([nH]4)c(-c4c(F)c(F)c(F)c(F)c4F)c4nc(c(-c5c(F)c(F)c(F)c(F)c5F)c5ccc2[nH]5)C=C4)C=C3)cc1
REMARK SMILES IDX 8 1 7 2 6 3 5 4 4 5 3 6 2 7 1 8 40 9 41 10 102 11 42 12
REMARK SMILES IDX 101 13 43 14 44 15 45 16 95 17 46 18 100 19 94 20 96 21
REMARK SMILES IDX 47 22 99 23 93 24 92 25 48 27 80 28 60 29 79 30 61 31 64 32
REMARK SMILES IDX 78 33 97 34 62 35 63 36 77 38 98 39 65 40 49 41 50 42 58 43
REMARK SMILES IDX 51 44 52 45 56 46 59 47 53 48 54 49 57 50 55 51 81 52 82 53
REMARK SMILES IDX 90 54 83 55 84 56 88 57 91 58 85 59 86 60 89 61 87 62 66 63
REMARK SMILES IDX 67 64 75 65 68 66 69 67 73 68 76 69 70 70 71 71 74 72 72 73
REMARK SMILES IDX 9 74 10 75 11 76 12 77 13 78 14 79 15 80 26 81 27 82 39 83
REMARK SMILES IDX 28 85 38 86 29 87 30 89 31 90 32 91 37 92 33 93 35 94 34 95
REMARK SMILES IDX 36 96 16 97 17 98 25 99 18 100 19 101 24 102 20 104 23 105
REMARK SMILES IDX 21 106 22 107
REMARK H PARENT 96 26 64 37 26 84 29 88 18 103
REMARK Flexibility Score: inf
ROOT
ATOM      1  C   UNL     1       5.510  -2.119   2.013  1.00  0.00     0.188 C 
ENDROOT
BRANCH   1   2
ATOM      2  C   UNL     1       4.767  -2.037   0.679  1.00  0.00     0.188 C 
BRANCH   2   3
ATOM      3  O   UNL     1       3.398  -2.418   0.818  1.00  0.00    -0.376 OA
BRANCH   3   4
ATOM      4  C   UNL     1       2.831  -3.010  -0.353  1.00  0.00     0.202 C 
BRANCH   4   5
ATOM      5  C   UNL     1       2.530  -2.042  -1.511  1.00  0.00     0.261 C 
BRANCH   5   6
ATOM      6  O   UNL     1       3.251  -0.796  -1.432  1.00  0.00    -0.460 OA
BRANCH   6   7
ATOM      7  C   UNL     1       2.794   0.392  -0.952  1.00  0.00     0.338 C 
ATOM      8  O   UNL     1       3.465   1.409  -1.091  1.00  0.00    -0.246 OA
BRANCH   7   9
ATOM      9  C   UNL     1       1.455   0.490  -0.314  1.00  0.00     0.060 A 
ATOM     10  C   UNL     1       0.952  -0.491   0.532  1.00  0.00     0.016 A 
ATOM     11  C   UNL     1       0.690   1.641  -0.521  1.00  0.00     0.016 A 
ATOM     12  C   UNL     1      -0.351  -0.446   0.998  1.00  0.00     0.010 A 
ATOM     13  C   UNL     1      -0.574   1.759   0.071  1.00  0.00     0.010 A 
ATOM     14  C   UNL     1      -1.125   0.693   0.803  1.00  0.00    -0.014 A 
BRANCH  14  15
ATOM     15  C   UNL     1      -2.519   0.712   1.316  1.00  0.00     0.031 A 
ATOM     16  C   UNL     1      -3.646   0.912   0.345  1.00  0.00     0.074 A 
ATOM     17  C   UNL     1      -2.780   0.458   2.616  1.00  0.00     0.049 A 
ATOM     18  N   UNL     1      -4.928   1.028   0.574  1.00  0.00    -0.248 NA
ATOM     19  C   UNL     1      -3.285   0.980  -1.081  1.00  0.00     0.031 C 
ATOM     20  C   UNL     1      -1.782   0.137   3.639  1.00  0.00     0.029 A 
ATOM     21  N   UNL     1      -3.968   0.407   3.305  1.00  0.00    -0.354 N 
ATOM     22  C   UNL     1      -5.516   1.194  -0.672  1.00  0.00     0.074 A 
ATOM     23  C   UNL     1      -4.453   1.226  -1.649  1.00  0.00     0.031 C 
ATOM     24  C   UNL     1      -2.391  -0.068   4.813  1.00  0.00     0.029 A 
ATOM     25  C   UNL     1      -3.815   0.155   4.648  1.00  0.00     0.049 A 
ATOM     26  H   UNL     1      -4.845   0.539   2.878  1.00  0.00     0.167 HD
ATOM     27  C   UNL     1      -6.832   1.276  -0.978  1.00  0.00     0.037 A 
ATOM     28  C   UNL     1      -4.714   0.128   5.648  1.00  0.00     0.037 A 
ATOM     29  C   UNL     1      -7.883   1.218  -0.001  1.00  0.00     0.049 A 
ATOM     30  C   UNL     1      -6.159   0.318   5.297  1.00  0.00     0.074 A 
ATOM     31  C   UNL     1      -9.247   1.337  -0.187  1.00  0.00     0.029 A 
ATOM     32  N   UNL     1      -7.678   1.010   1.357  1.00  0.00    -0.354 N 
ATOM     33  N   UNL     1      -6.698   0.516   4.118  1.00  0.00    -0.248 NA
ATOM     34  C   UNL     1      -7.122   0.261   6.402  1.00  0.00     0.031 C 
ATOM     35  C   UNL     1      -9.866   1.230   1.063  1.00  0.00     0.029 A 
ATOM     36  C   UNL     1      -8.892   1.003   2.023  1.00  0.00     0.049 A 
ATOM     37  H   UNL     1      -6.799   0.885   1.784  1.00  0.00     0.167 HD
ATOM     38  C   UNL     1      -8.065   0.583   4.333  1.00  0.00     0.074 A 
ATOM     39  C   UNL     1      -8.272   0.381   5.754  1.00  0.00     0.031 C 
ATOM     40  C   UNL     1      -9.060   0.795   3.438  1.00  0.00     0.037 A 
BRANCH  27  41
ATOM     41  C   UNL     1      -7.180   1.450  -2.426  1.00  0.00     0.064 A 
ATOM     42  C   UNL     1      -7.016   0.407  -3.352  1.00  0.00     0.173 A 
ATOM     43  C   UNL     1      -7.646   2.683  -2.902  1.00  0.00     0.173 A 
ATOM     44  F   UNL     1      -6.542  -0.782  -2.952  1.00  0.00    -0.203 F 
ATOM     45  C   UNL     1      -7.273   0.605  -4.706  1.00  0.00     0.198 A 
ATOM     46  C   UNL     1      -7.930   2.869  -4.253  1.00  0.00     0.198 A 
ATOM     47  F   UNL     1      -7.813   3.714  -2.060  1.00  0.00    -0.203 F 
ATOM     48  F   UNL     1      -7.046  -0.385  -5.581  1.00  0.00    -0.200 F 
ATOM     49  C   UNL     1      -7.734   1.833  -5.154  1.00  0.00     0.200 A 
ATOM     50  F   UNL     1      -8.377   4.056  -4.685  1.00  0.00    -0.200 F 
ATOM     51  F   UNL     1      -7.973   2.025  -6.459  1.00  0.00    -0.200 F 
ENDBRANCH  27  41
BRANCH  28  52
ATOM     52  C   UNL     1      -4.273  -0.066   7.058  1.00  0.00     0.064 A 
ATOM     53  C   UNL     1      -4.607  -1.220   7.778  1.00  0.00     0.173 A 
ATOM     54  C   UNL     1      -3.522   0.919   7.722  1.00  0.00     0.173 A 
ATOM     55  F   UNL     1      -5.335  -2.184   7.197  1.00  0.00    -0.203 F 
ATOM     56  C   UNL     1      -4.234  -1.370   9.113  1.00  0.00     0.198 A 
ATOM     57  C   UNL     1      -3.127   0.756   9.049  1.00  0.00     0.198 A 
ATOM     58  F   UNL     1      -3.173   2.043   7.078  1.00  0.00    -0.203 F 
ATOM     59  F   UNL     1      -4.614  -2.461   9.793  1.00  0.00    -0.200 F 
ATOM     60  C   UNL     1      -3.492  -0.384   9.746  1.00  0.00     0.200 A 
ATOM     61  F   UNL     1      -2.410   1.710   9.659  1.00  0.00    -0.200 F 
ATOM     62  F   UNL     1      -3.141  -0.528  11.032  1.00  0.00    -0.200 F 
ENDBRANCH  28  52
BRANCH  40  63
ATOM     63  C   UNL     1     -10.456   0.788   3.979  1.00  0.00     0.064 A 
ATOM     64  C   UNL     1     -10.940   1.840   4.770  1.00  0.00     0.173 A 
ATOM     65  C   UNL     1     -11.320  -0.278   3.691  1.00  0.00     0.173 A 
ATOM     66  F   UNL     1     -10.140   2.869   5.088  1.00  0.00    -0.203 F 
ATOM     67  C   UNL     1     -12.233   1.810   5.279  1.00  0.00     0.198 A 
ATOM     68  C   UNL     1     -12.623  -0.289   4.176  1.00  0.00     0.198 A 
ATOM     69  F   UNL     1     -10.901  -1.305   2.936  1.00  0.00    -0.203 F 
ATOM     70  F   UNL     1     -12.658   2.796   6.081  1.00  0.00    -0.200 F 
ATOM     71  C   UNL     1     -13.075   0.749   4.977  1.00  0.00     0.200 A 
ATOM     72  F   UNL     1     -13.439  -1.308   3.875  1.00  0.00    -0.200 F 
ATOM     73  F   UNL     1     -14.322   0.723   5.468  1.00  0.00    -0.200 F 
ENDBRANCH  40  63
ENDBRANCH  14  15
ENDBRANCH   7   9
ENDBRANCH   6   7
ENDBRANCH   5   6
ENDBRANCH   4   5
ENDBRANCH   3   4
ENDBRANCH   2   3
ENDBRANCH   1   2
BRANCH   1  74
ATOM     74  O   UNL     1       5.653  -3.424   2.567  1.00  0.00    -0.376 OA
BRANCH  74  75
ATOM     75  C   UNL     1       4.457  -4.124   2.898  1.00  0.00     0.202 C 
BRANCH  75  76
ATOM     76  C   UNL     1       3.617  -3.571   4.061  1.00  0.00     0.261 C 
BRANCH  76  77
ATOM     77  O   UNL     1       3.018  -2.280   3.837  1.00  0.00    -0.459 OA
BRANCH  77  78
ATOM     78  C   UNL     1       3.482  -1.241   4.615  1.00  0.00     0.370 C 
ATOM     79  O   UNL     1       4.469  -1.310   5.338  1.00  0.00    -0.245 OA
BRANCH  78  80
ATOM     80  C   UNL     1       2.546  -0.018   4.480  1.00  0.00     0.328 C 
BRANCH  80  81
ATOM     81  N   UNL     1       2.078   0.506   5.769  1.00  0.00    -0.310 N 
ATOM     82  C   UNL     1       2.388   1.841   6.261  1.00  0.00     0.325 C 
ATOM     83  C   UNL     1       1.799  -0.438   6.844  1.00  0.00     0.325 C 
ATOM     84  H   UNL     1       1.217   0.728   5.269  1.00  0.00     0.349 HD
ATOM     85  C   UNL     1       1.162   2.363   7.050  1.00  0.00     0.324 C 
ATOM     86  C   UNL     1       0.619   0.080   7.699  1.00  0.00     0.324 C 
ATOM     87  N   UNL     1       0.657   1.487   8.119  1.00  0.00    -0.322 N 
ATOM     88  H   UNL     1      -0.318   1.746   8.268  1.00  0.00     0.348 HD
BRANCH  87  89
ATOM     89  C   UNL     1       1.229   1.744   9.443  1.00  0.00     0.299 C 
BRANCH  89  90
ATOM     90  C   UNL     1       2.665   1.326   9.652  1.00  0.00     0.008 A 
ATOM     91  C   UNL     1       3.722   2.192   9.333  1.00  0.00     0.009 A 
ATOM     92  C   UNL     1       2.965   0.031  10.102  1.00  0.00     0.030 A 
ATOM     93  C   UNL     1       5.043   1.740   9.361  1.00  0.00     0.002 A 
ATOM     94  C   UNL     1       4.286  -0.412  10.136  1.00  0.00     0.041 A 
ATOM     95  C   UNL     1       5.324   0.431   9.747  1.00  0.00     0.020 A 
ATOM     96  Cl  UNL     1       4.626  -2.028  10.616  1.00  0.00    -0.084 Cl
ENDBRANCH  89  90
ENDBRANCH  87  89
ENDBRANCH  80  81
BRANCH  80  97
ATOM     97  C   UNL     1       3.070   1.068   3.568  1.00  0.00     0.046 A 
ATOM     98  C   UNL     1       4.373   1.300   3.162  1.00  0.00     0.094 A 
ATOM     99  C   UNL     1       2.289   2.151   3.020  1.00  0.00     0.009 A 
ATOM    100  N   UNL     1       4.393   2.400   2.345  1.00  0.00    -0.361 N 
ATOM    101  C   UNL     1       3.143   2.965   2.279  1.00  0.00     0.049 A 
ATOM    102  C   UNL     1       0.944   2.557   3.168  1.00  0.00     0.014 A 
ATOM    103  H   UNL     1       5.189   2.737   1.874  1.00  0.00     0.166 HD
ATOM    104  C   UNL     1       2.709   4.137   1.645  1.00  0.00     0.065 A 
ATOM    105  C   UNL     1       0.495   3.733   2.563  1.00  0.00     0.040 A 
ATOM    106  C   UNL     1       1.371   4.495   1.807  1.00  0.00     0.125 A 
ATOM    107  F   UNL     1       0.920   5.614   1.223  1.00  0.00    -0.207 F 
ENDBRANCH  80  97
ENDBRANCH  78  80
ENDBRANCH  77  78
ENDBRANCH  76  77
ENDBRANCH  75  76
ENDBRANCH  74  75
ENDBRANCH   1  74
TORSDOF 21
