REMARK SMILES O=C(OCCOCCOCCOC(=O)[C@H]1CC2(CC[NH+](C(=O)C3CC3)CC2)CN1C(=O)CCn1cccn1)c1ccc(-c2c3nc(c(-c4c(F)c(F)c(F)c(F)c4F)c4ccc([nH]4)c(-c4c(F)c(F)c(F)c(F)c4F)c4nc(c(-c5c(F)c(F)c(F)c(F)c5F)c5ccc2[nH]5)C=C4)C=C3)cc1
REMARK SMILES IDX 8 1 7 2 6 3 5 4 4 5 3 6 2 7 1 8 39 9 40 10 101 11 41 12
REMARK SMILES IDX 100 13 42 14 43 15 44 16 94 17 45 18 99 19 93 20 95 21 46 22
REMARK SMILES IDX 98 23 92 24 91 25 47 27 79 28 59 29 78 30 60 31 63 32 77 33
REMARK SMILES IDX 96 34 61 35 62 36 76 38 97 39 64 40 48 41 49 42 57 43 50 44
REMARK SMILES IDX 51 45 55 46 58 47 52 48 53 49 56 50 54 51 80 52 81 53 89 54
REMARK SMILES IDX 82 55 83 56 87 57 90 58 84 59 85 60 88 61 86 62 65 63 66 64
REMARK SMILES IDX 74 65 67 66 68 67 72 68 75 69 69 70 70 71 73 72 71 73 9 74
REMARK SMILES IDX 10 75 11 76 12 77 13 78 14 79 15 80 16 81 29 82 17 83 28 84
REMARK SMILES IDX 18 85 27 86 19 87 26 88 20 89 30 91 31 92 32 93 33 94 34 95
REMARK SMILES IDX 35 96 38 97 36 98 37 99 21 100 22 101 23 102 24 103 25 104
REMARK H PARENT 95 26 63 37 20 90
REMARK Flexibility Score: inf
ROOT
ATOM      1  C   UNL     1       0.435   2.275  -0.125  1.00  0.00     0.188 C 
ENDROOT
BRANCH   1   2
ATOM      2  C   UNL     1       1.714   1.537   0.335  1.00  0.00     0.188 C 
BRANCH   2   3
ATOM      3  O   UNL     1       1.597   0.487   1.285  1.00  0.00    -0.376 OA
BRANCH   3   4
ATOM      4  C   UNL     1       0.592   0.608   2.280  1.00  0.00     0.202 C 
BRANCH   4   5
ATOM      5  C   UNL     1       0.908   1.610   3.387  1.00  0.00     0.261 C 
BRANCH   5   6
ATOM      6  O   UNL     1       0.760   2.960   2.903  1.00  0.00    -0.460 OA
BRANCH   6   7
ATOM      7  C   UNL     1       1.617   3.950   2.600  1.00  0.00     0.338 C 
ATOM      8  O   UNL     1       1.145   4.993   2.147  1.00  0.00    -0.246 OA
BRANCH   7   9
ATOM      9  C   UNL     1       3.091   3.889   2.782  1.00  0.00     0.060 A 
ATOM     10  C   UNL     1       3.840   2.749   3.075  1.00  0.00     0.016 A 
ATOM     11  C   UNL     1       3.766   5.118   2.638  1.00  0.00     0.016 A 
ATOM     12  C   UNL     1       5.160   2.873   3.477  1.00  0.00     0.010 A 
ATOM     13  C   UNL     1       5.099   5.242   2.976  1.00  0.00     0.010 A 
ATOM     14  C   UNL     1       5.755   4.134   3.492  1.00  0.00    -0.014 A 
BRANCH  14  15
ATOM     15  C   UNL     1       7.124   4.244   3.957  1.00  0.00     0.031 A 
ATOM     16  C   UNL     1       8.096   3.553   3.077  1.00  0.00     0.074 A 
ATOM     17  C   UNL     1       7.442   4.975   5.045  1.00  0.00     0.049 A 
ATOM     18  N   UNL     1       8.813   2.518   3.365  1.00  0.00    -0.248 NA
ATOM     19  C   UNL     1       8.147   3.939   1.657  1.00  0.00     0.031 C 
ATOM     20  C   UNL     1       6.562   5.859   5.813  1.00  0.00     0.029 A 
ATOM     21  N   UNL     1       8.651   5.158   5.647  1.00  0.00    -0.354 N 
ATOM     22  C   UNL     1       9.583   2.268   2.232  1.00  0.00     0.074 A 
ATOM     23  C   UNL     1       8.988   3.027   1.167  1.00  0.00     0.031 C 
ATOM     24  C   UNL     1       7.308   6.652   6.614  1.00  0.00     0.029 A 
ATOM     25  C   UNL     1       8.697   6.249   6.513  1.00  0.00     0.049 A 
ATOM     26  H   UNL     1       9.425   4.571   5.484  1.00  0.00     0.167 HD
ATOM     27  C   UNL     1      10.824   1.724   2.370  1.00  0.00     0.037 A 
ATOM     28  C   UNL     1       9.817   6.814   7.036  1.00  0.00     0.037 A 
ATOM     29  C   UNL     1      10.922   1.014   3.628  1.00  0.00     0.049 A 
ATOM     30  C   UNL     1      10.907   5.810   6.936  1.00  0.00     0.074 A 
ATOM     31  C   UNL     1      10.239  -0.032   4.219  1.00  0.00     0.029 A 
ATOM     32  N   UNL     1      11.611   1.622   4.647  1.00  0.00    -0.354 N 
ATOM     33  N   UNL     1      10.936   4.708   7.633  1.00  0.00    -0.248 NA
ATOM     34  C   UNL     1      11.699   5.798   5.716  1.00  0.00     0.031 C 
ATOM     35  C   UNL     1      10.182   0.294   5.608  1.00  0.00     0.029 A 
ATOM     36  C   UNL     1      10.896   1.476   5.802  1.00  0.00     0.049 A 
ATOM     37  H   UNL     1      12.476   2.086   4.561  1.00  0.00     0.167 HD
ATOM     38  C   UNL     1      11.348   3.738   6.732  1.00  0.00     0.074 A 
ATOM     39  C   UNL     1      11.882   4.481   5.592  1.00  0.00     0.031 C 
ATOM     40  C   UNL     1      10.937   2.442   6.871  1.00  0.00     0.037 A 
BRANCH  27  41
ATOM     41  C   UNL     1      12.056   2.284   1.668  1.00  0.00     0.064 A 
ATOM     42  C   UNL     1      13.312   1.732   2.003  1.00  0.00     0.173 A 
ATOM     43  C   UNL     1      12.110   3.530   1.005  1.00  0.00     0.173 A 
ATOM     44  F   UNL     1      13.395   0.535   2.603  1.00  0.00    -0.203 F 
ATOM     45  C   UNL     1      14.499   2.454   1.858  1.00  0.00     0.198 A 
ATOM     46  C   UNL     1      13.303   4.229   0.824  1.00  0.00     0.198 A 
ATOM     47  F   UNL     1      11.023   4.180   0.583  1.00  0.00    -0.203 F 
ATOM     48  F   UNL     1      15.640   1.959   2.357  1.00  0.00    -0.200 F 
ATOM     49  C   UNL     1      14.489   3.714   1.293  1.00  0.00     0.200 A 
ATOM     50  F   UNL     1      13.270   5.450   0.271  1.00  0.00    -0.200 F 
ATOM     51  F   UNL     1      15.609   4.446   1.237  1.00  0.00    -0.200 F 
ENDBRANCH  27  41
BRANCH  28  52
ATOM     52  C   UNL     1      10.089   8.253   7.288  1.00  0.00     0.064 A 
ATOM     53  C   UNL     1      11.207   8.661   8.037  1.00  0.00     0.173 A 
ATOM     54  C   UNL     1       9.423   9.265   6.568  1.00  0.00     0.173 A 
ATOM     55  F   UNL     1      11.931   7.758   8.715  1.00  0.00    -0.203 F 
ATOM     56  C   UNL     1      11.644   9.992   8.043  1.00  0.00     0.198 A 
ATOM     57  C   UNL     1       9.855  10.593   6.582  1.00  0.00     0.198 A 
ATOM     58  F   UNL     1       8.397   8.974   5.757  1.00  0.00    -0.203 F 
ATOM     59  F   UNL     1      12.753  10.329   8.718  1.00  0.00    -0.200 F 
ATOM     60  C   UNL     1      10.973  10.954   7.308  1.00  0.00     0.200 A 
ATOM     61  F   UNL     1       9.217  11.505   5.836  1.00  0.00    -0.200 F 
ATOM     62  F   UNL     1      11.426  12.215   7.264  1.00  0.00    -0.200 F 
ENDBRANCH  28  52
BRANCH  40  63
ATOM     63  C   UNL     1      10.300   2.050   8.172  1.00  0.00     0.064 A 
ATOM     64  C   UNL     1       9.102   2.596   8.667  1.00  0.00     0.173 A 
ATOM     65  C   UNL     1      10.874   0.995   8.892  1.00  0.00     0.173 A 
ATOM     66  F   UNL     1       8.435   3.533   7.981  1.00  0.00    -0.203 F 
ATOM     67  C   UNL     1       8.543   2.142   9.861  1.00  0.00     0.198 A 
ATOM     68  C   UNL     1      10.292   0.516  10.061  1.00  0.00     0.198 A 
ATOM     69  F   UNL     1      11.985   0.396   8.435  1.00  0.00    -0.203 F 
ATOM     70  F   UNL     1       7.412   2.693  10.326  1.00  0.00    -0.200 F 
ATOM     71  C   UNL     1       9.137   1.100  10.554  1.00  0.00     0.200 A 
ATOM     72  F   UNL     1      10.842  -0.527  10.698  1.00  0.00    -0.200 F 
ATOM     73  F   UNL     1       8.581   0.639  11.683  1.00  0.00    -0.200 F 
ENDBRANCH  40  63
ENDBRANCH  14  15
ENDBRANCH   7   9
ENDBRANCH   6   7
ENDBRANCH   5   6
ENDBRANCH   4   5
ENDBRANCH   3   4
ENDBRANCH   2   3
ENDBRANCH   1   2
BRANCH   1  74
ATOM     74  O   UNL     1      -0.731   1.537  -0.452  1.00  0.00    -0.376 OA
BRANCH  74  75
ATOM     75  C   UNL     1      -0.531   0.365  -1.225  1.00  0.00     0.202 C 
BRANCH  75  76
ATOM     76  C   UNL     1       0.113   0.584  -2.595  1.00  0.00     0.261 C 
BRANCH  76  77
ATOM     77  O   UNL     1       1.304   1.398  -2.505  1.00  0.00    -0.462 OA
BRANCH  77  78
ATOM     78  C   UNL     1       1.456   2.287  -3.512  1.00  0.00     0.328 C 
ATOM     79  O   UNL     1       0.793   2.204  -4.546  1.00  0.00    -0.250 OA
BRANCH  78  80
ATOM     80  C   UNL     1       2.715   3.200  -3.392  1.00  0.00     0.195 C 
ATOM     81  C   UNL     1       2.914   3.785  -4.785  1.00  0.00     0.046 C 
ATOM     82  N   UNL     1       3.494   4.146  -2.536  1.00  0.00    -0.328 N 
ATOM     83  C   UNL     1       4.209   4.610  -4.739  1.00  0.00     0.001 C 
ATOM     84  C   UNL     1       4.727   4.396  -3.303  1.00  0.00     0.128 C 
ATOM     85  C   UNL     1       3.886   6.092  -5.013  1.00  0.00     0.071 C 
ATOM     86  C   UNL     1       5.189   4.118  -5.811  1.00  0.00     0.071 C 
ATOM     87  C   UNL     1       3.331   6.297  -6.423  1.00  0.00     0.270 C 
ATOM     88  C   UNL     1       4.619   4.349  -7.214  1.00  0.00     0.270 C 
ATOM     89  N   UNL     1       4.237   5.748  -7.421  1.00  0.00    -0.272 N 
ATOM     90  H   UNL     1       4.369   5.434  -6.497  1.00  0.00     0.356 HD
BRANCH  82  91
ATOM     91  C   UNL     1       3.099   5.261  -1.787  1.00  0.00     0.225 C 
ATOM     92  O   UNL     1       3.826   6.261  -1.688  1.00  0.00    -0.275 OA
BRANCH  91  93
ATOM     93  C   UNL     1       1.916   5.223  -0.866  1.00  0.00     0.124 C 
BRANCH  93  94
ATOM     94  C   UNL     1       0.598   5.824  -1.317  1.00  0.00     0.154 C 
BRANCH  94  95
ATOM     95  N   UNL     1       0.018   5.312  -2.535  1.00  0.00    -0.272 N 
ATOM     96  C   UNL     1      -1.012   4.423  -2.649  1.00  0.00     0.108 A 
ATOM     97  N   UNL     1       0.384   5.847  -3.713  1.00  0.00    -0.182 NA
ATOM     98  C   UNL     1      -1.321   4.362  -3.987  1.00  0.00     0.042 A 
ATOM     99  C   UNL     1      -0.447   5.278  -4.593  1.00  0.00     0.135 A 
ENDBRANCH  94  95
ENDBRANCH  93  94
ENDBRANCH  91  93
ENDBRANCH  82  91
BRANCH  89 100
ATOM    100  C   UNL     1       4.749   6.398  -8.531  1.00  0.00     0.315 C 
ATOM    101  O   UNL     1       5.665   5.889  -9.191  1.00  0.00    -0.231 OA
BRANCH 100 102
ATOM    102  C   UNL     1       4.245   7.698  -9.058  1.00  0.00     0.119 C 
ATOM    103  C   UNL     1       3.270   8.739  -8.587  1.00  0.00     0.019 C 
ATOM    104  C   UNL     1       4.739   8.959  -8.380  1.00  0.00     0.019 C 
ENDBRANCH 100 102
ENDBRANCH  89 100
ENDBRANCH  78  80
ENDBRANCH  77  78
ENDBRANCH  76  77
ENDBRANCH  75  76
ENDBRANCH  74  75
ENDBRANCH   1  74
TORSDOF 23
