REMARK SMILES O=C(OCCOCCOCCOC(=O)[C@@H]1CC2(CC[NH+](C(=O)C3(c4ccccc4F)CC3)CC2)C[NH2+]1)c1ccc(-c2c3nc(c(-c4c(F)c(F)c(F)c(F)c4F)c4ccc([nH]4)c(-c4c(F)c(F)c(F)c(F)c4F)c4nc(c(-c5c(F)c(F)c(F)c(F)c5F)c5ccc2[nH]5)C=C4)C=C3)cc1
REMARK SMILES IDX 8 1 7 2 6 3 5 4 4 5 3 6 2 7 1 8 37 9 38 10 99 11 39 12 98 13
REMARK SMILES IDX 40 14 41 15 42 16 92 17 43 18 97 19 91 20 93 21 44 22 96 23
REMARK SMILES IDX 90 24 89 25 45 27 77 28 57 29 76 30 58 31 61 32 75 33 94 34
REMARK SMILES IDX 59 35 60 36 74 38 95 39 62 40 46 41 47 42 55 43 48 44 49 45
REMARK SMILES IDX 53 46 56 47 50 48 51 49 54 50 52 51 78 52 79 53 87 54 80 55
REMARK SMILES IDX 81 56 85 57 88 58 82 59 83 60 86 61 84 62 63 63 64 64 72 65
REMARK SMILES IDX 65 66 66 67 70 68 73 69 67 70 68 71 71 72 69 73 9 74 10 75
REMARK SMILES IDX 11 76 12 77 13 78 14 79 15 80 16 81 36 82 17 83 35 84 18 87
REMARK SMILES IDX 34 88 19 89 33 90 20 91 21 93 22 94 23 95 31 96 32 97 24 98
REMARK SMILES IDX 25 99 29 100 26 101 28 102 30 103 27 104
REMARK H PARENT 93 26 61 37 36 85 36 86 20 92
REMARK Flexibility Score: inf
ROOT
ATOM      1  C   UNL     1       2.398  -2.558   1.937  1.00  0.00     0.188 C 
ENDROOT
BRANCH   1   2
ATOM      2  C   UNL     1       2.976  -1.186   1.583  1.00  0.00     0.188 C 
BRANCH   2   3
ATOM      3  O   UNL     1       4.272  -1.252   0.978  1.00  0.00    -0.376 OA
BRANCH   3   4
ATOM      4  C   UNL     1       5.202  -0.320   1.548  1.00  0.00     0.202 C 
BRANCH   4   5
ATOM      5  C   UNL     1       5.014   1.140   1.101  1.00  0.00     0.261 C 
BRANCH   5   6
ATOM      6  O   UNL     1       3.647   1.466   0.807  1.00  0.00    -0.460 OA
BRANCH   6   7
ATOM      7  C   UNL     1       3.077   1.606  -0.413  1.00  0.00     0.338 C 
ATOM      8  O   UNL     1       2.047   2.274  -0.499  1.00  0.00    -0.246 OA
BRANCH   7   9
ATOM      9  C   UNL     1       3.586   0.947  -1.662  1.00  0.00     0.060 A 
ATOM     10  C   UNL     1       4.652   0.052  -1.726  1.00  0.00     0.016 A 
ATOM     11  C   UNL     1       2.901   1.221  -2.863  1.00  0.00     0.016 A 
ATOM     12  C   UNL     1       5.090  -0.484  -2.927  1.00  0.00     0.010 A 
ATOM     13  C   UNL     1       3.308   0.656  -4.078  1.00  0.00     0.010 A 
ATOM     14  C   UNL     1       4.440  -0.165  -4.114  1.00  0.00    -0.014 A 
BRANCH  14  15
ATOM     15  C   UNL     1       5.116  -0.533  -5.373  1.00  0.00     0.031 A 
ATOM     16  C   UNL     1       5.849   0.548  -6.107  1.00  0.00     0.074 A 
ATOM     17  C   UNL     1       5.225  -1.823  -5.740  1.00  0.00     0.049 A 
ATOM     18  N   UNL     1       6.535   0.478  -7.215  1.00  0.00    -0.248 NA
ATOM     19  C   UNL     1       5.833   1.889  -5.493  1.00  0.00     0.031 C 
ATOM     20  C   UNL     1       4.683  -2.953  -4.989  1.00  0.00     0.029 A 
ATOM     21  N   UNL     1       5.853  -2.408  -6.807  1.00  0.00    -0.354 N 
ATOM     22  C   UNL     1       7.016   1.761  -7.434  1.00  0.00     0.074 A 
ATOM     23  C   UNL     1       6.529   2.599  -6.364  1.00  0.00     0.031 C 
ATOM     24  C   UNL     1       4.992  -4.097  -5.619  1.00  0.00     0.029 A 
ATOM     25  C   UNL     1       5.723  -3.776  -6.838  1.00  0.00     0.049 A 
ATOM     26  H   UNL     1       6.351  -1.897  -7.486  1.00  0.00     0.167 HD
ATOM     27  C   UNL     1       7.805   2.190  -8.442  1.00  0.00     0.037 A 
ATOM     28  C   UNL     1       6.135  -4.662  -7.765  1.00  0.00     0.037 A 
ATOM     29  C   UNL     1       8.287   1.329  -9.485  1.00  0.00     0.049 A 
ATOM     30  C   UNL     1       6.906  -4.138  -8.945  1.00  0.00     0.074 A 
ATOM     31  C   UNL     1       9.050   1.656 -10.588  1.00  0.00     0.029 A 
ATOM     32  N   UNL     1       8.050  -0.039  -9.544  1.00  0.00    -0.354 N 
ATOM     33  N   UNL     1       7.306  -2.911  -9.186  1.00  0.00    -0.248 NA
ATOM     34  C   UNL     1       7.279  -5.106  -9.983  1.00  0.00     0.031 C 
ATOM     35  C   UNL     1       9.224   0.496 -11.348  1.00  0.00     0.029 A 
ATOM     36  C   UNL     1       8.627  -0.566 -10.684  1.00  0.00     0.049 A 
ATOM     37  H   UNL     1       7.545  -0.555  -8.875  1.00  0.00     0.167 HD
ATOM     38  C   UNL     1       7.994  -2.960 -10.389  1.00  0.00     0.074 A 
ATOM     39  C   UNL     1       7.968  -4.344 -10.822  1.00  0.00     0.031 C 
ATOM     40  C   UNL     1       8.588  -1.954 -11.075  1.00  0.00     0.037 A 
BRANCH  27  41
ATOM     41  C   UNL     1       8.138   3.650  -8.490  1.00  0.00     0.064 A 
ATOM     42  C   UNL     1       7.564   4.468  -9.475  1.00  0.00     0.173 A 
ATOM     43  C   UNL     1       9.021   4.244  -7.576  1.00  0.00     0.173 A 
ATOM     44  F   UNL     1       6.703   3.952 -10.364  1.00  0.00    -0.203 F 
ATOM     45  C   UNL     1       7.874   5.823  -9.552  1.00  0.00     0.198 A 
ATOM     46  C   UNL     1       9.307   5.606  -7.639  1.00  0.00     0.198 A 
ATOM     47  F   UNL     1       9.571   3.512  -6.595  1.00  0.00    -0.203 F 
ATOM     48  F   UNL     1       7.329   6.578 -10.516  1.00  0.00    -0.200 F 
ATOM     49  C   UNL     1       8.741   6.391  -8.632  1.00  0.00     0.200 A 
ATOM     50  F   UNL     1      10.117   6.162  -6.727  1.00  0.00    -0.200 F 
ATOM     51  F   UNL     1       9.022   7.700  -8.695  1.00  0.00    -0.200 F 
ENDBRANCH  27  41
BRANCH  28  52
ATOM     52  C   UNL     1       5.801  -6.105  -7.618  1.00  0.00     0.064 A 
ATOM     53  C   UNL     1       4.469  -6.548  -7.661  1.00  0.00     0.173 A 
ATOM     54  C   UNL     1       6.796  -7.070  -7.415  1.00  0.00     0.173 A 
ATOM     55  F   UNL     1       3.475  -5.668  -7.855  1.00  0.00    -0.203 F 
ATOM     56  C   UNL     1       4.145  -7.892  -7.486  1.00  0.00     0.198 A 
ATOM     57  C   UNL     1       6.474  -8.419  -7.269  1.00  0.00     0.198 A 
ATOM     58  F   UNL     1       8.086  -6.705  -7.383  1.00  0.00    -0.203 F 
ATOM     59  F   UNL     1       2.862  -8.278  -7.500  1.00  0.00    -0.200 F 
ATOM     60  C   UNL     1       5.149  -8.828  -7.296  1.00  0.00     0.200 A 
ATOM     61  F   UNL     1       7.449  -9.325  -7.110  1.00  0.00    -0.200 F 
ATOM     62  F   UNL     1       4.840 -10.123  -7.144  1.00  0.00    -0.200 F 
ENDBRANCH  28  52
BRANCH  40  63
ATOM     63  C   UNL     1       9.279  -2.305 -12.358  1.00  0.00     0.064 A 
ATOM     64  C   UNL     1      10.677  -2.218 -12.452  1.00  0.00     0.173 A 
ATOM     65  C   UNL     1       8.554  -2.604 -13.518  1.00  0.00     0.173 A 
ATOM     66  F   UNL     1      11.411  -1.923 -11.369  1.00  0.00    -0.203 F 
ATOM     67  C   UNL     1      11.320  -2.387 -13.673  1.00  0.00     0.198 A 
ATOM     68  C   UNL     1       9.204  -2.805 -14.731  1.00  0.00     0.198 A 
ATOM     69  F   UNL     1       7.217  -2.709 -13.472  1.00  0.00    -0.203 F 
ATOM     70  F   UNL     1      12.650  -2.243 -13.752  1.00  0.00    -0.200 F 
ATOM     71  C   UNL     1      10.584  -2.681 -14.811  1.00  0.00     0.200 A 
ATOM     72  F   UNL     1       8.495  -3.112 -15.826  1.00  0.00    -0.200 F 
ATOM     73  F   UNL     1      11.205  -2.841 -15.987  1.00  0.00    -0.200 F 
ENDBRANCH  40  63
ENDBRANCH  14  15
ENDBRANCH   7   9
ENDBRANCH   6   7
ENDBRANCH   5   6
ENDBRANCH   4   5
ENDBRANCH   3   4
ENDBRANCH   2   3
ENDBRANCH   1   2
BRANCH   1  74
ATOM     74  O   UNL     1       3.153  -3.373   2.823  1.00  0.00    -0.376 OA
BRANCH  74  75
ATOM     75  C   UNL     1       4.468  -3.724   2.413  1.00  0.00     0.202 C 
BRANCH  75  76
ATOM     76  C   UNL     1       4.651  -4.570   1.138  1.00  0.00     0.261 C 
BRANCH  76  77
ATOM     77  O   UNL     1       3.974  -4.127  -0.060  1.00  0.00    -0.459 OA
BRANCH  77  78
ATOM     78  C   UNL     1       2.953  -4.933  -0.483  1.00  0.00     0.364 C 
ATOM     79  O   UNL     1       2.527  -5.898   0.146  1.00  0.00    -0.245 OA
BRANCH  78  80
ATOM     80  C   UNL     1       2.455  -4.582  -1.909  1.00  0.00     0.294 C 
ATOM     81  C   UNL     1       1.964  -3.156  -2.155  1.00  0.00     0.090 C 
ATOM     82  N   UNL     1       1.255  -5.389  -2.245  1.00  0.00    -0.334 N 
ATOM     83  C   UNL     1       0.419  -3.181  -2.009  1.00  0.00     0.036 C 
ATOM     84  C   UNL     1       0.125  -4.649  -1.675  1.00  0.00     0.268 C 
ATOM     85  H   UNL     1       1.321  -6.319  -1.830  1.00  0.00     0.347 HD
ATOM     86  H   UNL     1       1.155  -5.524  -3.251  1.00  0.00     0.347 HD
ATOM     87  C   UNL     1      -0.323  -2.752  -3.302  1.00  0.00     0.075 C 
ATOM     88  C   UNL     1      -0.075  -2.260  -0.893  1.00  0.00     0.075 C 
ATOM     89  C   UNL     1      -0.285  -1.243  -3.611  1.00  0.00     0.271 C 
ATOM     90  C   UNL     1       0.186  -0.804  -1.236  1.00  0.00     0.271 C 
ATOM     91  N   UNL     1      -0.524  -0.394  -2.444  1.00  0.00    -0.271 N 
ATOM     92  H   UNL     1       0.311  -0.582  -2.930  1.00  0.00     0.356 HD
BRANCH  91  93
ATOM     93  C   UNL     1      -1.151   0.863  -2.357  1.00  0.00     0.322 C 
ATOM     94  O   UNL     1      -1.117   1.456  -1.275  1.00  0.00    -0.230 OA
BRANCH  93  95
ATOM     95  C   UNL     1      -1.917   1.580  -3.474  1.00  0.00     0.113 C 
ATOM     96  C   UNL     1      -1.895   1.272  -4.965  1.00  0.00     0.028 C 
ATOM     97  C   UNL     1      -3.042   0.785  -4.135  1.00  0.00     0.028 C 
BRANCH  95  98
ATOM     98  C   UNL     1      -2.187   3.073  -3.137  1.00  0.00     0.007 A 
ATOM     99  C   UNL     1      -1.422   4.110  -3.704  1.00  0.00     0.008 A 
ATOM    100  C   UNL     1      -3.115   3.440  -2.145  1.00  0.00     0.127 A 
ATOM    101  C   UNL     1      -1.556   5.435  -3.272  1.00  0.00     0.001 A 
ATOM    102  C   UNL     1      -3.238   4.753  -1.692  1.00  0.00     0.039 A 
ATOM    103  F   UNL     1      -3.885   2.498  -1.578  1.00  0.00    -0.207 F 
ATOM    104  C   UNL     1      -2.450   5.753  -2.253  1.00  0.00     0.003 A 
ENDBRANCH  95  98
ENDBRANCH  93  95
ENDBRANCH  91  93
ENDBRANCH  78  80
ENDBRANCH  77  78
ENDBRANCH  76  77
ENDBRANCH  75  76
ENDBRANCH  74  75
ENDBRANCH   1  74
TORSDOF 20
