REMARK SMILES C[C@@H]1CCc2nc(NC(=O)[C@H]3CC=CC[C@@H]3C(=O)OCCOCCOCCOC(=O)c3ccc(-c4c5nc(c(-c6c(F)c(F)c(F)c(F)c6F)c6ccc([nH]6)c(-c6c(F)c(F)c(F)c(F)c6F)c6nc(c(-c7c(F)c(F)c(F)c(F)c7F)c7ccc4[nH]7)C=C6)C=C5)cc3)sc2C1
REMARK SMILES IDX 23 1 22 2 21 3 20 4 19 5 17 6 18 7 16 8 11 9 12 10 13 11
REMARK SMILES IDX 15 12 14 13 9 14 8 15 10 17 7 18 1 19 2 20 3 21 96 22 4 23
REMARK SMILES IDX 95 24 5 25 94 26 6 27 24 28 25 29 26 30 27 31 28 32 29 33
REMARK SMILES IDX 30 34 31 35 32 36 93 37 33 38 92 39 34 40 35 41 36 42 86 43
REMARK SMILES IDX 37 44 91 45 85 46 87 47 38 48 90 49 84 50 83 51 39 53 71 54
REMARK SMILES IDX 51 55 70 56 52 57 55 58 69 59 88 60 53 61 54 62 68 64 89 65
REMARK SMILES IDX 56 66 40 67 41 68 49 69 42 70 43 71 47 72 50 73 44 74 45 75
REMARK SMILES IDX 48 76 46 77 72 78 73 79 81 80 74 81 75 82 79 83 82 84 76 85
REMARK SMILES IDX 77 86 80 87 78 88 57 89 58 90 66 91 59 92 60 93 64 94 67 95
REMARK SMILES IDX 61 96 62 97 65 98 63 99
REMARK H PARENT 8 16 87 52 55 63
REMARK Flexibility Score: inf
ROOT
ATOM      1  C   UNL     1       8.894   5.892   6.737  1.00  0.00     0.188 C 
ENDROOT
BRANCH   1   2
ATOM      2  O   UNL     1       9.791   4.833   7.026  1.00  0.00    -0.376 OA
BRANCH   2   3
ATOM      3  C   UNL     1       9.873   3.840   6.008  1.00  0.00     0.202 C 
BRANCH   3   4
ATOM      4  C   UNL     1       8.577   3.061   5.685  1.00  0.00     0.261 C 
BRANCH   4   5
ATOM      5  O   UNL     1       7.406   3.868   5.388  1.00  0.00    -0.463 OA
BRANCH   5   6
ATOM      6  C   UNL     1       6.370   3.818   6.263  1.00  0.00     0.310 C 
ATOM      7  O   UNL     1       6.343   3.084   7.246  1.00  0.00    -0.252 OA
BRANCH   6   8
ATOM      8  C   UNL     1       5.190   4.727   5.913  1.00  0.00     0.116 C 
ATOM      9  C   UNL     1       4.324   4.098   4.808  1.00  0.00     0.097 C 
ATOM     10  C   UNL     1       4.987   4.293   3.427  1.00  0.00     0.041 C 
ATOM     11  C   UNL     1       5.383   5.714   3.184  1.00  0.00    -0.030 C 
ATOM     12  C   UNL     1       5.446   6.220   5.636  1.00  0.00     0.043 C 
ATOM     13  C   UNL     1       5.551   6.587   4.185  1.00  0.00    -0.030 C 
BRANCH   9  14
ATOM     14  C   UNL     1       2.920   4.734   4.870  1.00  0.00     0.230 C 
ATOM     15  N   UNL     1       1.972   4.512   3.930  1.00  0.00    -0.302 N 
ATOM     16  H   UNL     1       1.433   5.300   3.690  1.00  0.00     0.172 HD
ATOM     17  O   UNL     1       2.602   5.515   5.775  1.00  0.00    -0.274 OA
BRANCH  15  18
ATOM     18  C   UNL     1       1.648   3.369   3.266  1.00  0.00     0.189 A 
ATOM     19  C   UNL     1       1.040  -0.308  -0.253  1.00  0.00     0.008 C 
ATOM     20  C   UNL     1       0.406  -0.656   1.100  1.00  0.00    -0.009 C 
ATOM     21  C   UNL     1      -0.951   0.066   1.305  1.00  0.00     0.010 C 
ATOM     22  C   UNL     1       1.370  -0.334   2.261  1.00  0.00     0.052 C 
ATOM     23  C   UNL     1      -0.829   1.603   1.350  1.00  0.00     0.058 C 
ATOM     24  C   UNL     1       1.337   1.120   2.546  1.00  0.00     0.030 A 
ATOM     25  C   UNL     1       0.363   2.008   2.141  1.00  0.00     0.057 A 
ATOM     26  S   UNL     1       2.479   1.903   3.502  1.00  0.00    -0.101 S 
ATOM     27  N   UNL     1       0.571   3.313   2.519  1.00  0.00    -0.225 NA
ENDBRANCH  15  18
ENDBRANCH   9  14
ENDBRANCH   6   8
ENDBRANCH   5   6
ENDBRANCH   4   5
ENDBRANCH   3   4
ENDBRANCH   2   3
ENDBRANCH   1   2
BRANCH   1  28
ATOM     28  C   UNL     1       9.052   6.522   5.345  1.00  0.00     0.188 C 
BRANCH  28  29
ATOM     29  O   UNL     1       8.918   5.675   4.217  1.00  0.00    -0.376 OA
BRANCH  29  30
ATOM     30  C   UNL     1       9.273   6.130   2.909  1.00  0.00     0.202 C 
BRANCH  30  31
ATOM     31  C   UNL     1      10.090   7.406   2.671  1.00  0.00     0.261 C 
BRANCH  31  32
ATOM     32  O   UNL     1       9.748   8.491   3.515  1.00  0.00    -0.460 OA
BRANCH  32  33
ATOM     33  C   UNL     1       8.459   8.871   3.585  1.00  0.00     0.338 C 
ATOM     34  O   UNL     1       7.584   8.678   2.759  1.00  0.00    -0.246 OA
BRANCH  33  35
ATOM     35  C   UNL     1       8.334   9.607   4.864  1.00  0.00     0.060 A 
ATOM     36  C   UNL     1       7.257  10.472   5.001  1.00  0.00     0.016 A 
ATOM     37  C   UNL     1       9.466   9.697   5.689  1.00  0.00     0.016 A 
ATOM     38  C   UNL     1       7.540  11.700   5.543  1.00  0.00     0.010 A 
ATOM     39  C   UNL     1       9.754  10.910   6.216  1.00  0.00     0.010 A 
ATOM     40  C   UNL     1       8.854  11.929   5.949  1.00  0.00    -0.014 A 
BRANCH  40  41
ATOM     41  C   UNL     1       9.385  13.269   5.963  1.00  0.00     0.031 A 
ATOM     42  C   UNL     1       9.326  13.852   7.311  1.00  0.00     0.074 A 
ATOM     43  C   UNL     1      10.010  13.763   4.873  1.00  0.00     0.049 A 
ATOM     44  N   UNL     1       8.466  14.711   7.747  1.00  0.00    -0.248 NA
ATOM     45  C   UNL     1      10.102  13.185   8.374  1.00  0.00     0.031 C 
ATOM     46  C   UNL     1      10.344  13.092   3.608  1.00  0.00     0.029 A 
ATOM     47  N   UNL     1      10.579  14.989   4.719  1.00  0.00    -0.354 N 
ATOM     48  C   UNL     1       8.770  14.838   9.097  1.00  0.00     0.074 A 
ATOM     49  C   UNL     1       9.480  13.650   9.455  1.00  0.00     0.031 C 
ATOM     50  C   UNL     1      11.241  13.839   2.921  1.00  0.00     0.029 A 
ATOM     51  C   UNL     1      11.457  15.081   3.636  1.00  0.00     0.049 A 
ATOM     52  H   UNL     1      10.388  15.746   5.318  1.00  0.00     0.167 HD
ATOM     53  C   UNL     1       8.793  16.062   9.689  1.00  0.00     0.037 A 
ATOM     54  C   UNL     1      12.356  16.089   3.470  1.00  0.00     0.037 A 
ATOM     55  C   UNL     1       8.065  17.016   8.884  1.00  0.00     0.049 A 
ATOM     56  C   UNL     1      11.904  17.206   4.352  1.00  0.00     0.074 A 
ATOM     57  C   UNL     1       6.758  17.111   8.446  1.00  0.00     0.029 A 
ATOM     58  N   UNL     1       8.798  17.846   8.067  1.00  0.00    -0.354 N 
ATOM     59  N   UNL     1      10.792  17.866   4.162  1.00  0.00    -0.248 NA
ATOM     60  C   UNL     1      12.407  17.208   5.721  1.00  0.00     0.031 C 
ATOM     61  C   UNL     1       6.845  17.626   7.119  1.00  0.00     0.029 A 
ATOM     62  C   UNL     1       8.186  17.896   6.842  1.00  0.00     0.049 A 
ATOM     63  H   UNL     1       9.622  18.321   8.320  1.00  0.00     0.167 HD
ATOM     64  C   UNL     1      10.241  18.007   5.430  1.00  0.00     0.074 A 
ATOM     65  C   UNL     1      11.302  17.613   6.355  1.00  0.00     0.031 C 
ATOM     66  C   UNL     1       8.893  18.132   5.604  1.00  0.00     0.037 A 
BRANCH  53  67
ATOM     67  C   UNL     1       9.823  16.485  10.720  1.00  0.00     0.064 A 
ATOM     68  C   UNL     1       9.713  17.781  11.257  1.00  0.00     0.173 A 
ATOM     69  C   UNL     1      11.045  15.826  11.001  1.00  0.00     0.173 A 
ATOM     70  F   UNL     1       8.594  18.499  11.084  1.00  0.00    -0.203 F 
ATOM     71  C   UNL     1      10.781  18.409  11.902  1.00  0.00     0.198 A 
ATOM     72  C   UNL     1      12.091  16.440  11.684  1.00  0.00     0.198 A 
ATOM     73  F   UNL     1      11.345  14.601  10.565  1.00  0.00    -0.203 F 
ATOM     74  F   UNL     1      10.668  19.691  12.271  1.00  0.00    -0.200 F 
ATOM     75  C   UNL     1      11.976  17.744  12.098  1.00  0.00     0.200 A 
ATOM     76  F   UNL     1      13.241  15.771  11.858  1.00  0.00    -0.200 F 
ATOM     77  F   UNL     1      13.024  18.367  12.649  1.00  0.00    -0.200 F 
ENDBRANCH  53  67
BRANCH  54  78
ATOM     78  C   UNL     1      13.745  15.999   2.950  1.00  0.00     0.064 A 
ATOM     79  C   UNL     1      14.459  17.145   2.557  1.00  0.00     0.173 A 
ATOM     80  C   UNL     1      14.499  14.817   3.089  1.00  0.00     0.173 A 
ATOM     81  F   UNL     1      13.832  18.326   2.454  1.00  0.00    -0.203 F 
ATOM     82  C   UNL     1      15.842  17.110   2.330  1.00  0.00     0.198 A 
ATOM     83  C   UNL     1      15.875  14.782   2.859  1.00  0.00     0.198 A 
ATOM     84  F   UNL     1      13.932  13.692   3.546  1.00  0.00    -0.203 F 
ATOM     85  F   UNL     1      16.498  18.234   2.008  1.00  0.00    -0.200 F 
ATOM     86  C   UNL     1      16.549  15.930   2.489  1.00  0.00     0.200 A 
ATOM     87  F   UNL     1      16.553  13.643   3.060  1.00  0.00    -0.200 F 
ATOM     88  F   UNL     1      17.880  15.907   2.329  1.00  0.00    -0.200 F 
ENDBRANCH  54  78
BRANCH  66  89
ATOM     89  C   UNL     1       8.041  18.326   4.380  1.00  0.00     0.064 A 
ATOM     90  C   UNL     1       7.848  17.341   3.395  1.00  0.00     0.173 A 
ATOM     91  C   UNL     1       7.244  19.475   4.308  1.00  0.00     0.173 A 
ATOM     92  F   UNL     1       8.507  16.177   3.450  1.00  0.00    -0.203 F 
ATOM     93  C   UNL     1       6.914  17.513   2.373  1.00  0.00     0.198 A 
ATOM     94  C   UNL     1       6.288  19.629   3.308  1.00  0.00     0.198 A 
ATOM     95  F   UNL     1       7.348  20.421   5.253  1.00  0.00    -0.203 F 
ATOM     96  F   UNL     1       6.743  16.556   1.449  1.00  0.00    -0.200 F 
ATOM     97  C   UNL     1       6.127  18.652   2.339  1.00  0.00     0.200 A 
ATOM     98  F   UNL     1       5.494  20.708   3.310  1.00  0.00    -0.200 F 
ATOM     99  F   UNL     1       5.191  18.795   1.390  1.00  0.00    -0.200 F 
ENDBRANCH  66  89
ENDBRANCH  40  41
ENDBRANCH  33  35
ENDBRANCH  32  33
ENDBRANCH  31  32
ENDBRANCH  30  31
ENDBRANCH  29  30
ENDBRANCH  28  29
ENDBRANCH   1  28
TORSDOF 19
