REMARK SMILES CC[NH+]1CCC2(CC1)OC[C@@H](C(=O)OCCOCCOCCOC(=O)c1ccc(-c3c4nc(c(-c5c(F)c(F)c(F)c(F)c5F)c5ccc([nH]5)c(-c5c(F)c(F)c(F)c(F)c5F)c5nc(c(-c6c(F)c(F)c(F)c(F)c6F)c6ccc3[nH]6)C=C5)C=C4)cc1)N2C(=O)c1ccc(Cl)c([N+](=O)[O-])c1
REMARK SMILES IDX 18 1 17 2 16 3 15 4 14 5 12 6 13 7 11 8 3 9 4 10 8 11 5 13
REMARK SMILES IDX 7 14 6 15 9 16 89 17 10 18 2 19 1 20 90 21 91 22 92 23 93 24
REMARK SMILES IDX 101 25 94 26 97 27 95 28 96 29 98 30 99 31 100 32 19 33
REMARK SMILES IDX 20 34 21 35 22 36 23 37 24 38 25 39 26 40 27 41 88 42 28 43
REMARK SMILES IDX 87 44 29 45 30 46 31 47 81 48 32 49 86 50 80 51 82 52 33 53
REMARK SMILES IDX 85 54 79 55 78 56 34 58 66 59 46 60 65 61 47 62 50 63 64 64
REMARK SMILES IDX 83 65 48 66 49 67 63 69 84 70 51 71 35 72 36 73 44 74 37 75
REMARK SMILES IDX 38 76 42 77 45 78 39 79 40 80 43 81 41 82 67 83 68 84 76 85
REMARK SMILES IDX 69 86 70 87 74 88 77 89 71 90 72 91 75 92 73 93 52 94 53 95
REMARK SMILES IDX 61 96 54 97 55 98 59 99 62 100 56 101 57 102 60 103 58 104
REMARK H PARENT 3 12 82 57 50 68
REMARK Flexibility Score: inf
ROOT
ATOM      1  C   UNL     1       1.329  -8.774  -3.289  1.00  0.00     0.188 C 
ENDROOT
BRANCH   1   2
ATOM      2  O   UNL     1       0.323  -9.715  -3.628  1.00  0.00    -0.376 OA
BRANCH   2   3
ATOM      3  C   UNL     1      -0.648  -9.393  -4.613  1.00  0.00     0.202 C 
BRANCH   3   4
ATOM      4  C   UNL     1      -1.744  -8.381  -4.223  1.00  0.00     0.261 C 
BRANCH   4   5
ATOM      5  O   UNL     1      -1.348  -7.008  -3.938  1.00  0.00    -0.462 OA
BRANCH   5   6
ATOM      6  C   UNL     1      -1.253  -6.713  -2.618  1.00  0.00     0.331 C 
ATOM      7  O   UNL     1      -1.436  -7.559  -1.737  1.00  0.00    -0.250 OA
BRANCH   6   8
ATOM      8  C   UNL     1      -0.914  -5.256  -2.190  1.00  0.00     0.224 C 
ATOM      9  N   UNL     1       0.366  -0.353  -1.557  1.00  0.00    -0.335 N 
ATOM     10  C   UNL     1       0.828  -1.584  -0.930  1.00  0.00     0.267 C 
ATOM     11  C   UNL     1      -0.703  -0.468  -2.556  1.00  0.00     0.267 C 
ATOM     12  H   UNL     1       1.218  -0.144  -2.078  1.00  0.00     0.348 HD
ATOM     13  C   UNL     1      -0.235  -2.607  -0.635  1.00  0.00     0.120 C 
ATOM     14  C   UNL     1      -1.707  -1.596  -2.388  1.00  0.00     0.120 C 
ATOM     15  C   UNL     1      -1.142  -2.900  -1.847  1.00  0.00     0.155 C 
ATOM     16  O   UNL     1      -2.292  -3.539  -1.245  1.00  0.00    -0.352 OA
ATOM     17  N   UNL     1      -0.630  -3.925  -2.794  1.00  0.00    -0.293 N 
ATOM     18  C   UNL     1      -2.159  -4.947  -1.355  1.00  0.00     0.200 C 
BRANCH   9  19
ATOM     19  C   UNL     1       0.124   0.793  -0.675  1.00  0.00     0.258 C 
ATOM     20  C   UNL     1       1.012   0.914   0.555  1.00  0.00     0.071 C 
ENDBRANCH   9  19
BRANCH  17  21
ATOM     21  C   UNL     1       0.451  -3.811  -3.676  1.00  0.00     0.257 C 
ATOM     22  O   UNL     1       1.153  -4.776  -3.949  1.00  0.00    -0.269 OA
BRANCH  21  23
ATOM     23  C   UNL     1       0.923  -2.571  -4.333  1.00  0.00     0.047 A 
ATOM     24  C   UNL     1       0.344  -2.076  -5.503  1.00  0.00     0.016 A 
ATOM     25  C   UNL     1       2.108  -1.977  -3.878  1.00  0.00     0.101 A 
ATOM     26  C   UNL     1       0.857  -0.903  -6.094  1.00  0.00     0.028 A 
ATOM     27  C   UNL     1       2.520  -0.722  -4.364  1.00  0.00     0.288 A 
ATOM     28  C   UNL     1       1.910  -0.186  -5.498  1.00  0.00     0.118 A 
ATOM     29  Cl  UNL     1       2.389   1.280  -6.275  1.00  0.00    -0.077 Cl
BRANCH  27  30
ATOM     30  N   UNL     1       3.491   0.021  -3.556  1.00  0.00     0.064 N 
ATOM     31  O   UNL     1       3.427   1.257  -3.537  1.00  0.00    -0.258 OA
ATOM     32  O   UNL     1       4.280  -0.644  -2.866  1.00  0.00    -0.258 OA
ENDBRANCH  27  30
ENDBRANCH  21  23
ENDBRANCH  17  21
ENDBRANCH   6   8
ENDBRANCH   5   6
ENDBRANCH   4   5
ENDBRANCH   3   4
ENDBRANCH   2   3
ENDBRANCH   1   2
BRANCH   1  33
ATOM     33  C   UNL     1       1.567  -7.559  -4.177  1.00  0.00     0.188 C 
BRANCH  33  34
ATOM     34  O   UNL     1       1.414  -7.802  -5.564  1.00  0.00    -0.376 OA
BRANCH  34  35
ATOM     35  C   UNL     1       1.800  -6.725  -6.416  1.00  0.00     0.202 C 
BRANCH  35  36
ATOM     36  C   UNL     1       3.237  -6.964  -6.872  1.00  0.00     0.261 C 
BRANCH  36  37
ATOM     37  O   UNL     1       4.157  -7.048  -5.768  1.00  0.00    -0.460 OA
BRANCH  37  38
ATOM     38  C   UNL     1       4.382  -5.905  -5.080  1.00  0.00     0.338 C 
ATOM     39  O   UNL     1       4.045  -4.774  -5.404  1.00  0.00    -0.246 OA
BRANCH  38  40
ATOM     40  C   UNL     1       4.951  -6.263  -3.756  1.00  0.00     0.060 A 
ATOM     41  C   UNL     1       4.458  -5.620  -2.611  1.00  0.00     0.016 A 
ATOM     42  C   UNL     1       5.927  -7.255  -3.630  1.00  0.00     0.016 A 
ATOM     43  C   UNL     1       4.986  -5.919  -1.351  1.00  0.00     0.010 A 
ATOM     44  C   UNL     1       6.456  -7.552  -2.370  1.00  0.00     0.010 A 
ATOM     45  C   UNL     1       6.021  -6.856  -1.228  1.00  0.00    -0.014 A 
BRANCH  45  46
ATOM     46  C   UNL     1       6.782  -6.990   0.044  1.00  0.00     0.031 A 
ATOM     47  C   UNL     1       8.140  -6.345   0.136  1.00  0.00     0.074 A 
ATOM     48  C   UNL     1       6.299  -7.680   1.093  1.00  0.00     0.049 A 
ATOM     49  N   UNL     1       9.031  -6.404   1.094  1.00  0.00    -0.248 NA
ATOM     50  C   UNL     1       8.553  -5.528  -1.017  1.00  0.00     0.031 C 
ATOM     51  C   UNL     1       4.994  -8.332   1.151  1.00  0.00     0.029 A 
ATOM     52  N   UNL     1       6.872  -7.965   2.311  1.00  0.00    -0.354 N 
ATOM     53  C   UNL     1      10.112  -5.652   0.650  1.00  0.00     0.074 A 
ATOM     54  C   UNL     1       9.779  -5.169  -0.672  1.00  0.00     0.031 C 
ATOM     55  C   UNL     1       4.872  -8.959   2.334  1.00  0.00     0.029 A 
ATOM     56  C   UNL     1       6.105  -8.784   3.103  1.00  0.00     0.049 A 
ATOM     57  H   UNL     1       7.749  -7.614   2.588  1.00  0.00     0.167 HD
ATOM     58  C   UNL     1      11.275  -5.383   1.290  1.00  0.00     0.037 A 
ATOM     59  C   UNL     1       6.380  -9.354   4.295  1.00  0.00     0.037 A 
ATOM     60  C   UNL     1      11.604  -5.852   2.610  1.00  0.00     0.049 A 
ATOM     61  C   UNL     1       7.708  -9.085   4.962  1.00  0.00     0.074 A 
ATOM     62  C   UNL     1      12.741  -5.595   3.356  1.00  0.00     0.029 A 
ATOM     63  N   UNL     1      10.804  -6.686   3.376  1.00  0.00    -0.354 N 
ATOM     64  N   UNL     1       8.707  -8.338   4.556  1.00  0.00    -0.248 NA
ATOM     65  C   UNL     1       7.944  -9.736   6.260  1.00  0.00     0.031 C 
ATOM     66  C   UNL     1      12.660  -6.327   4.544  1.00  0.00     0.029 A 
ATOM     67  C   UNL     1      11.438  -6.980   4.572  1.00  0.00     0.049 A 
ATOM     68  H   UNL     1       9.916  -7.019   3.109  1.00  0.00     0.167 HD
ATOM     69  C   UNL     1       9.669  -8.403   5.558  1.00  0.00     0.074 A 
ATOM     70  C   UNL     1       9.129  -9.249   6.600  1.00  0.00     0.031 C 
ATOM     71  C   UNL     1      10.889  -7.814   5.611  1.00  0.00     0.037 A 
BRANCH  58  72
ATOM     72  C   UNL     1      12.300  -4.562   0.560  1.00  0.00     0.064 A 
ATOM     73  C   UNL     1      12.114  -3.194   0.308  1.00  0.00     0.173 A 
ATOM     74  C   UNL     1      13.512  -5.144   0.157  1.00  0.00     0.173 A 
ATOM     75  F   UNL     1      10.969  -2.591   0.663  1.00  0.00    -0.203 F 
ATOM     76  C   UNL     1      13.094  -2.446  -0.341  1.00  0.00     0.198 A 
ATOM     77  C   UNL     1      14.502  -4.385  -0.460  1.00  0.00     0.198 A 
ATOM     78  F   UNL     1      13.744  -6.446   0.379  1.00  0.00    -0.203 F 
ATOM     79  F   UNL     1      12.876  -1.151  -0.611  1.00  0.00    -0.200 F 
ATOM     80  C   UNL     1      14.290  -3.039  -0.715  1.00  0.00     0.200 A 
ATOM     81  F   UNL     1      15.665  -4.957  -0.805  1.00  0.00    -0.200 F 
ATOM     82  F   UNL     1      15.238  -2.314  -1.325  1.00  0.00    -0.200 F 
ENDBRANCH  58  72
BRANCH  59  83
ATOM     83  C   UNL     1       5.390 -10.263   4.936  1.00  0.00     0.064 A 
ATOM     84  C   UNL     1       4.768  -9.923   6.146  1.00  0.00     0.173 A 
ATOM     85  C   UNL     1       5.080 -11.511   4.375  1.00  0.00     0.173 A 
ATOM     86  F   UNL     1       5.053  -8.755   6.741  1.00  0.00    -0.203 F 
ATOM     87  C   UNL     1       3.897 -10.806   6.783  1.00  0.00     0.198 A 
ATOM     88  C   UNL     1       4.182 -12.378   4.994  1.00  0.00     0.198 A 
ATOM     89  F   UNL     1       5.651 -11.890   3.222  1.00  0.00    -0.203 F 
ATOM     90  F   UNL     1       3.367 -10.481   7.970  1.00  0.00    -0.200 F 
ATOM     91  C   UNL     1       3.600 -12.030   6.203  1.00  0.00     0.200 A 
ATOM     92  F   UNL     1       3.890 -13.555   4.425  1.00  0.00    -0.200 F 
ATOM     93  F   UNL     1       2.764 -12.879   6.816  1.00  0.00    -0.200 F 
ENDBRANCH  59  83
BRANCH  71  94
ATOM     94  C   UNL     1      11.710  -8.016   6.855  1.00  0.00     0.064 A 
ATOM     95  C   UNL     1      12.280  -9.256   7.177  1.00  0.00     0.173 A 
ATOM     96  C   UNL     1      11.967  -6.936   7.716  1.00  0.00     0.173 A 
ATOM     97  F   UNL     1      12.060 -10.324   6.396  1.00  0.00    -0.203 F 
ATOM     98  C   UNL     1      13.048  -9.416   8.329  1.00  0.00     0.198 A 
ATOM     99  C   UNL     1      12.765  -7.091   8.847  1.00  0.00     0.198 A 
ATOM    100  F   UNL     1      11.456  -5.724   7.452  1.00  0.00    -0.203 F 
ATOM    101  F   UNL     1      13.536 -10.624   8.644  1.00  0.00    -0.200 F 
ATOM    102  C   UNL     1      13.297  -8.332   9.157  1.00  0.00     0.200 A 
ATOM    103  F   UNL     1      13.019  -6.037   9.635  1.00  0.00    -0.200 F 
ATOM    104  F   UNL     1      14.043  -8.486  10.260  1.00  0.00    -0.200 F 
ENDBRANCH  71  94
ENDBRANCH  45  46
ENDBRANCH  38  40
ENDBRANCH  37  38
ENDBRANCH  36  37
ENDBRANCH  35  36
ENDBRANCH  34  35
ENDBRANCH  33  34
ENDBRANCH   1  33
TORSDOF 21
