REMARK SMILES C[C@@H]1[C@@H](C(=O)OCCOCCOCCOC(=O)c2ccc(-c3c4nc(c(-c5c(F)c(F)c(F)c(F)c5F)c5ccc([nH]5)c(-c5c(F)c(F)c(F)c(F)c5F)c5nc(c(-c6c(F)c(F)c(F)c(F)c6F)c6ccc3[nH]6)C=C5)C=C4)cc2)CCN1C(=O)Nc1nccs1
REMARK SMILES IDX 10 1 9 2 8 3 7 4 6 5 4 6 5 7 3 8 1 9 2 10 83 11 81 12 82 13
REMARK SMILES IDX 84 14 85 15 86 16 87 18 88 19 91 20 89 21 90 22 11 23 12 24
REMARK SMILES IDX 13 25 14 26 15 27 16 28 17 29 18 30 19 31 80 32 20 33 79 34
REMARK SMILES IDX 21 35 22 36 23 37 73 38 24 39 78 40 72 41 74 42 25 43 77 44
REMARK SMILES IDX 71 45 70 46 26 48 58 49 38 50 57 51 39 52 42 53 56 54 75 55
REMARK SMILES IDX 40 56 41 57 55 59 76 60 43 61 27 62 28 63 36 64 29 65 30 66
REMARK SMILES IDX 34 67 37 68 31 69 32 70 35 71 33 72 59 73 60 74 68 75 61 76
REMARK SMILES IDX 62 77 66 78 69 79 63 80 64 81 67 82 65 83 44 84 45 85 53 86
REMARK SMILES IDX 46 87 47 88 51 89 54 90 48 91 49 92 52 93 50 94
REMARK H PARENT 86 17 74 47 42 58
REMARK Flexibility Score: inf
ROOT
ATOM      1  C   UNL     1       0.427   2.391  -3.391  1.00  0.00     0.188 C 
ENDROOT
BRANCH   1   2
ATOM      2  O   UNL     1      -0.319   2.340  -4.595  1.00  0.00    -0.376 OA
BRANCH   2   3
ATOM      3  C   UNL     1      -1.740   2.293  -4.547  1.00  0.00     0.202 C 
BRANCH   3   4
ATOM      4  C   UNL     1      -2.460   1.322  -3.605  1.00  0.00     0.261 C 
BRANCH   4   5
ATOM      5  O   UNL     1      -2.072   1.454  -2.229  1.00  0.00    -0.463 OA
BRANCH   5   6
ATOM      6  C   UNL     1      -1.548   0.330  -1.666  1.00  0.00     0.311 C 
ATOM      7  O   UNL     1      -1.450  -0.748  -2.236  1.00  0.00    -0.252 OA
BRANCH   6   8
ATOM      8  C   UNL     1      -1.045   0.614  -0.260  1.00  0.00     0.123 C 
ATOM      9  C   UNL     1       1.063   0.424   1.122  1.00  0.00     0.032 C 
ATOM     10  C   UNL     1       0.228  -0.205  -0.003  1.00  0.00     0.098 C 
ATOM     11  N   UNL     1      -0.301  -1.518   0.386  1.00  0.00    -0.321 N 
ATOM     12  C   UNL     1      -2.009   0.102   0.800  1.00  0.00     0.039 C 
ATOM     13  C   UNL     1      -1.655  -1.376   0.916  1.00  0.00     0.122 C 
BRANCH  11  14
ATOM     14  C   UNL     1       0.062  -2.760  -0.073  1.00  0.00     0.323 C 
ATOM     15  O   UNL     1      -0.666  -3.741   0.124  1.00  0.00    -0.248 OA
ATOM     16  N   UNL     1       1.125  -2.965  -0.879  1.00  0.00    -0.283 N 
ATOM     17  H   UNL     1       1.004  -3.676  -1.550  1.00  0.00     0.174 HD
BRANCH  16  18
ATOM     18  C   UNL     1       2.335  -2.347  -0.914  1.00  0.00     0.190 A 
ATOM     19  N   UNL     1       2.848  -1.460  -0.103  1.00  0.00    -0.228 NA
ATOM     20  S   UNL     1       3.348  -2.863  -2.194  1.00  0.00    -0.105 S 
ATOM     21  C   UNL     1       4.122  -1.136  -0.510  1.00  0.00     0.125 A 
ATOM     22  C   UNL     1       4.563  -1.788  -1.638  1.00  0.00     0.088 A 
ENDBRANCH  16  18
ENDBRANCH  11  14
ENDBRANCH   6   8
ENDBRANCH   5   6
ENDBRANCH   4   5
ENDBRANCH   3   4
ENDBRANCH   2   3
ENDBRANCH   1   2
BRANCH   1  23
ATOM     23  C   UNL     1       0.174   3.510  -2.361  1.00  0.00     0.188 C 
BRANCH  23  24
ATOM     24  O   UNL     1      -0.988   4.287  -2.504  1.00  0.00    -0.376 OA
BRANCH  24  25
ATOM     25  C   UNL     1      -1.002   5.431  -3.344  1.00  0.00     0.202 C 
BRANCH  25  26
ATOM     26  C   UNL     1       0.193   6.001  -4.134  1.00  0.00     0.261 C 
BRANCH  26  27
ATOM     27  O   UNL     1       1.361   5.190  -4.276  1.00  0.00    -0.460 OA
BRANCH  27  28
ATOM     28  C   UNL     1       2.429   5.586  -3.545  1.00  0.00     0.338 C 
ATOM     29  O   UNL     1       2.490   6.516  -2.753  1.00  0.00    -0.246 OA
BRANCH  28  30
ATOM     30  C   UNL     1       3.510   4.602  -3.704  1.00  0.00     0.060 A 
ATOM     31  C   UNL     1       3.872   3.818  -2.602  1.00  0.00     0.016 A 
ATOM     32  C   UNL     1       4.199   4.498  -4.913  1.00  0.00     0.016 A 
ATOM     33  C   UNL     1       4.940   2.929  -2.704  1.00  0.00     0.010 A 
ATOM     34  C   UNL     1       5.288   3.629  -5.005  1.00  0.00     0.010 A 
ATOM     35  C   UNL     1       5.677   2.859  -3.895  1.00  0.00    -0.014 A 
BRANCH  35  36
ATOM     36  C   UNL     1       6.953   2.108  -3.918  1.00  0.00     0.031 A 
ATOM     37  C   UNL     1       8.220   2.835  -3.571  1.00  0.00     0.074 A 
ATOM     38  C   UNL     1       6.979   0.800  -4.226  1.00  0.00     0.049 A 
ATOM     39  N   UNL     1       9.451   2.394  -3.547  1.00  0.00    -0.248 NA
ATOM     40  C   UNL     1       8.081   4.257  -3.219  1.00  0.00     0.031 C 
ATOM     41  C   UNL     1       5.812  -0.003  -4.579  1.00  0.00     0.029 A 
ATOM     42  N   UNL     1       8.026  -0.086  -4.270  1.00  0.00    -0.354 N 
ATOM     43  C   UNL     1      10.237   3.492  -3.223  1.00  0.00     0.074 A 
ATOM     44  C   UNL     1       9.343   4.616  -3.042  1.00  0.00     0.031 C 
ATOM     45  C   UNL     1       6.203  -1.277  -4.763  1.00  0.00     0.029 A 
ATOM     46  C   UNL     1       7.647  -1.375  -4.557  1.00  0.00     0.049 A 
ATOM     47  H   UNL     1       8.962   0.177  -4.112  1.00  0.00     0.167 HD
ATOM     48  C   UNL     1      11.584   3.559  -3.112  1.00  0.00     0.037 A 
ATOM     49  C   UNL     1       8.387  -2.499  -4.629  1.00  0.00     0.037 A 
ATOM     50  C   UNL     1      12.468   2.439  -3.302  1.00  0.00     0.049 A 
ATOM     51  C   UNL     1       9.886  -2.400  -4.464  1.00  0.00     0.074 A 
ATOM     52  C   UNL     1      13.850   2.409  -3.248  1.00  0.00     0.029 A 
ATOM     53  N   UNL     1      12.050   1.147  -3.583  1.00  0.00    -0.354 N 
ATOM     54  N   UNL     1      10.622  -1.356  -4.169  1.00  0.00    -0.248 NA
ATOM     55  C   UNL     1      10.657  -3.634  -4.675  1.00  0.00     0.031 C 
ATOM     56  C   UNL     1      14.271   1.107  -3.536  1.00  0.00     0.029 A 
ATOM     57  C   UNL     1      13.149   0.314  -3.716  1.00  0.00     0.049 A 
ATOM     58  H   UNL     1      11.112   0.863  -3.674  1.00  0.00     0.167 HD
ATOM     59  C   UNL     1      11.938  -1.804  -4.166  1.00  0.00     0.074 A 
ATOM     60  C   UNL     1      11.895  -3.225  -4.437  1.00  0.00     0.031 C 
ATOM     61  C   UNL     1      13.082  -1.100  -3.985  1.00  0.00     0.037 A 
BRANCH  48  62
ATOM     62  C   UNL     1      12.187   4.904  -2.833  1.00  0.00     0.064 A 
ATOM     63  C   UNL     1      12.077   5.520  -1.577  1.00  0.00     0.173 A 
ATOM     64  C   UNL     1      12.901   5.579  -3.835  1.00  0.00     0.173 A 
ATOM     65  F   UNL     1      11.386   4.926  -0.593  1.00  0.00    -0.203 F 
ATOM     66  C   UNL     1      12.640   6.772  -1.343  1.00  0.00     0.198 A 
ATOM     67  C   UNL     1      13.488   6.816  -3.589  1.00  0.00     0.198 A 
ATOM     68  F   UNL     1      13.034   5.034  -5.054  1.00  0.00    -0.203 F 
ATOM     69  F   UNL     1      12.482   7.363  -0.151  1.00  0.00    -0.200 F 
ATOM     70  C   UNL     1      13.351   7.415  -2.346  1.00  0.00     0.200 A 
ATOM     71  F   UNL     1      14.182   7.431  -4.557  1.00  0.00    -0.200 F 
ATOM     72  F   UNL     1      13.897   8.618  -2.117  1.00  0.00    -0.200 F 
ENDBRANCH  48  62
BRANCH  49  73
ATOM     73  C   UNL     1       7.742  -3.824  -4.845  1.00  0.00     0.064 A 
ATOM     74  C   UNL     1       7.809  -4.816  -3.854  1.00  0.00     0.173 A 
ATOM     75  C   UNL     1       7.082  -4.146  -6.039  1.00  0.00     0.173 A 
ATOM     76  F   UNL     1       8.450  -4.568  -2.702  1.00  0.00    -0.203 F 
ATOM     77  C   UNL     1       7.266  -6.083  -4.060  1.00  0.00     0.198 A 
ATOM     78  C   UNL     1       6.506  -5.401  -6.229  1.00  0.00     0.198 A 
ATOM     79  F   UNL     1       6.992  -3.239  -7.022  1.00  0.00    -0.203 F 
ATOM     80  F   UNL     1       7.402  -7.028  -3.119  1.00  0.00    -0.200 F 
ATOM     81  C   UNL     1       6.608  -6.372  -5.245  1.00  0.00     0.200 A 
ATOM     82  F   UNL     1       5.858  -5.672  -7.370  1.00  0.00    -0.200 F 
ATOM     83  F   UNL     1       6.085  -7.590  -5.443  1.00  0.00    -0.200 F 
ENDBRANCH  49  73
BRANCH  61  84
ATOM     84  C   UNL     1      14.379  -1.853  -4.073  1.00  0.00     0.064 A 
ATOM     85  C   UNL     1      14.867  -2.328  -5.300  1.00  0.00     0.173 A 
ATOM     86  C   UNL     1      15.167  -2.056  -2.930  1.00  0.00     0.173 A 
ATOM     87  F   UNL     1      14.146  -2.168  -6.420  1.00  0.00    -0.203 F 
ATOM     88  C   UNL     1      16.083  -3.001  -5.375  1.00  0.00     0.198 A 
ATOM     89  C   UNL     1      16.397  -2.703  -3.014  1.00  0.00     0.198 A 
ATOM     90  F   UNL     1      14.751  -1.612  -1.735  1.00  0.00    -0.203 F 
ATOM     91  F   UNL     1      16.508  -3.485  -6.551  1.00  0.00    -0.200 F 
ATOM     92  C   UNL     1      16.851  -3.181  -4.234  1.00  0.00     0.200 A 
ATOM     93  F   UNL     1      17.144  -2.863  -1.913  1.00  0.00    -0.200 F 
ATOM     94  F   UNL     1      18.026  -3.821  -4.309  1.00  0.00    -0.200 F 
ENDBRANCH  61  84
ENDBRANCH  35  36
ENDBRANCH  28  30
ENDBRANCH  27  28
ENDBRANCH  26  27
ENDBRANCH  25  26
ENDBRANCH  24  25
ENDBRANCH  23  24
ENDBRANCH   1  23
TORSDOF 19
