REMARK SMILES CC(C)[C@H](NC(=O)OCc1ccccc1)C(=O)NCC(=O)OCCOCCOCCOC(=O)c1ccc(-c2c3nc(c(-c4c(F)c(F)c(F)c(F)c4F)c4ccc([nH]4)c(-c4c(F)c(F)c(F)c(F)c4F)c4nc(c(-c5c(F)c(F)c(F)c(F)c5F)c5ccc2[nH]5)C=C4)C=C3)cc1
REMARK SMILES IDX 24 1 23 2 22 3 20 4 21 5 19 6 18 7 16 8 17 9 4 11 2 12 1 13
REMARK SMILES IDX 3 14 5 15 6 16 7 18 8 19 9 20 10 21 11 22 15 23 12 24 14 25
REMARK SMILES IDX 13 26 25 27 26 28 27 29 28 30 29 31 30 32 31 33 32 34 33 35
REMARK SMILES IDX 34 36 35 37 96 38 36 39 95 40 37 41 38 42 39 43 89 44 40 45
REMARK SMILES IDX 94 46 88 47 90 48 41 49 93 50 87 51 86 52 42 54 74 55 54 56
REMARK SMILES IDX 73 57 55 58 58 59 72 60 91 61 56 62 57 63 71 65 92 66 59 67
REMARK SMILES IDX 43 68 44 69 52 70 45 71 46 72 50 73 53 74 47 75 48 76 51 77
REMARK SMILES IDX 49 78 75 79 76 80 84 81 77 82 78 83 82 84 85 85 79 86 80 87
REMARK SMILES IDX 83 88 81 89 60 90 61 91 69 92 62 93 63 94 67 95 70 96 64 97
REMARK SMILES IDX 65 98 68 99 66 100
REMARK H PARENT 18 10 5 17 90 53 58 64
REMARK Flexibility Score: inf
ROOT
ATOM      1  C   UNL     1       3.178  -3.117   5.583  1.00  0.00     0.202 C 
ENDROOT
BRANCH   1   2
ATOM      2  C   UNL     1       3.683  -2.602   3.516  1.00  0.00     0.261 C 
BRANCH   2   3
ATOM      3  O   UNL     1       2.543  -2.249   2.284  1.00  0.00    -0.462 OA
BRANCH   3   4
ATOM      4  C   UNL     1       1.909  -3.192   1.530  1.00  0.00     0.325 C 
ATOM      5  O   UNL     1       2.514  -4.031   0.865  1.00  0.00    -0.250 OA
BRANCH   4   6
ATOM      6  C   UNL     1       0.330  -3.275   1.679  1.00  0.00     0.238 C 
BRANCH   6   7
ATOM      7  N   UNL     1      -0.629  -2.485   2.487  1.00  0.00    -0.343 N 
ATOM      8  C   UNL     1      -1.184  -1.254   2.365  1.00  0.00     0.243 C 
ATOM      9  O   UNL     1      -2.098  -0.954   3.139  1.00  0.00    -0.273 OA
ATOM     10  H   UNL     1      -0.931  -2.962   3.294  1.00  0.00     0.164 HD
BRANCH   8  11
ATOM     11  C   UNL     1      -0.802  -0.346   1.209  1.00  0.00     0.177 C 
BRANCH  11  12
ATOM     12  C   UNL     1      -1.410  -0.928  -0.125  1.00  0.00     0.015 C 
ATOM     13  C   UNL     1      -0.382  -1.470  -1.127  1.00  0.00     0.010 C 
ATOM     14  C   UNL     1      -2.560  -1.952   0.076  1.00  0.00     0.010 C 
ENDBRANCH  11  12
BRANCH  11  15
ATOM     15  N   UNL     1       0.641  -0.084   1.196  1.00  0.00    -0.309 N 
ATOM     16  C   UNL     1       1.425   0.311   2.262  1.00  0.00     0.408 C 
ATOM     17  H   UNL     1       1.101  -0.203   0.333  1.00  0.00     0.167 HD
ATOM     18  O   UNL     1       2.534   0.795   2.073  1.00  0.00    -0.225 OA
BRANCH  16  19
ATOM     19  O   UNL     1       0.905   0.023   3.484  1.00  0.00    -0.445 OA
BRANCH  19  20
ATOM     20  C   UNL     1       1.818   0.043   4.608  1.00  0.00     0.270 C 
BRANCH  20  21
ATOM     21  C   UNL     1       2.585  -1.259   4.694  1.00  0.00    -0.011 A 
ATOM     22  C   UNL     1       1.787  -2.793   4.199  1.00  0.00     0.007 A 
ATOM     23  C   UNL     1       4.299  -1.318   5.163  1.00  0.00     0.007 A 
ATOM     24  C   UNL     1       2.751  -4.340   3.975  1.00  0.00     0.000 A 
ATOM     25  C   UNL     1       5.244  -2.821   4.983  1.00  0.00     0.000 A 
ATOM     26  C   UNL     1       4.478  -4.343   4.448  1.00  0.00     0.000 A 
ENDBRANCH  20  21
ENDBRANCH  19  20
ENDBRANCH  16  19
ENDBRANCH  11  15
ENDBRANCH   8  11
ENDBRANCH   6   7
ENDBRANCH   4   6
ENDBRANCH   3   4
ENDBRANCH   2   3
ENDBRANCH   1   2
BRANCH   1  27
ATOM     27  O   UNL     1       2.302  -4.359   6.189  1.00  0.00    -0.376 OA
BRANCH  27  28
ATOM     28  C   UNL     1       0.883  -4.523   5.979  1.00  0.00     0.188 C 
BRANCH  28  29
ATOM     29  C   UNL     1      -0.073  -3.350   6.218  1.00  0.00     0.188 C 
BRANCH  29  30
ATOM     30  O   UNL     1       0.504  -2.162   6.671  1.00  0.00    -0.376 OA
BRANCH  30  31
ATOM     31  C   UNL     1       0.409  -1.828   8.042  1.00  0.00     0.202 C 
BRANCH  31  32
ATOM     32  C   UNL     1       0.376  -2.901   9.147  1.00  0.00     0.261 C 
BRANCH  32  33
ATOM     33  O   UNL     1      -0.491  -4.051   9.022  1.00  0.00    -0.460 OA
BRANCH  33  34
ATOM     34  C   UNL     1      -1.808  -3.924   8.720  1.00  0.00     0.338 C 
ATOM     35  O   UNL     1      -2.457  -2.895   8.686  1.00  0.00    -0.246 OA
BRANCH  34  36
ATOM     36  C   UNL     1      -2.189  -5.213   8.045  1.00  0.00     0.060 A 
ATOM     37  C   UNL     1      -2.825  -5.178   6.785  1.00  0.00     0.016 A 
ATOM     38  C   UNL     1      -1.766  -6.438   8.564  1.00  0.00     0.016 A 
ATOM     39  C   UNL     1      -3.095  -6.362   6.087  1.00  0.00     0.010 A 
ATOM     40  C   UNL     1      -2.065  -7.623   7.885  1.00  0.00     0.010 A 
ATOM     41  C   UNL     1      -2.784  -7.593   6.676  1.00  0.00    -0.014 A 
BRANCH  41  42
ATOM     42  C   UNL     1      -3.508  -8.819   6.252  1.00  0.00     0.031 A 
ATOM     43  C   UNL     1      -4.750  -9.169   7.033  1.00  0.00     0.074 A 
ATOM     44  C   UNL     1      -3.103  -9.605   5.240  1.00  0.00     0.049 A 
ATOM     45  N   UNL     1      -5.509 -10.232   6.975  1.00  0.00    -0.248 NA
ATOM     46  C   UNL     1      -5.180  -8.179   8.036  1.00  0.00     0.031 C 
ATOM     47  C   UNL     1      -1.958  -9.352   4.372  1.00  0.00     0.029 A 
ATOM     48  N   UNL     1      -3.614 -10.798   4.787  1.00  0.00    -0.354 N 
ATOM     49  C   UNL     1      -6.489 -10.042   7.942  1.00  0.00     0.074 A 
ATOM     50  C   UNL     1      -6.207  -8.788   8.600  1.00  0.00     0.031 C 
ATOM     51  C   UNL     1      -1.841 -10.370   3.499  1.00  0.00     0.029 A 
ATOM     52  C   UNL     1      -2.877 -11.366   3.777  1.00  0.00     0.049 A 
ATOM     53  H   UNL     1      -4.432 -11.207   5.152  1.00  0.00     0.167 HD
ATOM     54  C   UNL     1      -7.539 -10.838   8.251  1.00  0.00     0.037 A 
ATOM     55  C   UNL     1      -3.011 -12.565   3.174  1.00  0.00     0.037 A 
ATOM     56  C   UNL     1      -7.808 -12.091   7.601  1.00  0.00     0.049 A 
ATOM     57  C   UNL     1      -4.133 -13.485   3.599  1.00  0.00     0.074 A 
ATOM     58  C   UNL     1      -8.847 -12.974   7.827  1.00  0.00     0.029 A 
ATOM     59  N   UNL     1      -7.018 -12.646   6.604  1.00  0.00    -0.354 N 
ATOM     60  N   UNL     1      -5.068 -13.296   4.499  1.00  0.00    -0.248 NA
ATOM     61  C   UNL     1      -4.217 -14.787   2.919  1.00  0.00     0.031 C 
ATOM     62  C   UNL     1      -8.643 -14.099   7.023  1.00  0.00     0.029 A 
ATOM     63  C   UNL     1      -7.528 -13.878   6.230  1.00  0.00     0.049 A 
ATOM     64  H   UNL     1      -6.215 -12.226   6.220  1.00  0.00     0.167 HD
ATOM     65  C   UNL     1      -5.872 -14.430   4.466  1.00  0.00     0.074 A 
ATOM     66  C   UNL     1      -5.320 -15.299   3.447  1.00  0.00     0.031 C 
ATOM     67  C   UNL     1      -6.970 -14.726   5.206  1.00  0.00     0.037 A 
BRANCH  54  68
ATOM     68  C   UNL     1      -8.439 -10.394   9.370  1.00  0.00     0.064 A 
ATOM     69  C   UNL     1      -9.248  -9.251   9.268  1.00  0.00     0.173 A 
ATOM     70  C   UNL     1      -8.494 -11.127  10.566  1.00  0.00     0.173 A 
ATOM     71  F   UNL     1      -9.222  -8.502   8.155  1.00  0.00    -0.203 F 
ATOM     72  C   UNL     1     -10.045  -8.837  10.333  1.00  0.00     0.198 A 
ATOM     73  C   UNL     1      -9.323 -10.734  11.612  1.00  0.00     0.198 A 
ATOM     74  F   UNL     1      -7.743 -12.228  10.720  1.00  0.00    -0.203 F 
ATOM     75  F   UNL     1     -10.753  -7.704  10.236  1.00  0.00    -0.200 F 
ATOM     76  C   UNL     1     -10.088  -9.583  11.501  1.00  0.00     0.200 A 
ATOM     77  F   UNL     1      -9.376 -11.467  12.733  1.00  0.00    -0.200 F 
ATOM     78  F   UNL     1     -10.859  -9.188  12.523  1.00  0.00    -0.200 F 
ENDBRANCH  54  68
BRANCH  55  79
ATOM     79  C   UNL     1      -2.053 -12.981   2.111  1.00  0.00     0.064 A 
ATOM     80  C   UNL     1      -2.476 -13.165   0.786  1.00  0.00     0.173 A 
ATOM     81  C   UNL     1      -0.702 -13.227   2.399  1.00  0.00     0.173 A 
ATOM     82  F   UNL     1      -3.763 -12.973   0.462  1.00  0.00    -0.203 F 
ATOM     83  C   UNL     1      -1.592 -13.597  -0.202  1.00  0.00     0.198 A 
ATOM     84  C   UNL     1       0.189 -13.624   1.404  1.00  0.00     0.198 A 
ATOM     85  F   UNL     1      -0.243 -13.073   3.650  1.00  0.00    -0.203 F 
ATOM     86  F   UNL     1      -2.037 -13.816  -1.446  1.00  0.00    -0.200 F 
ATOM     87  C   UNL     1      -0.258 -13.817   0.106  1.00  0.00     0.200 A 
ATOM     88  F   UNL     1       1.480 -13.822   1.703  1.00  0.00    -0.200 F 
ATOM     89  F   UNL     1       0.593 -14.226  -0.845  1.00  0.00    -0.200 F 
ENDBRANCH  55  79
BRANCH  67  90
ATOM     90  C   UNL     1      -7.688 -16.015   4.909  1.00  0.00     0.064 A 
ATOM     91  C   UNL     1      -7.124 -17.266   5.197  1.00  0.00     0.173 A 
ATOM     92  C   UNL     1      -8.986 -15.991   4.372  1.00  0.00     0.173 A 
ATOM     93  F   UNL     1      -5.884 -17.349   5.703  1.00  0.00    -0.203 F 
ATOM     94  C   UNL     1      -7.817 -18.444   4.925  1.00  0.00     0.198 A 
ATOM     95  C   UNL     1      -9.692 -17.168   4.142  1.00  0.00     0.198 A 
ATOM     96  F   UNL     1      -9.580 -14.821   4.090  1.00  0.00    -0.203 F 
ATOM     97  F   UNL     1      -7.234 -19.629   5.152  1.00  0.00    -0.200 F 
ATOM     98  C   UNL     1      -9.103 -18.394   4.408  1.00  0.00     0.200 A 
ATOM     99  F   UNL     1     -10.943 -17.114   3.665  1.00  0.00    -0.200 F 
ATOM    100  F   UNL     1      -9.772 -19.527   4.159  1.00  0.00    -0.200 F 
ENDBRANCH  67  90
ENDBRANCH  41  42
ENDBRANCH  34  36
ENDBRANCH  33  34
ENDBRANCH  32  33
ENDBRANCH  31  32
ENDBRANCH  30  31
ENDBRANCH  29  30
ENDBRANCH  28  29
ENDBRANCH  27  28
ENDBRANCH   1  27
TORSDOF 24
