REMARK SMILES O=C(OCCOCCOCCOC(=O)[C@@H]1CC(=O)N(c2ccc(Cl)cc2C(=O)c2ccccc2)C1)c1ccc(-c2c3nc(c(-c4c(F)c(F)c(F)c(F)c4F)c4ccc([nH]4)c(-c4c(F)c(F)c(F)c(F)c4F)c4nc(c(-c5c(F)c(F)c(F)c(F)c5F)c5ccc2[nH]5)C=C4)C=C3)cc1
REMARK SMILES IDX 8 1 7 2 6 3 5 4 4 5 3 6 2 7 1 8 36 9 37 10 98 11 38 12 97 13
REMARK SMILES IDX 39 14 40 15 41 16 91 17 42 18 96 19 90 20 92 21 43 22 95 23
REMARK SMILES IDX 89 24 88 25 44 27 76 28 56 29 75 30 57 31 60 32 74 33 93 34
REMARK SMILES IDX 58 35 59 36 73 38 94 39 61 40 45 41 46 42 54 43 47 44 48 45
REMARK SMILES IDX 52 46 55 47 49 48 50 49 53 50 51 51 77 52 78 53 86 54 79 55
REMARK SMILES IDX 80 56 84 57 87 58 81 59 82 60 85 61 83 62 62 63 63 64 71 65
REMARK SMILES IDX 64 66 65 67 69 68 72 69 66 70 67 71 70 72 68 73 9 74 10 75
REMARK SMILES IDX 11 76 12 77 13 78 14 79 15 80 16 81 35 82 17 83 19 84 18 85
REMARK SMILES IDX 20 86 21 87 26 88 22 89 25 90 23 91 24 92 27 93 28 94 29 95
REMARK SMILES IDX 30 96 34 97 31 98 33 99 32 100
REMARK H PARENT 92 26 60 37
REMARK Flexibility Score: inf
ROOT
ATOM      1  C   UNL     1       4.204   3.769  -0.073  1.00  0.00     0.188 C 
ENDROOT
BRANCH   1   2
ATOM      2  C   UNL     1       3.777   2.490  -0.820  1.00  0.00     0.188 C 
BRANCH   2   3
ATOM      3  O   UNL     1       4.704   1.453  -0.523  1.00  0.00    -0.376 OA
BRANCH   3   4
ATOM      4  C   UNL     1       5.554   1.107  -1.603  1.00  0.00     0.202 C 
BRANCH   4   5
ATOM      5  C   UNL     1       4.992  -0.110  -2.349  1.00  0.00     0.261 C 
BRANCH   5   6
ATOM      6  O   UNL     1       3.586  -0.335  -2.084  1.00  0.00    -0.460 OA
BRANCH   6   7
ATOM      7  C   UNL     1       3.012  -1.160  -1.171  1.00  0.00     0.338 C 
ATOM      8  O   UNL     1       1.804  -1.382  -1.254  1.00  0.00    -0.246 OA
BRANCH   7   9
ATOM      9  C   UNL     1       3.756  -1.825  -0.054  1.00  0.00     0.060 A 
ATOM     10  C   UNL     1       4.953  -1.359   0.478  1.00  0.00     0.016 A 
ATOM     11  C   UNL     1       3.172  -2.939   0.569  1.00  0.00     0.016 A 
ATOM     12  C   UNL     1       5.607  -2.001   1.519  1.00  0.00     0.010 A 
ATOM     13  C   UNL     1       3.786  -3.553   1.674  1.00  0.00     0.010 A 
ATOM     14  C   UNL     1       5.032  -3.101   2.137  1.00  0.00    -0.014 A 
BRANCH  14  15
ATOM     15  C   UNL     1       5.837  -3.819   3.155  1.00  0.00     0.031 A 
ATOM     16  C   UNL     1       6.378  -5.165   2.796  1.00  0.00     0.074 A 
ATOM     17  C   UNL     1       6.237  -3.216   4.293  1.00  0.00     0.049 A 
ATOM     18  N   UNL     1       7.199  -5.927   3.468  1.00  0.00    -0.248 NA
ATOM     19  C   UNL     1       6.010  -5.695   1.472  1.00  0.00     0.031 C 
ATOM     20  C   UNL     1       5.940  -1.834   4.653  1.00  0.00     0.029 A 
ATOM     21  N   UNL     1       6.980  -3.665   5.357  1.00  0.00    -0.354 N 
ATOM     22  C   UNL     1       7.495  -6.981   2.622  1.00  0.00     0.074 A 
ATOM     23  C   UNL     1       6.692  -6.825   1.432  1.00  0.00     0.031 C 
ATOM     24  C   UNL     1       6.388  -1.576   5.891  1.00  0.00     0.029 A 
ATOM     25  C   UNL     1       7.036  -2.770   6.402  1.00  0.00     0.049 A 
ATOM     26  H   UNL     1       7.428  -4.541   5.372  1.00  0.00     0.167 HD
ATOM     27  C   UNL     1       8.412  -7.957   2.798  1.00  0.00     0.037 A 
ATOM     28  C   UNL     1       7.547  -2.900   7.638  1.00  0.00     0.037 A 
ATOM     29  C   UNL     1       9.179  -8.119   4.001  1.00  0.00     0.049 A 
ATOM     30  C   UNL     1       8.367  -4.125   7.913  1.00  0.00     0.074 A 
ATOM     31  C   UNL     1      10.075  -9.117   4.327  1.00  0.00     0.029 A 
ATOM     32  N   UNL     1       9.120  -7.255   5.088  1.00  0.00    -0.354 N 
ATOM     33  N   UNL     1       8.645  -5.120   7.106  1.00  0.00    -0.248 NA
ATOM     34  C   UNL     1       9.002  -4.219   9.231  1.00  0.00     0.031 C 
ATOM     35  C   UNL     1      10.522  -8.885   5.633  1.00  0.00     0.029 A 
ATOM     36  C   UNL     1       9.944  -7.714   6.101  1.00  0.00     0.049 A 
ATOM     37  H   UNL     1       8.573  -6.437   5.132  1.00  0.00     0.167 HD
ATOM     38  C   UNL     1       9.534  -5.928   7.790  1.00  0.00     0.074 A 
ATOM     39  C   UNL     1       9.748  -5.305   9.083  1.00  0.00     0.031 C 
ATOM     40  C   UNL     1      10.135  -7.071   7.378  1.00  0.00     0.037 A 
BRANCH  27  41
ATOM     41  C   UNL     1       8.594  -8.909   1.658  1.00  0.00     0.064 A 
ATOM     42  C   UNL     1       9.216  -8.506   0.464  1.00  0.00     0.173 A 
ATOM     43  C   UNL     1       8.083 -10.211   1.728  1.00  0.00     0.173 A 
ATOM     44  F   UNL     1       9.685  -7.256   0.335  1.00  0.00    -0.203 F 
ATOM     45  C   UNL     1       9.291  -9.365  -0.628  1.00  0.00     0.198 A 
ATOM     46  C   UNL     1       8.183 -11.076   0.642  1.00  0.00     0.198 A 
ATOM     47  F   UNL     1       7.465 -10.635   2.840  1.00  0.00    -0.203 F 
ATOM     48  F   UNL     1       9.829  -8.939  -1.780  1.00  0.00    -0.200 F 
ATOM     49  C   UNL     1       8.777 -10.650  -0.537  1.00  0.00     0.200 A 
ATOM     50  F   UNL     1       7.683 -12.316   0.729  1.00  0.00    -0.200 F 
ATOM     51  F   UNL     1       8.838 -11.473  -1.593  1.00  0.00    -0.200 F 
ENDBRANCH  27  41
BRANCH  28  52
ATOM     52  C   UNL     1       7.316  -1.861   8.679  1.00  0.00     0.064 A 
ATOM     53  C   UNL     1       8.357  -1.073   9.186  1.00  0.00     0.173 A 
ATOM     54  C   UNL     1       6.035  -1.671   9.226  1.00  0.00     0.173 A 
ATOM     55  F   UNL     1       9.600  -1.215   8.704  1.00  0.00    -0.203 F 
ATOM     56  C   UNL     1       8.138  -0.169  10.227  1.00  0.00     0.198 A 
ATOM     57  C   UNL     1       5.813  -0.751  10.250  1.00  0.00     0.198 A 
ATOM     58  F   UNL     1       4.995  -2.385   8.770  1.00  0.00    -0.203 F 
ATOM     59  F   UNL     1       9.164   0.531  10.730  1.00  0.00    -0.200 F 
ATOM     60  C   UNL     1       6.867  -0.011  10.760  1.00  0.00     0.200 A 
ATOM     61  F   UNL     1       4.580  -0.591  10.750  1.00  0.00    -0.200 F 
ATOM     62  F   UNL     1       6.662   0.847  11.769  1.00  0.00    -0.200 F 
ENDBRANCH  28  52
BRANCH  40  63
ATOM     63  C   UNL     1      11.108  -7.692   8.330  1.00  0.00     0.064 A 
ATOM     64  C   UNL     1      10.685  -8.308   9.516  1.00  0.00     0.173 A 
ATOM     65  C   UNL     1      12.481  -7.682   8.042  1.00  0.00     0.173 A 
ATOM     66  F   UNL     1       9.383  -8.321   9.843  1.00  0.00    -0.203 F 
ATOM     67  C   UNL     1      11.606  -8.864  10.397  1.00  0.00     0.198 A 
ATOM     68  C   UNL     1      13.395  -8.272   8.907  1.00  0.00     0.198 A 
ATOM     69  F   UNL     1      12.933  -7.105   6.918  1.00  0.00    -0.203 F 
ATOM     70  F   UNL     1      11.186  -9.391  11.555  1.00  0.00    -0.200 F 
ATOM     71  C   UNL     1      12.958  -8.853  10.088  1.00  0.00     0.200 A 
ATOM     72  F   UNL     1      14.700  -8.273   8.601  1.00  0.00    -0.200 F 
ATOM     73  F   UNL     1      13.843  -9.394  10.936  1.00  0.00    -0.200 F 
ENDBRANCH  40  63
ENDBRANCH  14  15
ENDBRANCH   7   9
ENDBRANCH   6   7
ENDBRANCH   5   6
ENDBRANCH   4   5
ENDBRANCH   3   4
ENDBRANCH   2   3
ENDBRANCH   1   2
BRANCH   1  74
ATOM     74  O   UNL     1       5.169   3.417   0.932  1.00  0.00    -0.376 OA
BRANCH  74  75
ATOM     75  C   UNL     1       5.050   3.977   2.238  1.00  0.00     0.202 C 
BRANCH  75  76
ATOM     76  C   UNL     1       5.276   2.889   3.336  1.00  0.00     0.261 C 
BRANCH  76  77
ATOM     77  O   UNL     1       4.171   1.974   3.690  1.00  0.00    -0.463 OA
BRANCH  77  78
ATOM     78  C   UNL     1       3.329   2.341   4.704  1.00  0.00     0.311 C 
ATOM     79  O   UNL     1       3.329   3.477   5.173  1.00  0.00    -0.252 OA
BRANCH  78  80
ATOM     80  C   UNL     1       2.446   1.220   5.315  1.00  0.00     0.128 C 
ATOM     81  C   UNL     1       3.161  -0.092   5.490  1.00  0.00     0.117 C 
ATOM     82  C   UNL     1       1.099   0.806   4.709  1.00  0.00     0.141 C 
ATOM     83  C   UNL     1       2.479  -1.037   4.541  1.00  0.00     0.227 C 
ATOM     84  N   UNL     1       1.298  -0.460   4.035  1.00  0.00    -0.311 N 
ATOM     85  O   UNL     1       2.943  -2.154   4.314  1.00  0.00    -0.274 OA
BRANCH  84  86
ATOM     86  C   UNL     1       0.400  -1.167   3.120  1.00  0.00     0.055 A 
ATOM     87  C   UNL     1       0.490  -2.584   3.122  1.00  0.00     0.028 A 
ATOM     88  C   UNL     1      -0.526  -0.649   2.171  1.00  0.00     0.048 A 
ATOM     89  C   UNL     1      -0.117  -3.415   2.168  1.00  0.00     0.023 A 
ATOM     90  C   UNL     1      -1.087  -1.491   1.169  1.00  0.00     0.035 A 
ATOM     91  C   UNL     1      -0.857  -2.854   1.152  1.00  0.00     0.041 A 
ATOM     92  Cl  UNL     1      -1.507  -3.837  -0.097  1.00  0.00    -0.084 Cl
BRANCH  88  93
ATOM     93  C   UNL     1      -1.073   0.721   2.017  1.00  0.00     0.195 C 
ATOM     94  O   UNL     1      -2.289   0.868   1.898  1.00  0.00    -0.289 OA
BRANCH  93  95
ATOM     95  C   UNL     1      -0.231   1.908   1.959  1.00  0.00     0.023 A 
ATOM     96  C   UNL     1      -0.753   3.130   2.419  1.00  0.00     0.012 A 
ATOM     97  C   UNL     1       1.107   1.771   1.647  1.00  0.00     0.012 A 
ATOM     98  C   UNL     1       0.103   4.183   2.712  1.00  0.00     0.001 A 
ATOM     99  C   UNL     1       1.938   2.818   1.973  1.00  0.00     0.001 A 
ATOM    100  C   UNL     1       1.462   4.009   2.526  1.00  0.00     0.000 A 
ENDBRANCH  93  95
ENDBRANCH  88  93
ENDBRANCH  84  86
ENDBRANCH  78  80
ENDBRANCH  77  78
ENDBRANCH  76  77
ENDBRANCH  75  76
ENDBRANCH  74  75
ENDBRANCH   1  74
TORSDOF 20
