REMARK SMILES NS(=O)(=O)c1ccc(N2N=C(C(=O)OCCOCCOCCOC(=O)c3ccc(-c4c5nc(c(-c6c(F)c(F)c(F)c(F)c6F)c6ccc([nH]6)c(-c6c(F)c(F)c(F)c(F)c6F)c6nc(c(-c7c(F)c(F)c(F)c(F)c7F)c7ccc4[nH]7)C=C6)C=C5)cc3)C[C@H]2c2cccs2)cc1
REMARK SMILES IDX 18 1 17 2 16 3 15 4 14 5 12 6 13 7 11 8 9 9 10 10 90 11
REMARK SMILES IDX 89 12 8 13 5 14 6 15 97 16 7 17 96 18 2 19 3 20 4 21 1 22
REMARK SMILES IDX 91 25 92 26 95 27 93 28 94 29 19 30 20 31 21 32 22 33 23 34
REMARK SMILES IDX 24 35 25 36 26 37 27 38 88 39 28 40 87 41 29 42 30 43 31 44
REMARK SMILES IDX 81 45 32 46 86 47 80 48 82 49 33 50 85 51 79 52 78 53 34 55
REMARK SMILES IDX 66 56 46 57 65 58 47 59 50 60 64 61 83 62 48 63 49 64 63 66
REMARK SMILES IDX 84 67 51 68 35 69 36 70 44 71 37 72 38 73 42 74 45 75 39 76
REMARK SMILES IDX 40 77 43 78 41 79 67 80 68 81 76 82 69 83 70 84 74 85 77 86
REMARK SMILES IDX 71 87 72 88 75 89 73 90 52 91 53 92 61 93 54 94 55 95 59 96
REMARK SMILES IDX 62 97 56 98 57 99 60 100 58 101
REMARK H PARENT 1 23 1 24 82 54 50 65
REMARK Flexibility Score: inf
ROOT
ATOM      1  C   UNL     1       4.901   7.824  -6.293  1.00  0.00     0.188 C 
ENDROOT
BRANCH   1   2
ATOM      2  O   UNL     1       5.041   8.802  -7.308  1.00  0.00    -0.376 OA
BRANCH   2   3
ATOM      3  C   UNL     1       4.585  10.131  -7.090  1.00  0.00     0.202 C 
BRANCH   3   4
ATOM      4  C   UNL     1       3.311  10.440  -6.284  1.00  0.00     0.261 C 
BRANCH   4   5
ATOM      5  O   UNL     1       3.166   9.686  -5.074  1.00  0.00    -0.459 OA
BRANCH   5   6
ATOM      6  C   UNL     1       2.037   8.957  -4.974  1.00  0.00     0.354 C 
ATOM      7  O   UNL     1       1.073   8.968  -5.715  1.00  0.00    -0.245 OA
BRANCH   6   8
ATOM      8  C   UNL     1       2.168   7.965  -3.845  1.00  0.00     0.148 C 
ATOM      9  N   UNL     1       2.068   6.153  -2.752  1.00  0.00    -0.256 N 
ATOM     10  N   UNL     1       1.943   6.693  -4.002  1.00  0.00    -0.169 NA
ATOM     11  C   UNL     1       2.051   7.196  -1.701  1.00  0.00     0.154 C 
ATOM     12  C   UNL     1       2.635   8.383  -2.484  1.00  0.00     0.099 C 
BRANCH   9  13
ATOM     13  C   UNL     1       1.698   4.829  -2.550  1.00  0.00     0.060 A 
ATOM     14  C   UNL     1       1.004   2.143  -2.060  1.00  0.00     0.082 A 
ATOM     15  C   UNL     1       2.325   2.474  -2.370  1.00  0.00     0.024 A 
ATOM     16  C   UNL     1       0.019   3.129  -2.042  1.00  0.00     0.024 A 
ATOM     17  C   UNL     1       2.664   3.813  -2.607  1.00  0.00     0.029 A 
ATOM     18  C   UNL     1       0.369   4.457  -2.305  1.00  0.00     0.029 A 
BRANCH  14  19
ATOM     19  S   UNL     1       0.566   0.455  -1.760  1.00  0.00     0.238 S 
ATOM     20  O   UNL     1       1.338  -0.395  -2.642  1.00  0.00    -0.207 OA
ATOM     21  O   UNL     1      -0.864   0.342  -1.629  1.00  0.00    -0.207 OA
BRANCH  19  22
ATOM     22  N   UNL     1       1.179   0.194  -0.217  1.00  0.00    -0.225 NA
ATOM     23  H   UNL     1       0.983  -0.765   0.069  1.00  0.00     0.137 HD
ATOM     24  H   UNL     1       0.739   0.841   0.438  1.00  0.00     0.137 HD
ENDBRANCH  19  22
ENDBRANCH  14  19
ENDBRANCH   9  13
BRANCH  11  25
ATOM     25  C   UNL     1       0.705   7.508  -1.055  1.00  0.00     0.030 A 
ATOM     26  C   UNL     1       0.094   6.809  -0.026  1.00  0.00     0.017 A 
ATOM     27  S   UNL     1      -0.292   8.819  -1.560  1.00  0.00    -0.147 S 
ATOM     28  C   UNL     1      -1.184   7.335   0.320  1.00  0.00     0.012 A 
ATOM     29  C   UNL     1      -1.495   8.455  -0.414  1.00  0.00     0.065 A 
ENDBRANCH  11  25
ENDBRANCH   6   8
ENDBRANCH   5   6
ENDBRANCH   4   5
ENDBRANCH   3   4
ENDBRANCH   2   3
ENDBRANCH   1   2
BRANCH   1  30
ATOM     30  C   UNL     1       5.534   8.068  -4.910  1.00  0.00     0.188 C 
BRANCH  30  31
ATOM     31  O   UNL     1       5.980   9.370  -4.625  1.00  0.00    -0.376 OA
BRANCH  31  32
ATOM     32  C   UNL     1       7.290   9.772  -4.997  1.00  0.00     0.202 C 
BRANCH  32  33
ATOM     33  C   UNL     1       8.318   8.929  -5.785  1.00  0.00     0.261 C 
BRANCH  33  34
ATOM     34  O   UNL     1       7.924   7.649  -6.282  1.00  0.00    -0.460 OA
BRANCH  34  35
ATOM     35  C   UNL     1       8.298   6.582  -5.534  1.00  0.00     0.338 C 
ATOM     36  O   UNL     1       8.890   6.590  -4.470  1.00  0.00    -0.246 OA
BRANCH  35  37
ATOM     37  C   UNL     1       7.697   5.374  -6.130  1.00  0.00     0.060 A 
ATOM     38  C   UNL     1       6.669   4.707  -5.446  1.00  0.00     0.016 A 
ATOM     39  C   UNL     1       8.167   4.898  -7.351  1.00  0.00     0.016 A 
ATOM     40  C   UNL     1       6.114   3.545  -5.980  1.00  0.00     0.010 A 
ATOM     41  C   UNL     1       7.632   3.719  -7.870  1.00  0.00     0.010 A 
ATOM     42  C   UNL     1       6.625   3.023  -7.174  1.00  0.00    -0.014 A 
BRANCH  42  43
ATOM     43  C   UNL     1       6.271   1.654  -7.613  1.00  0.00     0.031 A 
ATOM     44  C   UNL     1       7.240   0.546  -7.317  1.00  0.00     0.074 A 
ATOM     45  C   UNL     1       5.141   1.406  -8.296  1.00  0.00     0.049 A 
ATOM     46  N   UNL     1       7.254  -0.689  -7.745  1.00  0.00    -0.248 NA
ATOM     47  C   UNL     1       8.358   0.888  -6.421  1.00  0.00     0.031 C 
ATOM     48  C   UNL     1       4.096   2.383  -8.588  1.00  0.00     0.029 A 
ATOM     49  N   UNL     1       4.703   0.250  -8.891  1.00  0.00    -0.354 N 
ATOM     50  C   UNL     1       8.389  -1.265  -7.190  1.00  0.00     0.074 A 
ATOM     51  C   UNL     1       9.053  -0.239  -6.416  1.00  0.00     0.031 C 
ATOM     52  C   UNL     1       3.147   1.792  -9.334  1.00  0.00     0.029 A 
ATOM     53  C   UNL     1       3.544   0.411  -9.609  1.00  0.00     0.049 A 
ATOM     54  H   UNL     1       5.173  -0.611  -8.811  1.00  0.00     0.167 HD
ATOM     55  C   UNL     1       8.834  -2.537  -7.317  1.00  0.00     0.037 A 
ATOM     56  C   UNL     1       2.904  -0.450 -10.425  1.00  0.00     0.037 A 
ATOM     57  C   UNL     1       8.169  -3.547  -8.096  1.00  0.00     0.049 A 
ATOM     58  C   UNL     1       3.469  -1.835 -10.627  1.00  0.00     0.074 A 
ATOM     59  C   UNL     1       8.532  -4.868  -8.287  1.00  0.00     0.029 A 
ATOM     60  N   UNL     1       7.005  -3.342  -8.824  1.00  0.00    -0.354 N 
ATOM     61  N   UNL     1       4.541  -2.380 -10.102  1.00  0.00    -0.248 NA
ATOM     62  C   UNL     1       2.735  -2.724 -11.539  1.00  0.00     0.031 C 
ATOM     63  C   UNL     1       7.625  -5.444  -9.181  1.00  0.00     0.029 A 
ATOM     64  C   UNL     1       6.652  -4.506  -9.486  1.00  0.00     0.049 A 
ATOM     65  H   UNL     1       6.505  -2.495  -8.863  1.00  0.00     0.167 HD
ATOM     66  C   UNL     1       4.582  -3.685 -10.580  1.00  0.00     0.074 A 
ATOM     67  C   UNL     1       3.429  -3.849 -11.440  1.00  0.00     0.031 C 
ATOM     68  C   UNL     1       5.487  -4.661 -10.321  1.00  0.00     0.037 A 
BRANCH  55  69
ATOM     69  C   UNL     1      10.122  -2.892  -6.630  1.00  0.00     0.064 A 
ATOM     70  C   UNL     1      10.225  -2.955  -5.232  1.00  0.00     0.173 A 
ATOM     71  C   UNL     1      11.266  -3.192  -7.385  1.00  0.00     0.173 A 
ATOM     72  F   UNL     1       9.167  -2.661  -4.462  1.00  0.00    -0.203 F 
ATOM     73  C   UNL     1      11.433  -3.273  -4.617  1.00  0.00     0.198 A 
ATOM     74  C   UNL     1      12.462  -3.546  -6.767  1.00  0.00     0.198 A 
ATOM     75  F   UNL     1      11.224  -3.149  -8.726  1.00  0.00    -0.203 F 
ATOM     76  F   UNL     1      11.523  -3.269  -3.279  1.00  0.00    -0.200 F 
ATOM     77  C   UNL     1      12.548  -3.576  -5.384  1.00  0.00     0.200 A 
ATOM     78  F   UNL     1      13.534  -3.852  -7.511  1.00  0.00    -0.200 F 
ATOM     79  F   UNL     1      13.707  -3.889  -4.790  1.00  0.00    -0.200 F 
ENDBRANCH  55  69
BRANCH  56  80
ATOM     80  C   UNL     1       1.665  -0.026 -11.131  1.00  0.00     0.064 A 
ATOM     81  C   UNL     1       0.427  -0.610 -10.828  1.00  0.00     0.173 A 
ATOM     82  C   UNL     1       1.695   0.952 -12.137  1.00  0.00     0.173 A 
ATOM     83  F   UNL     1       0.351  -1.572  -9.897  1.00  0.00    -0.203 F 
ATOM     84  C   UNL     1      -0.729  -0.248 -11.518  1.00  0.00     0.198 A 
ATOM     85  C   UNL     1       0.533   1.336 -12.803  1.00  0.00     0.198 A 
ATOM     86  F   UNL     1       2.854   1.537 -12.472  1.00  0.00    -0.203 F 
ATOM     87  F   UNL     1      -1.887  -0.865 -11.248  1.00  0.00    -0.200 F 
ATOM     88  C   UNL     1      -0.676   0.729 -12.499  1.00  0.00     0.200 A 
ATOM     89  F   UNL     1       0.587   2.287 -13.746  1.00  0.00    -0.200 F 
ATOM     90  F   UNL     1      -1.788   1.076 -13.163  1.00  0.00    -0.200 F 
ENDBRANCH  56  80
BRANCH  68  91
ATOM     91  C   UNL     1       5.239  -6.021 -10.913  1.00  0.00     0.064 A 
ATOM     92  C   UNL     1       5.380  -6.276 -12.284  1.00  0.00     0.173 A 
ATOM     93  C   UNL     1       4.920  -7.102 -10.075  1.00  0.00     0.173 A 
ATOM     94  F   UNL     1       5.674  -5.277 -13.130  1.00  0.00    -0.203 F 
ATOM     95  C   UNL     1       5.189  -7.556 -12.797  1.00  0.00     0.198 A 
ATOM     96  C   UNL     1       4.764  -8.387 -10.586  1.00  0.00     0.198 A 
ATOM     97  F   UNL     1       4.784  -6.917  -8.753  1.00  0.00    -0.203 F 
ATOM     98  F   UNL     1       5.286  -7.769 -14.117  1.00  0.00    -0.200 F 
ATOM     99  C   UNL     1       4.892  -8.612 -11.948  1.00  0.00     0.200 A 
ATOM    100  F   UNL     1       4.498  -9.408  -9.760  1.00  0.00    -0.200 F 
ATOM    101  F   UNL     1       4.726  -9.847 -12.442  1.00  0.00    -0.200 F 
ENDBRANCH  68  91
ENDBRANCH  42  43
ENDBRANCH  35  37
ENDBRANCH  34  35
ENDBRANCH  33  34
ENDBRANCH  32  33
ENDBRANCH  31  32
ENDBRANCH  30  31
ENDBRANCH   1  30
TORSDOF 21
