REMARK SMILES Nc1c(Cl)ccc2c1C=C(C(=O)OCCOCCOCCOC(=O)c1ccc(-c3c4nc(c(-c5c(F)c(F)c(F)c(F)c5F)c5ccc([nH]5)c(-c5c(F)c(F)c(F)c(F)c5F)c5nc(c(-c6c(F)c(F)c(F)c(F)c6F)c6ccc3[nH]6)C=C5)C=C4)cc1)[C@@H](C(F)(F)F)O2
REMARK SMILES IDX 18 1 17 2 16 3 15 4 14 5 13 6 11 7 12 8 10 9 2 10 3 11 8 12
REMARK SMILES IDX 4 13 5 14 7 15 9 16 6 17 93 18 88 19 1 20 89 23 90 24 91 25
REMARK SMILES IDX 92 26 19 27 20 28 21 29 22 30 23 31 24 32 25 33 26 34 87 35
REMARK SMILES IDX 27 36 86 37 28 38 29 39 30 40 80 41 31 42 85 43 79 44 81 45
REMARK SMILES IDX 32 46 84 47 78 48 77 49 33 51 65 52 45 53 64 54 46 55 49 56
REMARK SMILES IDX 63 57 82 58 47 59 48 60 62 62 83 63 50 64 34 65 35 66 43 67
REMARK SMILES IDX 36 68 37 69 41 70 44 71 38 72 39 73 42 74 40 75 66 76 67 77
REMARK SMILES IDX 75 78 68 79 69 80 73 81 76 82 70 83 71 84 74 85 72 86 51 87
REMARK SMILES IDX 52 88 60 89 53 90 54 91 58 92 61 93 55 94 56 95 59 96 57 97
REMARK H PARENT 1 21 1 22 81 50 49 61
REMARK Flexibility Score: inf
ROOT
ATOM      1  C   UNL     1      -4.197  -2.272   1.381  1.00  0.00     0.188 C 
ENDROOT
BRANCH   1   2
ATOM      2  C   UNL     1      -3.176  -3.389   1.687  1.00  0.00     0.188 C 
BRANCH   2   3
ATOM      3  O   UNL     1      -3.572  -4.519   2.427  1.00  0.00    -0.376 OA
BRANCH   3   4
ATOM      4  C   UNL     1      -3.915  -4.424   3.799  1.00  0.00     0.202 C 
BRANCH   4   5
ATOM      5  C   UNL     1      -3.446  -3.304   4.742  1.00  0.00     0.261 C 
BRANCH   5   6
ATOM      6  O   UNL     1      -3.255  -2.013   4.156  1.00  0.00    -0.460 OA
BRANCH   6   7
ATOM      7  C   UNL     1      -1.972  -1.578   4.128  1.00  0.00     0.338 C 
ATOM      8  O   UNL     1      -0.991  -2.167   4.550  1.00  0.00    -0.246 OA
BRANCH   7   9
ATOM      9  C   UNL     1      -1.896  -0.329   3.343  1.00  0.00     0.088 C 
ATOM     10  C   UNL     1       0.244   1.120   0.674  1.00  0.00     0.061 A 
ATOM     11  C   UNL     1       0.461   2.412   0.144  1.00  0.00     0.064 A 
ATOM     12  C   UNL     1      -0.772   0.963   1.647  1.00  0.00     0.042 A 
ATOM     13  Cl  UNL     1       1.760   2.705  -0.963  1.00  0.00    -0.082 Cl
ATOM     14  C   UNL     1      -0.363   3.485   0.483  1.00  0.00     0.026 A 
ATOM     15  C   UNL     1      -1.623   2.038   1.947  1.00  0.00     0.130 A 
ATOM     16  C   UNL     1      -0.931  -0.269   2.415  1.00  0.00     0.029 C 
ATOM     17  C   UNL     1      -1.423   3.288   1.362  1.00  0.00     0.049 A 
ATOM     18  O   UNL     1      -2.682   1.968   2.807  1.00  0.00    -0.475 OA
ATOM     19  C   UNL     1      -2.878   0.774   3.609  1.00  0.00     0.316 C 
BRANCH  10  20
ATOM     20  N   UNL     1       1.097   0.068   0.318  1.00  0.00    -0.397 N 
ATOM     21  H   UNL     1       1.794   0.209  -0.363  1.00  0.00     0.156 HD
ATOM     22  H   UNL     1       0.999  -0.812   0.748  1.00  0.00     0.156 HD
ENDBRANCH  10  20
BRANCH  19  23
ATOM     23  C   UNL     1      -2.904   1.188   5.087  1.00  0.00     0.430 C 
ATOM     24  F   UNL     1      -3.759   2.218   5.295  1.00  0.00    -0.167 F 
ATOM     25  F   UNL     1      -3.317   0.174   5.884  1.00  0.00    -0.167 F 
ATOM     26  F   UNL     1      -1.685   1.576   5.524  1.00  0.00    -0.167 F 
ENDBRANCH  19  23
ENDBRANCH   7   9
ENDBRANCH   6   7
ENDBRANCH   5   6
ENDBRANCH   4   5
ENDBRANCH   3   4
ENDBRANCH   2   3
ENDBRANCH   1   2
BRANCH   1  27
ATOM     27  O   UNL     1      -5.508  -2.335   1.897  1.00  0.00    -0.376 OA
BRANCH  27  28
ATOM     28  C   UNL     1      -6.334  -3.440   1.561  1.00  0.00     0.202 C 
BRANCH  28  29
ATOM     29  C   UNL     1      -6.359  -4.058   0.153  1.00  0.00     0.261 C 
BRANCH  29  30
ATOM     30  O   UNL     1      -5.081  -4.256  -0.468  1.00  0.00    -0.460 OA
BRANCH  30  31
ATOM     31  C   UNL     1      -4.856  -3.518  -1.585  1.00  0.00     0.338 C 
ATOM     32  O   UNL     1      -5.606  -2.723  -2.118  1.00  0.00    -0.246 OA
BRANCH  31  33
ATOM     33  C   UNL     1      -3.451  -3.688  -1.994  1.00  0.00     0.060 A 
ATOM     34  C   UNL     1      -2.557  -2.623  -1.809  1.00  0.00     0.016 A 
ATOM     35  C   UNL     1      -3.036  -4.869  -2.608  1.00  0.00     0.016 A 
ATOM     36  C   UNL     1      -1.236  -2.738  -2.234  1.00  0.00     0.010 A 
ATOM     37  C   UNL     1      -1.722  -4.967  -3.073  1.00  0.00     0.010 A 
ATOM     38  C   UNL     1      -0.827  -3.895  -2.908  1.00  0.00    -0.014 A 
BRANCH  38  39
ATOM     39  C   UNL     1       0.461  -3.893  -3.635  1.00  0.00     0.031 A 
ATOM     40  C   UNL     1       0.469  -3.412  -5.057  1.00  0.00     0.074 A 
ATOM     41  C   UNL     1       1.598  -4.300  -3.048  1.00  0.00     0.049 A 
ATOM     42  N   UNL     1       1.458  -3.357  -5.911  1.00  0.00    -0.248 NA
ATOM     43  C   UNL     1      -0.815  -2.925  -5.587  1.00  0.00     0.031 C 
ATOM     44  C   UNL     1       1.722  -4.739  -1.661  1.00  0.00     0.029 A 
ATOM     45  N   UNL     1       2.867  -4.417  -3.558  1.00  0.00    -0.354 N 
ATOM     46  C   UNL     1       0.917  -2.827  -7.074  1.00  0.00     0.074 A 
ATOM     47  C   UNL     1      -0.491  -2.605  -6.829  1.00  0.00     0.031 C 
ATOM     48  C   UNL     1       2.998  -5.096  -1.434  1.00  0.00     0.029 A 
ATOM     49  C   UNL     1       3.770  -4.940  -2.668  1.00  0.00     0.049 A 
ATOM     50  H   UNL     1       3.106  -4.151  -4.476  1.00  0.00     0.167 HD
ATOM     51  C   UNL     1       1.542  -2.546  -8.240  1.00  0.00     0.037 A 
ATOM     52  C   UNL     1       5.064  -5.275  -2.841  1.00  0.00     0.037 A 
ATOM     53  C   UNL     1       2.936  -2.793  -8.488  1.00  0.00     0.049 A 
ATOM     54  C   UNL     1       5.716  -5.051  -4.181  1.00  0.00     0.074 A 
ATOM     55  C   UNL     1       3.666  -2.534  -9.634  1.00  0.00     0.029 A 
ATOM     56  N   UNL     1       3.808  -3.374  -7.579  1.00  0.00    -0.354 N 
ATOM     57  N   UNL     1       5.210  -4.523  -5.270  1.00  0.00    -0.248 NA
ATOM     58  C   UNL     1       7.120  -5.468  -4.318  1.00  0.00     0.031 C 
ATOM     59  C   UNL     1       4.963  -3.017  -9.442  1.00  0.00     0.029 A 
ATOM     60  C   UNL     1       5.061  -3.517  -8.153  1.00  0.00     0.049 A 
ATOM     61  H   UNL     1       3.572  -3.646  -6.663  1.00  0.00     0.167 HD
ATOM     62  C   UNL     1       6.233  -4.524  -6.211  1.00  0.00     0.074 A 
ATOM     63  C   UNL     1       7.395  -5.095  -5.561  1.00  0.00     0.031 C 
ATOM     64  C   UNL     1       6.210  -4.090  -7.496  1.00  0.00     0.037 A 
BRANCH  51  65
ATOM     65  C   UNL     1       0.710  -1.969  -9.347  1.00  0.00     0.064 A 
ATOM     66  C   UNL     1       0.205  -0.662  -9.285  1.00  0.00     0.173 A 
ATOM     67  C   UNL     1       0.438  -2.725 -10.498  1.00  0.00     0.173 A 
ATOM     68  F   UNL     1       0.421   0.095  -8.198  1.00  0.00    -0.203 F 
ATOM     69  C   UNL     1      -0.561  -0.140 -10.324  1.00  0.00     0.198 A 
ATOM     70  C   UNL     1      -0.302  -2.189 -11.548  1.00  0.00     0.198 A 
ATOM     71  F   UNL     1       0.896  -3.981 -10.606  1.00  0.00    -0.203 F 
ATOM     72  F   UNL     1      -1.074   1.094 -10.222  1.00  0.00    -0.200 F 
ATOM     73  C   UNL     1      -0.806  -0.901 -11.458  1.00  0.00     0.200 A 
ATOM     74  F   UNL     1      -0.527  -2.921 -12.648  1.00  0.00    -0.200 F 
ATOM     75  F   UNL     1      -1.536  -0.394 -12.461  1.00  0.00    -0.200 F 
ENDBRANCH  51  65
BRANCH  52  76
ATOM     76  C   UNL     1       5.825  -5.858  -1.706  1.00  0.00     0.064 A 
ATOM     77  C   UNL     1       6.838  -5.130  -1.068  1.00  0.00     0.173 A 
ATOM     78  C   UNL     1       5.536  -7.141  -1.216  1.00  0.00     0.173 A 
ATOM     79  F   UNL     1       7.169  -3.911  -1.518  1.00  0.00    -0.203 F 
ATOM     80  C   UNL     1       7.530  -5.660   0.019  1.00  0.00     0.198 A 
ATOM     81  C   UNL     1       6.211  -7.660  -0.113  1.00  0.00     0.198 A 
ATOM     82  F   UNL     1       4.580  -7.882  -1.796  1.00  0.00    -0.203 F 
ATOM     83  F   UNL     1       8.511  -4.952   0.595  1.00  0.00    -0.200 F 
ATOM     84  C   UNL     1       7.209  -6.920   0.503  1.00  0.00     0.200 A 
ATOM     85  F   UNL     1       5.890  -8.873   0.357  1.00  0.00    -0.200 F 
ATOM     86  F   UNL     1       7.862  -7.421   1.560  1.00  0.00    -0.200 F 
ENDBRANCH  52  76
BRANCH  64  87
ATOM     87  C   UNL     1       7.478  -4.194  -8.297  1.00  0.00     0.064 A 
ATOM     88  C   UNL     1       7.961  -5.430  -8.750  1.00  0.00     0.173 A 
ATOM     89  C   UNL     1       8.164  -3.035  -8.696  1.00  0.00     0.173 A 
ATOM     90  F   UNL     1       7.349  -6.567  -8.389  1.00  0.00    -0.203 F 
ATOM     91  C   UNL     1       9.090  -5.503  -9.563  1.00  0.00     0.198 A 
ATOM     92  C   UNL     1       9.272  -3.110  -9.535  1.00  0.00     0.198 A 
ATOM     93  F   UNL     1       7.738  -1.827  -8.300  1.00  0.00    -0.203 F 
ATOM     94  F   UNL     1       9.551  -6.697  -9.959  1.00  0.00    -0.200 F 
ATOM     95  C   UNL     1       9.736  -4.343  -9.965  1.00  0.00     0.200 A 
ATOM     96  F   UNL     1       9.883  -1.987  -9.939  1.00  0.00    -0.200 F 
ATOM     97  F   UNL     1      10.807  -4.415 -10.767  1.00  0.00    -0.200 F 
ENDBRANCH  64  87
ENDBRANCH  38  39
ENDBRANCH  31  33
ENDBRANCH  30  31
ENDBRANCH  29  30
ENDBRANCH  28  29
ENDBRANCH  27  28
ENDBRANCH   1  27
TORSDOF 19
