REMARK SMILES CC1=C(CC(=O)OCCOCCOCCOC(=O)c2ccc(-c3c4nc(c(-c5c(F)c(F)c(F)c(F)c5F)c5ccc([nH]5)c(-c5c(F)c(F)c(F)c(F)c5F)c5nc(c(-c6c(F)c(F)c(F)c(F)c6F)c6ccc3[nH]6)C=C5)C=C4)cc2)c2cc(F)ccc2/C1=C\c1cccc(OCc2ccccc2)c1
REMARK SMILES IDX 10 1 9 2 8 3 7 4 5 5 6 6 4 7 3 8 1 9 2 10 89 11 82 12 88 13
REMARK SMILES IDX 90 14 83 15 87 16 84 17 86 18 85 19 91 20 92 21 104 22 93 23
REMARK SMILES IDX 95 24 94 25 96 26 97 27 98 28 99 29 103 30 100 31 102 32
REMARK SMILES IDX 101 33 11 34 12 35 13 36 14 37 15 38 16 39 17 40 18 41 19 42
REMARK SMILES IDX 20 43 81 44 21 45 80 46 22 47 23 48 24 49 74 50 25 51 79 52
REMARK SMILES IDX 73 53 75 54 26 55 78 56 72 57 71 58 27 60 59 61 39 62 58 63
REMARK SMILES IDX 40 64 43 65 57 66 76 67 41 68 42 69 56 71 77 72 44 73 28 74
REMARK SMILES IDX 29 75 37 76 30 77 31 78 35 79 38 80 32 81 33 82 36 83 34 84
REMARK SMILES IDX 60 85 61 86 69 87 62 88 63 89 67 90 70 91 64 92 65 93 68 94
REMARK SMILES IDX 66 95 45 96 46 97 54 98 47 99 48 100 52 101 55 102 49 103
REMARK SMILES IDX 50 104 53 105 51 106
REMARK H PARENT 75 59 43 70
REMARK Flexibility Score: inf
ROOT
ATOM      1  O   UNL     1       4.859  -4.962   2.145  1.00  0.00    -0.376 OA
ENDROOT
BRANCH   1   2
ATOM      2  C   UNL     1       4.891  -3.739   2.872  1.00  0.00     0.202 C 
BRANCH   2   3
ATOM      3  C   UNL     1       4.841  -2.485   1.997  1.00  0.00     0.261 C 
BRANCH   3   4
ATOM      4  O   UNL     1       3.608  -2.398   1.247  1.00  0.00    -0.463 OA
BRANCH   4   5
ATOM      5  C   UNL     1       3.726  -2.025  -0.052  1.00  0.00     0.310 C 
ATOM      6  O   UNL     1       4.787  -1.706  -0.583  1.00  0.00    -0.252 OA
BRANCH   5   7
ATOM      7  C   UNL     1       2.432  -2.114  -0.865  1.00  0.00     0.159 C 
BRANCH   7   8
ATOM      8  C   UNL     1       1.101  -2.208  -0.182  1.00  0.00    -0.025 C 
ATOM      9  C   UNL     1       0.868   0.151   0.746  1.00  0.00     0.045 C 
ATOM     10  C   UNL     1       0.431  -1.256   0.512  1.00  0.00    -0.039 C 
ATOM     11  C   UNL     1      -0.884  -1.773   0.928  1.00  0.00    -0.014 C 
ATOM     12  C   UNL     1       0.182  -3.357  -0.329  1.00  0.00    -0.011 A 
ATOM     13  C   UNL     1      -0.974  -3.156   0.443  1.00  0.00    -0.010 A 
ATOM     14  C   UNL     1      -1.855  -1.054   1.519  1.00  0.00     0.017 C 
ATOM     15  C   UNL     1       0.278  -4.488  -1.123  1.00  0.00     0.048 A 
ATOM     16  C   UNL     1      -1.942  -4.146   0.576  1.00  0.00     0.012 A 
ATOM     17  C   UNL     1      -0.746  -5.437  -1.059  1.00  0.00     0.123 A 
ATOM     18  C   UNL     1      -1.819  -5.304  -0.183  1.00  0.00     0.040 A 
ATOM     19  F   UNL     1      -0.677  -6.524  -1.838  1.00  0.00    -0.207 F 
BRANCH  14  20
ATOM     20  C   UNL     1      -3.232  -1.504   1.759  1.00  0.00    -0.021 A 
ATOM     21  C   UNL     1      -3.633  -1.935   3.024  1.00  0.00     0.008 A 
ATOM     22  C   UNL     1      -4.154  -1.509   0.700  1.00  0.00     0.054 A 
ATOM     23  C   UNL     1      -4.944  -2.371   3.224  1.00  0.00     0.004 A 
ATOM     24  C   UNL     1      -5.489  -1.849   0.917  1.00  0.00     0.120 A 
ATOM     25  C   UNL     1      -5.867  -2.320   2.176  1.00  0.00     0.046 A 
BRANCH  24  26
ATOM     26  O   UNL     1      -6.499  -1.762   0.000  1.00  0.00    -0.489 OA
BRANCH  26  27
ATOM     27  C   UNL     1      -6.314  -0.941  -1.160  1.00  0.00     0.265 C 
BRANCH  27  28
ATOM     28  C   UNL     1      -6.468   0.544  -0.891  1.00  0.00    -0.011 A 
ATOM     29  C   UNL     1      -7.707   1.175  -1.071  1.00  0.00     0.007 A 
ATOM     30  C   UNL     1      -5.384   1.325  -0.463  1.00  0.00     0.007 A 
ATOM     31  C   UNL     1      -7.849   2.546  -0.833  1.00  0.00     0.000 A 
ATOM     32  C   UNL     1      -5.531   2.687  -0.199  1.00  0.00     0.000 A 
ATOM     33  C   UNL     1      -6.764   3.299  -0.389  1.00  0.00     0.000 A 
ENDBRANCH  27  28
ENDBRANCH  26  27
ENDBRANCH  24  26
ENDBRANCH  14  20
ENDBRANCH   7   8
ENDBRANCH   5   7
ENDBRANCH   4   5
ENDBRANCH   3   4
ENDBRANCH   2   3
ENDBRANCH   1   2
BRANCH   1  34
ATOM     34  C   UNL     1       3.627  -5.329   1.527  1.00  0.00     0.188 C 
BRANCH  34  35
ATOM     35  C   UNL     1       2.317  -4.966   2.241  1.00  0.00     0.188 C 
BRANCH  35  36
ATOM     36  O   UNL     1       2.377  -5.282   3.628  1.00  0.00    -0.376 OA
BRANCH  36  37
ATOM     37  C   UNL     1       1.224  -5.968   4.102  1.00  0.00     0.202 C 
BRANCH  37  38
ATOM     38  C   UNL     1       1.478  -7.474   4.076  1.00  0.00     0.261 C 
BRANCH  38  39
ATOM     39  O   UNL     1       1.870  -7.960   2.778  1.00  0.00    -0.460 OA
BRANCH  39  40
ATOM     40  C   UNL     1       0.868  -8.194   1.905  1.00  0.00     0.338 C 
ATOM     41  O   UNL     1      -0.322  -8.016   2.079  1.00  0.00    -0.246 OA
BRANCH  40  42
ATOM     42  C   UNL     1       1.466  -8.639   0.633  1.00  0.00     0.060 A 
ATOM     43  C   UNL     1       1.747  -9.982   0.409  1.00  0.00     0.016 A 
ATOM     44  C   UNL     1       1.671  -7.703  -0.379  1.00  0.00     0.016 A 
ATOM     45  C   UNL     1       2.208 -10.383  -0.851  1.00  0.00     0.010 A 
ATOM     46  C   UNL     1       2.079  -8.106  -1.651  1.00  0.00     0.010 A 
ATOM     47  C   UNL     1       2.345  -9.454  -1.902  1.00  0.00    -0.014 A 
BRANCH  47  48
ATOM     48  C   UNL     1       2.658  -9.914  -3.280  1.00  0.00     0.031 A 
ATOM     49  C   UNL     1       3.957  -9.573  -3.952  1.00  0.00     0.074 A 
ATOM     50  C   UNL     1       1.726 -10.621  -3.950  1.00  0.00     0.049 A 
ATOM     51  N   UNL     1       4.427  -9.998  -5.099  1.00  0.00    -0.248 NA
ATOM     52  C   UNL     1       4.834  -8.614  -3.265  1.00  0.00     0.031 C 
ATOM     53  C   UNL     1       0.382 -10.917  -3.453  1.00  0.00     0.029 A 
ATOM     54  N   UNL     1       1.768 -11.228  -5.180  1.00  0.00    -0.354 N 
ATOM     55  C   UNL     1       5.658  -9.379  -5.260  1.00  0.00     0.074 A 
ATOM     56  C   UNL     1       5.834  -8.494  -4.128  1.00  0.00     0.031 C 
ATOM     57  C   UNL     1      -0.253 -11.696  -4.342  1.00  0.00     0.029 A 
ATOM     58  C   UNL     1       0.634 -11.943  -5.476  1.00  0.00     0.049 A 
ATOM     59  H   UNL     1       2.537 -11.158  -5.790  1.00  0.00     0.167 HD
ATOM     60  C   UNL     1       6.571  -9.557  -6.246  1.00  0.00     0.037 A 
ATOM     61  C   UNL     1       0.351 -12.736  -6.526  1.00  0.00     0.037 A 
ATOM     62  C   UNL     1       6.388 -10.438  -7.373  1.00  0.00     0.049 A 
ATOM     63  C   UNL     1       1.394 -12.954  -7.585  1.00  0.00     0.074 A 
ATOM     64  C   UNL     1       7.274 -10.728  -8.396  1.00  0.00     0.029 A 
ATOM     65  N   UNL     1       5.235 -11.166  -7.627  1.00  0.00    -0.354 N 
ATOM     66  N   UNL     1       2.600 -12.449  -7.672  1.00  0.00    -0.248 NA
ATOM     67  C   UNL     1       1.044 -13.867  -8.681  1.00  0.00     0.031 C 
ATOM     68  C   UNL     1       6.645 -11.604  -9.288  1.00  0.00     0.029 A 
ATOM     69  C   UNL     1       5.383 -11.896  -8.796  1.00  0.00     0.049 A 
ATOM     70  H   UNL     1       4.430 -11.164  -7.061  1.00  0.00     0.167 HD
ATOM     71  C   UNL     1       3.162 -12.998  -8.816  1.00  0.00     0.074 A 
ATOM     72  C   UNL     1       2.170 -13.890  -9.381  1.00  0.00     0.031 C 
ATOM     73  C   UNL     1       4.389 -12.780  -9.348  1.00  0.00     0.037 A 
BRANCH  60  74
ATOM     74  C   UNL     1       7.873  -8.816  -6.137  1.00  0.00     0.064 A 
ATOM     75  C   UNL     1       8.826  -9.166  -5.169  1.00  0.00     0.173 A 
ATOM     76  C   UNL     1       8.207  -7.805  -7.050  1.00  0.00     0.173 A 
ATOM     77  F   UNL     1       8.555 -10.124  -4.270  1.00  0.00    -0.203 F 
ATOM     78  C   UNL     1      10.058  -8.519  -5.107  1.00  0.00     0.198 A 
ATOM     79  C   UNL     1       9.451  -7.179  -7.002  1.00  0.00     0.198 A 
ATOM     80  F   UNL     1       7.338  -7.439  -8.004  1.00  0.00    -0.203 F 
ATOM     81  F   UNL     1      10.940  -8.851  -4.154  1.00  0.00    -0.200 F 
ATOM     82  C   UNL     1      10.373  -7.533  -6.029  1.00  0.00     0.200 A 
ATOM     83  F   UNL     1       9.761  -6.237  -7.904  1.00  0.00    -0.200 F 
ATOM     84  F   UNL     1      11.566  -6.924  -5.979  1.00  0.00    -0.200 F 
ENDBRANCH  60  74
BRANCH  61  85
ATOM     85  C   UNL     1      -0.949 -13.454  -6.568  1.00  0.00     0.064 A 
ATOM     86  C   UNL     1      -1.010 -14.834  -6.328  1.00  0.00     0.173 A 
ATOM     87  C   UNL     1      -2.152 -12.777  -6.806  1.00  0.00     0.173 A 
ATOM     88  F   UNL     1       0.118 -15.526  -6.111  1.00  0.00    -0.203 F 
ATOM     89  C   UNL     1      -2.227 -15.511  -6.332  1.00  0.00     0.198 A 
ATOM     90  C   UNL     1      -3.371 -13.451  -6.787  1.00  0.00     0.198 A 
ATOM     91  F   UNL     1      -2.146 -11.455  -7.034  1.00  0.00    -0.203 F 
ATOM     92  F   UNL     1      -2.255 -16.835  -6.128  1.00  0.00    -0.200 F 
ATOM     93  C   UNL     1      -3.407 -14.818  -6.554  1.00  0.00     0.200 A 
ATOM     94  F   UNL     1      -4.512 -12.777  -6.986  1.00  0.00    -0.200 F 
ATOM     95  F   UNL     1      -4.579 -15.468  -6.544  1.00  0.00    -0.200 F 
ENDBRANCH  61  85
BRANCH  73  96
ATOM     96  C   UNL     1       4.739 -13.532 -10.599  1.00  0.00     0.064 A 
ATOM     97  C   UNL     1       4.163 -13.207 -11.836  1.00  0.00     0.173 A 
ATOM     98  C   UNL     1       5.691 -14.562 -10.566  1.00  0.00     0.173 A 
ATOM     99  F   UNL     1       3.238 -12.239 -11.916  1.00  0.00    -0.203 F 
ATOM    100  C   UNL     1       4.511 -13.902 -12.991  1.00  0.00     0.198 A 
ATOM    101  C   UNL     1       6.057 -15.236 -11.728  1.00  0.00     0.198 A 
ATOM    102  F   UNL     1       6.276 -14.906  -9.409  1.00  0.00    -0.203 F 
ATOM    103  F   UNL     1       3.917 -13.604 -14.154  1.00  0.00    -0.200 F 
ATOM    104  C   UNL     1       5.462 -14.911 -12.937  1.00  0.00     0.200 A 
ATOM    105  F   UNL     1       6.984 -16.202 -11.677  1.00  0.00    -0.200 F 
ATOM    106  F   UNL     1       5.800 -15.574 -14.052  1.00  0.00    -0.200 F 
ENDBRANCH  73  96
ENDBRANCH  47  48
ENDBRANCH  40  42
ENDBRANCH  39  40
ENDBRANCH  38  39
ENDBRANCH  37  38
ENDBRANCH  36  37
ENDBRANCH  35  36
ENDBRANCH  34  35
ENDBRANCH   1  34
TORSDOF 22
