REMARK SMILES Cc1ccc(-c2c(C(=O)OCCOCCOCCOC(=O)c3ccc(-c4c5nc(c(-c6c(F)c(F)c(F)c(F)c6F)c6ccc([nH]6)c(-c6c(F)c(F)c(F)c(F)c6F)c6nc(c(-c7c(F)c(F)c(F)c(F)c7F)c7ccc4[nH]7)C=C6)C=C5)cc3)nnn2Cc2c(F)cccc2Cl)cc1
REMARK SMILES IDX 14 1 13 2 12 3 11 4 10 5 8 6 9 7 7 8 6 9 87 10 85 11 86 12
REMARK SMILES IDX 5 13 1 14 2 15 3 16 98 17 4 18 97 19 88 20 89 21 90 22 95 23
REMARK SMILES IDX 91 24 92 25 94 26 96 27 93 28 15 29 16 30 17 31 18 32 19 33
REMARK SMILES IDX 20 34 21 35 22 36 23 37 84 38 24 39 83 40 25 41 26 42 27 43
REMARK SMILES IDX 77 44 28 45 82 46 76 47 78 48 29 49 81 50 75 51 74 52 30 54
REMARK SMILES IDX 62 55 42 56 61 57 43 58 46 59 60 60 79 61 44 62 45 63 59 65
REMARK SMILES IDX 80 66 47 67 31 68 32 69 40 70 33 71 34 72 38 73 41 74 35 75
REMARK SMILES IDX 36 76 39 77 37 78 63 79 64 80 72 81 65 82 66 83 70 84 73 85
REMARK SMILES IDX 67 86 68 87 71 88 69 89 48 90 49 91 57 92 50 93 51 94 55 95
REMARK SMILES IDX 58 96 52 97 53 98 56 99 54 100
REMARK H PARENT 78 53 46 64
REMARK Flexibility Score: inf
ROOT
ATOM      1  C   UNL     1      -2.600  -0.976   6.552  1.00  0.00     0.188 C 
ENDROOT
BRANCH   1   2
ATOM      2  O   UNL     1      -1.765  -1.184   5.418  1.00  0.00    -0.376 OA
BRANCH   2   3
ATOM      3  C   UNL     1      -0.563  -0.459   5.194  1.00  0.00     0.202 C 
BRANCH   3   4
ATOM      4  C   UNL     1      -0.234  -0.412   3.669  1.00  0.00     0.261 C 
BRANCH   4   5
ATOM      5  O   UNL     1      -1.032   0.539   2.877  1.00  0.00    -0.458 OA
BRANCH   5   6
ATOM      6  C   UNL     1      -1.392   0.058   1.628  1.00  0.00     0.361 C 
ATOM      7  O   UNL     1      -1.018  -1.036   1.228  1.00  0.00    -0.244 OA
BRANCH   6   8
ATOM      8  C   UNL     1      -2.221   0.899   0.745  1.00  0.00     0.198 A 
ATOM      9  C   UNL     1      -1.807   1.298  -0.522  1.00  0.00     0.104 A 
ATOM     10  N   UNL     1      -2.970   1.524  -1.206  1.00  0.00    -0.239 N 
ATOM     11  N   UNL     1      -3.581   1.081   0.823  1.00  0.00    -0.122 NA
ATOM     12  N   UNL     1      -4.020   1.519  -0.355  1.00  0.00    -0.066 NA
BRANCH   9  13
ATOM     13  C   UNL     1      -0.441   1.308  -0.998  1.00  0.00     0.002 A 
ATOM     14  C   UNL     1       3.716   1.206  -0.073  1.00  0.00     0.044 C 
ATOM     15  C   UNL     1       2.302   1.264  -0.564  1.00  0.00    -0.051 A 
ATOM     16  C   UNL     1       1.609   0.071  -0.778  1.00  0.00     0.004 A 
ATOM     17  C   UNL     1       1.639   2.486  -0.725  1.00  0.00     0.004 A 
ATOM     18  C   UNL     1       0.247   0.094  -1.043  1.00  0.00     0.011 A 
ATOM     19  C   UNL     1       0.262   2.511  -0.936  1.00  0.00     0.011 A 
ENDBRANCH   9  13
BRANCH  10  20
ATOM     20  C   UNL     1      -3.197   1.672  -2.641  1.00  0.00     0.187 C 
BRANCH  20  21
ATOM     21  C   UNL     1      -2.500   0.625  -3.480  1.00  0.00     0.028 A 
ATOM     22  C   UNL     1      -1.547   1.036  -4.420  1.00  0.00     0.129 A 
ATOM     23  C   UNL     1      -2.753  -0.752  -3.383  1.00  0.00     0.049 A 
ATOM     24  F   UNL     1      -1.306   2.343  -4.592  1.00  0.00    -0.207 F 
ATOM     25  C   UNL     1      -0.835   0.126  -5.202  1.00  0.00     0.040 A 
ATOM     26  C   UNL     1      -2.027  -1.675  -4.150  1.00  0.00     0.021 A 
ATOM     27  Cl  UNL     1      -3.983  -1.386  -2.355  1.00  0.00    -0.084 Cl
ATOM     28  C   UNL     1      -1.063  -1.237  -5.056  1.00  0.00     0.005 A 
ENDBRANCH  20  21
ENDBRANCH  10  20
ENDBRANCH   6   8
ENDBRANCH   5   6
ENDBRANCH   4   5
ENDBRANCH   3   4
ENDBRANCH   2   3
ENDBRANCH   1   2
BRANCH   1  29
ATOM     29  C   UNL     1      -2.747   0.407   7.212  1.00  0.00     0.188 C 
BRANCH  29  30
ATOM     30  O   UNL     1      -2.458   1.463   6.316  1.00  0.00    -0.376 OA
BRANCH  30  31
ATOM     31  C   UNL     1      -2.675   2.780   6.814  1.00  0.00     0.202 C 
BRANCH  31  32
ATOM     32  C   UNL     1      -4.092   3.285   6.495  1.00  0.00     0.261 C 
BRANCH  32  33
ATOM     33  O   UNL     1      -4.364   3.088   5.093  1.00  0.00    -0.460 OA
BRANCH  33  34
ATOM     34  C   UNL     1      -5.540   2.457   4.804  1.00  0.00     0.338 C 
ATOM     35  O   UNL     1      -6.618   2.735   5.293  1.00  0.00    -0.246 OA
BRANCH  34  36
ATOM     36  C   UNL     1      -5.277   1.228   3.993  1.00  0.00     0.060 A 
ATOM     37  C   UNL     1      -6.286   0.339   3.586  1.00  0.00     0.016 A 
ATOM     38  C   UNL     1      -3.971   0.828   3.822  1.00  0.00     0.016 A 
ATOM     39  C   UNL     1      -5.964  -0.978   3.144  1.00  0.00     0.010 A 
ATOM     40  C   UNL     1      -3.702  -0.481   3.465  1.00  0.00     0.010 A 
ATOM     41  C   UNL     1      -4.652  -1.432   3.172  1.00  0.00    -0.014 A 
BRANCH  41  42
ATOM     42  C   UNL     1      -4.061  -2.794   3.176  1.00  0.00     0.031 A 
ATOM     43  C   UNL     1      -3.014  -3.217   2.199  1.00  0.00     0.074 A 
ATOM     44  C   UNL     1      -4.181  -3.545   4.291  1.00  0.00     0.049 A 
ATOM     45  N   UNL     1      -1.831  -3.683   2.481  1.00  0.00    -0.248 NA
ATOM     46  C   UNL     1      -3.316  -3.179   0.770  1.00  0.00     0.031 C 
ATOM     47  C   UNL     1      -3.439  -4.754   4.649  1.00  0.00     0.029 A 
ATOM     48  N   UNL     1      -5.243  -3.519   5.203  1.00  0.00    -0.354 N 
ATOM     49  C   UNL     1      -1.216  -4.040   1.292  1.00  0.00     0.074 A 
ATOM     50  C   UNL     1      -2.191  -3.682   0.254  1.00  0.00     0.031 C 
ATOM     51  C   UNL     1      -4.248  -5.540   5.377  1.00  0.00     0.029 A 
ATOM     52  C   UNL     1      -5.545  -4.887   5.403  1.00  0.00     0.049 A 
ATOM     53  H   UNL     1      -5.677  -2.734   5.609  1.00  0.00     0.167 HD
ATOM     54  C   UNL     1      -0.559  -5.230   1.175  1.00  0.00     0.037 A 
ATOM     55  C   UNL     1      -6.695  -5.387   4.864  1.00  0.00     0.037 A 
ATOM     56  C   UNL     1      -1.275  -6.343   1.742  1.00  0.00     0.049 A 
ATOM     57  C   UNL     1      -6.466  -6.454   3.815  1.00  0.00     0.074 A 
ATOM     58  C   UNL     1      -1.140  -7.138   2.864  1.00  0.00     0.029 A 
ATOM     59  N   UNL     1      -2.471  -6.694   1.147  1.00  0.00    -0.354 N 
ATOM     60  N   UNL     1      -5.322  -6.689   3.231  1.00  0.00    -0.248 NA
ATOM     61  C   UNL     1      -7.527  -7.324   3.319  1.00  0.00     0.031 C 
ATOM     62  C   UNL     1      -2.320  -7.923   2.976  1.00  0.00     0.029 A 
ATOM     63  C   UNL     1      -3.145  -7.614   1.908  1.00  0.00     0.049 A 
ATOM     64  H   UNL     1      -2.796  -6.332   0.291  1.00  0.00     0.167 HD
ATOM     65  C   UNL     1      -5.481  -7.675   2.289  1.00  0.00     0.074 A 
ATOM     66  C   UNL     1      -6.873  -8.057   2.402  1.00  0.00     0.031 C 
ATOM     67  C   UNL     1      -4.454  -8.071   1.480  1.00  0.00     0.037 A 
BRANCH  54  68
ATOM     68  C   UNL     1       0.883  -5.215   0.742  1.00  0.00     0.064 A 
ATOM     69  C   UNL     1       1.752  -6.301   0.973  1.00  0.00     0.173 A 
ATOM     70  C   UNL     1       1.456  -4.115   0.071  1.00  0.00     0.173 A 
ATOM     71  F   UNL     1       1.327  -7.419   1.577  1.00  0.00    -0.203 F 
ATOM     72  C   UNL     1       3.097  -6.275   0.584  1.00  0.00     0.198 A 
ATOM     73  C   UNL     1       2.800  -4.087  -0.310  1.00  0.00     0.198 A 
ATOM     74  F   UNL     1       0.713  -3.050  -0.262  1.00  0.00    -0.203 F 
ATOM     75  F   UNL     1       3.883  -7.334   0.823  1.00  0.00    -0.200 F 
ATOM     76  C   UNL     1       3.622  -5.166  -0.052  1.00  0.00     0.200 A 
ATOM     77  F   UNL     1       3.294  -3.014  -0.944  1.00  0.00    -0.200 F 
ATOM     78  F   UNL     1       4.907  -5.143  -0.430  1.00  0.00    -0.200 F 
ENDBRANCH  54  68
BRANCH  55  79
ATOM     79  C   UNL     1      -7.804  -4.383   4.869  1.00  0.00     0.064 A 
ATOM     80  C   UNL     1      -8.118  -3.751   6.094  1.00  0.00     0.173 A 
ATOM     81  C   UNL     1      -8.294  -3.787   3.703  1.00  0.00     0.173 A 
ATOM     82  F   UNL     1      -7.672  -4.272   7.250  1.00  0.00    -0.203 F 
ATOM     83  C   UNL     1      -8.767  -2.520   6.140  1.00  0.00     0.198 A 
ATOM     84  C   UNL     1      -8.993  -2.574   3.758  1.00  0.00     0.198 A 
ATOM     85  F   UNL     1      -7.998  -4.299   2.499  1.00  0.00    -0.203 F 
ATOM     86  F   UNL     1      -8.917  -1.886   7.312  1.00  0.00    -0.200 F 
ATOM     87  C   UNL     1      -9.188  -1.921   4.967  1.00  0.00     0.200 A 
ATOM     88  F   UNL     1      -9.370  -1.973   2.620  1.00  0.00    -0.200 F 
ATOM     89  F   UNL     1      -9.737  -0.699   4.995  1.00  0.00    -0.200 F 
ENDBRANCH  55  79
BRANCH  67  90
ATOM     90  C   UNL     1      -4.562  -8.932   0.238  1.00  0.00     0.064 A 
ATOM     91  C   UNL     1      -5.726  -9.043  -0.540  1.00  0.00     0.173 A 
ATOM     92  C   UNL     1      -3.415  -9.568  -0.303  1.00  0.00     0.173 A 
ATOM     93  F   UNL     1      -6.838  -8.364  -0.232  1.00  0.00    -0.203 F 
ATOM     94  C   UNL     1      -5.768  -9.804  -1.714  1.00  0.00     0.198 A 
ATOM     95  C   UNL     1      -3.445 -10.276  -1.506  1.00  0.00     0.198 A 
ATOM     96  F   UNL     1      -2.219  -9.487   0.300  1.00  0.00    -0.203 F 
ATOM     97  F   UNL     1      -6.920  -9.912  -2.391  1.00  0.00    -0.200 F 
ATOM     98  C   UNL     1      -4.628 -10.414  -2.200  1.00  0.00     0.200 A 
ATOM     99  F   UNL     1      -2.315 -10.802  -2.000  1.00  0.00    -0.200 F 
ATOM    100  F   UNL     1      -4.664 -11.104  -3.347  1.00  0.00    -0.200 F 
ENDBRANCH  67  90
ENDBRANCH  41  42
ENDBRANCH  34  36
ENDBRANCH  33  34
ENDBRANCH  32  33
ENDBRANCH  31  32
ENDBRANCH  30  31
ENDBRANCH  29  30
ENDBRANCH   1  29
TORSDOF 20
