REMARK SMILES COc1ccc(NC(=O)NCc2ccc(C(=O)OCCOCCOCCOC(=O)c3ccc(-c4c5nc(c(-c6c(F)c(F)c(F)c(F)c6F)c6ccc([nH]6)c(-c6c(F)c(F)c(F)c(F)c6F)c6nc(c(-c7c(F)c(F)c(F)c(F)c7F)c7ccc4[nH]7)C=C6)C=C5)cc3)cc2)c(OC)c1
REMARK SMILES IDX 22 1 21 2 20 3 19 4 18 5 16 6 17 7 15 8 12 9 13 10 94 11
REMARK SMILES IDX 14 12 93 13 11 14 10 15 7 16 8 17 9 19 6 21 3 22 4 23 98 24
REMARK SMILES IDX 5 25 95 26 2 27 1 28 96 29 97 30 23 31 24 32 25 33 26 34
REMARK SMILES IDX 27 35 28 36 29 37 30 38 31 39 92 40 32 41 91 42 33 43 34 44
REMARK SMILES IDX 35 45 85 46 36 47 90 48 84 49 86 50 37 51 89 52 83 53 82 54
REMARK SMILES IDX 38 56 70 57 50 58 69 59 51 60 54 61 68 62 87 63 52 64 53 65
REMARK SMILES IDX 67 67 88 68 55 69 39 70 40 71 48 72 41 73 42 74 46 75 49 76
REMARK SMILES IDX 43 77 44 78 47 79 45 80 71 81 72 82 80 83 73 84 74 85 78 86
REMARK SMILES IDX 81 87 75 88 76 89 79 90 77 91 56 92 57 93 65 94 58 95 59 96
REMARK SMILES IDX 63 97 66 98 60 99 61 100 64 101 62 102
REMARK H PARENT 7 18 10 20 86 55 54 66
REMARK Flexibility Score: inf
ROOT
ATOM      1  C   UNL     1      -6.819  -3.569   4.781  1.00  0.00     0.188 C 
ENDROOT
BRANCH   1   2
ATOM      2  O   UNL     1      -7.669  -4.421   4.032  1.00  0.00    -0.376 OA
BRANCH   2   3
ATOM      3  C   UNL     1      -7.125  -5.525   3.317  1.00  0.00     0.202 C 
BRANCH   3   4
ATOM      4  C   UNL     1      -5.822  -5.410   2.508  1.00  0.00     0.261 C 
BRANCH   4   5
ATOM      5  O   UNL     1      -4.728  -4.825   3.224  1.00  0.00    -0.460 OA
BRANCH   5   6
ATOM      6  C   UNL     1      -4.251  -3.670   2.702  1.00  0.00     0.338 C 
ATOM      7  O   UNL     1      -4.577  -3.144   1.652  1.00  0.00    -0.246 OA
BRANCH   6   8
ATOM      8  C   UNL     1      -3.446  -2.972   3.725  1.00  0.00     0.060 A 
ATOM      9  C   UNL     1      -1.966  -1.507   5.588  1.00  0.00    -0.029 A 
ATOM     10  C   UNL     1      -3.044  -0.913   4.904  1.00  0.00     0.006 A 
ATOM     11  C   UNL     1      -1.696  -2.868   5.396  1.00  0.00     0.006 A 
ATOM     12  C   UNL     1      -3.761  -1.631   3.959  1.00  0.00     0.016 A 
ATOM     13  C   UNL     1      -2.448  -3.607   4.473  1.00  0.00     0.016 A 
BRANCH   9  14
ATOM     14  C   UNL     1      -0.990  -0.541   6.202  1.00  0.00     0.153 C 
BRANCH  14  15
ATOM     15  N   UNL     1       0.017  -1.018   7.107  1.00  0.00    -0.334 N 
ATOM     16  N   UNL     1       2.148  -0.756   6.032  1.00  0.00    -0.305 N 
ATOM     17  C   UNL     1       1.360  -1.055   7.084  1.00  0.00     0.319 C 
ATOM     18  H   UNL     1       3.082  -1.024   6.189  1.00  0.00     0.172 HD
ATOM     19  O   UNL     1       1.908  -1.508   8.096  1.00  0.00    -0.248 OA
ATOM     20  H   UNL     1      -0.361  -1.405   7.929  1.00  0.00     0.165 HD
BRANCH  16  21
ATOM     21  C   UNL     1       1.982  -0.162   4.769  1.00  0.00     0.085 A 
ATOM     22  C   UNL     1       1.328   0.526   2.133  1.00  0.00     0.122 A 
ATOM     23  C   UNL     1       0.779   1.227   3.205  1.00  0.00     0.049 A 
ATOM     24  C   UNL     1       2.348  -0.390   2.379  1.00  0.00     0.095 A 
ATOM     25  C   UNL     1       1.147   0.920   4.519  1.00  0.00     0.034 A 
ATOM     26  C   UNL     1       2.717  -0.687   3.697  1.00  0.00     0.146 A 
BRANCH  22  27
ATOM     27  O   UNL     1       0.806   0.837   0.909  1.00  0.00    -0.497 OA
ATOM     28  C   UNL     1       1.219   0.028  -0.187  1.00  0.00     0.278 C 
ENDBRANCH  22  27
BRANCH  26  29
ATOM     29  O   UNL     1       3.744  -1.553   3.990  1.00  0.00    -0.494 OA
ATOM     30  C   UNL     1       4.911  -1.310   3.198  1.00  0.00     0.278 C 
ENDBRANCH  26  29
ENDBRANCH  16  21
ENDBRANCH  14  15
ENDBRANCH   9  14
ENDBRANCH   6   8
ENDBRANCH   5   6
ENDBRANCH   4   5
ENDBRANCH   3   4
ENDBRANCH   2   3
ENDBRANCH   1   2
BRANCH   1  31
ATOM     31  C   UNL     1      -5.912  -4.149   5.886  1.00  0.00     0.188 C 
BRANCH  31  32
ATOM     32  O   UNL     1      -5.785  -5.546   5.930  1.00  0.00    -0.376 OA
BRANCH  32  33
ATOM     33  C   UNL     1      -6.723  -6.325   6.651  1.00  0.00     0.202 C 
BRANCH  33  34
ATOM     34  C   UNL     1      -7.989  -5.802   7.364  1.00  0.00     0.261 C 
BRANCH  34  35
ATOM     35  O   UNL     1      -8.353  -4.427   7.210  1.00  0.00    -0.460 OA
BRANCH  35  36
ATOM     36  C   UNL     1      -8.075  -3.620   8.259  1.00  0.00     0.338 C 
ATOM     37  O   UNL     1      -7.511  -3.923   9.305  1.00  0.00    -0.246 OA
BRANCH  36  38
ATOM     38  C   UNL     1      -8.406  -2.232   7.896  1.00  0.00     0.060 A 
ATOM     39  C   UNL     1      -7.369  -1.302   7.746  1.00  0.00     0.016 A 
ATOM     40  C   UNL     1      -9.738  -1.841   7.751  1.00  0.00     0.016 A 
ATOM     41  C   UNL     1      -7.663   0.033   7.468  1.00  0.00     0.010 A 
ATOM     42  C   UNL     1     -10.031  -0.500   7.492  1.00  0.00     0.010 A 
ATOM     43  C   UNL     1      -8.998   0.449   7.377  1.00  0.00    -0.014 A 
BRANCH  43  44
ATOM     44  C   UNL     1      -9.328   1.895   7.326  1.00  0.00     0.031 A 
ATOM     45  C   UNL     1      -9.748   2.583   8.595  1.00  0.00     0.074 A 
ATOM     46  C   UNL     1      -9.261   2.586   6.175  1.00  0.00     0.049 A 
ATOM     47  N   UNL     1     -10.161   3.811   8.780  1.00  0.00    -0.248 NA
ATOM     48  C   UNL     1      -9.698   1.772   9.822  1.00  0.00     0.031 C 
ATOM     49  C   UNL     1      -8.832   2.045   4.888  1.00  0.00     0.029 A 
ATOM     50  N   UNL     1      -9.574   3.896   5.904  1.00  0.00    -0.354 N 
ATOM     51  C   UNL     1     -10.431   3.916  10.139  1.00  0.00     0.074 A 
ATOM     52  C   UNL     1     -10.163   2.621  10.726  1.00  0.00     0.031 C 
ATOM     53  C   UNL     1      -8.925   3.011   3.958  1.00  0.00     0.029 A 
ATOM     54  C   UNL     1      -9.456   4.225   4.576  1.00  0.00     0.049 A 
ATOM     55  H   UNL     1      -9.855   4.537   6.596  1.00  0.00     0.167 HD
ATOM     56  C   UNL     1     -10.859   4.997  10.834  1.00  0.00     0.037 A 
ATOM     57  C   UNL     1      -9.770   5.367   3.933  1.00  0.00     0.037 A 
ATOM     58  C   UNL     1     -11.130   6.282  10.246  1.00  0.00     0.049 A 
ATOM     59  C   UNL     1     -10.321   6.533   4.717  1.00  0.00     0.074 A 
ATOM     60  C   UNL     1     -11.549   7.445  10.870  1.00  0.00     0.029 A 
ATOM     61  N   UNL     1     -11.022   6.571   8.894  1.00  0.00    -0.354 N 
ATOM     62  N   UNL     1     -10.547   6.636   6.004  1.00  0.00    -0.248 NA
ATOM     63  C   UNL     1     -10.657   7.745   3.955  1.00  0.00     0.031 C 
ATOM     64  C   UNL     1     -11.752   8.419   9.887  1.00  0.00     0.029 A 
ATOM     65  C   UNL     1     -11.394   7.886   8.660  1.00  0.00     0.049 A 
ATOM     66  H   UNL     1     -10.725   5.936   8.203  1.00  0.00     0.167 HD
ATOM     67  C   UNL     1     -11.015   7.929   6.210  1.00  0.00     0.074 A 
ATOM     68  C   UNL     1     -11.032   8.577   4.916  1.00  0.00     0.031 C 
ATOM     69  C   UNL     1     -11.393   8.526   7.368  1.00  0.00     0.037 A 
BRANCH  56  70
ATOM     70  C   UNL     1     -11.091   4.825  12.308  1.00  0.00     0.064 A 
ATOM     71  C   UNL     1     -10.030   4.640  13.208  1.00  0.00     0.173 A 
ATOM     72  C   UNL     1     -12.392   4.879  12.831  1.00  0.00     0.173 A 
ATOM     73  F   UNL     1      -8.768   4.569  12.758  1.00  0.00    -0.203 F 
ATOM     74  C   UNL     1     -10.266   4.486  14.572  1.00  0.00     0.198 A 
ATOM     75  C   UNL     1     -12.621   4.757  14.199  1.00  0.00     0.198 A 
ATOM     76  F   UNL     1     -13.442   5.059  12.016  1.00  0.00    -0.203 F 
ATOM     77  F   UNL     1      -9.242   4.258  15.405  1.00  0.00    -0.200 F 
ATOM     78  C   UNL     1     -11.559   4.552  15.067  1.00  0.00     0.200 A 
ATOM     79  F   UNL     1     -13.871   4.837  14.677  1.00  0.00    -0.200 F 
ATOM     80  F   UNL     1     -11.784   4.412  16.380  1.00  0.00    -0.200 F 
ENDBRANCH  56  70
BRANCH  57  81
ATOM     81  C   UNL     1      -9.586   5.467   2.460  1.00  0.00     0.064 A 
ATOM     82  C   UNL     1      -8.629   6.330   1.908  1.00  0.00     0.173 A 
ATOM     83  C   UNL     1     -10.380   4.723   1.575  1.00  0.00     0.173 A 
ATOM     84  F   UNL     1      -7.865   7.085   2.712  1.00  0.00    -0.203 F 
ATOM     85  C   UNL     1      -8.488   6.461   0.528  1.00  0.00     0.198 A 
ATOM     86  C   UNL     1     -10.216   4.831   0.195  1.00  0.00     0.198 A 
ATOM     87  F   UNL     1     -11.313   3.886   2.050  1.00  0.00    -0.203 F 
ATOM     88  F   UNL     1      -7.603   7.333   0.027  1.00  0.00    -0.200 F 
ATOM     89  C   UNL     1      -9.277   5.706  -0.328  1.00  0.00     0.200 A 
ATOM     90  F   UNL     1     -10.973   4.092  -0.627  1.00  0.00    -0.200 F 
ATOM     91  F   UNL     1      -9.139   5.832  -1.655  1.00  0.00    -0.200 F 
ENDBRANCH  57  81
BRANCH  69  92
ATOM     92  C   UNL     1     -11.806   9.970   7.306  1.00  0.00     0.064 A 
ATOM     93  C   UNL     1     -13.009  10.374   6.708  1.00  0.00     0.173 A 
ATOM     94  C   UNL     1     -11.006  10.960   7.900  1.00  0.00     0.173 A 
ATOM     95  F   UNL     1     -13.805   9.471   6.115  1.00  0.00    -0.203 F 
ATOM     96  C   UNL     1     -13.382  11.716   6.684  1.00  0.00     0.198 A 
ATOM     97  C   UNL     1     -11.399  12.295   7.904  1.00  0.00     0.198 A 
ATOM     98  F   UNL     1      -9.849  10.628   8.494  1.00  0.00    -0.203 F 
ATOM     99  F   UNL     1     -14.511  12.084   6.064  1.00  0.00    -0.200 F 
ATOM    100  C   UNL     1     -12.582  12.673   7.289  1.00  0.00     0.200 A 
ATOM    101  F   UNL     1     -10.632  13.216   8.506  1.00  0.00    -0.200 F 
ATOM    102  F   UNL     1     -12.948  13.962   7.275  1.00  0.00    -0.200 F 
ENDBRANCH  69  92
ENDBRANCH  43  44
ENDBRANCH  36  38
ENDBRANCH  35  36
ENDBRANCH  34  35
ENDBRANCH  33  34
ENDBRANCH  32  33
ENDBRANCH  31  32
ENDBRANCH   1  31
TORSDOF 22
