REMARK SMILES CS(=O)(=O)Nc1cc(C(=O)OCCOCCOCCOC(=O)c2ccc(-c3c4nc(c(-c5c(F)c(F)c(F)c(F)c5F)c5ccc([nH]5)c(-c5c(F)c(F)c(F)c(F)c5F)c5nc(c(-c6c(F)c(F)c(F)c(F)c6F)c6ccc3[nH]6)C=C5)C=C4)cc2)ccc1N1CC[NH+](CC(=O)N2CCCC2)CC1
REMARK SMILES IDX 15 1 14 2 13 3 12 4 11 5 9 6 10 7 8 8 6 9 7 10 88 11 87 12
REMARK SMILES IDX 86 13 5 14 2 16 1 17 3 18 4 19 89 20 90 21 102 22 91 23
REMARK SMILES IDX 101 24 92 25 93 27 94 28 95 29 96 30 97 31 100 32 98 33
REMARK SMILES IDX 99 34 16 35 17 36 18 37 19 38 20 39 21 40 22 41 23 42 24 43
REMARK SMILES IDX 85 44 25 45 84 46 26 47 27 48 28 49 78 50 29 51 83 52 77 53
REMARK SMILES IDX 79 54 30 55 82 56 76 57 75 58 31 60 63 61 43 62 62 63 44 64
REMARK SMILES IDX 47 65 61 66 80 67 45 68 46 69 60 71 81 72 48 73 32 74 33 75
REMARK SMILES IDX 41 76 34 77 35 78 39 79 42 80 36 81 37 82 40 83 38 84 64 85
REMARK SMILES IDX 65 86 73 87 66 88 67 89 71 90 74 91 68 92 69 93 72 94 70 95
REMARK SMILES IDX 49 96 50 97 58 98 51 99 52 100 56 101 59 102 53 103 54 104
REMARK SMILES IDX 57 105 55 106
REMARK H PARENT 5 15 92 26 79 59 47 70
REMARK Flexibility Score: inf
ROOT
ATOM      1  C   UNL     1       2.862   5.313   5.328  1.00  0.00     0.188 C 
ENDROOT
BRANCH   1   2
ATOM      2  O   UNL     1       3.244   5.773   6.608  1.00  0.00    -0.376 OA
BRANCH   2   3
ATOM      3  C   UNL     1       3.033   4.909   7.712  1.00  0.00     0.202 C 
BRANCH   3   4
ATOM      4  C   UNL     1       3.344   3.395   7.666  1.00  0.00     0.261 C 
BRANCH   4   5
ATOM      5  O   UNL     1       3.268   2.720   6.401  1.00  0.00    -0.460 OA
BRANCH   5   6
ATOM      6  C   UNL     1       2.071   2.204   6.040  1.00  0.00     0.338 C 
ATOM      7  O   UNL     1       1.027   2.286   6.661  1.00  0.00    -0.246 OA
BRANCH   6   8
ATOM      8  C   UNL     1       2.166   1.684   4.653  1.00  0.00     0.062 A 
ATOM      9  C   UNL     1       1.247   1.664   2.399  1.00  0.00     0.073 A 
ATOM     10  C   UNL     1       1.193   2.083   3.736  1.00  0.00     0.044 A 
ATOM     11  C   UNL     1       2.258   0.765   1.954  1.00  0.00     0.062 A 
ATOM     12  C   UNL     1       3.250   0.424   2.900  1.00  0.00     0.029 A 
ATOM     13  C   UNL     1       3.226   0.892   4.223  1.00  0.00     0.018 A 
BRANCH   9  14
ATOM     14  N   UNL     1       0.414   2.441   1.535  1.00  0.00    -0.282 N 
ATOM     15  H   UNL     1       0.620   3.401   1.465  1.00  0.00     0.180 HD
BRANCH  14  16
ATOM     16  S   UNL     1      -0.865   1.885   0.641  1.00  0.00     0.229 S 
ATOM     17  C   UNL     1      -0.930   0.108   0.736  1.00  0.00     0.183 C 
ATOM     18  O   UNL     1      -0.553   2.269  -0.723  1.00  0.00    -0.207 OA
ATOM     19  O   UNL     1      -2.060   2.406   1.272  1.00  0.00    -0.207 OA
ENDBRANCH  14  16
ENDBRANCH   9  14
BRANCH  11  20
ATOM     20  N   UNL     1       2.311   0.241   0.657  1.00  0.00    -0.359 N 
ATOM     21  C   UNL     1       3.073  -1.012   0.376  1.00  0.00     0.178 C 
ATOM     22  C   UNL     1       2.453   1.194  -0.438  1.00  0.00     0.178 C 
ATOM     23  C   UNL     1       2.789  -1.569  -1.054  1.00  0.00     0.284 C 
ATOM     24  C   UNL     1       1.955   0.588  -1.760  1.00  0.00     0.284 C 
ATOM     25  N   UNL     1       2.699  -0.601  -2.164  1.00  0.00    -0.324 N 
ATOM     26  H   UNL     1       2.166  -1.095  -2.880  1.00  0.00     0.348 HD
BRANCH  25  27
ATOM     27  C   UNL     1       3.929  -0.307  -2.916  1.00  0.00     0.363 C 
BRANCH  27  28
ATOM     28  C   UNL     1       5.135   0.213  -2.128  1.00  0.00     0.277 C 
ATOM     29  O   UNL     1       5.884  -0.592  -1.563  1.00  0.00    -0.268 OA
ATOM     30  N   UNL     1       5.417   1.571  -2.118  1.00  0.00    -0.338 N 
ATOM     31  C   UNL     1       4.563   2.714  -2.435  1.00  0.00     0.119 C 
ATOM     32  C   UNL     1       6.733   2.021  -1.698  1.00  0.00     0.119 C 
ATOM     33  C   UNL     1       5.498   3.908  -2.511  1.00  0.00     0.023 C 
ATOM     34  C   UNL     1       6.621   3.530  -1.552  1.00  0.00     0.023 C 
ENDBRANCH  27  28
ENDBRANCH  25  27
ENDBRANCH  11  20
ENDBRANCH   6   8
ENDBRANCH   5   6
ENDBRANCH   4   5
ENDBRANCH   3   4
ENDBRANCH   2   3
ENDBRANCH   1   2
BRANCH   1  35
ATOM     35  C   UNL     1       4.071   4.813   4.519  1.00  0.00     0.188 C 
BRANCH  35  36
ATOM     36  O   UNL     1       5.323   4.743   5.173  1.00  0.00    -0.376 OA
BRANCH  36  37
ATOM     37  C   UNL     1       5.920   5.914   5.715  1.00  0.00     0.202 C 
BRANCH  37  38
ATOM     38  C   UNL     1       5.613   7.369   5.283  1.00  0.00     0.261 C 
BRANCH  38  39
ATOM     39  O   UNL     1       4.400   7.645   4.575  1.00  0.00    -0.460 OA
BRANCH  39  40
ATOM     40  C   UNL     1       4.495   7.755   3.233  1.00  0.00     0.338 C 
ATOM     41  O   UNL     1       5.493   7.607   2.540  1.00  0.00    -0.246 OA
BRANCH  40  42
ATOM     42  C   UNL     1       3.135   7.909   2.681  1.00  0.00     0.060 A 
ATOM     43  C   UNL     1       2.590   6.870   1.914  1.00  0.00     0.016 A 
ATOM     44  C   UNL     1       2.405   9.076   2.909  1.00  0.00     0.016 A 
ATOM     45  C   UNL     1       1.316   7.000   1.361  1.00  0.00     0.010 A 
ATOM     46  C   UNL     1       1.138   9.215   2.333  1.00  0.00     0.010 A 
ATOM     47  C   UNL     1       0.596   8.188   1.538  1.00  0.00    -0.014 A 
BRANCH  47  48
ATOM     48  C   UNL     1      -0.652   8.422   0.769  1.00  0.00     0.031 A 
ATOM     49  C   UNL     1      -0.591   9.279  -0.465  1.00  0.00     0.074 A 
ATOM     50  C   UNL     1      -1.821   7.882   1.157  1.00  0.00     0.049 A 
ATOM     51  N   UNL     1      -1.559   9.686  -1.246  1.00  0.00    -0.248 NA
ATOM     52  C   UNL     1       0.745   9.744  -0.873  1.00  0.00     0.031 C 
ATOM     53  C   UNL     1      -2.006   6.998   2.305  1.00  0.00     0.029 A 
ATOM     54  N   UNL     1      -3.082   8.015   0.627  1.00  0.00    -0.354 N 
ATOM     55  C   UNL     1      -0.954  10.464  -2.224  1.00  0.00     0.074 A 
ATOM     56  C   UNL     1       0.462  10.491  -1.930  1.00  0.00     0.031 C 
ATOM     57  C   UNL     1      -3.309   6.684   2.408  1.00  0.00     0.029 A 
ATOM     58  C   UNL     1      -4.055   7.377   1.358  1.00  0.00     0.049 A 
ATOM     59  H   UNL     1      -3.271   8.519  -0.197  1.00  0.00     0.167 HD
ATOM     60  C   UNL     1      -1.530  11.096  -3.273  1.00  0.00     0.037 A 
ATOM     61  C   UNL     1      -5.396   7.382   1.216  1.00  0.00     0.037 A 
ATOM     62  C   UNL     1      -2.938  11.059  -3.570  1.00  0.00     0.049 A 
ATOM     63  C   UNL     1      -6.017   8.154   0.076  1.00  0.00     0.074 A 
ATOM     64  C   UNL     1      -3.607  11.635  -4.636  1.00  0.00     0.029 A 
ATOM     65  N   UNL     1      -3.894  10.421  -2.795  1.00  0.00    -0.354 N 
ATOM     66  N   UNL     1      -5.436   8.856  -0.867  1.00  0.00    -0.248 NA
ATOM     67  C   UNL     1      -7.484   8.132  -0.021  1.00  0.00     0.031 C 
ATOM     68  C   UNL     1      -4.976  11.407  -4.467  1.00  0.00     0.029 A 
ATOM     69  C   UNL     1      -5.152  10.625  -3.338  1.00  0.00     0.049 A 
ATOM     70  H   UNL     1      -3.707   9.901  -1.980  1.00  0.00     0.167 HD
ATOM     71  C   UNL     1      -6.458   9.324  -1.684  1.00  0.00     0.074 A 
ATOM     72  C   UNL     1      -7.697   8.817  -1.135  1.00  0.00     0.031 C 
ATOM     73  C   UNL     1      -6.379  10.104  -2.790  1.00  0.00     0.037 A 
BRANCH  60  74
ATOM     74  C   UNL     1      -0.649  11.915  -4.170  1.00  0.00     0.064 A 
ATOM     75  C   UNL     1       0.262  11.324  -5.057  1.00  0.00     0.173 A 
ATOM     76  C   UNL     1      -0.776  13.313  -4.194  1.00  0.00     0.173 A 
ATOM     77  F   UNL     1       0.433   9.993  -5.064  1.00  0.00    -0.203 F 
ATOM     78  C   UNL     1       1.023  12.103  -5.925  1.00  0.00     0.198 A 
ATOM     79  C   UNL     1      -0.037  14.085  -5.085  1.00  0.00     0.198 A 
ATOM     80  F   UNL     1      -1.636  13.928  -3.368  1.00  0.00    -0.203 F 
ATOM     81  F   UNL     1       1.913  11.520  -6.740  1.00  0.00    -0.200 F 
ATOM     82  C   UNL     1       0.864  13.481  -5.947  1.00  0.00     0.200 A 
ATOM     83  F   UNL     1      -0.204  15.415  -5.114  1.00  0.00    -0.200 F 
ATOM     84  F   UNL     1       1.582  14.226  -6.798  1.00  0.00    -0.200 F 
ENDBRANCH  60  74
BRANCH  61  85
ATOM     85  C   UNL     1      -6.258   6.672   2.200  1.00  0.00     0.064 A 
ATOM     86  C   UNL     1      -7.057   5.583   1.821  1.00  0.00     0.173 A 
ATOM     87  C   UNL     1      -6.349   7.111   3.530  1.00  0.00     0.173 A 
ATOM     88  F   UNL     1      -7.037   5.148   0.552  1.00  0.00    -0.203 F 
ATOM     89  C   UNL     1      -7.935   4.984   2.723  1.00  0.00     0.198 A 
ATOM     90  C   UNL     1      -7.200   6.488   4.440  1.00  0.00     0.198 A 
ATOM     91  F   UNL     1      -5.617   8.155   3.946  1.00  0.00    -0.203 F 
ATOM     92  F   UNL     1      -8.743   3.997   2.312  1.00  0.00    -0.200 F 
ATOM     93  C   UNL     1      -8.003   5.434   4.032  1.00  0.00     0.200 A 
ATOM     94  F   UNL     1      -7.258   6.923   5.706  1.00  0.00    -0.200 F 
ATOM     95  F   UNL     1      -8.857   4.866   4.895  1.00  0.00    -0.200 F 
ENDBRANCH  61  85
BRANCH  73  96
ATOM     96  C   UNL     1      -7.657  10.422  -3.515  1.00  0.00     0.064 A 
ATOM     97  C   UNL     1      -8.625  11.279  -2.970  1.00  0.00     0.173 A 
ATOM     98  C   UNL     1      -7.894   9.899  -4.796  1.00  0.00     0.173 A 
ATOM     99  F   UNL     1      -8.455  11.798  -1.744  1.00  0.00    -0.203 F 
ATOM    100  C   UNL     1      -9.793  11.578  -3.668  1.00  0.00     0.198 A 
ATOM    101  C   UNL     1      -9.045  10.229  -5.507  1.00  0.00     0.198 A 
ATOM    102  F   UNL     1      -6.997   9.084  -5.371  1.00  0.00    -0.203 F 
ATOM    103  F   UNL     1     -10.726  12.359  -3.106  1.00  0.00    -0.200 F 
ATOM    104  C   UNL     1      -9.997  11.060  -4.939  1.00  0.00     0.200 A 
ATOM    105  F   UNL     1      -9.230   9.744  -6.742  1.00  0.00    -0.200 F 
ATOM    106  F   UNL     1     -11.115  11.360  -5.614  1.00  0.00    -0.200 F 
ENDBRANCH  73  96
ENDBRANCH  47  48
ENDBRANCH  40  42
ENDBRANCH  39  40
ENDBRANCH  38  39
ENDBRANCH  37  38
ENDBRANCH  36  37
ENDBRANCH  35  36
ENDBRANCH   1  35
TORSDOF 22
