REMARK SMILES O=C(OCCOCCOCCOC(=O)[C@H]1CCCN(C(=O)c2cccnc2Cl)C1)c1ccc(-c2c3nc(c(-c4c(F)c(F)c(F)c(F)c4F)c4ccc([nH]4)c(-c4c(F)c(F)c(F)c(F)c4F)c4nc(c(-c5c(F)c(F)c(F)c(F)c5F)c5ccc2[nH]5)C=C4)C=C3)cc1
REMARK SMILES IDX 7 1 6 2 5 3 4 4 3 5 2 6 1 7 30 8 31 9 92 10 32 11 91 12
REMARK SMILES IDX 33 13 34 14 35 15 85 16 36 17 90 18 84 19 86 20 37 21 89 22
REMARK SMILES IDX 83 23 82 24 38 26 70 27 50 28 69 29 51 30 54 31 68 32 87 33
REMARK SMILES IDX 52 34 53 35 67 37 88 38 55 39 39 40 40 41 48 42 41 43 42 44
REMARK SMILES IDX 46 45 49 46 43 47 44 48 47 49 45 50 71 51 72 52 80 53 73 54
REMARK SMILES IDX 74 55 78 56 81 57 75 58 76 59 79 60 77 61 56 62 57 63 65 64
REMARK SMILES IDX 58 65 59 66 63 67 66 68 60 69 61 70 64 71 62 72 8 73 9 74
REMARK SMILES IDX 10 75 11 76 12 77 13 78 14 79 15 80 16 81 29 82 17 83 19 84
REMARK SMILES IDX 18 85 20 86 21 87 22 88 23 89 27 90 24 91 26 92 28 93 25 94
REMARK H PARENT 86 25 54 36
REMARK Flexibility Score: inf
ROOT
ATOM      1  C   UNL     1       1.045   3.826   2.386  1.00  0.00     0.188 C 
ENDROOT
BRANCH   1   2
ATOM      2  O   UNL     1       1.677   2.591   2.020  1.00  0.00    -0.376 OA
BRANCH   2   3
ATOM      3  C   UNL     1       1.816   1.672   3.108  1.00  0.00     0.202 C 
BRANCH   3   4
ATOM      4  C   UNL     1       3.087   1.865   3.945  1.00  0.00     0.261 C 
BRANCH   4   5
ATOM      5  O   UNL     1       3.465   3.247   4.041  1.00  0.00    -0.460 OA
BRANCH   5   6
ATOM      6  C   UNL     1       4.353   3.917   3.263  1.00  0.00     0.338 C 
ATOM      7  O   UNL     1       4.558   5.108   3.493  1.00  0.00    -0.246 OA
BRANCH   6   8
ATOM      8  C   UNL     1       5.154   3.260   2.187  1.00  0.00     0.060 A 
ATOM      9  C   UNL     1       4.722   2.182   1.410  1.00  0.00     0.016 A 
ATOM     10  C   UNL     1       6.415   3.808   1.909  1.00  0.00     0.016 A 
ATOM     11  C   UNL     1       5.561   1.567   0.487  1.00  0.00     0.010 A 
ATOM     12  C   UNL     1       7.235   3.246   0.927  1.00  0.00     0.010 A 
ATOM     13  C   UNL     1       6.828   2.090   0.239  1.00  0.00    -0.014 A 
BRANCH  13  14
ATOM     14  C   UNL     1       7.761   1.345  -0.636  1.00  0.00     0.031 A 
ATOM     15  C   UNL     1       8.976   0.745   0.007  1.00  0.00     0.074 A 
ATOM     16  C   UNL     1       7.489   1.136  -1.940  1.00  0.00     0.049 A 
ATOM     17  N   UNL     1       9.969   0.087  -0.530  1.00  0.00    -0.248 NA
ATOM     18  C   UNL     1       9.093   0.919   1.465  1.00  0.00     0.031 C 
ATOM     19  C   UNL     1       6.296   1.606  -2.647  1.00  0.00     0.029 A 
ATOM     20  N   UNL     1       8.186   0.446  -2.900  1.00  0.00    -0.354 N 
ATOM     21  C   UNL     1      10.841  -0.185   0.516  1.00  0.00     0.074 A 
ATOM     22  C   UNL     1      10.287   0.411   1.708  1.00  0.00     0.031 C 
ATOM     23  C   UNL     1       6.330   1.171  -3.917  1.00  0.00     0.029 A 
ATOM     24  C   UNL     1       7.561   0.417  -4.124  1.00  0.00     0.049 A 
ATOM     25  H   UNL     1       9.052   0.012  -2.728  1.00  0.00     0.167 HD
ATOM     26  C   UNL     1      11.994  -0.890   0.488  1.00  0.00     0.037 A 
ATOM     27  C   UNL     1       7.947  -0.162  -5.277  1.00  0.00     0.037 A 
ATOM     28  C   UNL     1      12.504  -1.520  -0.696  1.00  0.00     0.049 A 
ATOM     29  C   UNL     1       9.244  -0.928  -5.288  1.00  0.00     0.074 A 
ATOM     30  C   UNL     1      13.671  -2.238  -0.865  1.00  0.00     0.029 A 
ATOM     31  N   UNL     1      11.848  -1.513  -1.921  1.00  0.00    -0.354 N 
ATOM     32  N   UNL     1      10.082  -1.151  -4.303  1.00  0.00    -0.248 NA
ATOM     33  C   UNL     1       9.649  -1.526  -6.567  1.00  0.00     0.031 C 
ATOM     34  C   UNL     1      13.734  -2.646  -2.203  1.00  0.00     0.029 A 
ATOM     35  C   UNL     1      12.587  -2.217  -2.854  1.00  0.00     0.049 A 
ATOM     36  H   UNL     1      10.986  -1.073  -2.099  1.00  0.00     0.167 HD
ATOM     37  C   UNL     1      11.091  -1.944  -4.829  1.00  0.00     0.074 A 
ATOM     38  C   UNL     1      10.756  -2.170  -6.222  1.00  0.00     0.031 C 
ATOM     39  C   UNL     1      12.197  -2.442  -4.223  1.00  0.00     0.037 A 
BRANCH  26  40
ATOM     40  C   UNL     1      12.771  -0.957   1.769  1.00  0.00     0.064 A 
ATOM     41  C   UNL     1      12.311  -1.685   2.878  1.00  0.00     0.173 A 
ATOM     42  C   UNL     1      13.945  -0.206   1.918  1.00  0.00     0.173 A 
ATOM     43  F   UNL     1      11.174  -2.392   2.798  1.00  0.00    -0.203 F 
ATOM     44  C   UNL     1      12.969  -1.612   4.104  1.00  0.00     0.198 A 
ATOM     45  C   UNL     1      14.618  -0.162   3.136  1.00  0.00     0.198 A 
ATOM     46  F   UNL     1      14.424   0.512   0.891  1.00  0.00    -0.203 F 
ATOM     47  F   UNL     1      12.461  -2.243   5.173  1.00  0.00    -0.200 F 
ATOM     48  C   UNL     1      14.121  -0.851   4.232  1.00  0.00     0.200 A 
ATOM     49  F   UNL     1      15.733   0.572   3.257  1.00  0.00    -0.200 F 
ATOM     50  F   UNL     1      14.740  -0.764   5.417  1.00  0.00    -0.200 F 
ENDBRANCH  26  40
BRANCH  27  51
ATOM     51  C   UNL     1       7.099  -0.067  -6.497  1.00  0.00     0.064 A 
ATOM     52  C   UNL     1       6.478  -1.204  -7.037  1.00  0.00     0.173 A 
ATOM     53  C   UNL     1       6.908   1.153  -7.164  1.00  0.00     0.173 A 
ATOM     54  F   UNL     1       6.642  -2.398  -6.450  1.00  0.00    -0.203 F 
ATOM     55  C   UNL     1       5.724  -1.129  -8.208  1.00  0.00     0.198 A 
ATOM     56  C   UNL     1       6.131   1.231  -8.319  1.00  0.00     0.198 A 
ATOM     57  F   UNL     1       7.473   2.273  -6.690  1.00  0.00    -0.203 F 
ATOM     58  F   UNL     1       5.185  -2.240  -8.727  1.00  0.00    -0.200 F 
ATOM     59  C   UNL     1       5.548   0.089  -8.846  1.00  0.00     0.200 A 
ATOM     60  F   UNL     1       5.954   2.413  -8.925  1.00  0.00    -0.200 F 
ATOM     61  F   UNL     1       4.826   0.160  -9.973  1.00  0.00    -0.200 F 
ENDBRANCH  27  51
BRANCH  39  62
ATOM     62  C   UNL     1      13.086  -3.322  -5.046  1.00  0.00     0.064 A 
ATOM     63  C   UNL     1      13.925  -2.797  -6.038  1.00  0.00     0.173 A 
ATOM     64  C   UNL     1      13.137  -4.701  -4.794  1.00  0.00     0.173 A 
ATOM     65  F   UNL     1      13.897  -1.486  -6.322  1.00  0.00    -0.203 F 
ATOM     66  C   UNL     1      14.772  -3.627  -6.764  1.00  0.00     0.198 A 
ATOM     67  C   UNL     1      14.006  -5.523  -5.503  1.00  0.00     0.198 A 
ATOM     68  F   UNL     1      12.356  -5.245  -3.849  1.00  0.00    -0.203 F 
ATOM     69  F   UNL     1      15.538  -3.113  -7.737  1.00  0.00    -0.200 F 
ATOM     70  C   UNL     1      14.819  -4.987  -6.490  1.00  0.00     0.200 A 
ATOM     71  F   UNL     1      14.059  -6.834  -5.228  1.00  0.00    -0.200 F 
ATOM     72  F   UNL     1      15.644  -5.783  -7.184  1.00  0.00    -0.200 F 
ENDBRANCH  39  62
ENDBRANCH  13  14
ENDBRANCH   6   8
ENDBRANCH   5   6
ENDBRANCH   4   5
ENDBRANCH   3   4
ENDBRANCH   2   3
ENDBRANCH   1   2
BRANCH   1  73
ATOM     73  C   UNL     1       0.278   4.419   1.200  1.00  0.00     0.188 C 
BRANCH  73  74
ATOM     74  O   UNL     1      -0.903   3.719   0.807  1.00  0.00    -0.376 OA
BRANCH  74  75
ATOM     75  C   UNL     1      -0.763   2.341   0.488  1.00  0.00     0.202 C 
BRANCH  75  76
ATOM     76  C   UNL     1      -0.095   1.981  -0.848  1.00  0.00     0.261 C 
BRANCH  76  77
ATOM     77  O   UNL     1       1.093   2.719  -1.198  1.00  0.00    -0.463 OA
BRANCH  77  78
ATOM     78  C   UNL     1       0.897   3.689  -2.137  1.00  0.00     0.310 C 
ATOM     79  O   UNL     1      -0.204   4.010  -2.571  1.00  0.00    -0.252 OA
BRANCH  78  80
ATOM     80  C   UNL     1       2.205   4.264  -2.672  1.00  0.00     0.119 C 
ATOM     81  C   UNL     1       1.869   5.231  -3.830  1.00  0.00     0.019 C 
ATOM     82  C   UNL     1       3.021   4.986  -1.596  1.00  0.00     0.135 C 
ATOM     83  C   UNL     1       3.086   5.995  -4.343  1.00  0.00     0.022 C 
ATOM     84  N   UNL     1       4.148   5.738  -2.183  1.00  0.00    -0.338 N 
ATOM     85  C   UNL     1       3.785   6.715  -3.200  1.00  0.00     0.120 C 
BRANCH  84  86
ATOM     86  C   UNL     1       5.448   5.386  -1.851  1.00  0.00     0.257 C 
ATOM     87  O   UNL     1       5.694   4.396  -1.178  1.00  0.00    -0.269 OA
BRANCH  86  88
ATOM     88  C   UNL     1       6.613   6.136  -2.345  1.00  0.00     0.077 A 
ATOM     89  C   UNL     1       7.586   5.447  -3.080  1.00  0.00     0.018 A 
ATOM     90  C   UNL     1       6.882   7.447  -1.989  1.00  0.00     0.141 A 
ATOM     91  C   UNL     1       8.748   6.107  -3.473  1.00  0.00     0.021 A 
ATOM     92  N   UNL     1       7.996   8.120  -2.378  1.00  0.00    -0.244 NA
ATOM     93  Cl  UNL     1       5.869   8.385  -0.963  1.00  0.00    -0.061 Cl
ATOM     94  C   UNL     1       8.902   7.434  -3.108  1.00  0.00     0.113 A 
ENDBRANCH  86  88
ENDBRANCH  84  86
ENDBRANCH  78  80
ENDBRANCH  77  78
ENDBRANCH  76  77
ENDBRANCH  75  76
ENDBRANCH  74  75
ENDBRANCH  73  74
ENDBRANCH   1  73
TORSDOF 19
