REMARK SMILES CC(C)C[C@H](C[NH3+])C(=O)N1CCSC[C@@H]1CC(=O)OCCOCCOCCOC(=O)c1ccc(-c2c3nc(c(-c4c(F)c(F)c(F)c(F)c4F)c4ccc([nH]4)c(-c4c(F)c(F)c(F)c(F)c4F)c4nc(c(-c5c(F)c(F)c(F)c(F)c5F)c5ccc2[nH]5)C=C4)C=C3)cc1
REMARK SMILES IDX 22 1 21 2 20 3 19 4 17 5 18 6 16 7 15 8 10 9 11 10 12 11
REMARK SMILES IDX 14 12 13 13 8 14 9 15 5 16 4 17 2 18 1 19 3 20 6 21 7 22
REMARK SMILES IDX 23 26 24 27 25 28 26 29 27 30 28 31 29 32 30 33 31 34 32 35
REMARK SMILES IDX 93 36 33 37 92 38 34 39 35 40 36 41 86 42 37 43 91 44 85 45
REMARK SMILES IDX 87 46 38 47 90 48 84 49 83 50 39 52 71 53 51 54 70 55 52 56
REMARK SMILES IDX 55 57 69 58 88 59 53 60 54 61 68 63 89 64 56 65 40 66 41 67
REMARK SMILES IDX 49 68 42 69 43 70 47 71 50 72 44 73 45 74 48 75 46 76 72 77
REMARK SMILES IDX 73 78 81 79 74 80 75 81 79 82 82 83 76 84 77 85 80 86 78 87
REMARK SMILES IDX 57 88 58 89 66 90 59 91 60 92 64 93 67 94 61 95 62 96 65 97
REMARK SMILES IDX 63 98
REMARK H PARENT 7 23 7 24 7 25 87 51 55 62
REMARK Flexibility Score: inf
ROOT
ATOM      1  O   UNL     1      -7.766  -4.706  -5.942  1.00  0.00    -0.376 OA
ENDROOT
BRANCH   1   2
ATOM      2  C   UNL     1      -7.982  -5.662  -4.906  1.00  0.00     0.202 C 
BRANCH   2   3
ATOM      3  C   UNL     1      -6.777  -6.199  -4.129  1.00  0.00     0.261 C 
BRANCH   3   4
ATOM      4  O   UNL     1      -6.098  -5.142  -3.422  1.00  0.00    -0.463 OA
BRANCH   4   5
ATOM      5  C   UNL     1      -4.778  -5.344  -3.210  1.00  0.00     0.307 C 
ATOM      6  O   UNL     1      -4.185  -6.377  -3.501  1.00  0.00    -0.252 OA
BRANCH   5   7
ATOM      7  C   UNL     1      -4.036  -4.103  -2.777  1.00  0.00     0.148 C 
BRANCH   7   8
ATOM      8  C   UNL     1      -4.623  -3.091  -1.771  1.00  0.00     0.106 C 
ATOM      9  N   UNL     1      -3.514  -2.590  -0.901  1.00  0.00    -0.337 N 
ATOM     10  C   UNL     1      -3.079  -3.468   0.194  1.00  0.00     0.130 C 
ATOM     11  C   UNL     1      -4.208  -3.895   1.137  1.00  0.00     0.091 C 
ATOM     12  C   UNL     1      -5.866  -3.472  -0.954  1.00  0.00     0.095 C 
ATOM     13  S   UNL     1      -5.519  -4.784   0.251  1.00  0.00    -0.158 SA
BRANCH   9  14
ATOM     14  C   UNL     1      -3.153  -1.255  -0.996  1.00  0.00     0.231 C 
ATOM     15  O   UNL     1      -4.018  -0.388  -1.156  1.00  0.00    -0.274 OA
BRANCH  14  16
ATOM     16  C   UNL     1      -1.671  -0.881  -1.204  1.00  0.00     0.133 C 
BRANCH  16  17
ATOM     17  C   UNL     1      -1.181  -1.301  -2.610  1.00  0.00     0.022 C 
BRANCH  17  18
ATOM     18  C   UNL     1      -2.015  -0.775  -3.800  1.00  0.00    -0.016 C 
ATOM     19  C   UNL     1      -1.993   0.749  -3.912  1.00  0.00     0.007 C 
ATOM     20  C   UNL     1      -1.501  -1.394  -5.104  1.00  0.00     0.007 C 
ENDBRANCH  17  18
ENDBRANCH  16  17
BRANCH  16  21
ATOM     21  C   UNL     1      -0.686  -1.261  -0.084  1.00  0.00     0.272 C 
BRANCH  21  22
ATOM     22  N   UNL     1       0.034  -2.521  -0.266  1.00  0.00    -0.357 N 
ATOM     23  H   UNL     1      -0.631  -3.295  -0.273  1.00  0.00     0.344 HD
ATOM     24  H   UNL     1       0.696  -2.648   0.499  1.00  0.00     0.344 HD
ATOM     25  H   UNL     1       0.539  -2.499  -1.153  1.00  0.00     0.344 HD
ENDBRANCH  21  22
ENDBRANCH  16  21
ENDBRANCH  14  16
ENDBRANCH   9  14
ENDBRANCH   7   8
ENDBRANCH   5   7
ENDBRANCH   4   5
ENDBRANCH   3   4
ENDBRANCH   2   3
ENDBRANCH   1   2
BRANCH   1  26
ATOM     26  C   UNL     1      -6.781  -3.716  -5.729  1.00  0.00     0.188 C 
BRANCH  26  27
ATOM     27  C   UNL     1      -7.011  -2.650  -4.650  1.00  0.00     0.188 C 
BRANCH  27  28
ATOM     28  O   UNL     1      -7.951  -2.781  -3.605  1.00  0.00    -0.376 OA
BRANCH  28  29
ATOM     29  C   UNL     1      -9.346  -2.663  -3.858  1.00  0.00     0.202 C 
BRANCH  29  30
ATOM     30  C   UNL     1      -9.970  -1.493  -4.641  1.00  0.00     0.261 C 
BRANCH  30  31
ATOM     31  O   UNL     1      -9.178  -0.955  -5.697  1.00  0.00    -0.460 OA
BRANCH  31  32
ATOM     32  C   UNL     1      -8.512   0.187  -5.381  1.00  0.00     0.338 C 
ATOM     33  O   UNL     1      -8.578   0.825  -4.345  1.00  0.00    -0.246 OA
BRANCH  32  34
ATOM     34  C   UNL     1      -7.485   0.407  -6.420  1.00  0.00     0.060 A 
ATOM     35  C   UNL     1      -6.147   0.533  -6.014  1.00  0.00     0.016 A 
ATOM     36  C   UNL     1      -7.824   0.414  -7.773  1.00  0.00     0.016 A 
ATOM     37  C   UNL     1      -5.143   0.690  -6.967  1.00  0.00     0.010 A 
ATOM     38  C   UNL     1      -6.822   0.600  -8.724  1.00  0.00     0.010 A 
ATOM     39  C   UNL     1      -5.484   0.768  -8.323  1.00  0.00    -0.014 A 
BRANCH  39  40
ATOM     40  C   UNL     1      -4.494   1.261  -9.307  1.00  0.00     0.031 A 
ATOM     41  C   UNL     1      -4.522   2.724  -9.645  1.00  0.00     0.074 A 
ATOM     42  C   UNL     1      -3.609   0.442  -9.897  1.00  0.00     0.049 A 
ATOM     43  N   UNL     1      -3.855   3.383 -10.557  1.00  0.00    -0.248 NA
ATOM     44  C   UNL     1      -5.437   3.557  -8.847  1.00  0.00     0.031 C 
ATOM     45  C   UNL     1      -3.448  -0.981  -9.613  1.00  0.00     0.029 A 
ATOM     46  N   UNL     1      -2.686   0.699 -10.880  1.00  0.00    -0.354 N 
ATOM     47  C   UNL     1      -4.281   4.700 -10.450  1.00  0.00     0.074 A 
ATOM     48  C   UNL     1      -5.280   4.745  -9.407  1.00  0.00     0.031 C 
ATOM     49  C   UNL     1      -2.497  -1.480 -10.423  1.00  0.00     0.029 A 
ATOM     50  C   UNL     1      -2.013  -0.419 -11.307  1.00  0.00     0.049 A 
ATOM     51  H   UNL     1      -2.522   1.599 -11.245  1.00  0.00     0.167 HD
ATOM     52  C   UNL     1      -3.870   5.777 -11.158  1.00  0.00     0.037 A 
ATOM     53  C   UNL     1      -1.134  -0.566 -12.318  1.00  0.00     0.037 A 
ATOM     54  C   UNL     1      -2.879   5.728 -12.198  1.00  0.00     0.049 A 
ATOM     55  C   UNL     1      -0.758   0.634 -13.154  1.00  0.00     0.074 A 
ATOM     56  C   UNL     1      -2.385   6.765 -12.968  1.00  0.00     0.029 A 
ATOM     57  N   UNL     1      -2.238   4.573 -12.620  1.00  0.00    -0.354 N 
ATOM     58  N   UNL     1      -1.149   1.881 -13.042  1.00  0.00    -0.248 NA
ATOM     59  C   UNL     1       0.181   0.402 -14.263  1.00  0.00     0.031 C 
ATOM     60  C   UNL     1      -1.485   6.229 -13.894  1.00  0.00     0.029 A 
ATOM     61  C   UNL     1      -1.372   4.868 -13.659  1.00  0.00     0.049 A 
ATOM     62  H   UNL     1      -2.378   3.676 -12.238  1.00  0.00     0.167 HD
ATOM     63  C   UNL     1      -0.478   2.585 -14.035  1.00  0.00     0.074 A 
ATOM     64  C   UNL     1       0.349   1.628 -14.738  1.00  0.00     0.031 C 
ATOM     65  C   UNL     1      -0.540   3.906 -14.337  1.00  0.00     0.037 A 
BRANCH  52  66
ATOM     66  C   UNL     1      -4.522   7.092 -10.850  1.00  0.00     0.064 A 
ATOM     67  C   UNL     1      -4.280   7.773  -9.648  1.00  0.00     0.173 A 
ATOM     68  C   UNL     1      -5.388   7.686 -11.780  1.00  0.00     0.173 A 
ATOM     69  F   UNL     1      -3.475   7.237  -8.718  1.00  0.00    -0.203 F 
ATOM     70  C   UNL     1      -4.904   8.988  -9.376  1.00  0.00     0.198 A 
ATOM     71  C   UNL     1      -5.985   8.916 -11.518  1.00  0.00     0.198 A 
ATOM     72  F   UNL     1      -5.653   7.075 -12.944  1.00  0.00    -0.203 F 
ATOM     73  F   UNL     1      -4.700   9.595  -8.199  1.00  0.00    -0.200 F 
ATOM     74  C   UNL     1      -5.749   9.562 -10.314  1.00  0.00     0.200 A 
ATOM     75  F   UNL     1      -6.792   9.474 -12.431  1.00  0.00    -0.200 F 
ATOM     76  F   UNL     1      -6.343  10.734 -10.054  1.00  0.00    -0.200 F 
ENDBRANCH  52  66
BRANCH  53  77
ATOM     77  C   UNL     1      -0.558  -1.904 -12.620  1.00  0.00     0.064 A 
ATOM     78  C   UNL     1       0.807  -2.162 -12.431  1.00  0.00     0.173 A 
ATOM     79  C   UNL     1      -1.351  -2.939 -13.137  1.00  0.00     0.173 A 
ATOM     80  F   UNL     1       1.612  -1.195 -11.968  1.00  0.00    -0.203 F 
ATOM     81  C   UNL     1       1.360  -3.396 -12.768  1.00  0.00     0.198 A 
ATOM     82  C   UNL     1      -0.802  -4.182 -13.445  1.00  0.00     0.198 A 
ATOM     83  F   UNL     1      -2.662  -2.743 -13.344  1.00  0.00    -0.203 F 
ATOM     84  F   UNL     1       2.678  -3.596 -12.629  1.00  0.00    -0.200 F 
ATOM     85  C   UNL     1       0.555  -4.406 -13.270  1.00  0.00     0.200 A 
ATOM     86  F   UNL     1      -1.586  -5.159 -13.922  1.00  0.00    -0.200 F 
ATOM     87  F   UNL     1       1.088  -5.592 -13.595  1.00  0.00    -0.200 F 
ENDBRANCH  53  77
BRANCH  65  88
ATOM     88  C   UNL     1       0.347   4.413 -15.438  1.00  0.00     0.064 A 
ATOM     89  C   UNL     1       0.096   4.119 -16.786  1.00  0.00     0.173 A 
ATOM     90  C   UNL     1       1.427   5.260 -15.142  1.00  0.00     0.173 A 
ATOM     91  F   UNL     1      -0.916   3.305 -17.123  1.00  0.00    -0.203 F 
ATOM     92  C   UNL     1       0.906   4.636 -17.794  1.00  0.00     0.198 A 
ATOM     93  C   UNL     1       2.214   5.801 -16.154  1.00  0.00     0.198 A 
ATOM     94  F   UNL     1       1.705   5.581 -13.869  1.00  0.00    -0.203 F 
ATOM     95  F   UNL     1       0.673   4.308 -19.073  1.00  0.00    -0.200 F 
ATOM     96  C   UNL     1       1.957   5.484 -17.478  1.00  0.00     0.200 A 
ATOM     97  F   UNL     1       3.219   6.634 -15.847  1.00  0.00    -0.200 F 
ATOM     98  F   UNL     1       2.726   5.992 -18.451  1.00  0.00    -0.200 F 
ENDBRANCH  65  88
ENDBRANCH  39  40
ENDBRANCH  32  34
ENDBRANCH  31  32
ENDBRANCH  30  31
ENDBRANCH  29  30
ENDBRANCH  28  29
ENDBRANCH  27  28
ENDBRANCH  26  27
ENDBRANCH   1  26
TORSDOF 24
