REMARK SMILES O=C(COc1ccccc1Br)Nc1cccc(C(=O)Nc2ccc(C(=O)OCCOCCOCCOC(=O)c3ccc(-c4c5nc(c(-c6c(F)c(F)c(F)c(F)c6F)c6ccc([nH]6)c(-c6c(F)c(F)c(F)c(F)c6F)c6nc(c(-c7c(F)c(F)c(F)c(F)c7F)c7ccc4[nH]7)C=C6)C=C5)cc3)cc2)c1
REMARK SMILES IDX 29 1 28 2 27 3 25 4 26 5 24 6 21 7 22 8 103 9 23 10 102 11
REMARK SMILES IDX 20 12 18 13 19 14 17 16 13 17 14 18 104 19 15 20 16 21 12 22
REMARK SMILES IDX 1 23 2 24 3 26 4 27 5 28 6 29 10 30 7 31 9 32 11 33 8 34
REMARK SMILES IDX 30 35 31 36 32 37 33 38 34 39 35 40 36 41 37 42 38 43 39 44
REMARK SMILES IDX 40 45 101 46 41 47 100 48 42 49 43 50 44 51 94 52 45 53
REMARK SMILES IDX 99 54 93 55 95 56 46 57 98 58 92 59 91 60 47 62 79 63 59 64
REMARK SMILES IDX 78 65 60 66 63 67 77 68 96 69 61 70 62 71 76 73 97 74 64 75
REMARK SMILES IDX 48 76 49 77 57 78 50 79 51 80 55 81 58 82 52 83 53 84 56 85
REMARK SMILES IDX 54 86 80 87 81 88 89 89 82 90 83 91 87 92 90 93 84 94 85 95
REMARK SMILES IDX 88 96 86 97 65 98 66 99 74 100 67 101 68 102 72 103 75 104
REMARK SMILES IDX 69 105 70 106 73 107 71 108
REMARK H PARENT 20 15 12 25 95 61 63 72
REMARK Flexibility Score: inf
ROOT
ATOM      1  C   UNL     1       3.525   1.624   5.300  1.00  0.00     0.202 C 
ENDROOT
BRANCH   1   2
ATOM      2  C   UNL     1       3.437   0.875   3.961  1.00  0.00     0.261 C 
BRANCH   2   3
ATOM      3  O   UNL     1       2.903   1.603   2.849  1.00  0.00    -0.460 OA
BRANCH   3   4
ATOM      4  C   UNL     1       1.622   1.283   2.529  1.00  0.00     0.338 C 
ATOM      5  O   UNL     1       0.953   0.419   3.075  1.00  0.00    -0.246 OA
BRANCH   4   6
ATOM      6  C   UNL     1       1.064   2.221   1.514  1.00  0.00     0.060 A 
ATOM      7  C   UNL     1      -0.132   3.518  -0.639  1.00  0.00     0.041 A 
ATOM      8  C   UNL     1      -0.930   3.024   0.395  1.00  0.00     0.027 A 
ATOM      9  C   UNL     1       1.257   3.581  -0.479  1.00  0.00     0.027 A 
ATOM     10  C   UNL     1      -0.330   2.348   1.456  1.00  0.00     0.018 A 
ATOM     11  C   UNL     1       1.862   2.917   0.594  1.00  0.00     0.018 A 
BRANCH   7  12
ATOM     12  N   UNL     1      -0.769   3.744  -1.870  1.00  0.00    -0.322 N 
ATOM     13  C   UNL     1      -0.436   3.286  -3.140  1.00  0.00     0.255 C 
ATOM     14  O   UNL     1      -1.124   3.653  -4.095  1.00  0.00    -0.269 OA
ATOM     15  H   UNL     1      -1.572   4.312  -1.827  1.00  0.00     0.170 HD
BRANCH  13  16
ATOM     16  C   UNL     1       0.678   2.322  -3.397  1.00  0.00     0.042 A 
ATOM     17  C   UNL     1       2.341   0.758  -2.580  1.00  0.00     0.042 A 
ATOM     18  C   UNL     1       2.995   0.811  -3.810  1.00  0.00     0.026 A 
ATOM     19  C   UNL     1       1.125   1.418  -2.433  1.00  0.00     0.040 A 
ATOM     20  C   UNL     1       2.433   1.528  -4.866  1.00  0.00     0.003 A 
ATOM     21  C   UNL     1       1.295   2.309  -4.652  1.00  0.00     0.014 A 
BRANCH  17  22
ATOM     22  N   UNL     1       2.951   0.047  -1.534  1.00  0.00    -0.323 N 
ATOM     23  O   UNL     1       1.188  -0.210  -0.018  1.00  0.00    -0.271 OA
ATOM     24  C   UNL     1       2.351  -0.389  -0.360  1.00  0.00     0.262 C 
ATOM     25  H   UNL     1       3.906  -0.166  -1.645  1.00  0.00     0.170 HD
BRANCH  24  26
ATOM     26  C   UNL     1       3.301  -1.208   0.492  1.00  0.00     0.329 C 
BRANCH  26  27
ATOM     27  O   UNL     1       3.957  -2.140  -0.376  1.00  0.00    -0.483 OA
BRANCH  27  28
ATOM     28  C   UNL     1       3.365  -3.375  -0.327  1.00  0.00     0.134 A 
ATOM     29  C   UNL     1       3.951  -4.298   0.542  1.00  0.00     0.047 A 
ATOM     30  C   UNL     1       2.324  -3.784  -1.175  1.00  0.00     0.060 A 
ATOM     31  C   UNL     1       3.497  -5.616   0.575  1.00  0.00     0.004 A 
ATOM     32  C   UNL     1       1.850  -5.095  -1.108  1.00  0.00     0.019 A 
ATOM     33  Br  UNL     1       1.535  -2.717  -2.524  1.00  0.00    -0.047 Br
ATOM     34  C   UNL     1       2.443  -6.012  -0.246  1.00  0.00     0.001 A 
ENDBRANCH  27  28
ENDBRANCH  26  27
ENDBRANCH  24  26
ENDBRANCH  17  22
ENDBRANCH  13  16
ENDBRANCH   7  12
ENDBRANCH   4   6
ENDBRANCH   3   4
ENDBRANCH   2   3
ENDBRANCH   1   2
BRANCH   1  35
ATOM     35  O   UNL     1       2.538   2.516   5.785  1.00  0.00    -0.376 OA
BRANCH  35  36
ATOM     36  C   UNL     1       1.740   3.279   4.907  1.00  0.00     0.188 C 
BRANCH  36  37
ATOM     37  C   UNL     1       2.398   4.260   3.917  1.00  0.00     0.188 C 
BRANCH  37  38
ATOM     38  O   UNL     1       3.799   4.349   3.849  1.00  0.00    -0.376 OA
BRANCH  38  39
ATOM     39  C   UNL     1       4.511   4.900   4.942  1.00  0.00     0.202 C 
BRANCH  39  40
ATOM     40  C   UNL     1       3.910   5.873   5.979  1.00  0.00     0.261 C 
BRANCH  40  41
ATOM     41  O   UNL     1       2.502   5.800   6.240  1.00  0.00    -0.460 OA
BRANCH  41  42
ATOM     42  C   UNL     1       1.750   6.808   5.729  1.00  0.00     0.338 C 
ATOM     43  O   UNL     1       2.144   7.770   5.084  1.00  0.00    -0.246 OA
BRANCH  42  44
ATOM     44  C   UNL     1       0.318   6.476   5.879  1.00  0.00     0.060 A 
ATOM     45  C   UNL     1      -0.454   6.239   4.730  1.00  0.00     0.016 A 
ATOM     46  C   UNL     1      -0.268   6.426   7.143  1.00  0.00     0.016 A 
ATOM     47  C   UNL     1      -1.819   5.970   4.841  1.00  0.00     0.010 A 
ATOM     48  C   UNL     1      -1.642   6.187   7.251  1.00  0.00     0.010 A 
ATOM     49  C   UNL     1      -2.430   5.987   6.101  1.00  0.00    -0.014 A 
BRANCH  49  50
ATOM     50  C   UNL     1      -3.910   5.992   6.212  1.00  0.00     0.031 A 
ATOM     51  C   UNL     1      -4.607   7.312   6.401  1.00  0.00     0.074 A 
ATOM     52  C   UNL     1      -4.627   4.857   6.150  1.00  0.00     0.049 A 
ATOM     53  N   UNL     1      -5.872   7.566   6.619  1.00  0.00    -0.248 NA
ATOM     54  C   UNL     1      -3.755   8.511   6.340  1.00  0.00     0.031 C 
ATOM     55  C   UNL     1      -4.082   3.522   5.918  1.00  0.00     0.029 A 
ATOM     56  N   UNL     1      -5.978   4.650   6.293  1.00  0.00    -0.354 N 
ATOM     57  C   UNL     1      -5.965   8.947   6.735  1.00  0.00     0.074 A 
ATOM     58  C   UNL     1      -4.627   9.476   6.590  1.00  0.00     0.031 C 
ATOM     59  C   UNL     1      -5.087   2.630   5.952  1.00  0.00     0.029 A 
ATOM     60  C   UNL     1      -6.340   3.326   6.246  1.00  0.00     0.049 A 
ATOM     61  H   UNL     1      -6.625   5.381   6.418  1.00  0.00     0.167 HD
ATOM     62  C   UNL     1      -7.068   9.705   6.939  1.00  0.00     0.037 A 
ATOM     63  C   UNL     1      -7.540   2.745   6.447  1.00  0.00     0.037 A 
ATOM     64  C   UNL     1      -8.399   9.177   7.083  1.00  0.00     0.049 A 
ATOM     65  C   UNL     1      -8.740   3.606   6.760  1.00  0.00     0.074 A 
ATOM     66  C   UNL     1      -9.584   9.866   7.275  1.00  0.00     0.029 A 
ATOM     67  N   UNL     1      -8.721   7.828   7.062  1.00  0.00    -0.354 N 
ATOM     68  N   UNL     1      -8.826   4.912   6.849  1.00  0.00    -0.248 NA
ATOM     69  C   UNL     1     -10.012   2.909   7.000  1.00  0.00     0.031 C 
ATOM     70  C   UNL     1     -10.612   8.933   7.433  1.00  0.00     0.029 A 
ATOM     71  C   UNL     1     -10.081   7.664   7.269  1.00  0.00     0.049 A 
ATOM     72  H   UNL     1      -8.078   7.096   6.922  1.00  0.00     0.167 HD
ATOM     73  C   UNL     1     -10.162   5.192   7.115  1.00  0.00     0.074 A 
ATOM     74  C   UNL     1     -10.852   3.921   7.163  1.00  0.00     0.031 C 
ATOM     75  C   UNL     1     -10.762   6.394   7.300  1.00  0.00     0.037 A 
BRANCH  62  76
ATOM     76  C   UNL     1      -6.880  11.190   7.052  1.00  0.00     0.064 A 
ATOM     77  C   UNL     1      -6.529  11.979   5.945  1.00  0.00     0.173 A 
ATOM     78  C   UNL     1      -7.095  11.839   8.277  1.00  0.00     0.173 A 
ATOM     79  F   UNL     1      -6.298  11.407   4.754  1.00  0.00    -0.203 F 
ATOM     80  C   UNL     1      -6.378  13.358   6.068  1.00  0.00     0.198 A 
ATOM     81  C   UNL     1      -6.975  13.222   8.389  1.00  0.00     0.198 A 
ATOM     82  F   UNL     1      -7.435  11.133   9.366  1.00  0.00    -0.203 F 
ATOM     83  F   UNL     1      -5.996  14.085   5.009  1.00  0.00    -0.200 F 
ATOM     84  C   UNL     1      -6.610  13.979   7.286  1.00  0.00     0.200 A 
ATOM     85  F   UNL     1      -7.215  13.821   9.563  1.00  0.00    -0.200 F 
ATOM     86  F   UNL     1      -6.475  15.307   7.400  1.00  0.00    -0.200 F 
ENDBRANCH  62  76
BRANCH  63  87
ATOM     87  C   UNL     1      -7.676   1.264   6.376  1.00  0.00     0.064 A 
ATOM     88  C   UNL     1      -8.435   0.657   5.366  1.00  0.00     0.173 A 
ATOM     89  C   UNL     1      -7.084   0.429   7.335  1.00  0.00     0.173 A 
ATOM     90  F   UNL     1      -9.049   1.414   4.443  1.00  0.00    -0.203 F 
ATOM     91  C   UNL     1      -8.616  -0.725   5.330  1.00  0.00     0.198 A 
ATOM     92  C   UNL     1      -7.237  -0.955   7.280  1.00  0.00     0.198 A 
ATOM     93  F   UNL     1      -6.354   0.958   8.328  1.00  0.00    -0.203 F 
ATOM     94  F   UNL     1      -9.396  -1.272   4.388  1.00  0.00    -0.200 F 
ATOM     95  C   UNL     1      -8.011  -1.530   6.284  1.00  0.00     0.200 A 
ATOM     96  F   UNL     1      -6.645  -1.730   8.199  1.00  0.00    -0.200 F 
ATOM     97  F   UNL     1      -8.187  -2.858   6.251  1.00  0.00    -0.200 F 
ENDBRANCH  63  87
BRANCH  75  98
ATOM     98  C   UNL     1     -12.250   6.405   7.518  1.00  0.00     0.064 A 
ATOM     99  C   UNL     1     -12.832   5.925   8.701  1.00  0.00     0.173 A 
ATOM    100  C   UNL     1     -13.103   6.950   6.545  1.00  0.00     0.173 A 
ATOM    101  F   UNL     1     -12.065   5.384   9.659  1.00  0.00    -0.203 F 
ATOM    102  C   UNL     1     -14.212   5.962   8.888  1.00  0.00     0.198 A 
ATOM    103  C   UNL     1     -14.478   7.019   6.750  1.00  0.00     0.198 A 
ATOM    104  F   UNL     1     -12.600   7.434   5.399  1.00  0.00    -0.203 F 
ATOM    105  F   UNL     1     -14.749   5.450  10.004  1.00  0.00    -0.200 F 
ATOM    106  C   UNL     1     -15.032   6.517   7.917  1.00  0.00     0.200 A 
ATOM    107  F   UNL     1     -15.267   7.573   5.819  1.00  0.00    -0.200 F 
ATOM    108  F   UNL     1     -16.359   6.561   8.104  1.00  0.00    -0.200 F 
ENDBRANCH  75  98
ENDBRANCH  49  50
ENDBRANCH  42  44
ENDBRANCH  41  42
ENDBRANCH  40  41
ENDBRANCH  39  40
ENDBRANCH  38  39
ENDBRANCH  37  38
ENDBRANCH  36  37
ENDBRANCH  35  36
ENDBRANCH   1  35
TORSDOF 23
