REMARK SMILES O=C(/C=C/c1cc(F)cc(C[N@@H+]2CCC[C@H]2CO)c1)OCCOCCOCCOC(=O)c1ccc(-c2c3nc(c(-c4c(F)c(F)c(F)c(F)c4F)c4ccc([nH]4)c(-c4c(F)c(F)c(F)c(F)c4F)c4nc(c(-c5c(F)c(F)c(F)c(F)c5F)c5ccc2[nH]5)C=C4)C=C3)cc1
REMARK SMILES IDX 23 1 22 2 21 3 20 4 2 5 1 6 3 7 4 8 5 9 6 10 19 11 7 12
REMARK SMILES IDX 10 13 8 14 9 15 11 16 12 17 13 18 16 19 14 21 15 22 17 23
REMARK SMILES IDX 18 24 24 26 25 27 26 28 27 29 28 30 29 31 30 32 31 33 32 34
REMARK SMILES IDX 33 35 94 36 34 37 93 38 35 39 36 40 37 41 87 42 38 43 92 44
REMARK SMILES IDX 86 45 88 46 39 47 91 48 85 49 84 50 40 52 72 53 52 54 71 55
REMARK SMILES IDX 53 56 56 57 70 58 89 59 54 60 55 61 69 63 90 64 57 65 41 66
REMARK SMILES IDX 42 67 50 68 43 69 44 70 48 71 51 72 45 73 46 74 49 75 47 76
REMARK SMILES IDX 73 77 74 78 82 79 75 80 76 81 80 82 83 83 77 84 78 85 81 86
REMARK SMILES IDX 79 87 58 88 59 89 67 90 60 91 61 92 65 93 68 94 62 95 63 96
REMARK SMILES IDX 66 97 64 98
REMARK H PARENT 12 20 18 25 88 51 56 62
REMARK Flexibility Score: inf
ROOT
ATOM      1  O   UNL     1       4.182   0.566   1.297  1.00  0.00    -0.376 OA
ENDROOT
BRANCH   1   2
ATOM      2  C   UNL     1       4.845   0.898   0.085  1.00  0.00     0.202 C 
BRANCH   2   3
ATOM      3  C   UNL     1       4.093   1.138  -1.222  1.00  0.00     0.261 C 
BRANCH   3   4
ATOM      4  O   UNL     1       3.077   0.243  -1.743  1.00  0.00    -0.460 OA
BRANCH   4   5
ATOM      5  C   UNL     1       2.659  -1.005  -1.492  1.00  0.00     0.330 C 
ATOM      6  O   UNL     1       1.607  -1.419  -1.972  1.00  0.00    -0.247 OA
BRANCH   5   7
ATOM      7  C   UNL     1       3.394  -1.878  -0.582  1.00  0.00     0.094 C 
ATOM      8  C   UNL     1       4.691  -2.162  -0.728  1.00  0.00     0.016 C 
BRANCH   8   9
ATOM      9  C   UNL     1       5.353  -3.140   0.134  1.00  0.00    -0.022 A 
ATOM     10  C   UNL     1       5.195  -4.498  -0.140  1.00  0.00     0.047 A 
ATOM     11  C   UNL     1       6.193  -2.731   1.184  1.00  0.00     0.018 A 
ATOM     12  C   UNL     1       5.931  -5.423   0.581  1.00  0.00     0.124 A 
ATOM     13  C   UNL     1       6.949  -3.667   1.915  1.00  0.00     0.010 A 
ATOM     14  F   UNL     1       5.814  -6.726   0.293  1.00  0.00    -0.207 F 
ATOM     15  C   UNL     1       6.824  -5.019   1.567  1.00  0.00     0.048 A 
BRANCH  13  16
ATOM     16  C   UNL     1       7.981  -3.204   2.924  1.00  0.00     0.299 C 
BRANCH  16  17
ATOM     17  N   UNL     1       7.837  -3.550   4.339  1.00  0.00    -0.327 N 
ATOM     18  C   UNL     1       7.878  -4.963   4.693  1.00  0.00     0.263 C 
ATOM     19  C   UNL     1       6.694  -2.958   5.044  1.00  0.00     0.210 C 
ATOM     20  H   UNL     1       8.700  -3.113   4.661  1.00  0.00     0.348 HD
ATOM     21  C   UNL     1       6.436  -5.384   4.915  1.00  0.00     0.068 C 
ATOM     22  C   UNL     1       5.666  -4.089   5.135  1.00  0.00     0.073 C 
BRANCH  19  23
ATOM     23  C   UNL     1       7.155  -2.497   6.452  1.00  0.00     0.220 C 
BRANCH  23  24
ATOM     24  O   UNL     1       6.592  -1.226   6.774  1.00  0.00    -0.390 OA
ATOM     25  H   UNL     1       6.886  -0.568   6.124  1.00  0.00     0.210 HD
ENDBRANCH  23  24
ENDBRANCH  19  23
ENDBRANCH  16  17
ENDBRANCH  13  16
ENDBRANCH   8   9
ENDBRANCH   5   7
ENDBRANCH   4   5
ENDBRANCH   3   4
ENDBRANCH   2   3
ENDBRANCH   1   2
BRANCH   1  26
ATOM     26  C   UNL     1       2.789   0.770   1.425  1.00  0.00     0.188 C 
BRANCH  26  27
ATOM     27  C   UNL     1       2.268   2.133   1.897  1.00  0.00     0.188 C 
BRANCH  27  28
ATOM     28  O   UNL     1       3.133   3.251   1.866  1.00  0.00    -0.376 OA
BRANCH  28  29
ATOM     29  C   UNL     1       4.302   3.231   2.681  1.00  0.00     0.202 C 
BRANCH  29  30
ATOM     30  C   UNL     1       4.186   2.856   4.162  1.00  0.00     0.261 C 
BRANCH  30  31
ATOM     31  O   UNL     1       3.839   1.474   4.372  1.00  0.00    -0.460 OA
BRANCH  31  32
ATOM     32  C   UNL     1       2.733   1.278   5.129  1.00  0.00     0.338 C 
ATOM     33  O   UNL     1       2.003   2.131   5.605  1.00  0.00    -0.246 OA
BRANCH  32  34
ATOM     34  C   UNL     1       2.418  -0.154   5.249  1.00  0.00     0.060 A 
ATOM     35  C   UNL     1       1.153  -0.587   4.837  1.00  0.00     0.016 A 
ATOM     36  C   UNL     1       3.265  -1.007   5.955  1.00  0.00     0.016 A 
ATOM     37  C   UNL     1       0.703  -1.858   5.192  1.00  0.00     0.010 A 
ATOM     38  C   UNL     1       2.808  -2.277   6.320  1.00  0.00     0.010 A 
ATOM     39  C   UNL     1       1.507  -2.689   5.984  1.00  0.00    -0.014 A 
BRANCH  39  40
ATOM     40  C   UNL     1       0.899  -3.866   6.652  1.00  0.00     0.031 A 
ATOM     41  C   UNL     1       0.451  -3.730   8.084  1.00  0.00     0.074 A 
ATOM     42  C   UNL     1       0.687  -5.017   5.990  1.00  0.00     0.049 A 
ATOM     43  N   UNL     1      -0.139  -4.606   8.859  1.00  0.00    -0.248 NA
ATOM     44  C   UNL     1       0.700  -2.430   8.728  1.00  0.00     0.031 C 
ATOM     45  C   UNL     1       1.046  -5.268   4.597  1.00  0.00     0.029 A 
ATOM     46  N   UNL     1       0.105  -6.188   6.408  1.00  0.00    -0.354 N 
ATOM     47  C   UNL     1      -0.331  -3.962  10.075  1.00  0.00     0.074 A 
ATOM     48  C   UNL     1       0.239  -2.639   9.951  1.00  0.00     0.031 C 
ATOM     49  C   UNL     1       0.663  -6.515   4.269  1.00  0.00     0.029 A 
ATOM     50  C   UNL     1       0.049  -7.153   5.434  1.00  0.00     0.049 A 
ATOM     51  H   UNL     1      -0.241  -6.323   7.320  1.00  0.00     0.167 HD
ATOM     52  C   UNL     1      -0.943  -4.423  11.190  1.00  0.00     0.037 A 
ATOM     53  C   UNL     1      -0.444  -8.406   5.479  1.00  0.00     0.037 A 
ATOM     54  C   UNL     1      -1.514  -5.735  11.322  1.00  0.00     0.049 A 
ATOM     55  C   UNL     1      -1.085  -8.914   6.744  1.00  0.00     0.074 A 
ATOM     56  C   UNL     1      -2.142  -6.297  12.419  1.00  0.00     0.029 A 
ATOM     57  N   UNL     1      -1.529  -6.690  10.317  1.00  0.00    -0.354 N 
ATOM     58  N   UNL     1      -1.267  -8.296   7.885  1.00  0.00    -0.248 NA
ATOM     59  C   UNL     1      -1.598 -10.293   6.723  1.00  0.00     0.031 C 
ATOM     60  C   UNL     1      -2.508  -7.606  12.089  1.00  0.00     0.029 A 
ATOM     61  C   UNL     1      -2.148  -7.842  10.772  1.00  0.00     0.049 A 
ATOM     62  H   UNL     1      -1.154  -6.567   9.415  1.00  0.00     0.167 HD
ATOM     63  C   UNL     1      -1.938  -9.194   8.706  1.00  0.00     0.074 A 
ATOM     64  C   UNL     1      -2.136 -10.402   7.931  1.00  0.00     0.031 C 
ATOM     65  C   UNL     1      -2.355  -9.030   9.985  1.00  0.00     0.037 A 
BRANCH  52  66
ATOM     66  C   UNL     1      -1.017  -3.495  12.365  1.00  0.00     0.064 A 
ATOM     67  C   UNL     1      -0.228  -3.720  13.502  1.00  0.00     0.173 A 
ATOM     68  C   UNL     1      -1.891  -2.398  12.376  1.00  0.00     0.173 A 
ATOM     69  F   UNL     1       0.622  -4.757  13.541  1.00  0.00    -0.203 F 
ATOM     70  C   UNL     1      -0.313  -2.880  14.609  1.00  0.00     0.198 A 
ATOM     71  C   UNL     1      -1.956  -1.546  13.475  1.00  0.00     0.198 A 
ATOM     72  F   UNL     1      -2.655  -2.133  11.305  1.00  0.00    -0.203 F 
ATOM     73  F   UNL     1       0.438  -3.124  15.692  1.00  0.00    -0.200 F 
ATOM     74  C   UNL     1      -1.172  -1.792  14.593  1.00  0.00     0.200 A 
ATOM     75  F   UNL     1      -2.768  -0.480  13.448  1.00  0.00    -0.200 F 
ATOM     76  F   UNL     1      -1.240  -0.975  15.653  1.00  0.00    -0.200 F 
ENDBRANCH  52  66
BRANCH  53  77
ATOM     77  C   UNL     1      -0.377  -9.262   4.267  1.00  0.00     0.064 A 
ATOM     78  C   UNL     1       0.841  -9.793   3.820  1.00  0.00     0.173 A 
ATOM     79  C   UNL     1      -1.530  -9.553   3.526  1.00  0.00     0.173 A 
ATOM     80  F   UNL     1       1.971  -9.546   4.498  1.00  0.00    -0.203 F 
ATOM     81  C   UNL     1       0.905 -10.570   2.665  1.00  0.00     0.198 A 
ATOM     82  C   UNL     1      -1.468 -10.348   2.383  1.00  0.00     0.198 A 
ATOM     83  F   UNL     1      -2.721  -9.088   3.931  1.00  0.00    -0.203 F 
ATOM     84  F   UNL     1       2.084 -11.048   2.247  1.00  0.00    -0.200 F 
ATOM     85  C   UNL     1      -0.250 -10.850   1.950  1.00  0.00     0.200 A 
ATOM     86  F   UNL     1      -2.590 -10.636   1.709  1.00  0.00    -0.200 F 
ATOM     87  F   UNL     1      -0.190 -11.608   0.847  1.00  0.00    -0.200 F 
ENDBRANCH  53  77
BRANCH  65  88
ATOM     88  C   UNL     1      -3.104 -10.158  10.629  1.00  0.00     0.064 A 
ATOM     89  C   UNL     1      -4.480 -10.041  10.881  1.00  0.00     0.173 A 
ATOM     90  C   UNL     1      -2.450 -11.315  11.075  1.00  0.00     0.173 A 
ATOM     91  F   UNL     1      -5.149  -8.948  10.483  1.00  0.00    -0.203 F 
ATOM     92  C   UNL     1      -5.171 -11.036  11.566  1.00  0.00     0.198 A 
ATOM     93  C   UNL     1      -3.149 -12.320  11.739  1.00  0.00     0.198 A 
ATOM     94  F   UNL     1      -1.137 -11.477  10.850  1.00  0.00    -0.203 F 
ATOM     95  F   UNL     1      -6.478 -10.889  11.821  1.00  0.00    -0.200 F 
ATOM     96  C   UNL     1      -4.505 -12.176  11.992  1.00  0.00     0.200 A 
ATOM     97  F   UNL     1      -2.509 -13.429  12.135  1.00  0.00    -0.200 F 
ATOM     98  F   UNL     1      -5.172 -13.137  12.646  1.00  0.00    -0.200 F 
ENDBRANCH  65  88
ENDBRANCH  39  40
ENDBRANCH  32  34
ENDBRANCH  31  32
ENDBRANCH  30  31
ENDBRANCH  29  30
ENDBRANCH  28  29
ENDBRANCH  27  28
ENDBRANCH  26  27
ENDBRANCH   1  26
TORSDOF 22
