REMARK SMILES CCc1cc(/C=C/C(=O)OCCOCCOCCOC(=O)c2ccc(-c3c4nc(c(-c5c(F)c(F)c(F)c(F)c5F)c5ccc([nH]5)c(-c5c(F)c(F)c(F)c(F)c5F)c5nc(c(-c6c(F)c(F)c(F)c(F)c6F)c6ccc3[nH]6)C=C5)C=C4)cc2)cc(C(=O)c2ccccc2)c1
REMARK SMILES IDX 14 1 13 2 12 3 11 4 10 5 8 6 9 7 7 8 6 9 5 10 3 11 4 12
REMARK SMILES IDX 95 13 86 14 85 15 2 16 1 17 87 18 88 19 89 20 90 21 94 22
REMARK SMILES IDX 91 23 93 24 92 25 15 26 16 27 17 28 18 29 19 30 20 31 21 32
REMARK SMILES IDX 22 33 23 34 84 35 24 36 83 37 25 38 26 39 27 40 77 41 28 42
REMARK SMILES IDX 82 43 76 44 78 45 29 46 81 47 75 48 74 49 30 51 62 52 42 53
REMARK SMILES IDX 61 54 43 55 46 56 60 57 79 58 44 59 45 60 59 62 80 63 47 64
REMARK SMILES IDX 31 65 32 66 40 67 33 68 34 69 38 70 41 71 35 72 36 73 39 74
REMARK SMILES IDX 37 75 63 76 64 77 72 78 65 79 66 80 70 81 73 82 67 83 68 84
REMARK SMILES IDX 71 85 69 86 48 87 49 88 57 89 50 90 51 91 55 92 58 93 52 94
REMARK SMILES IDX 53 95 56 96 54 97
REMARK H PARENT 78 50 46 61
REMARK Flexibility Score: inf
ROOT
ATOM      1  C   UNL     1      -2.535  -7.625  -2.588  1.00  0.00     0.188 C 
ENDROOT
BRANCH   1   2
ATOM      2  O   UNL     1      -2.682  -8.950  -3.078  1.00  0.00    -0.376 OA
BRANCH   2   3
ATOM      3  C   UNL     1      -2.002 -10.020  -2.433  1.00  0.00     0.202 C 
BRANCH   3   4
ATOM      4  C   UNL     1      -0.496  -9.922  -2.142  1.00  0.00     0.261 C 
BRANCH   4   5
ATOM      5  O   UNL     1      -0.074  -8.699  -1.518  1.00  0.00    -0.460 OA
BRANCH   5   6
ATOM      6  C   UNL     1       0.784  -7.938  -2.240  1.00  0.00     0.330 C 
ATOM      7  O   UNL     1       1.247  -8.210  -3.339  1.00  0.00    -0.247 OA
BRANCH   6   8
ATOM      8  C   UNL     1       1.010  -6.608  -1.632  1.00  0.00     0.094 C 
ATOM      9  C   UNL     1       0.815  -6.287  -0.343  1.00  0.00     0.015 C 
BRANCH   9  10
ATOM     10  C   UNL     1       1.019  -4.928   0.195  1.00  0.00    -0.024 A 
ATOM     11  C   UNL     1       0.954  -2.483  -0.033  1.00  0.00    -0.047 A 
ATOM     12  C   UNL     1       0.730  -3.773  -0.550  1.00  0.00     0.011 A 
ATOM     13  C   UNL     1       1.467  -2.368   1.264  1.00  0.00     0.016 A 
ATOM     14  C   UNL     1       1.693  -3.502   2.056  1.00  0.00     0.023 A 
ATOM     15  C   UNL     1       1.470  -4.777   1.511  1.00  0.00     0.020 A 
BRANCH  11  16
ATOM     16  C   UNL     1       0.607  -1.286  -0.894  1.00  0.00     0.032 C 
ATOM     17  C   UNL     1       0.982   0.088  -0.349  1.00  0.00     0.009 C 
ENDBRANCH  11  16
BRANCH  14  18
ATOM     18  C   UNL     1       2.217  -3.408   3.451  1.00  0.00     0.193 C 
ATOM     19  O   UNL     1       2.633  -4.417   4.015  1.00  0.00    -0.289 OA
BRANCH  18  20
ATOM     20  C   UNL     1       2.302  -2.117   4.179  1.00  0.00     0.022 A 
ATOM     21  C   UNL     1       3.503  -1.803   4.824  1.00  0.00     0.012 A 
ATOM     22  C   UNL     1       1.219  -1.232   4.248  1.00  0.00     0.012 A 
ATOM     23  C   UNL     1       3.640  -0.585   5.490  1.00  0.00     0.001 A 
ATOM     24  C   UNL     1       1.364  -0.010   4.909  1.00  0.00     0.001 A 
ATOM     25  C   UNL     1       2.575   0.315   5.522  1.00  0.00     0.000 A 
ENDBRANCH  18  20
ENDBRANCH  14  18
ENDBRANCH   9  10
ENDBRANCH   6   8
ENDBRANCH   5   6
ENDBRANCH   4   5
ENDBRANCH   3   4
ENDBRANCH   2   3
ENDBRANCH   1   2
BRANCH   1  26
ATOM     26  C   UNL     1      -2.705  -7.324  -1.084  1.00  0.00     0.188 C 
BRANCH  26  27
ATOM     27  O   UNL     1      -2.874  -8.447  -0.257  1.00  0.00    -0.376 OA
BRANCH  27  28
ATOM     28  C   UNL     1      -4.172  -8.893   0.098  1.00  0.00     0.202 C 
BRANCH  28  29
ATOM     29  C   UNL     1      -5.483  -8.529  -0.630  1.00  0.00     0.261 C 
BRANCH  29  30
ATOM     30  O   UNL     1      -5.427  -7.591  -1.706  1.00  0.00    -0.460 OA
BRANCH  30  31
ATOM     31  C   UNL     1      -5.838  -6.332  -1.423  1.00  0.00     0.338 C 
ATOM     32  O   UNL     1      -6.190  -5.886  -0.348  1.00  0.00    -0.246 OA
BRANCH  31  33
ATOM     33  C   UNL     1      -5.638  -5.505  -2.627  1.00  0.00     0.060 A 
ATOM     34  C   UNL     1      -4.629  -4.534  -2.621  1.00  0.00     0.016 A 
ATOM     35  C   UNL     1      -6.451  -5.683  -3.748  1.00  0.00     0.016 A 
ATOM     36  C   UNL     1      -4.431  -3.731  -3.744  1.00  0.00     0.010 A 
ATOM     37  C   UNL     1      -6.266  -4.862  -4.863  1.00  0.00     0.010 A 
ATOM     38  C   UNL     1      -5.266  -3.872  -4.861  1.00  0.00    -0.014 A 
BRANCH  38  39
ATOM     39  C   UNL     1      -5.194  -2.897  -5.974  1.00  0.00     0.031 A 
ATOM     40  C   UNL     1      -6.169  -1.755  -6.001  1.00  0.00     0.074 A 
ATOM     41  C   UNL     1      -4.277  -3.025  -6.949  1.00  0.00     0.049 A 
ATOM     42  N   UNL     1      -6.343  -0.829  -6.908  1.00  0.00    -0.248 NA
ATOM     43  C   UNL     1      -7.072  -1.646  -4.845  1.00  0.00     0.031 C 
ATOM     44  C   UNL     1      -3.250  -4.061  -7.012  1.00  0.00     0.029 A 
ATOM     45  N   UNL     1      -4.077  -2.279  -8.084  1.00  0.00    -0.354 N 
ATOM     46  C   UNL     1      -7.375  -0.030  -6.435  1.00  0.00     0.074 A 
ATOM     47  C   UNL     1      -7.809  -0.598  -5.177  1.00  0.00     0.031 C 
ATOM     48  C   UNL     1      -2.533  -3.894  -8.137  1.00  0.00     0.029 A 
ATOM     49  C   UNL     1      -3.077  -2.764  -8.890  1.00  0.00     0.049 A 
ATOM     50  H   UNL     1      -4.599  -1.472  -8.299  1.00  0.00     0.167 HD
ATOM     51  C   UNL     1      -7.909   1.081  -6.998  1.00  0.00     0.037 A 
ATOM     52  C   UNL     1      -2.671  -2.358 -10.109  1.00  0.00     0.037 A 
ATOM     53  C   UNL     1      -7.487   1.634  -8.258  1.00  0.00     0.049 A 
ATOM     54  C   UNL     1      -3.352  -1.183 -10.764  1.00  0.00     0.074 A 
ATOM     55  C   UNL     1      -7.956   2.763  -8.906  1.00  0.00     0.029 A 
ATOM     56  N   UNL     1      -6.504   1.086  -9.070  1.00  0.00    -0.354 N 
ATOM     57  N   UNL     1      -4.308  -0.413 -10.302  1.00  0.00    -0.248 NA
ATOM     58  C   UNL     1      -2.898  -0.822 -12.115  1.00  0.00     0.031 C 
ATOM     59  C   UNL     1      -7.299   2.865 -10.137  1.00  0.00     0.029 A 
ATOM     60  C   UNL     1      -6.377   1.835 -10.230  1.00  0.00     0.049 A 
ATOM     61  H   UNL     1      -5.976   0.284  -8.855  1.00  0.00     0.167 HD
ATOM     62  C   UNL     1      -4.550   0.534 -11.289  1.00  0.00     0.074 A 
ATOM     63  C   UNL     1      -3.629   0.253 -12.370  1.00  0.00     0.031 C 
ATOM     64  C   UNL     1      -5.453   1.546 -11.299  1.00  0.00     0.037 A 
BRANCH  51  65
ATOM     65  C   UNL     1      -9.033   1.752  -6.263  1.00  0.00     0.064 A 
ATOM     66  C   UNL     1      -8.820   2.438  -5.057  1.00  0.00     0.173 A 
ATOM     67  C   UNL     1     -10.337   1.722  -6.779  1.00  0.00     0.173 A 
ATOM     68  F   UNL     1      -7.595   2.483  -4.513  1.00  0.00    -0.203 F 
ATOM     69  C   UNL     1      -9.877   3.039  -4.379  1.00  0.00     0.198 A 
ATOM     70  C   UNL     1     -11.386   2.352  -6.115  1.00  0.00     0.198 A 
ATOM     71  F   UNL     1     -10.594   1.083  -7.931  1.00  0.00    -0.203 F 
ATOM     72  F   UNL     1      -9.660   3.641  -3.201  1.00  0.00    -0.200 F 
ATOM     73  C   UNL     1     -11.157   3.002  -4.912  1.00  0.00     0.200 A 
ATOM     74  F   UNL     1     -12.620   2.325  -6.638  1.00  0.00    -0.200 F 
ATOM     75  F   UNL     1     -12.173   3.584  -4.260  1.00  0.00    -0.200 F 
ENDBRANCH  51  65
BRANCH  52  76
ATOM     76  C   UNL     1      -1.572  -3.077 -10.806  1.00  0.00     0.064 A 
ATOM     77  C   UNL     1      -0.336  -2.457 -11.035  1.00  0.00     0.173 A 
ATOM     78  C   UNL     1      -1.741  -4.386 -11.281  1.00  0.00     0.173 A 
ATOM     79  F   UNL     1      -0.136  -1.195 -10.627  1.00  0.00    -0.203 F 
ATOM     80  C   UNL     1       0.682  -3.111 -11.725  1.00  0.00     0.198 A 
ATOM     81  C   UNL     1      -0.713  -5.051 -11.946  1.00  0.00     0.198 A 
ATOM     82  F   UNL     1      -2.908  -5.022 -11.096  1.00  0.00    -0.203 F 
ATOM     83  F   UNL     1       1.835  -2.476 -11.974  1.00  0.00    -0.200 F 
ATOM     84  C   UNL     1       0.495  -4.410 -12.175  1.00  0.00     0.200 A 
ATOM     85  F   UNL     1      -0.895  -6.308 -12.372  1.00  0.00    -0.200 F 
ATOM     86  F   UNL     1       1.475  -5.038 -12.839  1.00  0.00    -0.200 F 
ENDBRANCH  52  76
BRANCH  64  87
ATOM     87  C   UNL     1      -5.472   2.448 -12.501  1.00  0.00     0.064 A 
ATOM     88  C   UNL     1      -5.955   2.011 -13.744  1.00  0.00     0.173 A 
ATOM     89  C   UNL     1      -5.044   3.780 -12.397  1.00  0.00     0.173 A 
ATOM     90  F   UNL     1      -6.362   0.742 -13.901  1.00  0.00    -0.203 F 
ATOM     91  C   UNL     1      -5.985   2.867 -14.842  1.00  0.00     0.198 A 
ATOM     92  C   UNL     1      -5.106   4.643 -13.488  1.00  0.00     0.198 A 
ATOM     93  F   UNL     1      -4.580   4.253 -11.230  1.00  0.00    -0.203 F 
ATOM     94  F   UNL     1      -6.406   2.413 -16.031  1.00  0.00    -0.200 F 
ATOM     95  C   UNL     1      -5.570   4.184 -14.711  1.00  0.00     0.200 A 
ATOM     96  F   UNL     1      -4.719   5.919 -13.355  1.00  0.00    -0.200 F 
ATOM     97  F   UNL     1      -5.610   5.009 -15.767  1.00  0.00    -0.200 F 
ENDBRANCH  64  87
ENDBRANCH  38  39
ENDBRANCH  31  33
ENDBRANCH  30  31
ENDBRANCH  29  30
ENDBRANCH  28  29
ENDBRANCH  27  28
ENDBRANCH  26  27
ENDBRANCH   1  26
TORSDOF 21
