REMARK SMILES C[C@H](NC(=O)c1c(C(=O)OCCOCCOCCOC(=O)c2ccc(-c3c4nc(c(-c5c(F)c(F)c(F)c(F)c5F)c5ccc([nH]5)c(-c5c(F)c(F)c(F)c(F)c5F)c5nc(c(-c6c(F)c(F)c(F)c(F)c6F)c6ccc3[nH]6)C=C5)C=C4)cc2)cnn1C)[C@]12C[C@H]3C[C@H](C[C@H](C3)C1)C2
REMARK SMILES IDX 14 1 13 2 12 3 11 4 10 5 8 6 9 7 7 8 6 9 87 10 85 11 86 12
REMARK SMILES IDX 88 13 4 14 3 15 5 17 2 18 1 19 89 20 90 21 97 22 98 23 91 24
REMARK SMILES IDX 95 25 93 26 92 27 96 28 94 29 15 30 16 31 17 32 18 33 19 34
REMARK SMILES IDX 20 35 21 36 22 37 23 38 84 39 24 40 83 41 25 42 26 43 27 44
REMARK SMILES IDX 77 45 28 46 82 47 76 48 78 49 29 50 81 51 75 52 74 53 30 55
REMARK SMILES IDX 62 56 42 57 61 58 43 59 46 60 60 61 79 62 44 63 45 64 59 66
REMARK SMILES IDX 80 67 47 68 31 69 32 70 40 71 33 72 34 73 38 74 41 75 35 76
REMARK SMILES IDX 36 77 39 78 37 79 63 80 64 81 72 82 65 83 66 84 70 85 73 86
REMARK SMILES IDX 67 87 68 88 71 89 69 90 48 91 49 92 57 93 50 94 51 95 55 96
REMARK SMILES IDX 58 97 52 98 53 99 56 100 54 101
REMARK H PARENT 3 16 78 54 46 65
REMARK Flexibility Score: inf
ROOT
ATOM      1  C   UNL     1      -0.618   3.992  -3.848  1.00  0.00     0.188 C 
ENDROOT
BRANCH   1   2
ATOM      2  O   UNL     1      -0.625   3.637  -5.226  1.00  0.00    -0.376 OA
BRANCH   2   3
ATOM      3  C   UNL     1      -0.426   2.292  -5.632  1.00  0.00     0.202 C 
BRANCH   3   4
ATOM      4  C   UNL     1       0.868   1.569  -5.234  1.00  0.00     0.261 C 
BRANCH   4   5
ATOM      5  O   UNL     1       1.237   1.723  -3.856  1.00  0.00    -0.460 OA
BRANCH   5   6
ATOM      6  C   UNL     1       2.295   2.554  -3.638  1.00  0.00     0.342 C 
ATOM      7  O   UNL     1       2.947   3.087  -4.521  1.00  0.00    -0.246 OA
BRANCH   6   8
ATOM      8  C   UNL     1       2.502   2.907  -2.242  1.00  0.00     0.111 A 
ATOM      9  C   UNL     1       2.366   2.171  -1.058  1.00  0.00     0.140 A 
ATOM     10  N   UNL     1       3.081   2.935  -0.160  1.00  0.00    -0.262 N 
ATOM     11  C   UNL     1       2.937   4.185  -1.826  1.00  0.00     0.151 A 
ATOM     12  N   UNL     1       3.181   4.231  -0.520  1.00  0.00    -0.180 NA
ATOM     13  C   UNL     1       3.983   2.475   0.874  1.00  0.00     0.174 C 
BRANCH   9  14
ATOM     14  C   UNL     1       1.952   0.803  -0.902  1.00  0.00     0.270 C 
ATOM     15  N   UNL     1       1.196   0.341   0.144  1.00  0.00    -0.348 N 
ATOM     16  H   UNL     1       1.099  -0.636   0.066  1.00  0.00     0.164 HD
ATOM     17  O   UNL     1       2.282  -0.052  -1.726  1.00  0.00    -0.267 OA
BRANCH  15  18
ATOM     18  C   UNL     1       0.474   0.805   1.350  1.00  0.00     0.085 C 
ATOM     19  C   UNL     1       1.028   2.026   2.066  1.00  0.00     0.031 C 
BRANCH  18  20
ATOM     20  C   UNL     1      -1.110   0.769   1.280  1.00  0.00    -0.009 C 
ATOM     21  C   UNL     1      -1.630  -0.058   2.504  1.00  0.00     0.012 C 
ATOM     22  C   UNL     1      -1.658   0.074   0.005  1.00  0.00     0.012 C 
ATOM     23  C   UNL     1      -1.764   2.182   1.368  1.00  0.00     0.012 C 
ATOM     24  C   UNL     1      -3.164  -0.146   2.531  1.00  0.00    -0.010 C 
ATOM     25  C   UNL     1      -3.199   0.001   0.025  1.00  0.00    -0.010 C 
ATOM     26  C   UNL     1      -3.300   2.096   1.410  1.00  0.00    -0.010 C 
ATOM     27  C   UNL     1      -3.744   1.271   2.625  1.00  0.00     0.007 C 
ATOM     28  C   UNL     1      -3.655  -0.818   1.240  1.00  0.00     0.007 C 
ATOM     29  C   UNL     1      -3.790   1.415   0.133  1.00  0.00     0.007 C 
ENDBRANCH  18  20
ENDBRANCH  15  18
ENDBRANCH   9  14
ENDBRANCH   6   8
ENDBRANCH   5   6
ENDBRANCH   4   5
ENDBRANCH   3   4
ENDBRANCH   2   3
ENDBRANCH   1   2
BRANCH   1  30
ATOM     30  C   UNL     1      -1.163   3.038  -2.762  1.00  0.00     0.188 C 
BRANCH  30  31
ATOM     31  O   UNL     1      -1.776   1.869  -3.244  1.00  0.00    -0.376 OA
BRANCH  31  32
ATOM     32  C   UNL     1      -3.174   1.788  -3.432  1.00  0.00     0.202 C 
BRANCH  32  33
ATOM     33  C   UNL     1      -4.120   2.988  -3.606  1.00  0.00     0.261 C 
BRANCH  33  34
ATOM     34  O   UNL     1      -3.585   4.299  -3.430  1.00  0.00    -0.460 OA
BRANCH  34  35
ATOM     35  C   UNL     1      -3.842   4.905  -2.248  1.00  0.00     0.338 C 
ATOM     36  O   UNL     1      -4.417   4.445  -1.280  1.00  0.00    -0.246 OA
BRANCH  35  37
ATOM     37  C   UNL     1      -3.189   6.226  -2.263  1.00  0.00     0.060 A 
ATOM     38  C   UNL     1      -2.093   6.459  -1.424  1.00  0.00     0.016 A 
ATOM     39  C   UNL     1      -3.683   7.235  -3.091  1.00  0.00     0.016 A 
ATOM     40  C   UNL     1      -1.499   7.721  -1.395  1.00  0.00     0.010 A 
ATOM     41  C   UNL     1      -3.098   8.502  -3.048  1.00  0.00     0.010 A 
ATOM     42  C   UNL     1      -2.020   8.758  -2.182  1.00  0.00    -0.014 A 
BRANCH  42  43
ATOM     43  C   UNL     1      -1.554  10.152  -1.992  1.00  0.00     0.031 A 
ATOM     44  C   UNL     1      -2.374  11.075  -1.135  1.00  0.00     0.074 A 
ATOM     45  C   UNL     1      -0.429  10.595  -2.580  1.00  0.00     0.049 A 
ATOM     46  N   UNL     1      -2.225  12.355  -0.906  1.00  0.00    -0.248 NA
ATOM     47  C   UNL     1      -3.526  10.470  -0.445  1.00  0.00     0.031 C 
ATOM     48  C   UNL     1       0.467   9.789  -3.405  1.00  0.00     0.029 A 
ATOM     49  N   UNL     1       0.139  11.846  -2.586  1.00  0.00    -0.354 N 
ATOM     50  C   UNL     1      -3.256  12.706  -0.045  1.00  0.00     0.074 A 
ATOM     51  C   UNL     1      -4.049  11.516   0.177  1.00  0.00     0.031 C 
ATOM     52  C   UNL     1       1.460  10.572  -3.862  1.00  0.00     0.029 A 
ATOM     53  C   UNL     1       1.250  11.939  -3.388  1.00  0.00     0.049 A 
ATOM     54  H   UNL     1      -0.217  12.602  -2.066  1.00  0.00     0.167 HD
ATOM     55  C   UNL     1      -3.511  13.910   0.519  1.00  0.00     0.037 A 
ATOM     56  C   UNL     1       1.989  13.015  -3.724  1.00  0.00     0.037 A 
ATOM     57  C   UNL     1      -2.731  15.096   0.283  1.00  0.00     0.049 A 
ATOM     58  C   UNL     1       1.634  14.364  -3.147  1.00  0.00     0.074 A 
ATOM     59  C   UNL     1      -2.916  16.368   0.795  1.00  0.00     0.029 A 
ATOM     60  N   UNL     1      -1.617  15.154  -0.541  1.00  0.00    -0.354 N 
ATOM     61  N   UNL     1       0.667  14.687  -2.323  1.00  0.00    -0.248 NA
ATOM     62  C   UNL     1       2.480  15.499  -3.547  1.00  0.00     0.031 C 
ATOM     63  C   UNL     1      -1.940  17.206   0.246  1.00  0.00     0.029 A 
ATOM     64  C   UNL     1      -1.113  16.444  -0.564  1.00  0.00     0.049 A 
ATOM     65  H   UNL     1      -1.240  14.391  -1.037  1.00  0.00     0.167 HD
ATOM     66  C   UNL     1       0.807  16.048  -2.080  1.00  0.00     0.074 A 
ATOM     67  C   UNL     1       1.962  16.489  -2.833  1.00  0.00     0.031 C 
ATOM     68  C   UNL     1       0.048  16.862  -1.306  1.00  0.00     0.037 A 
BRANCH  55  69
ATOM     69  C   UNL     1      -4.691  14.006   1.441  1.00  0.00     0.064 A 
ATOM     70  C   UNL     1      -4.678  13.410   2.711  1.00  0.00     0.173 A 
ATOM     71  C   UNL     1      -5.830  14.736   1.070  1.00  0.00     0.173 A 
ATOM     72  F   UNL     1      -3.618  12.688   3.108  1.00  0.00    -0.203 F 
ATOM     73  C   UNL     1      -5.770  13.523   3.567  1.00  0.00     0.198 A 
ATOM     74  C   UNL     1      -6.908  14.871   1.940  1.00  0.00     0.198 A 
ATOM     75  F   UNL     1      -5.893  15.328  -0.132  1.00  0.00    -0.203 F 
ATOM     76  F   UNL     1      -5.752  12.910   4.759  1.00  0.00    -0.200 F 
ATOM     77  C   UNL     1      -6.880  14.261   3.185  1.00  0.00     0.200 A 
ATOM     78  F   UNL     1      -7.976  15.595   1.574  1.00  0.00    -0.200 F 
ATOM     79  F   UNL     1      -7.926  14.378   4.015  1.00  0.00    -0.200 F 
ENDBRANCH  55  69
BRANCH  56  80
ATOM     80  C   UNL     1       3.123  12.877  -4.677  1.00  0.00     0.064 A 
ATOM     81  C   UNL     1       4.447  13.089  -4.268  1.00  0.00     0.173 A 
ATOM     82  C   UNL     1       2.899  12.577  -6.029  1.00  0.00     0.173 A 
ATOM     83  F   UNL     1       4.711  13.408  -2.993  1.00  0.00    -0.203 F 
ATOM     84  C   UNL     1       5.500  13.037  -5.180  1.00  0.00     0.198 A 
ATOM     85  C   UNL     1       3.956  12.492  -6.934  1.00  0.00     0.198 A 
ATOM     86  F   UNL     1       1.651  12.370  -6.475  1.00  0.00    -0.203 F 
ATOM     87  F   UNL     1       6.747  13.309  -4.775  1.00  0.00    -0.200 F 
ATOM     88  C   UNL     1       5.254  12.734  -6.511  1.00  0.00     0.200 A 
ATOM     89  F   UNL     1       3.714  12.192  -8.217  1.00  0.00    -0.200 F 
ATOM     90  F   UNL     1       6.265  12.692  -7.389  1.00  0.00    -0.200 F 
ENDBRANCH  56  80
BRANCH  68  91
ATOM     91  C   UNL     1       0.468  18.300  -1.192  1.00  0.00     0.064 A 
ATOM     92  C   UNL     1       0.325  19.199  -2.259  1.00  0.00     0.173 A 
ATOM     93  C   UNL     1       0.980  18.794   0.019  1.00  0.00     0.173 A 
ATOM     94  F   UNL     1      -0.147  18.774  -3.440  1.00  0.00    -0.203 F 
ATOM     95  C   UNL     1       0.705  20.532  -2.127  1.00  0.00     0.198 A 
ATOM     96  C   UNL     1       1.329  20.134   0.157  1.00  0.00     0.198 A 
ATOM     97  F   UNL     1       1.128  17.978   1.074  1.00  0.00    -0.203 F 
ATOM     98  F   UNL     1       0.606  21.362  -3.175  1.00  0.00    -0.200 F 
ATOM     99  C   UNL     1       1.199  21.000  -0.918  1.00  0.00     0.200 A 
ATOM    100  F   UNL     1       1.790  20.588   1.330  1.00  0.00    -0.200 F 
ATOM    101  F   UNL     1       1.556  22.286  -0.791  1.00  0.00    -0.200 F 
ENDBRANCH  68  91
ENDBRANCH  42  43
ENDBRANCH  35  37
ENDBRANCH  34  35
ENDBRANCH  33  34
ENDBRANCH  32  33
ENDBRANCH  31  32
ENDBRANCH  30  31
ENDBRANCH   1  30
TORSDOF 20
