REMARK SMILES CCC[C@H]1CCc2c(sc(NC(=O)[C@H]3[C@@H](C(=O)OCCOCCOCCOC(=O)c4ccc(-c5c6nc(c(-c7c(F)c(F)c(F)c(F)c7F)c7ccc([nH]7)c(-c7c(F)c(F)c(F)c(F)c7F)c7nc(c(-c8c(F)c(F)c(F)c(F)c8F)c8ccc5[nH]8)C=C7)C=C6)cc4)[C@H]4CC[C@@H]3O4)c2C(N)=O)C1
REMARK SMILES IDX 22 1 21 2 20 3 19 4 18 5 16 6 17 7 15 8 14 9 96 10 93 11
REMARK SMILES IDX 95 12 97 13 94 14 12 15 11 16 13 18 10 19 4 20 5 21 102 22
REMARK SMILES IDX 6 23 8 24 7 25 9 26 98 27 3 28 2 29 1 30 99 31 100 32 101 33
REMARK SMILES IDX 23 36 24 37 25 38 26 39 27 40 28 41 29 42 30 43 31 44 92 45
REMARK SMILES IDX 32 46 91 47 33 48 34 49 35 50 85 51 36 52 90 53 84 54 86 55
REMARK SMILES IDX 37 56 89 57 83 58 82 59 38 61 70 62 50 63 69 64 51 65 54 66
REMARK SMILES IDX 68 67 87 68 52 69 53 70 67 72 88 73 55 74 39 75 40 76 48 77
REMARK SMILES IDX 41 78 42 79 46 80 49 81 43 82 44 83 47 84 45 85 71 86 72 87
REMARK SMILES IDX 80 88 73 89 74 90 78 91 81 92 75 93 76 94 79 95 77 96 56 97
REMARK SMILES IDX 57 98 65 99 58 100 59 101 63 102 66 103 60 104 61 105 64 106
REMARK SMILES IDX 62 107
REMARK H PARENT 11 17 100 34 100 35 86 60 54 71
REMARK Flexibility Score: inf
ROOT
ATOM      1  C   UNL     1       4.175  -6.709   3.174  1.00  0.00     0.188 C 
ENDROOT
BRANCH   1   2
ATOM      2  O   UNL     1       3.416  -5.620   3.682  1.00  0.00    -0.376 OA
BRANCH   2   3
ATOM      3  C   UNL     1       2.163  -5.359   3.086  1.00  0.00     0.202 C 
BRANCH   3   4
ATOM      4  C   UNL     1       2.127  -4.825   1.642  1.00  0.00     0.261 C 
BRANCH   4   5
ATOM      5  O   UNL     1       3.171  -5.227   0.729  1.00  0.00    -0.463 OA
BRANCH   5   6
ATOM      6  C   UNL     1       4.293  -4.461   0.816  1.00  0.00     0.312 C 
ATOM      7  O   UNL     1       4.494  -3.702   1.755  1.00  0.00    -0.252 OA
BRANCH   6   8
ATOM      8  C   UNL     1       5.131  -4.479  -0.455  1.00  0.00     0.143 C 
ATOM      9  C   UNL     1       6.245  -5.517  -0.812  1.00  0.00     0.124 C 
ATOM     10  C   UNL     1       7.479  -4.624  -0.730  1.00  0.00     0.132 C 
ATOM     11  C   UNL     1       5.919  -3.135  -0.555  1.00  0.00     0.133 C 
ATOM     12  C   UNL     1       7.720  -4.039   0.662  1.00  0.00     0.035 C 
ATOM     13  O   UNL     1       6.973  -3.491  -1.484  1.00  0.00    -0.373 OA
ATOM     14  C   UNL     1       6.835  -2.803   0.623  1.00  0.00     0.036 C 
BRANCH   9  15
ATOM     15  C   UNL     1       6.324  -6.891  -0.164  1.00  0.00     0.231 C 
ATOM     16  N   UNL     1       7.393  -7.747  -0.279  1.00  0.00    -0.317 N 
ATOM     17  H   UNL     1       7.346  -8.556   0.279  1.00  0.00     0.170 HD
ATOM     18  O   UNL     1       5.357  -7.319   0.468  1.00  0.00    -0.274 OA
BRANCH  16  19
ATOM     19  C   UNL     1       8.517  -7.635  -1.059  1.00  0.00     0.108 A 
ATOM     20  C   UNL     1      13.053  -6.672  -2.589  1.00  0.00    -0.006 C 
ATOM     21  C   UNL     1      12.090  -6.120  -3.660  1.00  0.00     0.009 C 
ATOM     22  C   UNL     1      12.403  -7.628  -1.536  1.00  0.00     0.050 C 
ATOM     23  C   UNL     1      10.801  -5.581  -3.071  1.00  0.00     0.038 C 
ATOM     24  C   UNL     1      10.906  -7.497  -1.481  1.00  0.00     0.011 A 
ATOM     25  C   UNL     1      10.149  -6.655  -2.272  1.00  0.00    -0.019 A 
ATOM     26  S   UNL     1       9.911  -8.409  -0.436  1.00  0.00    -0.122 S 
ATOM     27  C   UNL     1       8.778  -7.080  -2.294  1.00  0.00     0.077 A 
BRANCH  20  28
ATOM     28  C   UNL     1      14.310  -7.290  -3.247  1.00  0.00     0.004 C 
BRANCH  28  29
ATOM     29  C   UNL     1      14.085  -8.393  -4.298  1.00  0.00    -0.003 C 
ATOM     30  C   UNL     1      13.810  -7.895  -5.717  1.00  0.00     0.004 C 
ENDBRANCH  28  29
ENDBRANCH  20  28
BRANCH  27  31
ATOM     31  C   UNL     1       7.802  -6.845  -3.350  1.00  0.00     0.251 C 
ATOM     32  N   UNL     1       6.766  -7.738  -3.383  1.00  0.00    -0.365 N 
ATOM     33  O   UNL     1       7.894  -5.969  -4.197  1.00  0.00    -0.269 OA
ATOM     34  H   UNL     1       6.699  -8.440  -2.696  1.00  0.00     0.159 HD
ATOM     35  H   UNL     1       6.087  -7.678  -4.094  1.00  0.00     0.159 HD
ENDBRANCH  27  31
ENDBRANCH  16  19
ENDBRANCH   9  15
ENDBRANCH   6   8
ENDBRANCH   5   6
ENDBRANCH   4   5
ENDBRANCH   3   4
ENDBRANCH   2   3
ENDBRANCH   1   2
BRANCH   1  36
ATOM     36  C   UNL     1       3.447  -7.867   2.463  1.00  0.00     0.188 C 
BRANCH  36  37
ATOM     37  O   UNL     1       2.401  -8.498   3.198  1.00  0.00    -0.376 OA
BRANCH  37  38
ATOM     38  C   UNL     1       2.764  -9.043   4.465  1.00  0.00     0.202 C 
BRANCH  38  39
ATOM     39  C   UNL     1       3.947 -10.017   4.421  1.00  0.00     0.261 C 
BRANCH  39  40
ATOM     40  O   UNL     1       5.190  -9.286   4.535  1.00  0.00    -0.460 OA
BRANCH  40  41
ATOM     41  C   UNL     1       6.271  -9.905   4.016  1.00  0.00     0.338 C 
ATOM     42  O   UNL     1       6.311 -11.011   3.504  1.00  0.00    -0.246 OA
BRANCH  41  43
ATOM     43  C   UNL     1       7.469  -9.046   4.105  1.00  0.00     0.060 A 
ATOM     44  C   UNL     1       7.685  -8.060   3.143  1.00  0.00     0.016 A 
ATOM     45  C   UNL     1       8.488  -9.378   4.995  1.00  0.00     0.016 A 
ATOM     46  C   UNL     1       8.958  -7.493   2.989  1.00  0.00     0.010 A 
ATOM     47  C   UNL     1       9.743  -8.762   4.877  1.00  0.00     0.010 A 
ATOM     48  C   UNL     1      10.020  -7.864   3.828  1.00  0.00    -0.014 A 
BRANCH  48  49
ATOM     49  C   UNL     1      11.435  -7.442   3.556  1.00  0.00     0.031 A 
ATOM     50  C   UNL     1      12.504  -8.495   3.350  1.00  0.00     0.074 A 
ATOM     51  C   UNL     1      11.805  -6.149   3.458  1.00  0.00     0.049 A 
ATOM     52  N   UNL     1      13.810  -8.382   3.369  1.00  0.00    -0.248 NA
ATOM     53  C   UNL     1      12.030  -9.864   3.094  1.00  0.00     0.031 C 
ATOM     54  C   UNL     1      10.909  -4.997   3.518  1.00  0.00     0.029 A 
ATOM     55  N   UNL     1      13.053  -5.589   3.288  1.00  0.00    -0.354 N 
ATOM     56  C   UNL     1      14.310  -9.670   3.207  1.00  0.00     0.074 A 
ATOM     57  C   UNL     1      13.166 -10.547   3.075  1.00  0.00     0.031 C 
ATOM     58  C   UNL     1      11.627  -3.873   3.362  1.00  0.00     0.029 A 
ATOM     59  C   UNL     1      13.046  -4.214   3.290  1.00  0.00     0.049 A 
ATOM     60  H   UNL     1      13.873  -6.123   3.176  1.00  0.00     0.167 HD
ATOM     61  C   UNL     1      15.600 -10.088   3.181  1.00  0.00     0.037 A 
ATOM     62  C   UNL     1      14.060  -3.325   3.294  1.00  0.00     0.037 A 
ATOM     63  C   UNL     1      16.748  -9.218   3.240  1.00  0.00     0.049 A 
ATOM     64  C   UNL     1      15.488  -3.807   3.332  1.00  0.00     0.074 A 
ATOM     65  C   UNL     1      18.091  -9.556   3.224  1.00  0.00     0.029 A 
ATOM     66  N   UNL     1      16.688  -7.835   3.301  1.00  0.00    -0.354 N 
ATOM     67  N   UNL     1      15.953  -5.031   3.294  1.00  0.00    -0.248 NA
ATOM     68  C   UNL     1      16.532  -2.776   3.446  1.00  0.00     0.031 C 
ATOM     69  C   UNL     1      18.844  -8.379   3.309  1.00  0.00     0.029 A 
ATOM     70  C   UNL     1      17.970  -7.306   3.332  1.00  0.00     0.049 A 
ATOM     71  H   UNL     1      15.858  -7.306   3.320  1.00  0.00     0.167 HD
ATOM     72  C   UNL     1      17.336  -4.917   3.365  1.00  0.00     0.074 A 
ATOM     73  C   UNL     1      17.640  -3.504   3.427  1.00  0.00     0.031 C 
ATOM     74  C   UNL     1      18.270  -5.899   3.385  1.00  0.00     0.037 A 
BRANCH  61  75
ATOM     75  C   UNL     1      15.850 -11.568   3.132  1.00  0.00     0.064 A 
ATOM     76  C   UNL     1      15.631 -12.326   1.973  1.00  0.00     0.173 A 
ATOM     77  C   UNL     1      16.356 -12.231   4.263  1.00  0.00     0.173 A 
ATOM     78  F   UNL     1      15.139 -11.743   0.870  1.00  0.00    -0.203 F 
ATOM     79  C   UNL     1      15.879 -13.697   1.957  1.00  0.00     0.198 A 
ATOM     80  C   UNL     1      16.632 -13.595   4.234  1.00  0.00     0.198 A 
ATOM     81  F   UNL     1      16.595 -11.550   5.394  1.00  0.00    -0.203 F 
ATOM     82  F   UNL     1      15.616 -14.411   0.854  1.00  0.00    -0.200 F 
ATOM     83  C   UNL     1      16.385 -14.329   3.084  1.00  0.00     0.200 A 
ATOM     84  F   UNL     1      17.135 -14.199   5.320  1.00  0.00    -0.200 F 
ATOM     85  F   UNL     1      16.628 -15.646   3.065  1.00  0.00    -0.200 F 
ENDBRANCH  61  75
BRANCH  62  86
ATOM     86  C   UNL     1      13.768  -1.866   3.323  1.00  0.00     0.064 A 
ATOM     87  C   UNL     1      14.089  -1.045   2.233  1.00  0.00     0.173 A 
ATOM     88  C   UNL     1      13.186  -1.260   4.447  1.00  0.00     0.173 A 
ATOM     89  F   UNL     1      14.684  -1.571   1.152  1.00  0.00    -0.203 F 
ATOM     90  C   UNL     1      13.845   0.326   2.268  1.00  0.00     0.198 A 
ATOM     91  C   UNL     1      12.912   0.106   4.468  1.00  0.00     0.198 A 
ATOM     92  F   UNL     1      12.874  -1.997   5.522  1.00  0.00    -0.203 F 
ATOM     93  F   UNL     1      14.207   1.096   1.232  1.00  0.00    -0.200 F 
ATOM     94  C   UNL     1      13.248   0.899   3.381  1.00  0.00     0.200 A 
ATOM     95  F   UNL     1      12.328   0.653   5.542  1.00  0.00    -0.200 F 
ATOM     96  F   UNL     1      13.008   2.217   3.412  1.00  0.00    -0.200 F 
ENDBRANCH  62  86
BRANCH  74  97
ATOM     97  C   UNL     1      19.712  -5.484   3.437  1.00  0.00     0.064 A 
ATOM     98  C   UNL     1      20.288  -4.968   4.607  1.00  0.00     0.173 A 
ATOM     99  C   UNL     1      20.537  -5.631   2.311  1.00  0.00     0.173 A 
ATOM    100  F   UNL     1      19.540  -4.793   5.707  1.00  0.00    -0.203 F 
ATOM    101  C   UNL     1      21.629  -4.591   4.641  1.00  0.00     0.198 A 
ATOM    102  C   UNL     1      21.883  -5.277   2.355  1.00  0.00     0.198 A 
ATOM    103  F   UNL     1      20.037  -6.125   1.168  1.00  0.00    -0.203 F 
ATOM    104  F   UNL     1      22.146  -4.058   5.756  1.00  0.00    -0.200 F 
ATOM    105  C   UNL     1      22.426  -4.751   3.517  1.00  0.00     0.200 A 
ATOM    106  F   UNL     1      22.654  -5.442   1.271  1.00  0.00    -0.200 F 
ATOM    107  F   UNL     1      23.716  -4.390   3.551  1.00  0.00    -0.200 F 
ENDBRANCH  74  97
ENDBRANCH  48  49
ENDBRANCH  41  43
ENDBRANCH  40  41
ENDBRANCH  39  40
ENDBRANCH  38  39
ENDBRANCH  37  38
ENDBRANCH  36  37
ENDBRANCH   1  36
TORSDOF 22
