REMARK SMILES O=C(OCCOCCOCCOC(=O)c1nnn(-c2cccc(Br)c2)c1[C@@H]1COc2ccccc2O1)c1ccc(-c2c3nc(c(-c4c(F)c(F)c(F)c(F)c4F)c4ccc([nH]4)c(-c4c(F)c(F)c(F)c(F)c4F)c4nc(c(-c5c(F)c(F)c(F)c(F)c5F)c5ccc2[nH]5)C=C4)C=C3)cc1
REMARK SMILES IDX 7 1 6 2 5 3 4 4 3 5 2 6 1 7 37 8 38 9 99 10 39 11 98 12
REMARK SMILES IDX 40 13 41 14 42 15 92 16 43 17 97 18 91 19 93 20 44 21 96 22
REMARK SMILES IDX 90 23 89 24 45 26 77 27 57 28 76 29 58 30 61 31 75 32 94 33
REMARK SMILES IDX 59 34 60 35 74 37 95 38 62 39 46 40 47 41 55 42 48 43 49 44
REMARK SMILES IDX 53 45 56 46 50 47 51 48 54 49 52 50 78 51 79 52 87 53 80 54
REMARK SMILES IDX 81 55 85 56 88 57 82 58 83 59 86 60 84 61 63 62 64 63 72 64
REMARK SMILES IDX 65 65 66 66 70 67 73 68 67 69 68 70 71 71 69 72 8 73 9 74
REMARK SMILES IDX 10 75 11 76 12 77 13 78 14 79 15 80 16 81 26 82 17 83 18 84
REMARK SMILES IDX 27 85 28 86 36 87 29 88 35 89 30 90 34 91 31 92 33 93 32 94
REMARK SMILES IDX 19 95 20 96 25 97 21 98 23 99 22 100 24 101
REMARK H PARENT 93 25 61 36
REMARK Flexibility Score: inf
ROOT
ATOM      1  C   UNL     1       3.382   1.099   1.109  1.00  0.00     0.188 C 
ENDROOT
BRANCH   1   2
ATOM      2  O   UNL     1       4.655   1.371   0.539  1.00  0.00    -0.376 OA
BRANCH   2   3
ATOM      3  C   UNL     1       5.198   0.313  -0.233  1.00  0.00     0.202 C 
BRANCH   3   4
ATOM      4  C   UNL     1       4.727   0.338  -1.687  1.00  0.00     0.261 C 
BRANCH   4   5
ATOM      5  O   UNL     1       3.312   0.536  -1.871  1.00  0.00    -0.460 OA
BRANCH   5   6
ATOM      6  C   UNL     1       2.343  -0.397  -1.940  1.00  0.00     0.338 C 
ATOM      7  O   UNL     1       1.335  -0.219  -2.616  1.00  0.00    -0.246 OA
BRANCH   6   8
ATOM      8  C   UNL     1       2.357  -1.538  -1.000  1.00  0.00     0.060 A 
ATOM      9  C   UNL     1       3.427  -2.425  -0.889  1.00  0.00     0.016 A 
ATOM     10  C   UNL     1       1.170  -1.776  -0.284  1.00  0.00     0.016 A 
ATOM     11  C   UNL     1       3.302  -3.564  -0.102  1.00  0.00     0.010 A 
ATOM     12  C   UNL     1       1.035  -2.924   0.489  1.00  0.00     0.010 A 
ATOM     13  C   UNL     1       2.083  -3.847   0.520  1.00  0.00    -0.014 A 
BRANCH  13  14
ATOM     14  C   UNL     1       1.877  -5.229   0.952  1.00  0.00     0.031 A 
ATOM     15  C   UNL     1       2.525  -5.726   2.197  1.00  0.00     0.074 A 
ATOM     16  C   UNL     1       1.080  -6.035   0.220  1.00  0.00     0.049 A 
ATOM     17  N   UNL     1       3.238  -6.800   2.356  1.00  0.00    -0.248 NA
ATOM     18  C   UNL     1       2.343  -4.942   3.426  1.00  0.00     0.031 C 
ATOM     19  C   UNL     1       0.188  -5.644  -0.879  1.00  0.00     0.029 A 
ATOM     20  N   UNL     1       0.822  -7.366   0.374  1.00  0.00    -0.354 N 
ATOM     21  C   UNL     1       3.463  -6.918   3.727  1.00  0.00     0.074 A 
ATOM     22  C   UNL     1       2.943  -5.717   4.332  1.00  0.00     0.031 C 
ATOM     23  C   UNL     1      -0.663  -6.656  -1.140  1.00  0.00     0.029 A 
ATOM     24  C   UNL     1      -0.294  -7.796  -0.321  1.00  0.00     0.049 A 
ATOM     25  H   UNL     1       1.377  -7.963   0.926  1.00  0.00     0.167 HD
ATOM     26  C   UNL     1       3.912  -8.069   4.301  1.00  0.00     0.037 A 
ATOM     27  C   UNL     1      -0.939  -8.975  -0.180  1.00  0.00     0.037 A 
ATOM     28  C   UNL     1       4.616  -8.909   3.375  1.00  0.00     0.049 A 
ATOM     29  C   UNL     1      -0.012  -9.945   0.440  1.00  0.00     0.074 A 
ATOM     30  C   UNL     1       5.760  -8.776   2.612  1.00  0.00     0.029 A 
ATOM     31  N   UNL     1       4.026 -10.066   2.937  1.00  0.00    -0.354 N 
ATOM     32  N   UNL     1       1.034 -10.451  -0.150  1.00  0.00    -0.248 NA
ATOM     33  C   UNL     1      -0.053 -10.107   1.886  1.00  0.00     0.031 C 
ATOM     34  C   UNL     1       5.545  -9.586   1.459  1.00  0.00     0.029 A 
ATOM     35  C   UNL     1       4.277 -10.152   1.593  1.00  0.00     0.049 A 
ATOM     36  H   UNL     1       3.519 -10.710   3.483  1.00  0.00     0.167 HD
ATOM     37  C   UNL     1       1.958 -10.635   0.866  1.00  0.00     0.074 A 
ATOM     38  C   UNL     1       1.192 -10.534   2.101  1.00  0.00     0.031 C 
ATOM     39  C   UNL     1       3.299 -10.573   0.620  1.00  0.00     0.037 A 
BRANCH  26  40
ATOM     40  C   UNL     1       3.479  -8.559   5.661  1.00  0.00     0.064 A 
ATOM     41  C   UNL     1       4.163  -9.623   6.283  1.00  0.00     0.173 A 
ATOM     42  C   UNL     1       2.239  -8.211   6.239  1.00  0.00     0.173 A 
ATOM     43  F   UNL     1       5.331 -10.064   5.792  1.00  0.00    -0.203 F 
ATOM     44  C   UNL     1       3.622 -10.316   7.371  1.00  0.00     0.198 A 
ATOM     45  C   UNL     1       1.726  -8.872   7.355  1.00  0.00     0.198 A 
ATOM     46  F   UNL     1       1.437  -7.294   5.683  1.00  0.00    -0.203 F 
ATOM     47  F   UNL     1       4.257 -11.391   7.859  1.00  0.00    -0.200 F 
ATOM     48  C   UNL     1       2.403  -9.941   7.905  1.00  0.00     0.200 A 
ATOM     49  F   UNL     1       0.532  -8.510   7.846  1.00  0.00    -0.200 F 
ATOM     50  F   UNL     1       1.859 -10.636   8.913  1.00  0.00    -0.200 F 
ENDBRANCH  26  40
BRANCH  27  51
ATOM     51  C   UNL     1      -2.397  -9.190  -0.297  1.00  0.00     0.064 A 
ATOM     52  C   UNL     1      -2.935 -10.459  -0.548  1.00  0.00     0.173 A 
ATOM     53  C   UNL     1      -3.312  -8.176   0.057  1.00  0.00     0.173 A 
ATOM     54  F   UNL     1      -2.126 -11.490  -0.829  1.00  0.00    -0.203 F 
ATOM     55  C   UNL     1      -4.310 -10.697  -0.458  1.00  0.00     0.198 A 
ATOM     56  C   UNL     1      -4.683  -8.409   0.129  1.00  0.00     0.198 A 
ATOM     57  F   UNL     1      -2.884  -6.959   0.424  1.00  0.00    -0.203 F 
ATOM     58  F   UNL     1      -4.787 -11.933  -0.656  1.00  0.00    -0.200 F 
ATOM     59  C   UNL     1      -5.182  -9.673  -0.120  1.00  0.00     0.200 A 
ATOM     60  F   UNL     1      -5.508  -7.418   0.493  1.00  0.00    -0.200 F 
ATOM     61  F   UNL     1      -6.494  -9.911   0.004  1.00  0.00    -0.200 F 
ENDBRANCH  27  51
BRANCH  39  62
ATOM     62  C   UNL     1       3.744 -10.614  -0.811  1.00  0.00     0.064 A 
ATOM     63  C   UNL     1       3.468  -9.585  -1.728  1.00  0.00     0.173 A 
ATOM     64  C   UNL     1       4.597 -11.644  -1.229  1.00  0.00     0.173 A 
ATOM     65  F   UNL     1       2.752  -8.514  -1.361  1.00  0.00    -0.203 F 
ATOM     66  C   UNL     1       3.983  -9.615  -3.021  1.00  0.00     0.198 A 
ATOM     67  C   UNL     1       5.137 -11.654  -2.513  1.00  0.00     0.198 A 
ATOM     68  F   UNL     1       4.950 -12.615  -0.372  1.00  0.00    -0.203 F 
ATOM     69  F   UNL     1       3.700  -8.624  -3.880  1.00  0.00    -0.200 F 
ATOM     70  C   UNL     1       4.821 -10.647  -3.411  1.00  0.00     0.200 A 
ATOM     71  F   UNL     1       5.991 -12.624  -2.870  1.00  0.00    -0.200 F 
ATOM     72  F   UNL     1       5.351 -10.653  -4.642  1.00  0.00    -0.200 F 
ENDBRANCH  39  62
ENDBRANCH  13  14
ENDBRANCH   6   8
ENDBRANCH   5   6
ENDBRANCH   4   5
ENDBRANCH   3   4
ENDBRANCH   2   3
ENDBRANCH   1   2
BRANCH   1  73
ATOM     73  C   UNL     1       2.218   2.010   0.654  1.00  0.00     0.188 C 
BRANCH  73  74
ATOM     74  O   UNL     1       2.429   3.168  -0.144  1.00  0.00    -0.376 OA
BRANCH  74  75
ATOM     75  C   UNL     1       3.616   3.925   0.004  1.00  0.00     0.202 C 
BRANCH  75  76
ATOM     76  C   UNL     1       3.866   4.560   1.368  1.00  0.00     0.261 C 
BRANCH  76  77
ATOM     77  O   UNL     1       3.760   3.638   2.460  1.00  0.00    -0.458 OA
BRANCH  77  78
ATOM     78  C   UNL     1       2.789   3.884   3.375  1.00  0.00     0.361 C 
ATOM     79  O   UNL     1       2.009   4.840   3.355  1.00  0.00    -0.244 OA
BRANCH  78  80
ATOM     80  C   UNL     1       2.748   2.890   4.426  1.00  0.00     0.198 A 
ATOM     81  N   UNL     1       2.059   1.704   4.309  1.00  0.00    -0.122 NA
ATOM     82  C   UNL     1       3.374   2.926   5.660  1.00  0.00     0.123 A 
ATOM     83  N   UNL     1       2.228   1.012   5.428  1.00  0.00    -0.061 NA
ATOM     84  N   UNL     1       2.866   1.814   6.308  1.00  0.00    -0.213 N 
BRANCH  82  85
ATOM     85  C   UNL     1       4.462   3.771   6.234  1.00  0.00     0.262 C 
ATOM     86  C   UNL     1       4.337   5.281   6.050  1.00  0.00     0.281 C 
ATOM     87  O   UNL     1       5.692   3.206   5.771  1.00  0.00    -0.477 OA
ATOM     88  O   UNL     1       4.731   5.757   4.767  1.00  0.00    -0.485 OA
ATOM     89  C   UNL     1       6.307   3.909   4.777  1.00  0.00     0.162 A 
ATOM     90  C   UNL     1       5.871   5.150   4.320  1.00  0.00     0.161 A 
ATOM     91  C   UNL     1       7.422   3.306   4.194  1.00  0.00     0.050 A 
ATOM     92  C   UNL     1       6.562   5.800   3.299  1.00  0.00     0.050 A 
ATOM     93  C   UNL     1       8.102   3.947   3.158  1.00  0.00     0.004 A 
ATOM     94  C   UNL     1       7.677   5.198   2.715  1.00  0.00     0.004 A 
ENDBRANCH  82  85
BRANCH  84  95
ATOM     95  C   UNL     1       2.913   1.514   7.685  1.00  0.00     0.068 A 
ATOM     96  C   UNL     1       2.628   2.525   8.616  1.00  0.00     0.028 A 
ATOM     97  C   UNL     1       3.287   0.237   8.109  1.00  0.00     0.044 A 
ATOM     98  C   UNL     1       2.783   2.279   9.977  1.00  0.00     0.003 A 
ATOM     99  C   UNL     1       3.472   0.016   9.475  1.00  0.00     0.020 A 
ATOM    100  C   UNL     1       3.229   1.030  10.406  1.00  0.00     0.016 A 
ATOM    101  Br  UNL     1       4.113  -1.659  10.074  1.00  0.00    -0.051 Br
ENDBRANCH  84  95
ENDBRANCH  78  80
ENDBRANCH  77  78
ENDBRANCH  76  77
ENDBRANCH  75  76
ENDBRANCH  74  75
ENDBRANCH  73  74
ENDBRANCH   1  73
TORSDOF 19
