REMARK SMILES N#Cc1ccc(C[N@H+]2CCCC[C@H]2C(=O)OCCOCCOCCOC(=O)c2ccc(-c3c4nc(c(-c5c(F)c(F)c(F)c(F)c5F)c5ccc([nH]5)c(-c5c(F)c(F)c(F)c(F)c5F)c5nc(c(-c6c(F)c(F)c(F)c(F)c6F)c6ccc3[nH]6)C=C5)C=C4)cc2)c(F)c1
REMARK SMILES IDX 20 1 19 2 18 3 17 4 16 5 14 6 15 7 13 8 8 9 9 10 10 12 12 13
REMARK SMILES IDX 11 14 7 15 6 16 3 17 4 18 93 19 5 20 91 21 92 22 2 23 1 24
REMARK SMILES IDX 21 25 22 26 23 27 24 28 25 29 26 30 27 31 28 32 29 33 90 34
REMARK SMILES IDX 30 35 89 36 31 37 32 38 33 39 83 40 34 41 88 42 82 43 84 44
REMARK SMILES IDX 35 45 87 46 81 47 80 48 36 50 68 51 48 52 67 53 49 54 52 55
REMARK SMILES IDX 66 56 85 57 50 58 51 59 65 61 86 62 53 63 37 64 38 65 46 66
REMARK SMILES IDX 39 67 40 68 44 69 47 70 41 71 42 72 45 73 43 74 69 75 70 76
REMARK SMILES IDX 78 77 71 78 72 79 76 80 79 81 73 82 74 83 77 84 75 85 54 86
REMARK SMILES IDX 55 87 63 88 56 89 57 90 61 91 64 92 58 93 59 94 62 95 60 96
REMARK H PARENT 8 11 84 49 52 60
REMARK Flexibility Score: inf
ROOT
ATOM      1  C   UNL     1       0.411  -0.732   3.290  1.00  0.00     0.188 C 
ENDROOT
BRANCH   1   2
ATOM      2  O   UNL     1      -0.488  -1.779   3.031  1.00  0.00    -0.376 OA
BRANCH   2   3
ATOM      3  C   UNL     1      -0.365  -2.573   1.868  1.00  0.00     0.202 C 
BRANCH   3   4
ATOM      4  C   UNL     1       0.921  -3.240   1.267  1.00  0.00     0.261 C 
BRANCH   4   5
ATOM      5  O   UNL     1       2.276  -2.746   1.397  1.00  0.00    -0.459 OA
BRANCH   5   6
ATOM      6  C   UNL     1       2.444  -1.487   0.940  1.00  0.00     0.364 C 
ATOM      7  O   UNL     1       1.452  -0.820   0.707  1.00  0.00    -0.245 OA
BRANCH   6   8
ATOM      8  C   UNL     1       3.895  -0.988   0.727  1.00  0.00     0.295 C 
ATOM      9  N   UNL     1       4.006   0.500   0.640  1.00  0.00    -0.319 N 
ATOM     10  C   UNL     1       3.897   1.192   1.916  1.00  0.00     0.263 C 
ATOM     11  H   UNL     1       4.989   0.580   0.382  1.00  0.00     0.349 HD
ATOM     12  C   UNL     1       5.026   0.751   2.855  1.00  0.00     0.062 C 
ATOM     13  C   UNL     1       4.940  -1.532   1.735  1.00  0.00     0.078 C 
ATOM     14  C   UNL     1       5.104  -0.756   3.047  1.00  0.00     0.013 C 
BRANCH   9  15
ATOM     15  C   UNL     1       3.469   1.209  -0.544  1.00  0.00     0.302 C 
BRANCH  15  16
ATOM     16  C   UNL     1       1.976   1.200  -0.815  1.00  0.00     0.042 A 
ATOM     17  C   UNL     1      -0.792   0.665  -0.834  1.00  0.00     0.055 A 
ATOM     18  C   UNL     1      -0.292   1.764  -0.122  1.00  0.00     0.020 A 
ATOM     19  C   UNL     1       0.062  -0.074  -1.654  1.00  0.00     0.059 A 
ATOM     20  C   UNL     1       1.087   2.033  -0.111  1.00  0.00     0.014 A 
ATOM     21  C   UNL     1       1.430   0.213  -1.656  1.00  0.00     0.133 A 
ATOM     22  F   UNL     1       2.248  -0.623  -2.314  1.00  0.00    -0.206 F 
BRANCH  17  23
ATOM     23  C   UNL     1      -2.144   0.219  -0.622  1.00  0.00     0.099 C 
ATOM     24  N   UNL     1      -3.211  -0.175  -0.421  1.00  0.00    -0.192 NA
ENDBRANCH  17  23
ENDBRANCH  15  16
ENDBRANCH   9  15
ENDBRANCH   6   8
ENDBRANCH   5   6
ENDBRANCH   4   5
ENDBRANCH   3   4
ENDBRANCH   2   3
ENDBRANCH   1   2
BRANCH   1  25
ATOM     25  C   UNL     1       1.702  -1.252   3.911  1.00  0.00     0.188 C 
BRANCH  25  26
ATOM     26  O   UNL     1       1.756  -2.564   4.432  1.00  0.00    -0.376 OA
BRANCH  26  27
ATOM     27  C   UNL     1       0.691  -2.973   5.272  1.00  0.00     0.202 C 
BRANCH  27  28
ATOM     28  C   UNL     1       0.130  -2.036   6.370  1.00  0.00     0.261 C 
BRANCH  28  29
ATOM     29  O   UNL     1       0.206  -0.607   6.166  1.00  0.00    -0.460 OA
BRANCH  29  30
ATOM     30  C   UNL     1       1.205   0.054   6.805  1.00  0.00     0.338 C 
ATOM     31  O   UNL     1       2.020  -0.424   7.575  1.00  0.00    -0.246 OA
BRANCH  30  32
ATOM     32  C   UNL     1       1.325   1.448   6.293  1.00  0.00     0.060 A 
ATOM     33  C   UNL     1       2.394   1.766   5.441  1.00  0.00     0.016 A 
ATOM     34  C   UNL     1       0.495   2.469   6.750  1.00  0.00     0.016 A 
ATOM     35  C   UNL     1       2.638   3.078   5.034  1.00  0.00     0.010 A 
ATOM     36  C   UNL     1       0.762   3.798   6.372  1.00  0.00     0.010 A 
ATOM     37  C   UNL     1       1.850   4.115   5.531  1.00  0.00    -0.014 A 
BRANCH  37  38
ATOM     38  C   UNL     1       2.293   5.524   5.343  1.00  0.00     0.031 A 
ATOM     39  C   UNL     1       2.878   6.258   6.520  1.00  0.00     0.074 A 
ATOM     40  C   UNL     1       2.251   6.136   4.145  1.00  0.00     0.049 A 
ATOM     41  N   UNL     1       3.186   7.523   6.653  1.00  0.00    -0.248 NA
ATOM     42  C   UNL     1       3.154   5.442   7.711  1.00  0.00     0.031 C 
ATOM     43  C   UNL     1       1.849   5.511   2.887  1.00  0.00     0.029 A 
ATOM     44  N   UNL     1       2.550   7.431   3.796  1.00  0.00    -0.354 N 
ATOM     45  C   UNL     1       3.641   7.664   7.958  1.00  0.00     0.074 A 
ATOM     46  C   UNL     1       3.557   6.358   8.576  1.00  0.00     0.031 C 
ATOM     47  C   UNL     1       1.918   6.426   1.905  1.00  0.00     0.029 A 
ATOM     48  C   UNL     1       2.300   7.717   2.476  1.00  0.00     0.049 A 
ATOM     49  H   UNL     1       2.909   8.092   4.432  1.00  0.00     0.167 HD
ATOM     50  C   UNL     1       4.083   8.782   8.586  1.00  0.00     0.037 A 
ATOM     51  C   UNL     1       2.332   8.893   1.817  1.00  0.00     0.037 A 
ATOM     52  C   UNL     1       4.175  10.076   7.959  1.00  0.00     0.049 A 
ATOM     53  C   UNL     1       2.690  10.153   2.567  1.00  0.00     0.074 A 
ATOM     54  C   UNL     1       4.601  11.274   8.505  1.00  0.00     0.029 A 
ATOM     55  N   UNL     1       3.826  10.342   6.642  1.00  0.00    -0.354 N 
ATOM     56  N   UNL     1       3.068  10.299   3.813  1.00  0.00    -0.248 NA
ATOM     57  C   UNL     1       2.612  11.414   1.815  1.00  0.00     0.031 C 
ATOM     58  C   UNL     1       4.433  12.278   7.546  1.00  0.00     0.029 A 
ATOM     59  C   UNL     1       3.987  11.693   6.371  1.00  0.00     0.049 A 
ATOM     60  H   UNL     1       3.511   9.671   5.995  1.00  0.00     0.167 HD
ATOM     61  C   UNL     1       3.312  11.658   3.985  1.00  0.00     0.074 A 
ATOM     62  C   UNL     1       3.044  12.291   2.710  1.00  0.00     0.031 C 
ATOM     63  C   UNL     1       3.725  12.318   5.096  1.00  0.00     0.037 A 
BRANCH  50  64
ATOM     64  C   UNL     1       4.412   8.661  10.050  1.00  0.00     0.064 A 
ATOM     65  C   UNL     1       5.481   7.883  10.522  1.00  0.00     0.173 A 
ATOM     66  C   UNL     1       3.611   9.311  11.004  1.00  0.00     0.173 A 
ATOM     67  F   UNL     1       6.275   7.232   9.658  1.00  0.00    -0.203 F 
ATOM     68  C   UNL     1       5.692   7.706  11.888  1.00  0.00     0.198 A 
ATOM     69  C   UNL     1       3.854   9.170  12.367  1.00  0.00     0.198 A 
ATOM     70  F   UNL     1       2.582  10.079  10.615  1.00  0.00    -0.203 F 
ATOM     71  F   UNL     1       6.660   6.881  12.312  1.00  0.00    -0.200 F 
ATOM     72  C   UNL     1       4.881   8.350  12.809  1.00  0.00     0.200 A 
ATOM     73  F   UNL     1       3.081   9.811  13.254  1.00  0.00    -0.200 F 
ATOM     74  F   UNL     1       5.077   8.169  14.122  1.00  0.00    -0.200 F 
ENDBRANCH  50  64
BRANCH  51  75
ATOM     75  C   UNL     1       1.993   8.946   0.369  1.00  0.00     0.064 A 
ATOM     76  C   UNL     1       2.963   9.291  -0.583  1.00  0.00     0.173 A 
ATOM     77  C   UNL     1       0.698   8.666  -0.095  1.00  0.00     0.173 A 
ATOM     78  F   UNL     1       4.207   9.599  -0.188  1.00  0.00    -0.203 F 
ATOM     79  C   UNL     1       2.651   9.361  -1.939  1.00  0.00     0.198 A 
ATOM     80  C   UNL     1       0.395   8.704  -1.455  1.00  0.00     0.198 A 
ATOM     81  F   UNL     1      -0.271   8.339   0.772  1.00  0.00    -0.203 F 
ATOM     82  F   UNL     1       3.588   9.734  -2.821  1.00  0.00    -0.200 F 
ATOM     83  C   UNL     1       1.370   9.058  -2.375  1.00  0.00     0.200 A 
ATOM     84  F   UNL     1      -0.840   8.396  -1.873  1.00  0.00    -0.200 F 
ATOM     85  F   UNL     1       1.074   9.111  -3.681  1.00  0.00    -0.200 F 
ENDBRANCH  51  75
BRANCH  63  86
ATOM     86  C   UNL     1       3.974  13.798   4.977  1.00  0.00     0.064 A 
ATOM     87  C   UNL     1       2.932  14.718   4.786  1.00  0.00     0.173 A 
ATOM     88  C   UNL     1       5.278  14.306   5.099  1.00  0.00     0.173 A 
ATOM     89  F   UNL     1       1.668  14.289   4.649  1.00  0.00    -0.203 F 
ATOM     90  C   UNL     1       3.190  16.084   4.689  1.00  0.00     0.198 A 
ATOM     91  C   UNL     1       5.526  15.675   5.043  1.00  0.00     0.198 A 
ATOM     92  F   UNL     1       6.313  13.475   5.291  1.00  0.00    -0.203 F 
ATOM     93  F   UNL     1       2.185  16.938   4.447  1.00  0.00    -0.200 F 
ATOM     94  C   UNL     1       4.484  16.562   4.827  1.00  0.00     0.200 A 
ATOM     95  F   UNL     1       6.776  16.134   5.198  1.00  0.00    -0.200 F 
ATOM     96  F   UNL     1       4.728  17.877   4.745  1.00  0.00    -0.200 F 
ENDBRANCH  63  86
ENDBRANCH  37  38
ENDBRANCH  30  32
ENDBRANCH  29  30
ENDBRANCH  28  29
ENDBRANCH  27  28
ENDBRANCH  26  27
ENDBRANCH  25  26
ENDBRANCH   1  25
TORSDOF 20
