REMARK SMILES C[C@H](NC(=O)N(C)C)c1ccc(/C=C/C(=O)OCCOCCOCCOC(=O)c2ccc(-c3c4nc(c(-c5c(F)c(F)c(F)c(F)c5F)c5ccc([nH]5)c(-c5c(F)c(F)c(F)c(F)c5F)c5nc(c(-c6c(F)c(F)c(F)c(F)c6F)c6ccc3[nH]6)C=C5)C=C4)cc2)cc1
REMARK SMILES IDX 21 1 20 2 19 3 18 4 17 5 15 6 16 7 14 8 13 9 12 10 9 11
REMARK SMILES IDX 10 12 93 13 11 14 92 15 2 16 1 17 3 18 4 19 5 21 6 22 7 23
REMARK SMILES IDX 8 24 22 25 23 26 24 27 25 28 26 29 27 30 28 31 29 32 30 33
REMARK SMILES IDX 91 34 31 35 90 36 32 37 33 38 34 39 84 40 35 41 89 42 83 43
REMARK SMILES IDX 85 44 36 45 88 46 82 47 81 48 37 50 69 51 49 52 68 53 50 54
REMARK SMILES IDX 53 55 67 56 86 57 51 58 52 59 66 61 87 62 54 63 38 64 39 65
REMARK SMILES IDX 47 66 40 67 41 68 45 69 48 70 42 71 43 72 46 73 44 74 70 75
REMARK SMILES IDX 71 76 79 77 72 78 73 79 77 80 80 81 74 82 75 83 78 84 76 85
REMARK SMILES IDX 55 86 56 87 64 88 57 89 58 90 62 91 65 92 59 93 60 94 63 95
REMARK SMILES IDX 61 96
REMARK H PARENT 3 20 85 49 53 60
REMARK Flexibility Score: inf
ROOT
ATOM      1  C   UNL     1      -8.453   3.020   2.717  1.00  0.00     0.188 C 
ENDROOT
BRANCH   1   2
ATOM      2  O   UNL     1      -9.854   2.948   2.517  1.00  0.00    -0.376 OA
BRANCH   2   3
ATOM      3  C   UNL     1     -10.426   1.860   1.802  1.00  0.00     0.202 C 
BRANCH   3   4
ATOM      4  C   UNL     1      -9.728   1.128   0.635  1.00  0.00     0.261 C 
BRANCH   4   5
ATOM      5  O   UNL     1      -8.305   0.959   0.715  1.00  0.00    -0.460 OA
BRANCH   5   6
ATOM      6  C   UNL     1      -7.593   1.676  -0.183  1.00  0.00     0.330 C 
ATOM      7  O   UNL     1      -8.049   2.436  -1.026  1.00  0.00    -0.247 OA
BRANCH   6   8
ATOM      8  C   UNL     1      -6.135   1.594   0.037  1.00  0.00     0.094 C 
ATOM      9  C   UNL     1      -5.441   0.705   0.768  1.00  0.00     0.015 C 
BRANCH   9  10
ATOM     10  C   UNL     1      -3.979   0.837   0.937  1.00  0.00    -0.025 A 
ATOM     11  C   UNL     1      -1.143   1.130   1.150  1.00  0.00    -0.026 A 
ATOM     12  C   UNL     1      -1.990   2.243   1.053  1.00  0.00     0.006 A 
ATOM     13  C   UNL     1      -1.756  -0.138   1.181  1.00  0.00     0.006 A 
ATOM     14  C   UNL     1      -3.378   2.100   0.984  1.00  0.00     0.008 A 
ATOM     15  C   UNL     1      -3.154  -0.283   1.073  1.00  0.00     0.008 A 
BRANCH  11  16
ATOM     16  C   UNL     1       0.388   1.275   1.259  1.00  0.00     0.111 C 
ATOM     17  C   UNL     1       0.808   2.702   1.598  1.00  0.00     0.036 C 
BRANCH  16  18
ATOM     18  N   UNL     1       1.034   0.607   0.116  1.00  0.00    -0.331 N 
ATOM     19  C   UNL     1       1.820   0.837  -0.944  1.00  0.00     0.317 C 
ATOM     20  H   UNL     1       0.807  -0.350   0.139  1.00  0.00     0.165 HD
ATOM     21  O   UNL     1       1.748  -0.022  -1.831  1.00  0.00    -0.249 OA
ATOM     22  N   UNL     1       2.659   1.900  -1.073  1.00  0.00    -0.331 N 
ATOM     23  C   UNL     1       3.363   2.561   0.003  1.00  0.00     0.148 C 
ATOM     24  C   UNL     1       3.208   2.156  -2.398  1.00  0.00     0.148 C 
ENDBRANCH  16  18
ENDBRANCH  11  16
ENDBRANCH   9  10
ENDBRANCH   6   8
ENDBRANCH   5   6
ENDBRANCH   4   5
ENDBRANCH   3   4
ENDBRANCH   2   3
ENDBRANCH   1   2
BRANCH   1  25
ATOM     25  C   UNL     1      -7.744   1.867   3.450  1.00  0.00     0.188 C 
BRANCH  25  26
ATOM     26  O   UNL     1      -8.521   0.696   3.541  1.00  0.00    -0.376 OA
BRANCH  26  27
ATOM     27  C   UNL     1      -9.223   0.427   4.744  1.00  0.00     0.202 C 
BRANCH  27  28
ATOM     28  C   UNL     1      -9.777   1.508   5.700  1.00  0.00     0.261 C 
BRANCH  28  29
ATOM     29  O   UNL     1      -9.258   2.840   5.611  1.00  0.00    -0.460 OA
BRANCH  29  30
ATOM     30  C   UNL     1      -8.229   3.160   6.423  1.00  0.00     0.338 C 
ATOM     31  O   UNL     1      -7.637   2.421   7.201  1.00  0.00    -0.246 OA
BRANCH  30  32
ATOM     32  C   UNL     1      -7.804   4.535   6.105  1.00  0.00     0.060 A 
ATOM     33  C   UNL     1      -6.565   4.739   5.483  1.00  0.00     0.016 A 
ATOM     34  C   UNL     1      -8.620   5.621   6.431  1.00  0.00     0.016 A 
ATOM     35  C   UNL     1      -6.132   6.035   5.196  1.00  0.00     0.010 A 
ATOM     36  C   UNL     1      -8.175   6.919   6.160  1.00  0.00     0.010 A 
ATOM     37  C   UNL     1      -6.919   7.135   5.564  1.00  0.00    -0.014 A 
BRANCH  37  38
ATOM     38  C   UNL     1      -6.364   8.508   5.473  1.00  0.00     0.031 A 
ATOM     39  C   UNL     1      -5.816   9.150   6.718  1.00  0.00     0.074 A 
ATOM     40  C   UNL     1      -6.336   9.175   4.306  1.00  0.00     0.049 A 
ATOM     41  N   UNL     1      -5.334  10.354   6.893  1.00  0.00    -0.248 NA
ATOM     42  C   UNL     1      -5.815   8.319   7.931  1.00  0.00     0.031 C 
ATOM     43  C   UNL     1      -6.799   8.653   3.023  1.00  0.00     0.029 A 
ATOM     44  N   UNL     1      -5.905  10.448   4.017  1.00  0.00    -0.354 N 
ATOM     45  C   UNL     1      -4.981  10.427   8.234  1.00  0.00     0.074 A 
ATOM     46  C   UNL     1      -5.334   9.159   8.835  1.00  0.00     0.031 C 
ATOM     47  C   UNL     1      -6.641   9.603   2.084  1.00  0.00     0.029 A 
ATOM     48  C   UNL     1      -6.100  10.810   2.707  1.00  0.00     0.049 A 
ATOM     49  H   UNL     1      -5.496  11.043   4.686  1.00  0.00     0.167 HD
ATOM     50  C   UNL     1      -4.407  11.456   8.903  1.00  0.00     0.037 A 
ATOM     51  C   UNL     1      -5.889  11.990   2.091  1.00  0.00     0.037 A 
ATOM     52  C   UNL     1      -4.063  12.720   8.306  1.00  0.00     0.049 A 
ATOM     53  C   UNL     1      -5.328  13.149   2.877  1.00  0.00     0.074 A 
ATOM     54  C   UNL     1      -3.458  13.816   8.896  1.00  0.00     0.029 A 
ATOM     55  N   UNL     1      -4.307  13.062   6.984  1.00  0.00    -0.354 N 
ATOM     56  N   UNL     1      -4.963  13.201   4.135  1.00  0.00    -0.248 NA
ATOM     57  C   UNL     1      -5.146  14.416   2.152  1.00  0.00     0.031 C 
ATOM     58  C   UNL     1      -3.394  14.843   7.949  1.00  0.00     0.029 A 
ATOM     59  C   UNL     1      -3.895  14.365   6.749  1.00  0.00     0.049 A 
ATOM     60  H   UNL     1      -4.713  12.468   6.312  1.00  0.00     0.167 HD
ATOM     61  C   UNL     1      -4.482  14.489   4.344  1.00  0.00     0.074 A 
ATOM     62  C   UNL     1      -4.586  15.182   3.078  1.00  0.00     0.031 C 
ATOM     63  C   UNL     1      -3.997  15.045   5.482  1.00  0.00     0.037 A 
BRANCH  50  64
ATOM     64  C   UNL     1      -4.145  11.268  10.370  1.00  0.00     0.064 A 
ATOM     65  C   UNL     1      -3.163  10.382  10.839  1.00  0.00     0.173 A 
ATOM     66  C   UNL     1      -4.868  12.006  11.319  1.00  0.00     0.173 A 
ATOM     67  F   UNL     1      -2.452   9.642   9.974  1.00  0.00    -0.203 F 
ATOM     68  C   UNL     1      -2.936  10.220  12.203  1.00  0.00     0.198 A 
ATOM     69  C   UNL     1      -4.615  11.867  12.681  1.00  0.00     0.198 A 
ATOM     70  F   UNL     1      -5.816  12.870  10.926  1.00  0.00    -0.203 F 
ATOM     71  F   UNL     1      -2.030   9.329  12.629  1.00  0.00    -0.200 F 
ATOM     72  C   UNL     1      -3.657  10.968  13.123  1.00  0.00     0.200 A 
ATOM     73  F   UNL     1      -5.302  12.602  13.567  1.00  0.00    -0.200 F 
ATOM     74  F   UNL     1      -3.432  10.817  14.435  1.00  0.00    -0.200 F 
ENDBRANCH  50  64
BRANCH  51  75
ATOM     75  C   UNL     1      -6.225  12.149   0.650  1.00  0.00     0.064 A 
ATOM     76  C   UNL     1      -5.223  12.361  -0.308  1.00  0.00     0.173 A 
ATOM     77  C   UNL     1      -7.555  12.122   0.205  1.00  0.00     0.173 A 
ATOM     78  F   UNL     1      -3.938  12.425   0.071  1.00  0.00    -0.203 F 
ATOM     79  C   UNL     1      -5.540  12.560  -1.651  1.00  0.00     0.198 A 
ATOM     80  C   UNL     1      -7.869  12.289  -1.143  1.00  0.00     0.198 A 
ATOM     81  F   UNL     1      -8.553  11.930   1.080  1.00  0.00    -0.203 F 
ATOM     82  F   UNL     1      -4.566  12.816  -2.535  1.00  0.00    -0.200 F 
ATOM     83  C   UNL     1      -6.862  12.518  -2.068  1.00  0.00     0.200 A 
ATOM     84  F   UNL     1      -9.146  12.238  -1.542  1.00  0.00    -0.200 F 
ATOM     85  F   UNL     1      -7.165  12.709  -3.359  1.00  0.00    -0.200 F 
ENDBRANCH  51  75
BRANCH  63  86
ATOM     86  C   UNL     1      -3.499  16.462   5.407  1.00  0.00     0.064 A 
ATOM     87  C   UNL     1      -4.373  17.547   5.236  1.00  0.00     0.173 A 
ATOM     88  C   UNL     1      -2.131  16.742   5.552  1.00  0.00     0.173 A 
ATOM     89  F   UNL     1      -5.689  17.336   5.079  1.00  0.00    -0.203 F 
ATOM     90  C   UNL     1      -3.892  18.854   5.184  1.00  0.00     0.198 A 
ATOM     91  C   UNL     1      -1.659  18.052   5.535  1.00  0.00     0.198 A 
ATOM     92  F   UNL     1      -1.251  15.744   5.727  1.00  0.00    -0.203 F 
ATOM     93  F   UNL     1      -4.740  19.869   4.966  1.00  0.00    -0.200 F 
ATOM     94  C   UNL     1      -2.538  19.105   5.342  1.00  0.00     0.200 A 
ATOM     95  F   UNL     1      -0.351  18.293   5.707  1.00  0.00    -0.200 F 
ATOM     96  F   UNL     1      -2.079  20.364   5.302  1.00  0.00    -0.200 F 
ENDBRANCH  63  86
ENDBRANCH  37  38
ENDBRANCH  30  32
ENDBRANCH  29  30
ENDBRANCH  28  29
ENDBRANCH  27  28
ENDBRANCH  26  27
ENDBRANCH  25  26
ENDBRANCH   1  25
TORSDOF 20
