REMARK SMILES C/C=C/c1cncc(-c2ccc([C@@H](C)C(=O)OCCOCCOCCOC(=O)c3ccc(-c4c5nc(c(-c6c(F)c(F)c(F)c(F)c6F)c6ccc([nH]6)c(-c6c(F)c(F)c(F)c(F)c6F)c6nc(c(-c7c(F)c(F)c(F)c(F)c7F)c7ccc4[nH]7)C=C6)C=C5)cc3)cc2)c1
REMARK SMILES IDX 21 1 20 2 19 3 18 4 17 5 15 6 16 7 13 8 14 9 12 10 9 11
REMARK SMILES IDX 10 12 93 13 11 14 92 15 8 16 4 17 5 18 94 19 6 20 7 21 3 22
REMARK SMILES IDX 1 23 2 24 22 25 23 26 24 27 25 28 26 29 27 30 28 31 29 32
REMARK SMILES IDX 30 33 91 34 31 35 90 36 32 37 33 38 34 39 84 40 35 41 89 42
REMARK SMILES IDX 83 43 85 44 36 45 88 46 82 47 81 48 37 50 69 51 49 52 68 53
REMARK SMILES IDX 50 54 53 55 67 56 86 57 51 58 52 59 66 61 87 62 54 63 38 64
REMARK SMILES IDX 39 65 47 66 40 67 41 68 45 69 48 70 42 71 43 72 46 73 44 74
REMARK SMILES IDX 70 75 71 76 79 77 72 78 73 79 77 80 80 81 74 82 75 83 78 84
REMARK SMILES IDX 76 85 55 86 56 87 64 88 57 89 58 90 62 91 65 92 59 93 60 94
REMARK SMILES IDX 63 95 61 96
REMARK H PARENT 85 49 53 60
REMARK Flexibility Score: inf
ROOT
ATOM      1  C   UNL     1       4.855  -8.891  -1.992  1.00  0.00     0.188 C 
ENDROOT
BRANCH   1   2
ATOM      2  O   UNL     1       5.074  -9.563  -3.227  1.00  0.00    -0.376 OA
BRANCH   2   3
ATOM      3  C   UNL     1       3.973 -10.167  -3.897  1.00  0.00     0.202 C 
BRANCH   3   4
ATOM      4  C   UNL     1       3.139 -11.214  -3.139  1.00  0.00     0.261 C 
BRANCH   4   5
ATOM      5  O   UNL     1       2.571 -10.780  -1.881  1.00  0.00    -0.463 OA
BRANCH   5   6
ATOM      6  C   UNL     1       2.977 -11.446  -0.769  1.00  0.00     0.313 C 
ATOM      7  O   UNL     1       3.753 -12.400  -0.803  1.00  0.00    -0.252 OA
BRANCH   6   8
ATOM      8  C   UNL     1       2.432 -10.939   0.572  1.00  0.00     0.126 C 
ATOM      9  C   UNL     1       1.632 -12.062   1.230  1.00  0.00     0.025 C 
BRANCH   8  10
ATOM     10  C   UNL     1       1.681  -9.611   0.682  1.00  0.00    -0.034 A 
ATOM     11  C   UNL     1       0.345  -7.091   0.975  1.00  0.00    -0.017 A 
ATOM     12  C   UNL     1      -0.100  -8.064   0.061  1.00  0.00     0.009 A 
ATOM     13  C   UNL     1       1.473  -7.402   1.744  1.00  0.00     0.009 A 
ATOM     14  C   UNL     1       0.547  -9.306  -0.079  1.00  0.00     0.005 A 
ATOM     15  C   UNL     1       2.123  -8.641   1.607  1.00  0.00     0.005 A 
BRANCH  11  16
ATOM     16  C   UNL     1      -0.402  -5.834   1.171  1.00  0.00     0.001 A 
ATOM     17  C   UNL     1      -0.606  -3.401   1.216  1.00  0.00    -0.007 A 
ATOM     18  C   UNL     1      -1.933  -3.581   1.603  1.00  0.00     0.119 A 
ATOM     19  C   UNL     1       0.167  -4.556   1.010  1.00  0.00     0.020 A 
ATOM     20  N   UNL     1      -2.524  -4.783   1.776  1.00  0.00    -0.263 NA
ATOM     21  C   UNL     1      -1.746  -5.868   1.556  1.00  0.00     0.119 A 
BRANCH  17  22
ATOM     22  C   UNL     1      -0.095  -2.029   1.098  1.00  0.00     0.005 C 
ATOM     23  C   UNL     1       1.120  -0.160  -0.031  1.00  0.00     0.035 C 
ATOM     24  C   UNL     1       0.686  -1.587   0.100  1.00  0.00    -0.030 C 
ENDBRANCH  17  22
ENDBRANCH  11  16
ENDBRANCH   8  10
ENDBRANCH   6   8
ENDBRANCH   5   6
ENDBRANCH   4   5
ENDBRANCH   3   4
ENDBRANCH   2   3
ENDBRANCH   1   2
BRANCH   1  25
ATOM     25  C   UNL     1       3.553  -8.105  -1.780  1.00  0.00     0.188 C 
BRANCH  25  26
ATOM     26  O   UNL     1       2.786  -7.926  -2.950  1.00  0.00    -0.376 OA
BRANCH  26  27
ATOM     27  C   UNL     1       2.459  -6.599  -3.306  1.00  0.00     0.202 C 
BRANCH  27  28
ATOM     28  C   UNL     1       3.650  -5.715  -3.701  1.00  0.00     0.261 C 
BRANCH  28  29
ATOM     29  O   UNL     1       4.767  -5.715  -2.791  1.00  0.00    -0.460 OA
BRANCH  29  30
ATOM     30  C   UNL     1       4.620  -5.058  -1.620  1.00  0.00     0.338 C 
ATOM     31  O   UNL     1       3.637  -4.436  -1.242  1.00  0.00    -0.246 OA
BRANCH  30  32
ATOM     32  C   UNL     1       5.780  -5.395  -0.763  1.00  0.00     0.060 A 
ATOM     33  C   UNL     1       5.566  -6.034   0.468  1.00  0.00     0.016 A 
ATOM     34  C   UNL     1       7.078  -5.090  -1.177  1.00  0.00     0.016 A 
ATOM     35  C   UNL     1       6.647  -6.342   1.300  1.00  0.00     0.010 A 
ATOM     36  C   UNL     1       8.157  -5.380  -0.334  1.00  0.00     0.010 A 
ATOM     37  C   UNL     1       7.947  -5.978   0.922  1.00  0.00    -0.014 A 
BRANCH  37  38
ATOM     38  C   UNL     1       9.064  -6.042   1.900  1.00  0.00     0.031 A 
ATOM     39  C   UNL     1       9.471  -4.775   2.602  1.00  0.00     0.074 A 
ATOM     40  C   UNL     1       9.716  -7.189   2.160  1.00  0.00     0.049 A 
ATOM     41  N   UNL     1      10.471  -4.554   3.418  1.00  0.00    -0.248 NA
ATOM     42  C   UNL     1       8.636  -3.592   2.339  1.00  0.00     0.031 C 
ATOM     43  C   UNL     1       9.397  -8.494   1.586  1.00  0.00     0.029 A 
ATOM     44  N   UNL     1      10.802  -7.432   2.968  1.00  0.00    -0.354 N 
ATOM     45  C   UNL     1      10.392  -3.208   3.754  1.00  0.00     0.074 A 
ATOM     46  C   UNL     1       9.268  -2.656   3.030  1.00  0.00     0.031 C 
ATOM     47  C   UNL     1      10.278  -9.399   2.049  1.00  0.00     0.029 A 
ATOM     48  C   UNL     1      11.246  -8.731   2.919  1.00  0.00     0.049 A 
ATOM     49  H   UNL     1      11.221  -6.740   3.529  1.00  0.00     0.167 HD
ATOM     50  C   UNL     1      11.182  -2.497   4.594  1.00  0.00     0.037 A 
ATOM     51  C   UNL     1      12.326  -9.303   3.487  1.00  0.00     0.037 A 
ATOM     52  C   UNL     1      12.304  -3.045   5.311  1.00  0.00     0.049 A 
ATOM     53  C   UNL     1      13.245  -8.470   4.348  1.00  0.00     0.074 A 
ATOM     54  C   UNL     1      13.153  -2.410   6.200  1.00  0.00     0.029 A 
ATOM     55  N   UNL     1      12.741  -4.358   5.209  1.00  0.00    -0.354 N 
ATOM     56  N   UNL     1      13.150  -7.205   4.684  1.00  0.00    -0.248 NA
ATOM     57  C   UNL     1      14.423  -9.148   4.911  1.00  0.00     0.031 C 
ATOM     58  C   UNL     1      14.142  -3.320   6.586  1.00  0.00     0.029 A 
ATOM     59  C   UNL     1      13.868  -4.543   5.995  1.00  0.00     0.049 A 
ATOM     60  H   UNL     1      12.314  -5.055   4.660  1.00  0.00     0.167 HD
ATOM     61  C   UNL     1      14.229  -6.948   5.522  1.00  0.00     0.074 A 
ATOM     62  C   UNL     1      14.960  -8.191   5.654  1.00  0.00     0.031 C 
ATOM     63  C   UNL     1      14.581  -5.788   6.131  1.00  0.00     0.037 A 
BRANCH  50  64
ATOM     64  C   UNL     1      10.879  -1.035   4.756  1.00  0.00     0.064 A 
ATOM     65  C   UNL     1       9.721  -0.585   5.410  1.00  0.00     0.173 A 
ATOM     66  C   UNL     1      11.772  -0.068   4.268  1.00  0.00     0.173 A 
ATOM     67  F   UNL     1       8.827  -1.466   5.883  1.00  0.00    -0.203 F 
ATOM     68  C   UNL     1       9.453   0.776   5.537  1.00  0.00     0.198 A 
ATOM     69  C   UNL     1      11.518   1.291   4.429  1.00  0.00     0.198 A 
ATOM     70  F   UNL     1      12.896  -0.442   3.639  1.00  0.00    -0.203 F 
ATOM     71  F   UNL     1       8.312   1.180   6.113  1.00  0.00    -0.200 F 
ATOM     72  C   UNL     1      10.354   1.712   5.054  1.00  0.00     0.200 A 
ATOM     73  F   UNL     1      12.398   2.194   3.974  1.00  0.00    -0.200 F 
ATOM     74  F   UNL     1      10.097   3.021   5.183  1.00  0.00    -0.200 F 
ENDBRANCH  50  64
BRANCH  51  75
ATOM     75  C   UNL     1      12.617 -10.745   3.257  1.00  0.00     0.064 A 
ATOM     76  C   UNL     1      12.553 -11.672   4.307  1.00  0.00     0.173 A 
ATOM     77  C   UNL     1      13.002 -11.220   1.994  1.00  0.00     0.173 A 
ATOM     78  F   UNL     1      12.222 -11.263   5.541  1.00  0.00    -0.203 F 
ATOM     79  C   UNL     1      12.883 -13.011   4.109  1.00  0.00     0.198 A 
ATOM     80  C   UNL     1      13.300 -12.566   1.789  1.00  0.00     0.198 A 
ATOM     81  F   UNL     1      13.089 -10.375   0.956  1.00  0.00    -0.203 F 
ATOM     82  F   UNL     1      12.869 -13.862   5.144  1.00  0.00    -0.200 F 
ATOM     83  C   UNL     1      13.250 -13.459   2.849  1.00  0.00     0.200 A 
ATOM     84  F   UNL     1      13.646 -12.995   0.568  1.00  0.00    -0.200 F 
ATOM     85  F   UNL     1      13.568 -14.746   2.659  1.00  0.00    -0.200 F 
ENDBRANCH  51  75
BRANCH  63  86
ATOM     86  C   UNL     1      15.780  -5.812   7.040  1.00  0.00     0.064 A 
ATOM     87  C   UNL     1      17.085  -5.960   6.547  1.00  0.00     0.173 A 
ATOM     88  C   UNL     1      15.620  -5.640   8.425  1.00  0.00     0.173 A 
ATOM     89  F   UNL     1      17.294  -6.139   5.234  1.00  0.00    -0.203 F 
ATOM     90  C   UNL     1      18.180  -5.964   7.408  1.00  0.00     0.198 A 
ATOM     91  C   UNL     1      16.719  -5.609   9.278  1.00  0.00     0.198 A 
ATOM     92  F   UNL     1      14.395  -5.485   8.950  1.00  0.00    -0.203 F 
ATOM     93  F   UNL     1      19.413  -6.160   6.920  1.00  0.00    -0.200 F 
ATOM     94  C   UNL     1      17.998  -5.781   8.771  1.00  0.00     0.200 A 
ATOM     95  F   UNL     1      16.541  -5.413  10.592  1.00  0.00    -0.200 F 
ATOM     96  F   UNL     1      19.054  -5.775   9.596  1.00  0.00    -0.200 F 
ENDBRANCH  63  86
ENDBRANCH  37  38
ENDBRANCH  30  32
ENDBRANCH  29  30
ENDBRANCH  28  29
ENDBRANCH  27  28
ENDBRANCH  26  27
ENDBRANCH  25  26
ENDBRANCH   1  25
TORSDOF 20
