REMARK SMILES Cc1c(NC(=O)c2ccccc2NC(=O)[C@@H]2CCCO2)cccc1C(=O)OCCOCCOCCOC(=O)c1ccc(-c2c3nc(c(-c4c(F)c(F)c(F)c(F)c4F)c4ccc([nH]4)c(-c4c(F)c(F)c(F)c(F)c4F)c4nc(c(-c5c(F)c(F)c(F)c(F)c5F)c5ccc2[nH]5)C=C4)C=C3)cc1
REMARK SMILES IDX 31 1 30 2 29 3 28 4 27 5 25 6 26 7 24 8 1 9 2 10 3 11 21 12
REMARK SMILES IDX 23 13 22 14 4 15 5 16 6 18 7 19 8 20 12 21 9 22 11 23 10 24
REMARK SMILES IDX 13 25 14 26 15 28 16 29 17 30 20 31 18 32 19 33 32 34 33 35
REMARK SMILES IDX 34 36 35 37 36 38 37 39 38 40 39 41 40 42 101 43 41 44
REMARK SMILES IDX 100 45 42 46 43 47 44 48 94 49 45 50 99 51 93 52 95 53 46 54
REMARK SMILES IDX 98 55 92 56 91 57 47 59 79 60 59 61 78 62 60 63 63 64 77 65
REMARK SMILES IDX 96 66 61 67 62 68 76 70 97 71 64 72 48 73 49 74 57 75 50 76
REMARK SMILES IDX 51 77 55 78 58 79 52 80 53 81 56 82 54 83 80 84 81 85 89 86
REMARK SMILES IDX 82 87 83 88 87 89 90 90 84 91 85 92 88 93 86 94 65 95 66 96
REMARK SMILES IDX 74 97 67 98 68 99 72 100 75 101 69 102 70 103 73 104 71 105
REMARK H PARENT 4 17 13 27 95 58 63 69
REMARK Flexibility Score: inf
ROOT
ATOM      1  C   UNL     1       2.871   5.612  -2.068  1.00  0.00     0.188 C 
ENDROOT
BRANCH   1   2
ATOM      2  O   UNL     1       3.680   4.870  -1.120  1.00  0.00    -0.376 OA
BRANCH   2   3
ATOM      3  C   UNL     1       4.511   3.734  -1.435  1.00  0.00     0.202 C 
BRANCH   3   4
ATOM      4  C   UNL     1       4.280   2.152  -0.847  1.00  0.00     0.261 C 
BRANCH   4   5
ATOM      5  O   UNL     1       3.060   1.018  -1.104  1.00  0.00    -0.460 OA
BRANCH   5   6
ATOM      6  C   UNL     1       1.821   0.672  -0.485  1.00  0.00     0.338 C 
ATOM      7  O   UNL     1       1.310   1.195   0.509  1.00  0.00    -0.246 OA
BRANCH   6   8
ATOM      8  C   UNL     1       0.909  -0.454  -0.702  1.00  0.00     0.065 A 
ATOM      9  C   UNL     1       2.832  -2.045  -0.866  1.00  0.00     0.047 C 
ATOM     10  C   UNL     1       1.398  -1.742  -0.563  1.00  0.00    -0.013 A 
ATOM     11  C   UNL     1       0.487  -2.732  -0.136  1.00  0.00     0.045 A 
ATOM     12  C   UNL     1      -0.826  -2.435   0.274  1.00  0.00     0.026 A 
ATOM     13  C   UNL     1      -0.475  -0.188  -0.396  1.00  0.00     0.016 A 
ATOM     14  C   UNL     1      -1.321  -1.156   0.129  1.00  0.00     0.003 A 
BRANCH  11  15
ATOM     15  N   UNL     1       0.899  -4.059  -0.260  1.00  0.00    -0.322 N 
ATOM     16  C   UNL     1       0.226  -5.108  -0.835  1.00  0.00     0.257 C 
ATOM     17  H   UNL     1       1.786  -4.269   0.113  1.00  0.00     0.170 HD
ATOM     18  O   UNL     1       0.774  -6.216  -0.850  1.00  0.00    -0.269 OA
BRANCH  16  19
ATOM     19  C   UNL     1      -1.124  -4.964  -1.455  1.00  0.00     0.063 A 
ATOM     20  C   UNL     1      -2.017  -5.976  -1.056  1.00  0.00     0.016 A 
ATOM     21  C   UNL     1      -1.545  -3.938  -2.350  1.00  0.00     0.054 A 
ATOM     22  C   UNL     1      -3.337  -5.964  -1.480  1.00  0.00     0.001 A 
ATOM     23  C   UNL     1      -2.901  -3.915  -2.692  1.00  0.00     0.027 A 
ATOM     24  C   UNL     1      -3.783  -4.920  -2.275  1.00  0.00     0.002 A 
BRANCH  21  25
ATOM     25  N   UNL     1      -0.603  -2.998  -2.841  1.00  0.00    -0.323 N 
ATOM     26  C   UNL     1      -0.619  -1.857  -3.596  1.00  0.00     0.253 C 
ATOM     27  H   UNL     1       0.312  -3.230  -2.562  1.00  0.00     0.170 HD
ATOM     28  O   UNL     1       0.456  -1.247  -3.688  1.00  0.00    -0.272 OA
BRANCH  26  29
ATOM     29  C   UNL     1      -1.857  -1.367  -4.348  1.00  0.00     0.207 C 
ATOM     30  C   UNL     1      -2.062  -2.251  -5.571  1.00  0.00     0.044 C 
ATOM     31  O   UNL     1      -1.740  -0.022  -4.854  1.00  0.00    -0.368 OA
ATOM     32  C   UNL     1      -2.756  -1.331  -6.535  1.00  0.00     0.032 C 
ATOM     33  C   UNL     1      -2.071  -0.015  -6.249  1.00  0.00     0.161 C 
ENDBRANCH  26  29
ENDBRANCH  21  25
ENDBRANCH  16  19
ENDBRANCH  11  15
ENDBRANCH   6   8
ENDBRANCH   5   6
ENDBRANCH   4   5
ENDBRANCH   3   4
ENDBRANCH   2   3
ENDBRANCH   1   2
BRANCH   1  34
ATOM     34  C   UNL     1       3.058   5.573  -3.593  1.00  0.00     0.188 C 
BRANCH  34  35
ATOM     35  O   UNL     1       3.279   4.251  -4.047  1.00  0.00    -0.376 OA
BRANCH  35  36
ATOM     36  C   UNL     1       3.336   4.075  -5.457  1.00  0.00     0.202 C 
BRANCH  36  37
ATOM     37  C   UNL     1       1.951   4.012  -6.145  1.00  0.00     0.261 C 
BRANCH  37  38
ATOM     38  O   UNL     1       1.121   2.962  -5.587  1.00  0.00    -0.460 OA
BRANCH  38  39
ATOM     39  C   UNL     1      -0.042   3.327  -4.943  1.00  0.00     0.338 C 
ATOM     40  O   UNL     1      -0.895   4.051  -5.421  1.00  0.00    -0.246 OA
BRANCH  39  41
ATOM     41  C   UNL     1       0.038   2.946  -3.488  1.00  0.00     0.060 A 
ATOM     42  C   UNL     1      -0.779   3.384  -2.432  1.00  0.00     0.016 A 
ATOM     43  C   UNL     1       1.226   2.438  -3.113  1.00  0.00     0.016 A 
ATOM     44  C   UNL     1      -0.284   3.467  -1.054  1.00  0.00     0.010 A 
ATOM     45  C   UNL     1       1.708   2.881  -1.890  1.00  0.00     0.010 A 
ATOM     46  C   UNL     1       1.062   3.296  -0.726  1.00  0.00    -0.014 A 
BRANCH  46  47
ATOM     47  C   UNL     1       1.848   3.588   0.688  1.00  0.00     0.031 A 
ATOM     48  C   UNL     1       2.666   2.603   1.821  1.00  0.00     0.074 A 
ATOM     49  C   UNL     1       1.735   4.871   1.095  1.00  0.00     0.049 A 
ATOM     50  N   UNL     1       2.768   2.883   3.111  1.00  0.00    -0.248 NA
ATOM     51  C   UNL     1       3.309   1.235   1.680  1.00  0.00     0.031 C 
ATOM     52  C   UNL     1       2.376   5.529   2.228  1.00  0.00     0.029 A 
ATOM     53  N   UNL     1       0.805   5.818   0.634  1.00  0.00    -0.354 N 
ATOM     54  C   UNL     1       3.524   1.879   3.733  1.00  0.00     0.074 A 
ATOM     55  C   UNL     1       3.527   0.769   2.890  1.00  0.00     0.031 C 
ATOM     56  C   UNL     1       1.607   6.566   2.598  1.00  0.00     0.029 A 
ATOM     57  C   UNL     1       0.409   6.526   1.778  1.00  0.00     0.049 A 
ATOM     58  H   UNL     1       0.499   5.954  -0.291  1.00  0.00     0.167 HD
ATOM     59  C   UNL     1       4.248   2.025   4.870  1.00  0.00     0.037 A 
ATOM     60  C   UNL     1      -0.876   6.460   2.220  1.00  0.00     0.037 A 
ATOM     61  C   UNL     1       3.676   3.110   5.612  1.00  0.00     0.049 A 
ATOM     62  C   UNL     1      -0.973   5.964   3.645  1.00  0.00     0.074 A 
ATOM     63  C   UNL     1       3.969   4.452   5.710  1.00  0.00     0.029 A 
ATOM     64  N   UNL     1       2.353   2.949   6.006  1.00  0.00    -0.354 N 
ATOM     65  N   UNL     1      -0.010   5.355   4.287  1.00  0.00    -0.248 NA
ATOM     66  C   UNL     1      -2.172   6.122   4.461  1.00  0.00     0.031 C 
ATOM     67  C   UNL     1       2.736   5.119   5.978  1.00  0.00     0.029 A 
ATOM     68  C   UNL     1       1.730   4.173   6.128  1.00  0.00     0.049 A 
ATOM     69  H   UNL     1       1.921   2.081   6.176  1.00  0.00     0.167 HD
ATOM     70  C   UNL     1      -0.450   4.985   5.530  1.00  0.00     0.074 A 
ATOM     71  C   UNL     1      -1.794   5.527   5.604  1.00  0.00     0.031 C 
ATOM     72  C   UNL     1       0.296   4.228   6.389  1.00  0.00     0.037 A 
BRANCH  59  73
ATOM     73  C   UNL     1       5.485   1.185   5.226  1.00  0.00     0.064 A 
ATOM     74  C   UNL     1       6.117   1.348   6.473  1.00  0.00     0.173 A 
ATOM     75  C   UNL     1       6.180   0.298   4.351  1.00  0.00     0.173 A 
ATOM     76  F   UNL     1       5.625   2.203   7.380  1.00  0.00    -0.203 F 
ATOM     77  C   UNL     1       7.301   0.667   6.819  1.00  0.00     0.198 A 
ATOM     78  C   UNL     1       7.310  -0.439   4.726  1.00  0.00     0.198 A 
ATOM     79  F   UNL     1       5.863   0.154   3.058  1.00  0.00    -0.203 F 
ATOM     80  F   UNL     1       7.893   0.917   7.995  1.00  0.00    -0.200 F 
ATOM     81  C   UNL     1       7.882  -0.244   5.958  1.00  0.00     0.200 A 
ATOM     82  F   UNL     1       7.858  -1.305   3.858  1.00  0.00    -0.200 F 
ATOM     83  F   UNL     1       9.004  -0.897   6.292  1.00  0.00    -0.200 F 
ENDBRANCH  59  73
BRANCH  60  84
ATOM     84  C   UNL     1      -1.893   6.307   1.127  1.00  0.00     0.064 A 
ATOM     85  C   UNL     1      -1.833   7.209   0.037  1.00  0.00     0.173 A 
ATOM     86  C   UNL     1      -2.703   5.178   0.958  1.00  0.00     0.173 A 
ATOM     87  F   UNL     1      -1.092   8.326   0.132  1.00  0.00    -0.203 F 
ATOM     88  C   UNL     1      -2.434   6.934  -1.191  1.00  0.00     0.198 A 
ATOM     89  C   UNL     1      -3.335   4.919  -0.271  1.00  0.00     0.198 A 
ATOM     90  F   UNL     1      -2.788   4.250   1.921  1.00  0.00    -0.203 F 
ATOM     91  F   UNL     1      -2.232   7.753  -2.233  1.00  0.00    -0.200 F 
ATOM     92  C   UNL     1      -3.173   5.779  -1.349  1.00  0.00     0.200 A 
ATOM     93  F   UNL     1      -3.998   3.767  -0.451  1.00  0.00    -0.200 F 
ATOM     94  F   UNL     1      -3.672   5.460  -2.553  1.00  0.00    -0.200 F 
ENDBRANCH  60  84
BRANCH  72  95
ATOM     95  C   UNL     1      -0.279   3.470   7.569  1.00  0.00     0.064 A 
ATOM     96  C   UNL     1      -1.611   3.018   7.632  1.00  0.00     0.173 A 
ATOM     97  C   UNL     1       0.559   3.021   8.618  1.00  0.00     0.173 A 
ATOM     98  F   UNL     1      -2.476   3.243   6.635  1.00  0.00    -0.203 F 
ATOM     99  C   UNL     1      -2.088   2.257   8.701  1.00  0.00     0.198 A 
ATOM    100  C   UNL     1       0.098   2.190   9.641  1.00  0.00     0.198 A 
ATOM    101  F   UNL     1       1.860   3.343   8.662  1.00  0.00    -0.203 F 
ATOM    102  F   UNL     1      -3.383   1.911   8.742  1.00  0.00    -0.200 F 
ATOM    103  C   UNL     1      -1.232   1.830   9.697  1.00  0.00     0.200 A 
ATOM    104  F   UNL     1       0.957   1.722  10.557  1.00  0.00    -0.200 F 
ATOM    105  F   UNL     1      -1.683   1.054  10.691  1.00  0.00    -0.200 F 
ENDBRANCH  72  95
ENDBRANCH  46  47
ENDBRANCH  39  41
ENDBRANCH  38  39
ENDBRANCH  37  38
ENDBRANCH  36  37
ENDBRANCH  35  36
ENDBRANCH  34  35
ENDBRANCH   1  34
TORSDOF 21
