REMARK SMILES [NH3+]C[C@@]1([C@@H](O)C(=O)OCCOCCOCCOC(=O)c2ccc(-c3c4nc(c(-c5c(F)c(F)c(F)c(F)c5F)c5ccc([nH]5)c(-c5c(F)c(F)c(F)c(F)c5F)c5nc(c(-c6c(F)c(F)c(F)c(F)c6F)c6ccc3[nH]6)C=C5)C=C4)cc2)CCOc2ccccc21
REMARK SMILES IDX 12 1 11 2 10 3 9 4 8 5 6 6 7 7 4 8 3 9 83 10 91 11 84 12
REMARK SMILES IDX 86 13 90 14 85 15 87 16 89 17 88 18 2 19 1 20 5 24 13 26
REMARK SMILES IDX 14 27 15 28 16 29 17 30 18 31 19 32 20 33 21 34 82 35 22 36
REMARK SMILES IDX 81 37 23 38 24 39 25 40 75 41 26 42 80 43 74 44 76 45 27 46
REMARK SMILES IDX 79 47 73 48 72 49 28 51 60 52 40 53 59 54 41 55 44 56 58 57
REMARK SMILES IDX 77 58 42 59 43 60 57 62 78 63 45 64 29 65 30 66 38 67 31 68
REMARK SMILES IDX 32 69 36 70 39 71 33 72 34 73 37 74 35 75 61 76 62 77 70 78
REMARK SMILES IDX 63 79 64 80 68 81 71 82 65 83 66 84 69 85 67 86 46 87 47 88
REMARK SMILES IDX 55 89 48 90 49 91 53 92 56 93 50 94 51 95 54 96 52 97
REMARK H PARENT 1 21 1 22 1 23 5 25 76 50 44 61
REMARK Flexibility Score: inf
ROOT
ATOM      1  C   UNL     1      -2.409   2.062   2.043  1.00  0.00     0.188 C 
ENDROOT
BRANCH   1   2
ATOM      2  O   UNL     1      -2.700   2.071   3.433  1.00  0.00    -0.376 OA
BRANCH   2   3
ATOM      3  C   UNL     1      -1.714   2.613   4.309  1.00  0.00     0.202 C 
BRANCH   3   4
ATOM      4  C   UNL     1      -0.272   2.098   4.153  1.00  0.00     0.261 C 
BRANCH   4   5
ATOM      5  O   UNL     1       0.276   2.221   2.813  1.00  0.00    -0.461 OA
BRANCH   5   6
ATOM      6  C   UNL     1       0.917   1.139   2.318  1.00  0.00     0.336 C 
ATOM      7  O   UNL     1       1.092   0.106   2.970  1.00  0.00    -0.249 OA
BRANCH   6   8
ATOM      8  C   UNL     1       1.256   1.133   0.798  1.00  0.00     0.240 C 
BRANCH   8   9
ATOM      9  C   UNL     1       1.701   2.361  -0.130  1.00  0.00     0.088 C 
ATOM     10  C   UNL     1       1.843   3.672   0.678  1.00  0.00     0.063 C 
ATOM     11  C   UNL     1       0.700   2.583  -1.291  1.00  0.00     0.009 A 
ATOM     12  C   UNL     1       1.766   4.938  -0.157  1.00  0.00     0.231 C 
ATOM     13  C   UNL     1       0.293   3.873  -1.659  1.00  0.00     0.123 A 
ATOM     14  C   UNL     1       0.284   1.508  -2.106  1.00  0.00     0.008 A 
ATOM     15  O   UNL     1       0.593   5.004  -0.958  1.00  0.00    -0.493 OA
ATOM     16  C   UNL     1      -0.499   4.080  -2.795  1.00  0.00     0.047 A 
ATOM     17  C   UNL     1      -0.505   1.717  -3.242  1.00  0.00     0.001 A 
ATOM     18  C   UNL     1      -0.887   3.006  -3.595  1.00  0.00     0.004 A 
BRANCH   9  19
ATOM     19  C   UNL     1       3.082   2.016  -0.842  1.00  0.00     0.274 C 
BRANCH  19  20
ATOM     20  N   UNL     1       3.501   2.785  -2.026  1.00  0.00    -0.357 N 
ATOM     21  H   UNL     1       4.402   2.439  -2.356  1.00  0.00     0.344 HD
ATOM     22  H   UNL     1       3.586   3.771  -1.779  1.00  0.00     0.344 HD
ATOM     23  H   UNL     1       2.805   2.678  -2.764  1.00  0.00     0.344 HD
ENDBRANCH  19  20
ENDBRANCH   9  19
ENDBRANCH   8   9
BRANCH   8  24
ATOM     24  O   UNL     1       2.236   0.063   0.689  1.00  0.00    -0.380 OA
ATOM     25  H   UNL     1       3.049   0.321   1.151  1.00  0.00     0.211 HD
ENDBRANCH   8  24
ENDBRANCH   6   8
ENDBRANCH   5   6
ENDBRANCH   4   5
ENDBRANCH   3   4
ENDBRANCH   2   3
ENDBRANCH   1   2
BRANCH   1  26
ATOM     26  C   UNL     1      -1.881   3.355   1.402  1.00  0.00     0.188 C 
BRANCH  26  27
ATOM     27  O   UNL     1      -1.656   4.411   2.314  1.00  0.00    -0.376 OA
BRANCH  27  28
ATOM     28  C   UNL     1      -1.776   5.736   1.819  1.00  0.00     0.202 C 
BRANCH  28  29
ATOM     29  C   UNL     1      -3.225   6.207   1.602  1.00  0.00     0.261 C 
BRANCH  29  30
ATOM     30  O   UNL     1      -4.052   5.338   0.806  1.00  0.00    -0.460 OA
BRANCH  30  31
ATOM     31  C   UNL     1      -3.773   5.268  -0.519  1.00  0.00     0.338 C 
ATOM     32  O   UNL     1      -2.966   5.927  -1.137  1.00  0.00    -0.246 OA
BRANCH  31  33
ATOM     33  C   UNL     1      -4.470   4.066  -1.045  1.00  0.00     0.060 A 
ATOM     34  C   UNL     1      -3.709   3.002  -1.551  1.00  0.00     0.016 A 
ATOM     35  C   UNL     1      -5.856   3.970  -1.003  1.00  0.00     0.016 A 
ATOM     36  C   UNL     1      -4.319   1.861  -2.071  1.00  0.00     0.010 A 
ATOM     37  C   UNL     1      -6.473   2.834  -1.531  1.00  0.00     0.010 A 
ATOM     38  C   UNL     1      -5.711   1.794  -2.102  1.00  0.00    -0.014 A 
BRANCH  38  39
ATOM     39  C   UNL     1      -6.411   0.776  -2.919  1.00  0.00     0.031 A 
ATOM     40  C   UNL     1      -6.979   1.225  -4.234  1.00  0.00     0.074 A 
ATOM     41  C   UNL     1      -6.595  -0.485  -2.495  1.00  0.00     0.049 A 
ATOM     42  N   UNL     1      -7.875   0.657  -4.995  1.00  0.00    -0.248 NA
ATOM     43  C   UNL     1      -6.477   2.513  -4.744  1.00  0.00     0.031 C 
ATOM     44  C   UNL     1      -6.014  -1.073  -1.292  1.00  0.00     0.029 A 
ATOM     45  N   UNL     1      -7.370  -1.489  -3.024  1.00  0.00    -0.354 N 
ATOM     46  C   UNL     1      -8.081   1.540  -6.046  1.00  0.00     0.074 A 
ATOM     47  C   UNL     1      -7.223   2.683  -5.823  1.00  0.00     0.031 C 
ATOM     48  C   UNL     1      -6.486  -2.325  -1.149  1.00  0.00     0.029 A 
ATOM     49  C   UNL     1      -7.452  -2.596  -2.214  1.00  0.00     0.049 A 
ATOM     50  H   UNL     1      -7.823  -1.422  -3.896  1.00  0.00     0.167 HD
ATOM     51  C   UNL     1      -8.923   1.408  -7.097  1.00  0.00     0.037 A 
ATOM     52  C   UNL     1      -8.261  -3.672  -2.296  1.00  0.00     0.037 A 
ATOM     53  C   UNL     1      -9.761   0.260  -7.308  1.00  0.00     0.049 A 
ATOM     54  C   UNL     1      -9.263  -3.759  -3.423  1.00  0.00     0.074 A 
ATOM     55  C   UNL     1     -10.647   0.018  -8.342  1.00  0.00     0.029 A 
ATOM     56  N   UNL     1      -9.819  -0.838  -6.462  1.00  0.00    -0.354 N 
ATOM     57  N   UNL     1      -9.482  -2.917  -4.405  1.00  0.00    -0.248 NA
ATOM     58  C   UNL     1     -10.138  -4.941  -3.448  1.00  0.00     0.031 C 
ATOM     59  C   UNL     1     -11.287  -1.198  -8.089  1.00  0.00     0.029 A 
ATOM     60  C   UNL     1     -10.743  -1.751  -6.939  1.00  0.00     0.049 A 
ATOM     61  H   UNL     1      -9.282  -0.951  -5.644  1.00  0.00     0.167 HD
ATOM     62  C   UNL     1     -10.481  -3.488  -5.186  1.00  0.00     0.074 A 
ATOM     63  C   UNL     1     -10.832  -4.745  -4.561  1.00  0.00     0.031 C 
ATOM     64  C   UNL     1     -11.050  -3.017  -6.323  1.00  0.00     0.037 A 
BRANCH  51  65
ATOM     65  C   UNL     1      -9.014   2.551  -8.064  1.00  0.00     0.064 A 
ATOM     66  C   UNL     1      -7.958   2.887  -8.922  1.00  0.00     0.173 A 
ATOM     67  C   UNL     1     -10.193   3.309  -8.147  1.00  0.00     0.173 A 
ATOM     68  F   UNL     1      -6.802   2.207  -8.870  1.00  0.00    -0.203 F 
ATOM     69  C   UNL     1      -8.067   3.957  -9.807  1.00  0.00     0.198 A 
ATOM     70  C   UNL     1     -10.312   4.354  -9.058  1.00  0.00     0.198 A 
ATOM     71  F   UNL     1     -11.235   3.030  -7.349  1.00  0.00    -0.203 F 
ATOM     72  F   UNL     1      -7.024   4.295 -10.578  1.00  0.00    -0.200 F 
ATOM     73  C   UNL     1      -9.246   4.683  -9.881  1.00  0.00     0.200 A 
ATOM     74  F   UNL     1     -11.458   5.044  -9.137  1.00  0.00    -0.200 F 
ATOM     75  F   UNL     1      -9.352   5.706 -10.740  1.00  0.00    -0.200 F 
ENDBRANCH  51  65
BRANCH  52  76
ATOM     76  C   UNL     1      -8.193  -4.740  -1.262  1.00  0.00     0.064 A 
ATOM     77  C   UNL     1      -7.758  -6.032  -1.589  1.00  0.00     0.173 A 
ATOM     78  C   UNL     1      -8.584  -4.503   0.065  1.00  0.00     0.173 A 
ATOM     79  F   UNL     1      -7.401  -6.318  -2.849  1.00  0.00    -0.203 F 
ATOM     80  C   UNL     1      -7.738  -7.049  -0.636  1.00  0.00     0.198 A 
ATOM     81  C   UNL     1      -8.532  -5.512   1.025  1.00  0.00     0.198 A 
ATOM     82  F   UNL     1      -9.014  -3.287   0.432  1.00  0.00    -0.203 F 
ATOM     83  F   UNL     1      -7.370  -8.288  -0.991  1.00  0.00    -0.200 F 
ATOM     84  C   UNL     1      -8.118  -6.787   0.671  1.00  0.00     0.200 A 
ATOM     85  F   UNL     1      -8.889  -5.251   2.289  1.00  0.00    -0.200 F 
ATOM     86  F   UNL     1      -8.096  -7.765   1.587  1.00  0.00    -0.200 F 
ENDBRANCH  52  76
BRANCH  64  87
ATOM     87  C   UNL     1     -12.049  -3.888  -7.029  1.00  0.00     0.064 A 
ATOM     88  C   UNL     1     -13.347  -4.082  -6.539  1.00  0.00     0.173 A 
ATOM     89  C   UNL     1     -11.726  -4.449  -8.276  1.00  0.00     0.173 A 
ATOM     90  F   UNL     1     -13.702  -3.577  -5.348  1.00  0.00    -0.203 F 
ATOM     91  C   UNL     1     -14.284  -4.810  -7.269  1.00  0.00     0.198 A 
ATOM     92  C   UNL     1     -12.674  -5.148  -9.016  1.00  0.00     0.198 A 
ATOM     93  F   UNL     1     -10.499  -4.285  -8.793  1.00  0.00    -0.203 F 
ATOM     94  F   UNL     1     -15.513  -5.006  -6.771  1.00  0.00    -0.200 F 
ATOM     95  C   UNL     1     -13.952  -5.330  -8.511  1.00  0.00     0.200 A 
ATOM     96  F   UNL     1     -12.355  -5.630 -10.225  1.00  0.00    -0.200 F 
ATOM     97  F   UNL     1     -14.864  -6.005  -9.224  1.00  0.00    -0.200 F 
ENDBRANCH  64  87
ENDBRANCH  38  39
ENDBRANCH  31  33
ENDBRANCH  30  31
ENDBRANCH  29  30
ENDBRANCH  28  29
ENDBRANCH  27  28
ENDBRANCH  26  27
ENDBRANCH   1  26
TORSDOF 21
