REMARK SMILES C[C@@H]1CCC[C@H]1NC(=O)c1csc(/C=C/C(=O)OCCOCCOCCOC(=O)c2ccc(-c3c4nc(c(-c5c(F)c(F)c(F)c(F)c5F)c5ccc([nH]5)c(-c5c(F)c(F)c(F)c(F)c5F)c5nc(c(-c6c(F)c(F)c(F)c(F)c6F)c6ccc3[nH]6)C=C5)C=C4)cc2)c1
REMARK SMILES IDX 22 1 21 2 20 3 19 4 18 5 16 6 17 7 15 8 14 9 13 10 10 11
REMARK SMILES IDX 11 12 93 13 12 14 8 15 7 16 9 18 6 19 1 20 2 21 3 22 4 23
REMARK SMILES IDX 5 24 23 25 24 26 25 27 26 28 27 29 28 30 29 31 30 32 31 33
REMARK SMILES IDX 92 34 32 35 91 36 33 37 34 38 35 39 85 40 36 41 90 42 84 43
REMARK SMILES IDX 86 44 37 45 89 46 83 47 82 48 38 50 70 51 50 52 69 53 51 54
REMARK SMILES IDX 54 55 68 56 87 57 52 58 53 59 67 61 88 62 55 63 39 64 40 65
REMARK SMILES IDX 48 66 41 67 42 68 46 69 49 70 43 71 44 72 47 73 45 74 71 75
REMARK SMILES IDX 72 76 80 77 73 78 74 79 78 80 81 81 75 82 76 83 79 84 77 85
REMARK SMILES IDX 56 86 57 87 65 88 58 89 59 90 63 91 66 92 60 93 61 94 64 95
REMARK SMILES IDX 62 96
REMARK H PARENT 7 17 86 49 54 60
REMARK Flexibility Score: inf
ROOT
ATOM      1  C   UNL     1       5.708   9.071   1.056  1.00  0.00     0.188 C 
ENDROOT
BRANCH   1   2
ATOM      2  O   UNL     1       6.269  10.206   1.709  1.00  0.00    -0.376 OA
BRANCH   2   3
ATOM      3  C   UNL     1       6.088  10.372   3.112  1.00  0.00     0.202 C 
BRANCH   3   4
ATOM      4  C   UNL     1       4.660  10.389   3.672  1.00  0.00     0.261 C 
BRANCH   4   5
ATOM      5  O   UNL     1       3.872   9.238   3.320  1.00  0.00    -0.460 OA
BRANCH   5   6
ATOM      6  C   UNL     1       2.731   9.507   2.640  1.00  0.00     0.330 C 
ATOM      7  O   UNL     1       2.314  10.614   2.332  1.00  0.00    -0.247 OA
BRANCH   6   8
ATOM      8  C   UNL     1       2.040   8.288   2.174  1.00  0.00     0.095 C 
ATOM      9  C   UNL     1       2.226   7.041   2.633  1.00  0.00     0.026 C 
BRANCH   9  10
ATOM     10  C   UNL     1       1.489   5.925   2.123  1.00  0.00     0.028 A 
ATOM     11  C   UNL     1       0.339   3.842   2.021  1.00  0.00     0.051 A 
ATOM     12  C   UNL     1       0.090   4.377   0.773  1.00  0.00     0.079 A 
ATOM     13  C   UNL     1       1.152   4.756   2.788  1.00  0.00     0.033 A 
ATOM     14  S   UNL     1       0.903   5.851   0.503  1.00  0.00    -0.144 S 
BRANCH  11  15
ATOM     15  C   UNL     1      -0.233   2.613   2.566  1.00  0.00     0.252 C 
ATOM     16  N   UNL     1      -0.477   1.520   1.776  1.00  0.00    -0.349 N 
ATOM     17  H   UNL     1      -1.060   0.844   2.190  1.00  0.00     0.164 HD
ATOM     18  O   UNL     1      -0.511   2.525   3.762  1.00  0.00    -0.269 OA
BRANCH  16  19
ATOM     19  C   UNL     1      -0.025   1.178   0.429  1.00  0.00     0.085 C 
ATOM     20  C   UNL     1       1.804  -0.121  -0.760  1.00  0.00     0.010 C 
ATOM     21  C   UNL     1       0.886  -0.060   0.463  1.00  0.00     0.008 C 
ATOM     22  C   UNL     1      -0.103  -1.226   0.484  1.00  0.00     0.005 C 
ATOM     23  C   UNL     1      -1.274  -0.776  -0.382  1.00  0.00     0.002 C 
ATOM     24  C   UNL     1      -1.214   0.753  -0.439  1.00  0.00     0.025 C 
ENDBRANCH  16  19
ENDBRANCH  11  15
ENDBRANCH   9  10
ENDBRANCH   6   8
ENDBRANCH   5   6
ENDBRANCH   4   5
ENDBRANCH   3   4
ENDBRANCH   2   3
ENDBRANCH   1   2
BRANCH   1  25
ATOM     25  C   UNL     1       5.895   7.667   1.669  1.00  0.00     0.188 C 
BRANCH  25  26
ATOM     26  O   UNL     1       6.622   7.671   2.877  1.00  0.00    -0.376 OA
BRANCH  26  27
ATOM     27  C   UNL     1       7.955   7.192   2.886  1.00  0.00     0.202 C 
BRANCH  27  28
ATOM     28  C   UNL     1       8.982   7.591   1.810  1.00  0.00     0.261 C 
BRANCH  28  29
ATOM     29  O   UNL     1       8.487   7.892   0.501  1.00  0.00    -0.460 OA
BRANCH  29  30
ATOM     30  C   UNL     1       8.402   6.866  -0.375  1.00  0.00     0.338 C 
ATOM     31  O   UNL     1       8.621   5.690  -0.166  1.00  0.00    -0.246 OA
BRANCH  30  32
ATOM     32  C   UNL     1       7.844   7.403  -1.633  1.00  0.00     0.060 A 
ATOM     33  C   UNL     1       6.582   6.971  -2.056  1.00  0.00     0.016 A 
ATOM     34  C   UNL     1       8.570   8.327  -2.389  1.00  0.00     0.016 A 
ATOM     35  C   UNL     1       6.046   7.455  -3.251  1.00  0.00     0.010 A 
ATOM     36  C   UNL     1       8.041   8.795  -3.594  1.00  0.00     0.010 A 
ATOM     37  C   UNL     1       6.786   8.347  -4.041  1.00  0.00    -0.014 A 
BRANCH  37  38
ATOM     38  C   UNL     1       6.324   8.705  -5.403  1.00  0.00     0.031 A 
ATOM     39  C   UNL     1       6.861   7.929  -6.572  1.00  0.00     0.074 A 
ATOM     40  C   UNL     1       5.452   9.709  -5.600  1.00  0.00     0.049 A 
ATOM     41  N   UNL     1       6.677   8.120  -7.854  1.00  0.00    -0.248 NA
ATOM     42  C   UNL     1       7.723   6.780  -6.251  1.00  0.00     0.031 C 
ATOM     43  C   UNL     1       4.825  10.503  -4.547  1.00  0.00     0.029 A 
ATOM     44  N   UNL     1       4.957  10.241  -6.765  1.00  0.00    -0.354 N 
ATOM     45  C   UNL     1       7.396   7.117  -8.489  1.00  0.00     0.074 A 
ATOM     46  C   UNL     1       8.042   6.335  -7.457  1.00  0.00     0.031 C 
ATOM     47  C   UNL     1       4.039  11.435  -5.114  1.00  0.00     0.029 A 
ATOM     48  C   UNL     1       4.139  11.327  -6.569  1.00  0.00     0.049 A 
ATOM     49  H   UNL     1       5.168   9.879  -7.656  1.00  0.00     0.167 HD
ATOM     50  C   UNL     1       7.501   6.867  -9.816  1.00  0.00     0.037 A 
ATOM     51  C   UNL     1       3.567  12.154  -7.465  1.00  0.00     0.037 A 
ATOM     52  C   UNL     1       6.873   7.654 -10.842  1.00  0.00     0.049 A 
ATOM     53  C   UNL     1       3.793  11.921  -8.938  1.00  0.00     0.074 A 
ATOM     54  C   UNL     1       6.921   7.481 -12.214  1.00  0.00     0.029 A 
ATOM     55  N   UNL     1       6.089   8.773 -10.606  1.00  0.00    -0.354 N 
ATOM     56  N   UNL     1       4.459  10.961  -9.534  1.00  0.00    -0.248 NA
ATOM     57  C   UNL     1       3.193  12.894  -9.864  1.00  0.00     0.031 C 
ATOM     58  C   UNL     1       6.203   8.523 -12.810  1.00  0.00     0.029 A 
ATOM     59  C   UNL     1       5.669   9.317 -11.808  1.00  0.00     0.049 A 
ATOM     60  H   UNL     1       5.865   9.129  -9.716  1.00  0.00     0.167 HD
ATOM     61  C   UNL     1       4.333  11.197 -10.898  1.00  0.00     0.074 A 
ATOM     62  C   UNL     1       3.520  12.385 -11.044  1.00  0.00     0.031 C 
ATOM     63  C   UNL     1       4.846  10.492 -11.936  1.00  0.00     0.037 A 
BRANCH  50  64
ATOM     64  C   UNL     1       8.347   5.701 -10.232  1.00  0.00     0.064 A 
ATOM     65  C   UNL     1       7.917   4.379 -10.041  1.00  0.00     0.173 A 
ATOM     66  C   UNL     1       9.584   5.906 -10.860  1.00  0.00     0.173 A 
ATOM     67  F   UNL     1       6.748   4.131  -9.430  1.00  0.00    -0.203 F 
ATOM     68  C   UNL     1       8.705   3.305 -10.445  1.00  0.00     0.198 A 
ATOM     69  C   UNL     1      10.357   4.830 -11.286  1.00  0.00     0.198 A 
ATOM     70  F   UNL     1      10.038   7.151 -11.067  1.00  0.00    -0.203 F 
ATOM     71  F   UNL     1       8.293   2.051 -10.216  1.00  0.00    -0.200 F 
ATOM     72  C   UNL     1       9.921   3.531 -11.073  1.00  0.00     0.200 A 
ATOM     73  F   UNL     1      11.528   5.051 -11.901  1.00  0.00    -0.200 F 
ATOM     74  F   UNL     1      10.675   2.497 -11.468  1.00  0.00    -0.200 F 
ENDBRANCH  50  64
BRANCH  51  75
ATOM     75  C   UNL     1       2.742  13.302  -7.005  1.00  0.00     0.064 A 
ATOM     76  C   UNL     1       1.362  13.341  -7.246  1.00  0.00     0.173 A 
ATOM     77  C   UNL     1       3.322  14.402  -6.355  1.00  0.00     0.173 A 
ATOM     78  F   UNL     1       0.767  12.328  -7.893  1.00  0.00    -0.203 F 
ATOM     79  C   UNL     1       0.597  14.444  -6.873  1.00  0.00     0.198 A 
ATOM     80  C   UNL     1       2.551  15.492  -5.958  1.00  0.00     0.198 A 
ATOM     81  F   UNL     1       4.641  14.419  -6.111  1.00  0.00    -0.203 F 
ATOM     82  F   UNL     1      -0.711  14.479  -7.164  1.00  0.00    -0.200 F 
ATOM     83  C   UNL     1       1.191  15.517  -6.225  1.00  0.00     0.200 A 
ATOM     84  F   UNL     1       3.129  16.525  -5.329  1.00  0.00    -0.200 F 
ATOM     85  F   UNL     1       0.456  16.580  -5.872  1.00  0.00    -0.200 F 
ENDBRANCH  51  75
BRANCH  63  86
ATOM     86  C   UNL     1       4.515  10.960 -13.323  1.00  0.00     0.064 A 
ATOM     87  C   UNL     1       5.104  12.107 -13.873  1.00  0.00     0.173 A 
ATOM     88  C   UNL     1       3.642  10.216 -14.132  1.00  0.00     0.173 A 
ATOM     89  F   UNL     1       5.933  12.860 -13.135  1.00  0.00    -0.203 F 
ATOM     90  C   UNL     1       4.819  12.501 -15.178  1.00  0.00     0.198 A 
ATOM     91  C   UNL     1       3.381  10.597 -15.444  1.00  0.00     0.198 A 
ATOM     92  F   UNL     1       3.058   9.106 -13.654  1.00  0.00    -0.203 F 
ATOM     93  F   UNL     1       5.365  13.621 -15.672  1.00  0.00    -0.200 F 
ATOM     94  C   UNL     1       3.965  11.742 -15.965  1.00  0.00     0.200 A 
ATOM     95  F   UNL     1       2.566   9.855 -16.207  1.00  0.00    -0.200 F 
ATOM     96  F   UNL     1       3.703  12.116 -17.224  1.00  0.00    -0.200 F 
ENDBRANCH  63  86
ENDBRANCH  37  38
ENDBRANCH  30  32
ENDBRANCH  29  30
ENDBRANCH  28  29
ENDBRANCH  27  28
ENDBRANCH  26  27
ENDBRANCH  25  26
ENDBRANCH   1  25
TORSDOF 20
