REMARK SMILES Cc1cc(C)c2c(OCCCC(=O)OCCOCCOCCOC(=O)c3ccc(-c4c5nc(c(-c6c(F)c(F)c(F)c(F)c6F)c6ccc([nH]6)c(-c6c(F)c(F)c(F)c(F)c6F)c6nc(c(-c7c(F)c(F)c(F)c(F)c7F)c7ccc4[nH]7)C=C6)C=C5)cc3)nsc2n1
REMARK SMILES IDX 18 1 17 2 16 3 15 4 14 5 12 6 13 7 11 8 10 9 9 10 8 11 7 12
REMARK SMILES IDX 1 13 2 14 3 15 92 16 4 17 91 18 5 19 6 20 90 21 89 22 19 23
REMARK SMILES IDX 20 24 21 25 22 26 23 27 24 28 25 29 26 30 27 31 88 32 28 33
REMARK SMILES IDX 87 34 29 35 30 36 31 37 81 38 32 39 86 40 80 41 82 42 33 43
REMARK SMILES IDX 85 44 79 45 78 46 34 48 66 49 46 50 65 51 47 52 50 53 64 54
REMARK SMILES IDX 83 55 48 56 49 57 63 59 84 60 51 61 35 62 36 63 44 64 37 65
REMARK SMILES IDX 38 66 42 67 45 68 39 69 40 70 43 71 41 72 67 73 68 74 76 75
REMARK SMILES IDX 69 76 70 77 74 78 77 79 71 80 72 81 75 82 73 83 52 84 53 85
REMARK SMILES IDX 61 86 54 87 55 88 59 89 62 90 56 91 57 92 60 93 58 94
REMARK H PARENT 82 47 50 58
REMARK Flexibility Score: inf
ROOT
ATOM      1  C   UNL     1       2.252  -5.351   1.506  1.00  0.00     0.188 C 
ENDROOT
BRANCH   1   2
ATOM      2  O   UNL     1       1.337  -5.102   2.556  1.00  0.00    -0.376 OA
BRANCH   2   3
ATOM      3  C   UNL     1       0.170  -4.380   2.184  1.00  0.00     0.202 C 
BRANCH   3   4
ATOM      4  C   UNL     1       0.275  -3.318   1.072  1.00  0.00     0.261 C 
BRANCH   4   5
ATOM      5  O   UNL     1       0.659  -3.789  -0.262  1.00  0.00    -0.463 OA
BRANCH   5   6
ATOM      6  C   UNL     1       1.682  -3.158  -0.890  1.00  0.00     0.305 C 
ATOM      7  O   UNL     1       2.321  -2.256  -0.350  1.00  0.00    -0.252 OA
BRANCH   6   8
ATOM      8  C   UNL     1       2.003  -3.553  -2.342  1.00  0.00     0.126 C 
BRANCH   8   9
ATOM      9  C   UNL     1       1.800  -4.889  -3.081  1.00  0.00     0.053 C 
BRANCH   9  10
ATOM     10  C   UNL     1       0.458  -5.442  -3.601  1.00  0.00     0.232 C 
BRANCH  10  11
ATOM     11  O   UNL     1      -0.282  -4.842  -4.661  1.00  0.00    -0.477 OA
BRANCH  11  12
ATOM     12  C   UNL     1      -0.441  -3.505  -4.654  1.00  0.00     0.235 A 
ATOM     13  C   UNL     1       0.126   0.420  -0.897  1.00  0.00     0.067 C 
ATOM     14  C   UNL     1      -0.524  -0.507  -1.888  1.00  0.00     0.039 A 
ATOM     15  C   UNL     1      -1.181  -1.649  -1.440  1.00  0.00     0.027 A 
ATOM     16  N   UNL     1      -0.258  -0.274  -3.183  1.00  0.00    -0.240 NA
ATOM     17  C   UNL     1      -1.347  -2.770  -2.277  1.00  0.00    -0.034 A 
ATOM     18  C   UNL     1      -0.449  -1.344  -3.975  1.00  0.00     0.147 A 
ATOM     19  C   UNL     1      -1.908  -4.045  -1.708  1.00  0.00     0.045 C 
ATOM     20  C   UNL     1      -0.833  -2.628  -3.588  1.00  0.00     0.078 A 
ATOM     21  S   UNL     1      -0.144  -1.315  -5.649  1.00  0.00    -0.012 S 
ATOM     22  N   UNL     1      -0.190  -2.961  -5.843  1.00  0.00    -0.153 NA
ENDBRANCH  11  12
ENDBRANCH  10  11
ENDBRANCH   9  10
ENDBRANCH   8   9
ENDBRANCH   6   8
ENDBRANCH   5   6
ENDBRANCH   4   5
ENDBRANCH   3   4
ENDBRANCH   2   3
ENDBRANCH   1   2
BRANCH   1  23
ATOM     23  C   UNL     1       1.769  -6.268   0.360  1.00  0.00     0.188 C 
BRANCH  23  24
ATOM     24  O   UNL     1       0.374  -6.384   0.154  1.00  0.00    -0.376 OA
BRANCH  24  25
ATOM     25  C   UNL     1      -0.462  -7.403   0.688  1.00  0.00     0.202 C 
BRANCH  25  26
ATOM     26  C   UNL     1      -0.161  -8.301   1.890  1.00  0.00     0.261 C 
BRANCH  26  27
ATOM     27  O   UNL     1       1.121  -8.142   2.428  1.00  0.00    -0.460 OA
BRANCH  27  28
ATOM     28  C   UNL     1       2.089  -8.814   1.794  1.00  0.00     0.338 C 
ATOM     29  O   UNL     1       1.982  -9.591   0.851  1.00  0.00    -0.246 OA
BRANCH  28  30
ATOM     30  C   UNL     1       3.347  -8.340   2.359  1.00  0.00     0.060 A 
ATOM     31  C   UNL     1       4.529  -8.639   1.679  1.00  0.00     0.016 A 
ATOM     32  C   UNL     1       3.334  -7.704   3.614  1.00  0.00     0.016 A 
ATOM     33  C   UNL     1       5.678  -8.661   2.419  1.00  0.00     0.010 A 
ATOM     34  C   UNL     1       4.481  -7.689   4.338  1.00  0.00     0.010 A 
ATOM     35  C   UNL     1       5.554  -8.361   3.776  1.00  0.00    -0.014 A 
BRANCH  35  36
ATOM     36  C   UNL     1       6.434  -9.033   4.691  1.00  0.00     0.031 A 
ATOM     37  C   UNL     1       7.645  -8.261   4.964  1.00  0.00     0.074 A 
ATOM     38  C   UNL     1       6.048 -10.200   5.245  1.00  0.00     0.049 A 
ATOM     39  N   UNL     1       8.827  -8.493   4.506  1.00  0.00    -0.248 NA
ATOM     40  C   UNL     1       7.481  -6.950   5.610  1.00  0.00     0.031 C 
ATOM     41  C   UNL     1       4.736 -10.863   5.197  1.00  0.00     0.029 A 
ATOM     42  N   UNL     1       6.763 -11.015   6.060  1.00  0.00    -0.354 N 
ATOM     43  C   UNL     1       9.600  -7.460   5.006  1.00  0.00     0.074 A 
ATOM     44  C   UNL     1       8.692  -6.428   5.427  1.00  0.00     0.031 C 
ATOM     45  C   UNL     1       4.691 -11.845   6.128  1.00  0.00     0.029 A 
ATOM     46  C   UNL     1       6.002 -11.969   6.733  1.00  0.00     0.049 A 
ATOM     47  H   UNL     1       7.739 -10.938   6.168  1.00  0.00     0.167 HD
ATOM     48  C   UNL     1      10.899  -7.673   5.338  1.00  0.00     0.037 A 
ATOM     49  C   UNL     1       6.458 -12.697   7.783  1.00  0.00     0.037 A 
ATOM     50  C   UNL     1      11.404  -8.876   4.727  1.00  0.00     0.049 A 
ATOM     51  C   UNL     1       7.949 -12.639   7.719  1.00  0.00     0.074 A 
ATOM     52  C   UNL     1      11.583  -9.284   3.419  1.00  0.00     0.029 A 
ATOM     53  N   UNL     1      11.408 -10.024   5.483  1.00  0.00    -0.354 N 
ATOM     54  N   UNL     1       8.652 -13.186   6.764  1.00  0.00    -0.248 NA
ATOM     55  C   UNL     1       8.603 -11.548   8.429  1.00  0.00     0.031 C 
ATOM     56  C   UNL     1      11.237 -10.666   3.404  1.00  0.00     0.029 A 
ATOM     57  C   UNL     1      10.928 -11.052   4.709  1.00  0.00     0.049 A 
ATOM     58  H   UNL     1      11.704 -10.097   6.419  1.00  0.00     0.167 HD
ATOM     59  C   UNL     1       9.648 -12.260   6.479  1.00  0.00     0.074 A 
ATOM     60  C   UNL     1       9.599 -11.296   7.574  1.00  0.00     0.031 C 
ATOM     61  C   UNL     1      10.212 -12.193   5.236  1.00  0.00     0.037 A 
BRANCH  48  62
ATOM     62  C   UNL     1      11.560  -6.990   6.500  1.00  0.00     0.064 A 
ATOM     63  C   UNL     1      12.956  -7.053   6.624  1.00  0.00     0.173 A 
ATOM     64  C   UNL     1      10.866  -6.486   7.626  1.00  0.00     0.173 A 
ATOM     65  F   UNL     1      13.705  -7.555   5.631  1.00  0.00    -0.203 F 
ATOM     66  C   UNL     1      13.604  -6.672   7.801  1.00  0.00     0.198 A 
ATOM     67  C   UNL     1      11.520  -6.044   8.771  1.00  0.00     0.198 A 
ATOM     68  F   UNL     1       9.531  -6.502   7.715  1.00  0.00    -0.203 F 
ATOM     69  F   UNL     1      14.926  -6.853   7.916  1.00  0.00    -0.200 F 
ATOM     70  C   UNL     1      12.887  -6.164   8.870  1.00  0.00     0.200 A 
ATOM     71  F   UNL     1      10.800  -5.577   9.801  1.00  0.00    -0.200 F 
ATOM     72  F   UNL     1      13.504  -5.839  10.013  1.00  0.00    -0.200 F 
ENDBRANCH  48  62
BRANCH  49  73
ATOM     73  C   UNL     1       5.740 -13.040   9.037  1.00  0.00     0.064 A 
ATOM     74  C   UNL     1       6.292 -13.961   9.944  1.00  0.00     0.173 A 
ATOM     75  C   UNL     1       4.674 -12.255   9.517  1.00  0.00     0.173 A 
ATOM     76  F   UNL     1       7.334 -14.723   9.578  1.00  0.00    -0.203 F 
ATOM     77  C   UNL     1       5.839 -14.056  11.264  1.00  0.00     0.198 A 
ATOM     78  C   UNL     1       4.219 -12.354  10.834  1.00  0.00     0.198 A 
ATOM     79  F   UNL     1       4.118 -11.304   8.755  1.00  0.00    -0.203 F 
ATOM     80  F   UNL     1       6.442 -14.892  12.120  1.00  0.00    -0.200 F 
ATOM     81  C   UNL     1       4.814 -13.240  11.712  1.00  0.00     0.200 A 
ATOM     82  F   UNL     1       3.249 -11.534  11.264  1.00  0.00    -0.200 F 
ATOM     83  F   UNL     1       4.429 -13.275  12.996  1.00  0.00    -0.200 F 
ENDBRANCH  49  73
BRANCH  61  84
ATOM     84  C   UNL     1       9.881 -13.297   4.264  1.00  0.00     0.064 A 
ATOM     85  C   UNL     1       8.593 -13.534   3.750  1.00  0.00     0.173 A 
ATOM     86  C   UNL     1      10.934 -14.043   3.721  1.00  0.00     0.173 A 
ATOM     87  F   UNL     1       7.549 -12.796   4.146  1.00  0.00    -0.203 F 
ATOM     88  C   UNL     1       8.369 -14.500   2.768  1.00  0.00     0.198 A 
ATOM     89  C   UNL     1      10.715 -14.980   2.715  1.00  0.00     0.198 A 
ATOM     90  F   UNL     1      12.193 -13.823   4.133  1.00  0.00    -0.203 F 
ATOM     91  F   UNL     1       7.130 -14.710   2.300  1.00  0.00    -0.200 F 
ATOM     92  C   UNL     1       9.433 -15.216   2.245  1.00  0.00     0.200 A 
ATOM     93  F   UNL     1      11.754 -15.634   2.178  1.00  0.00    -0.200 F 
ATOM     94  F   UNL     1       9.228 -16.111   1.269  1.00  0.00    -0.200 F 
ENDBRANCH  61  84
ENDBRANCH  35  36
ENDBRANCH  28  30
ENDBRANCH  27  28
ENDBRANCH  26  27
ENDBRANCH  25  26
ENDBRANCH  24  25
ENDBRANCH  23  24
ENDBRANCH   1  23
TORSDOF 21
