REMARK SMILES Cc1ccc(C(=O)N2CCC3(CCC(=O)N(CC(=O)OCCOCCOCCOC(=O)c4ccc(-c5c6nc(c(-c7c(F)c(F)c(F)c(F)c7F)c7ccc([nH]7)c(-c7c(F)c(F)c(F)c(F)c7F)c7nc(c(-c8c(F)c(F)c(F)c(F)c8F)c8ccc5[nH]8)C=C7)C=C6)cc4)C3)CC2)cc1O
REMARK SMILES IDX 24 1 23 2 22 3 21 4 20 5 18 6 19 7 17 8 16 9 6 10 7 11 8 12
REMARK SMILES IDX 9 13 97 14 10 15 96 16 11 17 12 18 95 19 13 20 14 21 15 22
REMARK SMILES IDX 5 23 1 24 2 25 3 26 99 27 4 28 98 29 100 30 25 32 26 33
REMARK SMILES IDX 27 34 28 35 29 36 30 37 31 38 32 39 33 40 94 41 34 42 93 43
REMARK SMILES IDX 35 44 36 45 37 46 87 47 38 48 92 49 86 50 88 51 39 52 91 53
REMARK SMILES IDX 85 54 84 55 40 57 72 58 52 59 71 60 53 61 56 62 70 63 89 64
REMARK SMILES IDX 54 65 55 66 69 68 90 69 57 70 41 71 42 72 50 73 43 74 44 75
REMARK SMILES IDX 48 76 51 77 45 78 46 79 49 80 47 81 73 82 74 83 82 84 75 85
REMARK SMILES IDX 76 86 80 87 83 88 77 89 78 90 81 91 79 92 58 93 59 94 67 95
REMARK SMILES IDX 60 96 61 97 65 98 68 99 62 100 63 101 66 102 64 103
REMARK H PARENT 100 31 88 56 56 67
REMARK Flexibility Score: inf
ROOT
ATOM      1  C   UNL     1      11.309  -3.030   4.971  1.00  0.00     0.188 C 
ENDROOT
BRANCH   1   2
ATOM      2  O   UNL     1      11.335  -4.262   5.683  1.00  0.00    -0.376 OA
BRANCH   2   3
ATOM      3  C   UNL     1      10.806  -5.430   5.065  1.00  0.00     0.202 C 
BRANCH   3   4
ATOM      4  C   UNL     1       9.278  -5.481   4.917  1.00  0.00     0.261 C 
BRANCH   4   5
ATOM      5  O   UNL     1       8.721  -4.513   3.990  1.00  0.00    -0.462 OA
BRANCH   5   6
ATOM      6  C   UNL     1       7.875  -3.587   4.508  1.00  0.00     0.325 C 
ATOM      7  O   UNL     1       7.528  -3.564   5.687  1.00  0.00    -0.250 OA
BRANCH   6   8
ATOM      8  C   UNL     1       7.462  -2.437   3.556  1.00  0.00     0.242 C 
BRANCH   8   9
ATOM      9  N   UNL     1       7.613  -2.451   2.091  1.00  0.00    -0.331 N 
ATOM     10  C   UNL     1       2.844   1.567   0.164  1.00  0.00     0.253 C 
ATOM     11  O   UNL     1       2.725   2.725   0.558  1.00  0.00    -0.269 OA
ATOM     12  N   UNL     1       4.077   0.937   0.093  1.00  0.00    -0.339 N 
ATOM     13  C   UNL     1       5.056   1.245   1.115  1.00  0.00     0.120 C 
ATOM     14  C   UNL     1       4.539   0.131  -1.032  1.00  0.00     0.120 C 
ATOM     15  C   UNL     1       5.554  -0.074   1.702  1.00  0.00     0.030 C 
ATOM     16  C   UNL     1       5.171  -1.181  -0.560  1.00  0.00     0.030 C 
ATOM     17  C   UNL     1       6.164  -1.006   0.620  1.00  0.00    -0.008 C 
ATOM     18  C   UNL     1       7.485  -0.403   0.066  1.00  0.00     0.019 C 
ATOM     19  C   UNL     1       6.439  -2.419   1.235  1.00  0.00     0.127 C 
ATOM     20  C   UNL     1       8.600  -0.481   1.095  1.00  0.00     0.101 C 
ATOM     21  C   UNL     1       8.732  -1.937   1.462  1.00  0.00     0.223 C 
ATOM     22  O   UNL     1       9.607  -2.646   0.987  1.00  0.00    -0.275 OA
BRANCH  10  23
ATOM     23  C   UNL     1       1.619   0.745  -0.047  1.00  0.00     0.043 A 
ATOM     24  C   UNL     1      -2.024  -1.578  -0.061  1.00  0.00     0.048 C 
ATOM     25  C   UNL     1      -0.774  -0.751  -0.087  1.00  0.00    -0.009 A 
ATOM     26  C   UNL     1       0.461  -1.390   0.061  1.00  0.00     0.008 A 
ATOM     27  C   UNL     1      -0.790   0.645  -0.203  1.00  0.00     0.119 A 
ATOM     28  C   UNL     1       1.637  -0.645   0.108  1.00  0.00     0.014 A 
ATOM     29  C   UNL     1       0.391   1.389  -0.200  1.00  0.00     0.060 A 
BRANCH  27  30
ATOM     30  O   UNL     1      -1.949   1.361  -0.288  1.00  0.00    -0.508 OA
ATOM     31  H   UNL     1      -2.775   0.918  -0.295  1.00  0.00     0.293 HD
ENDBRANCH  27  30
ENDBRANCH  10  23
ENDBRANCH   8   9
ENDBRANCH   6   8
ENDBRANCH   5   6
ENDBRANCH   4   5
ENDBRANCH   3   4
ENDBRANCH   2   3
ENDBRANCH   1   2
BRANCH   1  32
ATOM     32  C   UNL     1      11.251  -3.054   3.447  1.00  0.00     0.188 C 
BRANCH  32  33
ATOM     33  O   UNL     1      12.102  -4.040   2.888  1.00  0.00    -0.376 OA
BRANCH  33  34
ATOM     34  C   UNL     1      12.481  -3.784   1.540  1.00  0.00     0.202 C 
BRANCH  34  35
ATOM     35  C   UNL     1      13.858  -3.128   1.565  1.00  0.00     0.261 C 
BRANCH  35  36
ATOM     36  O   UNL     1      13.871  -1.899   2.325  1.00  0.00    -0.460 OA
BRANCH  36  37
ATOM     37  C   UNL     1      13.223  -0.850   1.778  1.00  0.00     0.338 C 
ATOM     38  O   UNL     1      12.732  -0.786   0.655  1.00  0.00    -0.246 OA
BRANCH  37  39
ATOM     39  C   UNL     1      13.013   0.185   2.814  1.00  0.00     0.060 A 
ATOM     40  C   UNL     1      11.725   0.708   2.990  1.00  0.00     0.016 A 
ATOM     41  C   UNL     1      14.069   0.659   3.591  1.00  0.00     0.016 A 
ATOM     42  C   UNL     1      11.494   1.740   3.900  1.00  0.00     0.010 A 
ATOM     43  C   UNL     1      13.842   1.702   4.496  1.00  0.00     0.010 A 
ATOM     44  C   UNL     1      12.562   2.275   4.628  1.00  0.00    -0.014 A 
BRANCH  44  45
ATOM     45  C   UNL     1      12.389   3.540   5.387  1.00  0.00     0.031 A 
ATOM     46  C   UNL     1      12.890   4.820   4.773  1.00  0.00     0.074 A 
ATOM     47  C   UNL     1      11.793   3.564   6.593  1.00  0.00     0.049 A 
ATOM     48  N   UNL     1      12.941   6.025   5.281  1.00  0.00    -0.248 NA
ATOM     49  C   UNL     1      13.409   4.726   3.398  1.00  0.00     0.031 C 
ATOM     50  C   UNL     1      11.223   2.407   7.279  1.00  0.00     0.029 A 
ATOM     51  N   UNL     1      11.586   4.607   7.464  1.00  0.00    -0.354 N 
ATOM     52  C   UNL     1      13.517   6.824   4.301  1.00  0.00     0.074 A 
ATOM     53  C   UNL     1      13.813   5.968   3.174  1.00  0.00     0.031 C 
ATOM     54  C   UNL     1      10.752   2.799   8.477  1.00  0.00     0.029 A 
ATOM     55  C   UNL     1      11.024   4.225   8.658  1.00  0.00     0.049 A 
ATOM     56  H   UNL     1      11.820   5.540   7.253  1.00  0.00     0.167 HD
ATOM     57  C   UNL     1      13.773   8.153   4.338  1.00  0.00     0.037 A 
ATOM     58  C   UNL     1      10.790   4.937   9.779  1.00  0.00     0.037 A 
ATOM     59  C   UNL     1      13.460   9.010   5.451  1.00  0.00     0.049 A 
ATOM     60  C   UNL     1      11.140   6.406   9.813  1.00  0.00     0.074 A 
ATOM     61  C   UNL     1      13.647  10.377   5.563  1.00  0.00     0.029 A 
ATOM     62  N   UNL     1      12.899   8.583   6.644  1.00  0.00    -0.354 N 
ATOM     63  N   UNL     1      11.656   7.160   8.872  1.00  0.00    -0.248 NA
ATOM     64  C   UNL     1      10.873   7.125  11.069  1.00  0.00     0.031 C 
ATOM     65  C   UNL     1      13.257  10.768   6.847  1.00  0.00     0.029 A 
ATOM     66  C   UNL     1      12.764   9.656   7.510  1.00  0.00     0.049 A 
ATOM     67  H   UNL     1      12.637   7.656   6.847  1.00  0.00     0.167 HD
ATOM     68  C   UNL     1      11.739   8.440   9.408  1.00  0.00     0.074 A 
ATOM     69  C   UNL     1      11.209   8.366  10.751  1.00  0.00     0.031 C 
ATOM     70  C   UNL     1      12.214   9.575   8.838  1.00  0.00     0.037 A 
BRANCH  57  71
ATOM     71  C   UNL     1      14.451   8.772   3.152  1.00  0.00     0.064 A 
ATOM     72  C   UNL     1      13.781   8.975   1.938  1.00  0.00     0.173 A 
ATOM     73  C   UNL     1      15.771   9.238   3.261  1.00  0.00     0.173 A 
ATOM     74  F   UNL     1      12.524   8.534   1.778  1.00  0.00    -0.203 F 
ATOM     75  C   UNL     1      14.410   9.614   0.873  1.00  0.00     0.198 A 
ATOM     76  C   UNL     1      16.386   9.902   2.205  1.00  0.00     0.198 A 
ATOM     77  F   UNL     1      16.455   9.071   4.404  1.00  0.00    -0.203 F 
ATOM     78  F   UNL     1      13.761   9.772  -0.290  1.00  0.00    -0.200 F 
ATOM     79  C   UNL     1      15.707  10.088   1.011  1.00  0.00     0.200 A 
ATOM     80  F   UNL     1      17.634  10.372   2.346  1.00  0.00    -0.200 F 
ATOM     81  F   UNL     1      16.303  10.721  -0.009  1.00  0.00    -0.200 F 
ENDBRANCH  57  71
BRANCH  58  82
ATOM     82  C   UNL     1      10.227   4.276  10.988  1.00  0.00     0.064 A 
ATOM     83  C   UNL     1       8.963   4.624  11.486  1.00  0.00     0.173 A 
ATOM     84  C   UNL     1      10.970   3.328  11.708  1.00  0.00     0.173 A 
ATOM     85  F   UNL     1       8.225   5.548  10.853  1.00  0.00    -0.203 F 
ATOM     86  C   UNL     1       8.480   4.078  12.675  1.00  0.00     0.198 A 
ATOM     87  C   UNL     1      10.471   2.755  12.876  1.00  0.00     0.198 A 
ATOM     88  F   UNL     1      12.187   2.962  11.280  1.00  0.00    -0.203 F 
ATOM     89  F   UNL     1       7.301   4.483  13.165  1.00  0.00    -0.200 F 
ATOM     90  C   UNL     1       9.232   3.141  13.366  1.00  0.00     0.200 A 
ATOM     91  F   UNL     1      11.197   1.843  13.536  1.00  0.00    -0.200 F 
ATOM     92  F   UNL     1       8.772   2.622  14.513  1.00  0.00    -0.200 F 
ENDBRANCH  58  82
BRANCH  70  93
ATOM     93  C   UNL     1      12.134  10.844   9.639  1.00  0.00     0.064 A 
ATOM     94  C   UNL     1      12.950  11.068  10.758  1.00  0.00     0.173 A 
ATOM     95  C   UNL     1      11.260  11.872   9.250  1.00  0.00     0.173 A 
ATOM     96  F   UNL     1      13.794  10.115  11.179  1.00  0.00    -0.203 F 
ATOM     97  C   UNL     1      12.873  12.261  11.473  1.00  0.00     0.198 A 
ATOM     98  C   UNL     1      11.210  13.076   9.946  1.00  0.00     0.198 A 
ATOM     99  F   UNL     1      10.465  11.715   8.181  1.00  0.00    -0.203 F 
ATOM    100  F   UNL     1      13.626  12.432  12.568  1.00  0.00    -0.200 F 
ATOM    101  C   UNL     1      12.010  13.266  11.062  1.00  0.00     0.200 A 
ATOM    102  F   UNL     1      10.389  14.053   9.536  1.00  0.00    -0.200 F 
ATOM    103  F   UNL     1      11.946  14.417  11.746  1.00  0.00    -0.200 F 
ENDBRANCH  70  93
ENDBRANCH  44  45
ENDBRANCH  37  39
ENDBRANCH  36  37
ENDBRANCH  35  36
ENDBRANCH  34  35
ENDBRANCH  33  34
ENDBRANCH  32  33
ENDBRANCH   1  32
TORSDOF 20
