REMARK SMILES C[C@H]1[C@H](C(=O)OCCOCCOCCOC(=O)c2ccc(-c3c4nc(c(-c5c(F)c(F)c(F)c(F)c5F)c5ccc([nH]5)c(-c5c(F)c(F)c(F)c(F)c5F)c5nc(c(-c6c(F)c(F)c(F)c(F)c6F)c6ccc3[nH]6)C=C5)C=C4)cc2)CCN1C(=O)[C@H]1CC=CCC1
REMARK SMILES IDX 10 1 9 2 8 3 7 4 6 5 4 6 5 7 3 8 1 9 2 10 83 11 81 12 82 13
REMARK SMILES IDX 84 14 85 15 86 16 87 17 91 18 88 19 90 20 89 21 11 22 12 23
REMARK SMILES IDX 13 24 14 25 15 26 16 27 17 28 18 29 19 30 80 31 20 32 79 33
REMARK SMILES IDX 21 34 22 35 23 36 73 37 24 38 78 39 72 40 74 41 25 42 77 43
REMARK SMILES IDX 71 44 70 45 26 47 58 48 38 49 57 50 39 51 42 52 56 53 75 54
REMARK SMILES IDX 40 55 41 56 55 58 76 59 43 60 27 61 28 62 36 63 29 64 30 65
REMARK SMILES IDX 34 66 37 67 31 68 32 69 35 70 33 71 59 72 60 73 68 74 61 75
REMARK SMILES IDX 62 76 66 77 69 78 63 79 64 80 67 81 65 82 44 83 45 84 53 85
REMARK SMILES IDX 46 86 47 87 51 88 54 89 48 90 49 91 52 92 50 93
REMARK H PARENT 74 46 42 57
REMARK Flexibility Score: inf
ROOT
ATOM      1  C   UNL     1       1.546   3.985   1.778  1.00  0.00     0.188 C 
ENDROOT
BRANCH   1   2
ATOM      2  O   UNL     1       0.713   4.751   2.640  1.00  0.00    -0.376 OA
BRANCH   2   3
ATOM      3  C   UNL     1      -0.157   4.102   3.556  1.00  0.00     0.202 C 
BRANCH   3   4
ATOM      4  C   UNL     1      -1.258   3.177   3.006  1.00  0.00     0.261 C 
BRANCH   4   5
ATOM      5  O   UNL     1      -0.859   2.103   2.117  1.00  0.00    -0.463 OA
BRANCH   5   6
ATOM      6  C   UNL     1      -1.185   2.272   0.812  1.00  0.00     0.311 C 
ATOM      7  O   UNL     1      -1.716   3.289   0.369  1.00  0.00    -0.252 OA
BRANCH   6   8
ATOM      8  C   UNL     1      -0.939   1.082  -0.106  1.00  0.00     0.123 C 
ATOM      9  C   UNL     1       1.206   0.194  -1.024  1.00  0.00     0.032 C 
ATOM     10  C   UNL     1       0.194   0.042   0.126  1.00  0.00     0.096 C 
ATOM     11  N   UNL     1      -0.452  -1.277   0.078  1.00  0.00    -0.339 N 
ATOM     12  C   UNL     1      -2.219   0.262  -0.217  1.00  0.00     0.039 C 
ATOM     13  C   UNL     1      -1.760  -1.144  -0.539  1.00  0.00     0.121 C 
BRANCH  11  14
ATOM     14  C   UNL     1      -0.034  -2.540   0.446  1.00  0.00     0.226 C 
ATOM     15  O   UNL     1      -0.795  -3.498   0.226  1.00  0.00    -0.275 OA
BRANCH  14  16
ATOM     16  C   UNL     1       1.303  -2.896   1.133  1.00  0.00     0.083 C 
ATOM     17  C   UNL     1       2.589  -2.697   0.329  1.00  0.00     0.040 C 
ATOM     18  C   UNL     1       1.434  -2.527   2.612  1.00  0.00     0.018 C 
ATOM     19  C   UNL     1       3.422  -1.530   0.760  1.00  0.00    -0.030 C 
ATOM     20  C   UNL     1       2.145  -1.211   2.893  1.00  0.00     0.028 C 
ATOM     21  C   UNL     1       3.211  -0.864   1.901  1.00  0.00    -0.031 C 
ENDBRANCH  14  16
ENDBRANCH  11  14
ENDBRANCH   6   8
ENDBRANCH   5   6
ENDBRANCH   4   5
ENDBRANCH   3   4
ENDBRANCH   2   3
ENDBRANCH   1   2
BRANCH   1  22
ATOM     22  C   UNL     1       1.980   2.570   2.184  1.00  0.00     0.188 C 
BRANCH  22  23
ATOM     23  O   UNL     1       1.811   2.278   3.550  1.00  0.00    -0.376 OA
BRANCH  23  24
ATOM     24  C   UNL     1       2.936   1.992   4.353  1.00  0.00     0.202 C 
BRANCH  24  25
ATOM     25  C   UNL     1       4.124   2.960   4.358  1.00  0.00     0.261 C 
BRANCH  25  26
ATOM     26  O   UNL     1       4.498   3.508   3.087  1.00  0.00    -0.460 OA
BRANCH  26  27
ATOM     27  C   UNL     1       5.252   2.742   2.268  1.00  0.00     0.338 C 
ATOM     28  O   UNL     1       5.671   1.616   2.477  1.00  0.00    -0.246 OA
BRANCH  27  29
ATOM     29  C   UNL     1       5.331   3.450   0.976  1.00  0.00     0.060 A 
ATOM     30  C   UNL     1       4.673   2.941  -0.155  1.00  0.00     0.016 A 
ATOM     31  C   UNL     1       6.038   4.648   0.907  1.00  0.00     0.016 A 
ATOM     32  C   UNL     1       4.720   3.637  -1.365  1.00  0.00     0.010 A 
ATOM     33  C   UNL     1       6.109   5.326  -0.307  1.00  0.00     0.010 A 
ATOM     34  C   UNL     1       5.468   4.817  -1.452  1.00  0.00    -0.014 A 
BRANCH  34  35
ATOM     35  C   UNL     1       5.771   5.455  -2.753  1.00  0.00     0.031 A 
ATOM     36  C   UNL     1       7.127   5.211  -3.348  1.00  0.00     0.074 A 
ATOM     37  C   UNL     1       4.911   6.304  -3.339  1.00  0.00     0.049 A 
ATOM     38  N   UNL     1       7.746   5.850  -4.305  1.00  0.00    -0.248 NA
ATOM     39  C   UNL     1       7.899   4.104  -2.759  1.00  0.00     0.031 C 
ATOM     40  C   UNL     1       3.548   6.574  -2.890  1.00  0.00     0.029 A 
ATOM     41  N   UNL     1       5.084   7.134  -4.420  1.00  0.00    -0.354 N 
ATOM     42  C   UNL     1       8.992   5.247  -4.409  1.00  0.00     0.074 A 
ATOM     43  C   UNL     1       9.047   4.201  -3.411  1.00  0.00     0.031 C 
ATOM     44  C   UNL     1       3.018   7.535  -3.668  1.00  0.00     0.029 A 
ATOM     45  C   UNL     1       4.026   7.986  -4.626  1.00  0.00     0.049 A 
ATOM     46  H   UNL     1       5.886   7.119  -4.991  1.00  0.00     0.167 HD
ATOM     47  C   UNL     1      10.000   5.548  -5.260  1.00  0.00     0.037 A 
ATOM     48  C   UNL     1       3.914   9.044  -5.455  1.00  0.00     0.037 A 
ATOM     49  C   UNL     1       9.930   6.593  -6.245  1.00  0.00     0.049 A 
ATOM     50  C   UNL     1       5.082   9.419  -6.335  1.00  0.00     0.074 A 
ATOM     51  C   UNL     1      10.886   6.973  -7.169  1.00  0.00     0.029 A 
ATOM     52  N   UNL     1       8.839   7.432  -6.427  1.00  0.00    -0.354 N 
ATOM     53  N   UNL     1       6.260   8.851  -6.437  1.00  0.00    -0.248 NA
ATOM     54  C   UNL     1       4.909  10.588  -7.210  1.00  0.00     0.031 C 
ATOM     55  C   UNL     1      10.400   8.083  -7.865  1.00  0.00     0.029 A 
ATOM     56  C   UNL     1       9.110   8.345  -7.431  1.00  0.00     0.049 A 
ATOM     57  H   UNL     1       7.998   7.384  -5.917  1.00  0.00     0.167 HD
ATOM     58  C   UNL     1       6.946   9.560  -7.416  1.00  0.00     0.074 A 
ATOM     59  C   UNL     1       6.057  10.606  -7.874  1.00  0.00     0.031 C 
ATOM     60  C   UNL     1       8.197   9.358  -7.898  1.00  0.00     0.037 A 
BRANCH  47  61
ATOM     61  C   UNL     1      11.277   4.770  -5.133  1.00  0.00     0.064 A 
ATOM     62  C   UNL     1      11.356   3.412  -5.476  1.00  0.00     0.173 A 
ATOM     63  C   UNL     1      12.448   5.402  -4.687  1.00  0.00     0.173 A 
ATOM     64  F   UNL     1      10.262   2.755  -5.892  1.00  0.00    -0.203 F 
ATOM     65  C   UNL     1      12.552   2.710  -5.351  1.00  0.00     0.198 A 
ATOM     66  C   UNL     1      13.650   4.707  -4.598  1.00  0.00     0.198 A 
ATOM     67  F   UNL     1      12.429   6.700  -4.347  1.00  0.00    -0.203 F 
ATOM     68  F   UNL     1      12.590   1.400  -5.633  1.00  0.00    -0.200 F 
ATOM     69  C   UNL     1      13.699   3.359  -4.921  1.00  0.00     0.200 A 
ATOM     70  F   UNL     1      14.760   5.340  -4.196  1.00  0.00    -0.200 F 
ATOM     71  F   UNL     1      14.852   2.685  -4.811  1.00  0.00    -0.200 F 
ENDBRANCH  47  61
BRANCH  48  72
ATOM     72  C   UNL     1       2.662   9.847  -5.475  1.00  0.00     0.064 A 
ATOM     73  C   UNL     1       1.836   9.863  -6.608  1.00  0.00     0.173 A 
ATOM     74  C   UNL     1       2.273  10.629  -4.377  1.00  0.00     0.173 A 
ATOM     75  F   UNL     1       2.178   9.154  -7.694  1.00  0.00    -0.203 F 
ATOM     76  C   UNL     1       0.684  10.646  -6.650  1.00  0.00     0.198 A 
ATOM     77  C   UNL     1       1.103  11.386  -4.408  1.00  0.00     0.198 A 
ATOM     78  F   UNL     1       3.028  10.654  -3.268  1.00  0.00    -0.203 F 
ATOM     79  F   UNL     1      -0.056  10.685  -7.767  1.00  0.00    -0.200 F 
ATOM     80  C   UNL     1       0.315  11.401  -5.548  1.00  0.00     0.200 A 
ATOM     81  F   UNL     1       0.744  12.105  -3.336  1.00  0.00    -0.200 F 
ATOM     82  F   UNL     1      -0.794  12.153  -5.588  1.00  0.00    -0.200 F 
ENDBRANCH  48  72
BRANCH  60  83
ATOM     83  C   UNL     1       8.666  10.223  -9.033  1.00  0.00     0.064 A 
ATOM     84  C   UNL     1       9.018  11.567  -8.850  1.00  0.00     0.173 A 
ATOM     85  C   UNL     1       8.861   9.659 -10.305  1.00  0.00     0.173 A 
ATOM     86  F   UNL     1       8.840  12.156  -7.658  1.00  0.00    -0.203 F 
ATOM     87  C   UNL     1       9.543  12.317  -9.900  1.00  0.00     0.198 A 
ATOM     88  C   UNL     1       9.416  10.402 -11.342  1.00  0.00     0.198 A 
ATOM     89  F   UNL     1       8.548   8.374 -10.530  1.00  0.00    -0.203 F 
ATOM     90  F   UNL     1       9.847  13.608  -9.712  1.00  0.00    -0.200 F 
ATOM     91  C   UNL     1       9.754  11.731 -11.140  1.00  0.00     0.200 A 
ATOM     92  F   UNL     1       9.637   9.827 -12.532  1.00  0.00    -0.200 F 
ATOM     93  F   UNL     1      10.284  12.447 -12.141  1.00  0.00    -0.200 F 
ENDBRANCH  60  83
ENDBRANCH  34  35
ENDBRANCH  27  29
ENDBRANCH  26  27
ENDBRANCH  25  26
ENDBRANCH  24  25
ENDBRANCH  23  24
ENDBRANCH  22  23
ENDBRANCH   1  22
TORSDOF 19
