REMARK SMILES Cc1nn(C)c(C)c1CNC(=O)N[C@H]1CC[C@@H](C(=O)OCCOCCOCCOC(=O)c2ccc(-c3c4nc(c(-c5c(F)c(F)c(F)c(F)c5F)c5ccc([nH]5)c(-c5c(F)c(F)c(F)c(F)c5F)c5nc(c(-c6c(F)c(F)c(F)c(F)c6F)c6ccc3[nH]6)C=C5)C=C4)cc2)C1
REMARK SMILES IDX 24 1 23 2 22 3 21 4 20 5 18 6 19 7 17 8 14 9 15 10 95 11
REMARK SMILES IDX 16 12 13 13 10 14 11 15 12 17 9 19 8 20 1 21 2 22 3 23 4 24
REMARK SMILES IDX 6 25 5 26 7 27 25 28 26 29 27 30 28 31 29 32 30 33 31 34
REMARK SMILES IDX 32 35 33 36 94 37 34 38 93 39 35 40 36 41 37 42 87 43 38 44
REMARK SMILES IDX 92 45 86 46 88 47 39 48 91 49 85 50 84 51 40 53 72 54 52 55
REMARK SMILES IDX 71 56 53 57 56 58 70 59 89 60 54 61 55 62 69 64 90 65 57 66
REMARK SMILES IDX 41 67 42 68 50 69 43 70 44 71 48 72 51 73 45 74 46 75 49 76
REMARK SMILES IDX 47 77 73 78 74 79 82 80 75 81 76 82 80 83 83 84 77 85 78 86
REMARK SMILES IDX 81 87 79 88 58 89 59 90 67 91 60 92 61 93 65 94 68 95 62 96
REMARK SMILES IDX 63 97 66 98 64 99
REMARK H PARENT 10 16 13 18 88 52 56 63
REMARK Flexibility Score: inf
ROOT
ATOM      1  C   UNL     1      -0.590   5.385  -6.370  1.00  0.00     0.188 C 
ENDROOT
BRANCH   1   2
ATOM      2  O   UNL     1      -1.969   5.388  -6.704  1.00  0.00    -0.376 OA
BRANCH   2   3
ATOM      3  C   UNL     1      -2.940   5.260  -5.667  1.00  0.00     0.202 C 
BRANCH   3   4
ATOM      4  C   UNL     1      -2.785   4.175  -4.584  1.00  0.00     0.261 C 
BRANCH   4   5
ATOM      5  O   UNL     1      -1.521   4.191  -3.890  1.00  0.00    -0.463 OA
BRANCH   5   6
ATOM      6  C   UNL     1      -0.792   3.047  -3.929  1.00  0.00     0.309 C 
ATOM      7  O   UNL     1      -1.171   1.999  -4.439  1.00  0.00    -0.252 OA
BRANCH   6   8
ATOM      8  C   UNL     1       0.624   3.222  -3.389  1.00  0.00     0.101 C 
ATOM      9  C   UNL     1       0.613   4.038  -1.110  1.00  0.00     0.084 C 
ATOM     10  C   UNL     1       0.995   2.563  -1.047  1.00  0.00     0.026 C 
ATOM     11  C   UNL     1       0.940   4.444  -2.530  1.00  0.00     0.040 C 
ATOM     12  C   UNL     1       1.006   2.045  -2.489  1.00  0.00     0.017 C 
BRANCH   9  13
ATOM     13  N   UNL     1      -0.798   4.255  -0.840  1.00  0.00    -0.335 N 
ATOM     14  N   UNL     1      -0.902   4.938   1.413  1.00  0.00    -0.334 N 
ATOM     15  C   UNL     1      -1.472   4.686   0.232  1.00  0.00     0.315 C 
ATOM     16  H   UNL     1      -1.517   5.359   2.056  1.00  0.00     0.165 HD
ATOM     17  O   UNL     1      -2.681   4.891   0.109  1.00  0.00    -0.249 OA
ATOM     18  H   UNL     1      -1.379   4.041  -1.605  1.00  0.00     0.165 HD
BRANCH  14  19
ATOM     19  C   UNL     1       0.417   4.726   1.949  1.00  0.00     0.157 C 
BRANCH  19  20
ATOM     20  C   UNL     1       1.170   6.010   2.108  1.00  0.00     0.015 A 
ATOM     21  C   UNL     1       2.853   5.203   3.955  1.00  0.00     0.069 C 
ATOM     22  C   UNL     1       2.234   6.197   3.042  1.00  0.00     0.065 A 
ATOM     23  N   UNL     1       2.685   7.452   3.048  1.00  0.00    -0.178 NA
ATOM     24  N   UNL     1       1.940   8.075   2.123  1.00  0.00    -0.272 N 
ATOM     25  C   UNL     1       1.092   7.233   1.444  1.00  0.00     0.040 A 
ATOM     26  C   UNL     1       2.095   9.505   1.981  1.00  0.00     0.174 C 
ATOM     27  C   UNL     1       0.304   7.705   0.274  1.00  0.00     0.067 C 
ENDBRANCH  19  20
ENDBRANCH  14  19
ENDBRANCH   9  13
ENDBRANCH   6   8
ENDBRANCH   5   6
ENDBRANCH   4   5
ENDBRANCH   3   4
ENDBRANCH   2   3
ENDBRANCH   1   2
BRANCH   1  28
ATOM     28  C   UNL     1      -0.083   6.316  -5.262  1.00  0.00     0.188 C 
BRANCH  28  29
ATOM     29  O   UNL     1      -1.082   6.918  -4.479  1.00  0.00    -0.376 OA
BRANCH  29  30
ATOM     30  C   UNL     1      -1.362   8.297  -4.678  1.00  0.00     0.202 C 
BRANCH  30  31
ATOM     31  C   UNL     1      -1.254   8.995  -6.055  1.00  0.00     0.261 C 
BRANCH  31  32
ATOM     32  O   UNL     1      -0.317   8.475  -7.011  1.00  0.00    -0.460 OA
BRANCH  32  33
ATOM     33  C   UNL     1       0.972   8.874  -6.906  1.00  0.00     0.338 C 
ATOM     34  O   UNL     1       1.438   9.653  -6.085  1.00  0.00    -0.246 OA
BRANCH  33  35
ATOM     35  C   UNL     1       1.787   8.010  -7.791  1.00  0.00     0.060 A 
ATOM     36  C   UNL     1       2.731   7.141  -7.218  1.00  0.00     0.016 A 
ATOM     37  C   UNL     1       1.608   8.036  -9.174  1.00  0.00     0.016 A 
ATOM     38  C   UNL     1       3.506   6.308  -8.027  1.00  0.00     0.010 A 
ATOM     39  C   UNL     1       2.408   7.225  -9.986  1.00  0.00     0.010 A 
ATOM     40  C   UNL     1       3.378   6.376  -9.419  1.00  0.00    -0.014 A 
BRANCH  40  41
ATOM     41  C   UNL     1       4.378   5.715 -10.295  1.00  0.00     0.031 A 
ATOM     42  C   UNL     1       5.505   6.548 -10.842  1.00  0.00     0.074 A 
ATOM     43  C   UNL     1       4.295   4.409 -10.604  1.00  0.00     0.049 A 
ATOM     44  N   UNL     1       6.436   6.231 -11.705  1.00  0.00    -0.248 NA
ATOM     45  C   UNL     1       5.586   7.932 -10.348  1.00  0.00     0.031 C 
ATOM     46  C   UNL     1       3.288   3.481 -10.098  1.00  0.00     0.029 A 
ATOM     47  N   UNL     1       5.072   3.643 -11.440  1.00  0.00    -0.354 N 
ATOM     48  C   UNL     1       7.204   7.377 -11.866  1.00  0.00     0.074 A 
ATOM     49  C   UNL     1       6.615   8.404 -11.035  1.00  0.00     0.031 C 
ATOM     50  C   UNL     1       3.496   2.271 -10.649  1.00  0.00     0.029 A 
ATOM     51  C   UNL     1       4.624   2.352 -11.576  1.00  0.00     0.049 A 
ATOM     52  H   UNL     1       5.873   3.987 -11.897  1.00  0.00     0.167 HD
ATOM     53  C   UNL     1       8.304   7.555 -12.635  1.00  0.00     0.037 A 
ATOM     54  C   UNL     1       5.058   1.362 -12.382  1.00  0.00     0.037 A 
ATOM     55  C   UNL     1       8.884   6.534 -13.467  1.00  0.00     0.049 A 
ATOM     56  C   UNL     1       6.229   1.613 -13.302  1.00  0.00     0.074 A 
ATOM     57  C   UNL     1      10.004   6.613 -14.275  1.00  0.00     0.029 A 
ATOM     58  N   UNL     1       8.382   5.248 -13.604  1.00  0.00    -0.354 N 
ATOM     59  N   UNL     1       6.961   2.692 -13.440  1.00  0.00    -0.248 NA
ATOM     60  C   UNL     1       6.633   0.504 -14.180  1.00  0.00     0.031 C 
ATOM     61  C   UNL     1      10.144   5.395 -14.949  1.00  0.00     0.029 A 
ATOM     62  C   UNL     1       9.153   4.534 -14.508  1.00  0.00     0.049 A 
ATOM     63  H   UNL     1       7.594   4.895 -13.131  1.00  0.00     0.167 HD
ATOM     64  C   UNL     1       7.930   2.381 -14.387  1.00  0.00     0.074 A 
ATOM     65  C   UNL     1       7.699   1.008 -14.783  1.00  0.00     0.031 C 
ATOM     66  C   UNL     1       8.922   3.162 -14.884  1.00  0.00     0.037 A 
BRANCH  53  67
ATOM     67  C   UNL     1       8.935   8.917 -12.637  1.00  0.00     0.064 A 
ATOM     68  C   UNL     1       9.610   9.422 -11.515  1.00  0.00     0.173 A 
ATOM     69  C   UNL     1       8.888   9.718 -13.788  1.00  0.00     0.173 A 
ATOM     70  F   UNL     1       9.670   8.704 -10.383  1.00  0.00    -0.203 F 
ATOM     71  C   UNL     1      10.191  10.687 -11.538  1.00  0.00     0.198 A 
ATOM     72  C   UNL     1       9.500  10.968 -13.819  1.00  0.00     0.198 A 
ATOM     73  F   UNL     1       8.258   9.283 -14.890  1.00  0.00    -0.203 F 
ATOM     74  F   UNL     1      10.786  11.169 -10.438  1.00  0.00    -0.200 F 
ATOM     75  C   UNL     1      10.143  11.455 -12.691  1.00  0.00     0.200 A 
ATOM     76  F   UNL     1       9.464  11.703 -14.939  1.00  0.00    -0.200 F 
ATOM     77  F   UNL     1      10.711  12.669 -12.714  1.00  0.00    -0.200 F 
ENDBRANCH  53  67
BRANCH  54  78
ATOM     78  C   UNL     1       4.376   0.039 -12.377  1.00  0.00     0.064 A 
ATOM     79  C   UNL     1       5.036  -1.112 -11.923  1.00  0.00     0.173 A 
ATOM     80  C   UNL     1       3.066  -0.110 -12.857  1.00  0.00     0.173 A 
ATOM     81  F   UNL     1       6.301  -1.029 -11.483  1.00  0.00    -0.203 F 
ATOM     82  C   UNL     1       4.421  -2.362 -11.970  1.00  0.00     0.198 A 
ATOM     83  C   UNL     1       2.441  -1.355 -12.873  1.00  0.00     0.198 A 
ATOM     84  F   UNL     1       2.392   0.957 -13.310  1.00  0.00    -0.203 F 
ATOM     85  F   UNL     1       5.097  -3.453 -11.583  1.00  0.00    -0.200 F 
ATOM     86  C   UNL     1       3.122  -2.482 -12.439  1.00  0.00     0.200 A 
ATOM     87  F   UNL     1       1.182  -1.464 -13.318  1.00  0.00    -0.200 F 
ATOM     88  F   UNL     1       2.531  -3.684 -12.484  1.00  0.00    -0.200 F 
ENDBRANCH  54  78
BRANCH  66  89
ATOM     89  C   UNL     1       9.870   2.540 -15.871  1.00  0.00     0.064 A 
ATOM     90  C   UNL     1       9.473   2.209 -17.175  1.00  0.00     0.173 A 
ATOM     91  C   UNL     1      11.212   2.318 -15.520  1.00  0.00     0.173 A 
ATOM     92  F   UNL     1       8.201   2.389 -17.560  1.00  0.00    -0.203 F 
ATOM     93  C   UNL     1      10.375   1.652 -18.080  1.00  0.00     0.198 A 
ATOM     94  C   UNL     1      12.119   1.795 -16.438  1.00  0.00     0.198 A 
ATOM     95  F   UNL     1      11.649   2.625 -14.289  1.00  0.00    -0.203 F 
ATOM     96  F   UNL     1       9.960   1.296 -19.303  1.00  0.00    -0.200 F 
ATOM     97  C   UNL     1      11.698   1.454 -17.713  1.00  0.00     0.200 A 
ATOM     98  F   UNL     1      13.400   1.622 -16.087  1.00  0.00    -0.200 F 
ATOM     99  F   UNL     1      12.566   0.929 -18.589  1.00  0.00    -0.200 F 
ENDBRANCH  66  89
ENDBRANCH  40  41
ENDBRANCH  33  35
ENDBRANCH  32  33
ENDBRANCH  31  32
ENDBRANCH  30  31
ENDBRANCH  29  30
ENDBRANCH  28  29
ENDBRANCH   1  28
TORSDOF 20
