REMARK SMILES O=C(OCCOCCOCCOC(=O)c1ccc(S(=O)(=O)Nc2ccccc2I)cc1)c1ccc(-c2c3nc(c(-c4c(F)c(F)c(F)c(F)c4F)c4ccc([nH]4)c(-c4c(F)c(F)c(F)c(F)c4F)c4nc(c(-c5c(F)c(F)c(F)c(F)c5F)c5ccc2[nH]5)C=C4)C=C3)cc1
REMARK SMILES IDX 8 1 7 2 6 3 5 4 4 5 3 6 2 7 1 8 32 9 33 10 94 11 34 12 93 13
REMARK SMILES IDX 35 14 36 15 37 16 87 17 38 18 92 19 86 20 88 21 39 22 91 23
REMARK SMILES IDX 85 24 84 25 40 27 72 28 52 29 71 30 53 31 56 32 70 33 89 34
REMARK SMILES IDX 54 35 55 36 69 38 90 39 57 40 41 41 42 42 50 43 43 44 44 45
REMARK SMILES IDX 48 46 51 47 45 48 46 49 49 50 47 51 73 52 74 53 82 54 75 55
REMARK SMILES IDX 76 56 80 57 83 58 77 59 78 60 81 61 79 62 58 63 59 64 67 65
REMARK SMILES IDX 60 66 61 67 65 68 68 69 62 70 63 71 66 72 64 73 9 74 10 75
REMARK SMILES IDX 11 76 12 77 13 78 14 79 15 80 16 81 31 82 17 83 30 84 18 85
REMARK SMILES IDX 19 86 20 87 21 88 22 89 23 91 24 92 28 93 25 94 27 95 29 96
REMARK SMILES IDX 26 97
REMARK H PARENT 88 26 56 37 22 90
REMARK Flexibility Score: inf
ROOT
ATOM      1  C   UNL     1       2.045   1.472  -3.054  1.00  0.00     0.188 C 
ENDROOT
BRANCH   1   2
ATOM      2  C   UNL     1       2.496   0.376  -2.089  1.00  0.00     0.188 C 
BRANCH   2   3
ATOM      3  O   UNL     1       3.819   0.601  -1.585  1.00  0.00    -0.376 OA
BRANCH   3   4
ATOM      4  C   UNL     1       4.631  -0.579  -1.596  1.00  0.00     0.202 C 
BRANCH   4   5
ATOM      5  C   UNL     1       4.425  -1.503  -0.387  1.00  0.00     0.261 C 
BRANCH   5   6
ATOM      6  O   UNL     1       3.059  -1.529   0.059  1.00  0.00    -0.460 OA
BRANCH   6   7
ATOM      7  C   UNL     1       2.456  -0.758   0.999  1.00  0.00     0.338 C 
ATOM      8  O   UNL     1       1.271  -0.973   1.250  1.00  0.00    -0.246 OA
BRANCH   7   9
ATOM      9  C   UNL     1       3.146   0.320   1.783  1.00  0.00     0.060 A 
ATOM     10  C   UNL     1       4.347   0.938   1.436  1.00  0.00     0.016 A 
ATOM     11  C   UNL     1       2.514   0.751   2.966  1.00  0.00     0.016 A 
ATOM     12  C   UNL     1       4.984   1.822   2.299  1.00  0.00     0.010 A 
ATOM     13  C   UNL     1       3.118   1.687   3.815  1.00  0.00     0.010 A 
ATOM     14  C   UNL     1       4.394   2.171   3.513  1.00  0.00    -0.014 A 
BRANCH  14  15
ATOM     15  C   UNL     1       5.237   2.870   4.506  1.00  0.00     0.031 A 
ATOM     16  C   UNL     1       5.820   2.065   5.631  1.00  0.00     0.074 A 
ATOM     17  C   UNL     1       5.623   4.141   4.298  1.00  0.00     0.049 A 
ATOM     18  N   UNL     1       6.657   2.431   6.567  1.00  0.00    -0.248 NA
ATOM     19  C   UNL     1       5.429   0.647   5.696  1.00  0.00     0.031 C 
ATOM     20  C   UNL     1       5.199   4.972   3.173  1.00  0.00     0.029 A 
ATOM     21  N   UNL     1       6.489   4.941   4.992  1.00  0.00    -0.354 N 
ATOM     22  C   UNL     1       6.876   1.297   7.336  1.00  0.00     0.074 A 
ATOM     23  C   UNL     1       6.079   0.232   6.771  1.00  0.00     0.031 C 
ATOM     24  C   UNL     1       5.823   6.160   3.240  1.00  0.00     0.029 A 
ATOM     25  C   UNL     1       6.660   6.182   4.431  1.00  0.00     0.049 A 
ATOM     26  H   UNL     1       6.946   4.654   5.816  1.00  0.00     0.167 HD
ATOM     27  C   UNL     1       7.675   1.159   8.419  1.00  0.00     0.037 A 
ATOM     28  C   UNL     1       7.405   7.220   4.847  1.00  0.00     0.037 A 
ATOM     29  C   UNL     1       8.465   2.225   8.969  1.00  0.00     0.049 A 
ATOM     30  C   UNL     1       8.216   7.062   6.099  1.00  0.00     0.074 A 
ATOM     31  C   UNL     1       9.273   2.218  10.091  1.00  0.00     0.029 A 
ATOM     32  N   UNL     1       8.539   3.501   8.427  1.00  0.00    -0.354 N 
ATOM     33  N   UNL     1       8.373   6.004   6.855  1.00  0.00    -0.248 NA
ATOM     34  C   UNL     1       8.952   8.248   6.554  1.00  0.00     0.031 C 
ATOM     35  C   UNL     1       9.805   3.503  10.250  1.00  0.00     0.029 A 
ATOM     36  C   UNL     1       9.368   4.295   9.201  1.00  0.00     0.049 A 
ATOM     37  H   UNL     1       8.072   3.797   7.612  1.00  0.00     0.167 HD
ATOM     38  C   UNL     1       9.229   6.391   7.872  1.00  0.00     0.074 A 
ATOM     39  C   UNL     1       9.579   7.775   7.621  1.00  0.00     0.031 C 
ATOM     40  C   UNL     1       9.686   5.671   8.925  1.00  0.00     0.037 A 
BRANCH  27  41
ATOM     41  C   UNL     1       7.668  -0.175   9.103  1.00  0.00     0.064 A 
ATOM     42  C   UNL     1       8.279  -1.305   8.537  1.00  0.00     0.173 A 
ATOM     43  C   UNL     1       7.007  -0.330  10.330  1.00  0.00     0.173 A 
ATOM     44  F   UNL     1       8.898  -1.215   7.350  1.00  0.00    -0.203 F 
ATOM     45  C   UNL     1       8.200  -2.547   9.162  1.00  0.00     0.198 A 
ATOM     46  C   UNL     1       6.953  -1.568  10.964  1.00  0.00     0.198 A 
ATOM     47  F   UNL     1       6.401   0.718  10.908  1.00  0.00    -0.203 F 
ATOM     48  F   UNL     1       8.739  -3.626   8.575  1.00  0.00    -0.200 F 
ATOM     49  C   UNL     1       7.541  -2.677  10.375  1.00  0.00     0.200 A 
ATOM     50  F   UNL     1       6.318  -1.690  12.138  1.00  0.00    -0.200 F 
ATOM     51  F   UNL     1       7.459  -3.875  10.971  1.00  0.00    -0.200 F 
ENDBRANCH  27  41
BRANCH  28  52
ATOM     52  C   UNL     1       7.398   8.517   4.129  1.00  0.00     0.064 A 
ATOM     53  C   UNL     1       8.504   8.939   3.381  1.00  0.00     0.173 A 
ATOM     54  C   UNL     1       6.323   9.404   4.274  1.00  0.00     0.173 A 
ATOM     55  F   UNL     1       9.563   8.129   3.234  1.00  0.00    -0.203 F 
ATOM     56  C   UNL     1       8.550  10.218   2.829  1.00  0.00     0.198 A 
ATOM     57  C   UNL     1       6.369  10.680   3.718  1.00  0.00     0.198 A 
ATOM     58  F   UNL     1       5.237   9.040   4.969  1.00  0.00    -0.203 F 
ATOM     59  F   UNL     1       9.633  10.616   2.149  1.00  0.00    -0.200 F 
ATOM     60  C   UNL     1       7.485  11.090   3.004  1.00  0.00     0.200 A 
ATOM     61  F   UNL     1       5.324  11.507   3.861  1.00  0.00    -0.200 F 
ATOM     62  F   UNL     1       7.529  12.320   2.477  1.00  0.00    -0.200 F 
ENDBRANCH  28  52
BRANCH  40  63
ATOM     63  C   UNL     1      10.627   6.371   9.853  1.00  0.00     0.064 A 
ATOM     64  C   UNL     1      10.180   7.356  10.745  1.00  0.00     0.173 A 
ATOM     65  C   UNL     1      11.991   6.048   9.848  1.00  0.00     0.173 A 
ATOM     66  F   UNL     1       8.887   7.714  10.762  1.00  0.00    -0.203 F 
ATOM     67  C   UNL     1      11.074   8.014  11.582  1.00  0.00     0.198 A 
ATOM     68  C   UNL     1      12.877   6.688  10.707  1.00  0.00     0.198 A 
ATOM     69  F   UNL     1      12.462   5.114   9.008  1.00  0.00    -0.203 F 
ATOM     70  F   UNL     1      10.638   8.993  12.387  1.00  0.00    -0.200 F 
ATOM     71  C   UNL     1      12.419   7.676  11.567  1.00  0.00     0.200 A 
ATOM     72  F   UNL     1      14.175   6.357  10.696  1.00  0.00    -0.200 F 
ATOM     73  F   UNL     1      13.280   8.313  12.373  1.00  0.00    -0.200 F 
ENDBRANCH  40  63
ENDBRANCH  14  15
ENDBRANCH   7   9
ENDBRANCH   6   7
ENDBRANCH   5   6
ENDBRANCH   4   5
ENDBRANCH   3   4
ENDBRANCH   2   3
ENDBRANCH   1   2
BRANCH   1  74
ATOM     74  O   UNL     1       2.768   1.573  -4.278  1.00  0.00    -0.376 OA
BRANCH  74  75
ATOM     75  C   UNL     1       4.151   1.904  -4.204  1.00  0.00     0.202 C 
BRANCH  75  76
ATOM     76  C   UNL     1       4.514   3.339  -3.800  1.00  0.00     0.261 C 
BRANCH  76  77
ATOM     77  O   UNL     1       4.056   3.732  -2.494  1.00  0.00    -0.460 OA
BRANCH  77  78
ATOM     78  C   UNL     1       3.050   4.639  -2.511  1.00  0.00     0.338 C 
ATOM     79  O   UNL     1       2.501   5.119  -3.490  1.00  0.00    -0.246 OA
BRANCH  78  80
ATOM     80  C   UNL     1       2.621   4.997  -1.150  1.00  0.00     0.060 A 
ATOM     81  C   UNL     1       1.263   4.867  -0.821  1.00  0.00     0.017 A 
ATOM     82  C   UNL     1       3.496   5.680  -0.307  1.00  0.00     0.017 A 
ATOM     83  C   UNL     1       0.750   5.517   0.303  1.00  0.00     0.023 A 
ATOM     84  C   UNL     1       2.980   6.326   0.815  1.00  0.00     0.023 A 
ATOM     85  C   UNL     1       1.603   6.314   1.067  1.00  0.00     0.087 A 
BRANCH  85  86
ATOM     86  S   UNL     1       0.947   7.394   2.320  1.00  0.00     0.261 S 
ATOM     87  O   UNL     1      -0.441   7.052   2.541  1.00  0.00    -0.201 OA
ATOM     88  O   UNL     1       1.891   7.400   3.419  1.00  0.00    -0.201 OA
BRANCH  86  89
ATOM     89  N   UNL     1       0.962   8.978   1.657  1.00  0.00    -0.279 N 
ATOM     90  H   UNL     1       0.232   9.614   1.839  1.00  0.00     0.180 HD
BRANCH  89  91
ATOM     91  C   UNL     1       2.084   9.343   0.826  1.00  0.00     0.062 A 
ATOM     92  C   UNL     1       3.295   9.708   1.427  1.00  0.00     0.028 A 
ATOM     93  C   UNL     1       2.019   9.228  -0.574  1.00  0.00     0.037 A 
ATOM     94  C   UNL     1       4.431   9.921   0.639  1.00  0.00     0.002 A 
ATOM     95  C   UNL     1       3.167   9.417  -1.352  1.00  0.00     0.017 A 
ATOM     96  I   UNL     1       0.227   8.832  -1.590  1.00  0.00    -0.042 I 
ATOM     97  C   UNL     1       4.374   9.757  -0.743  1.00  0.00     0.001 A 
ENDBRANCH  89  91
ENDBRANCH  86  89
ENDBRANCH  85  86
ENDBRANCH  78  80
ENDBRANCH  77  78
ENDBRANCH  76  77
ENDBRANCH  75  76
ENDBRANCH  74  75
ENDBRANCH   1  74
TORSDOF 20
