REMARK SMILES O=C(OCCOCCOCCOC(=O)c1ccccc1-c1ccc(/C=C2/SC(=S)N(Cc3ccccc3)C2=O)o1)c1ccc(-c2c3nc(c(-c4c(F)c(F)c(F)c(F)c4F)c4ccc([nH]4)c(-c4c(F)c(F)c(F)c(F)c4F)c4nc(c(-c5c(F)c(F)c(F)c(F)c5F)c5ccc2[nH]5)C=C4)C=C3)cc1
REMARK SMILES IDX 8 1 7 2 6 3 5 4 4 5 3 6 2 7 1 8 41 9 42 10 103 11 43 12
REMARK SMILES IDX 102 13 44 14 45 15 46 16 96 17 47 18 101 19 95 20 97 21
REMARK SMILES IDX 48 22 100 23 94 24 93 25 49 27 81 28 61 29 80 30 62 31 65 32
REMARK SMILES IDX 79 33 98 34 63 35 64 36 78 38 99 39 66 40 50 41 51 42 59 43
REMARK SMILES IDX 52 44 53 45 57 46 60 47 54 48 55 49 58 50 56 51 82 52 83 53
REMARK SMILES IDX 91 54 84 55 85 56 89 57 92 58 86 59 87 60 90 61 88 62 67 63
REMARK SMILES IDX 68 64 76 65 69 66 70 67 74 68 77 69 71 70 72 71 75 72 73 73
REMARK SMILES IDX 9 74 10 75 11 76 12 77 13 78 14 79 15 80 16 81 20 82 17 83
REMARK SMILES IDX 19 84 18 85 21 86 22 87 40 88 23 89 24 90 25 91 26 92 27 93
REMARK SMILES IDX 38 94 28 95 30 96 39 97 29 98 31 99 32 100 33 101 37 102
REMARK SMILES IDX 34 103 36 104 35 105
REMARK H PARENT 97 26 65 37
REMARK Flexibility Score: inf
ROOT
ATOM      1  C   UNL     1       1.909   2.436  -1.964  1.00  0.00     0.188 C 
ENDROOT
BRANCH   1   2
ATOM      2  C   UNL     1       2.515   1.099  -1.544  1.00  0.00     0.188 C 
BRANCH   2   3
ATOM      3  O   UNL     1       3.823   1.212  -0.977  1.00  0.00    -0.376 OA
BRANCH   3   4
ATOM      4  C   UNL     1       4.718   0.170  -1.387  1.00  0.00     0.202 C 
BRANCH   4   5
ATOM      5  C   UNL     1       4.436  -1.222  -0.791  1.00  0.00     0.261 C 
BRANCH   5   6
ATOM      6  O   UNL     1       3.055  -1.442  -0.449  1.00  0.00    -0.460 OA
BRANCH   6   7
ATOM      7  C   UNL     1       2.433  -1.240   0.740  1.00  0.00     0.338 C 
ATOM      8  O   UNL     1       1.252  -1.565   0.852  1.00  0.00    -0.246 OA
BRANCH   7   9
ATOM      9  C   UNL     1       3.103  -0.644   1.935  1.00  0.00     0.060 A 
ATOM     10  C   UNL     1       4.220   0.187   1.886  1.00  0.00     0.016 A 
ATOM     11  C   UNL     1       2.532  -0.899   3.194  1.00  0.00     0.016 A 
ATOM     12  C   UNL     1       4.838   0.644   3.036  1.00  0.00     0.010 A 
ATOM     13  C   UNL     1       3.111  -0.392   4.362  1.00  0.00     0.010 A 
ATOM     14  C   UNL     1       4.299   0.343   4.282  1.00  0.00    -0.014 A 
BRANCH  14  15
ATOM     15  C   UNL     1       5.106   0.680   5.468  1.00  0.00     0.031 A 
ATOM     16  C   UNL     1       5.822  -0.430   6.170  1.00  0.00     0.074 A 
ATOM     17  C   UNL     1       5.333   1.968   5.780  1.00  0.00     0.049 A 
ATOM     18  N   UNL     1       6.590  -0.384   7.224  1.00  0.00    -0.248 NA
ATOM     19  C   UNL     1       5.675  -1.775   5.589  1.00  0.00     0.031 C 
ATOM     20  C   UNL     1       4.809   3.112   5.035  1.00  0.00     0.029 A 
ATOM     21  N   UNL     1       6.098   2.533   6.765  1.00  0.00    -0.354 N 
ATOM     22  C   UNL     1       6.995  -1.692   7.446  1.00  0.00     0.074 A 
ATOM     23  C   UNL     1       6.381  -2.514   6.428  1.00  0.00     0.031 C 
ATOM     24  C   UNL     1       5.292   4.241   5.574  1.00  0.00     0.029 A 
ATOM     25  C   UNL     1       6.077   3.905   6.749  1.00  0.00     0.049 A 
ATOM     26  H   UNL     1       6.612   2.007   7.420  1.00  0.00     0.167 HD
ATOM     27  C   UNL     1       7.810  -2.155   8.421  1.00  0.00     0.037 A 
ATOM     28  C   UNL     1       6.603   4.792   7.613  1.00  0.00     0.037 A 
ATOM     29  C   UNL     1       8.405  -1.305   9.415  1.00  0.00     0.049 A 
ATOM     30  C   UNL     1       7.394   4.243   8.766  1.00  0.00     0.074 A 
ATOM     31  C   UNL     1       9.191  -1.652  10.496  1.00  0.00     0.029 A 
ATOM     32  N   UNL     1       8.269   0.080   9.441  1.00  0.00    -0.354 N 
ATOM     33  N   UNL     1       7.711   2.996   9.027  1.00  0.00    -0.248 NA
ATOM     34  C   UNL     1       7.898   5.212   9.745  1.00  0.00     0.031 C 
ATOM     35  C   UNL     1       9.486  -0.484  11.207  1.00  0.00     0.029 A 
ATOM     36  C   UNL     1       8.939   0.600  10.535  1.00  0.00     0.049 A 
ATOM     37  H   UNL     1       7.771   0.611   8.779  1.00  0.00     0.167 HD
ATOM     38  C   UNL     1       8.470   3.028  10.185  1.00  0.00     0.074 A 
ATOM     39  C   UNL     1       8.580   4.424  10.566  1.00  0.00     0.031 C 
ATOM     40  C   UNL     1       9.027   2.000  10.873  1.00  0.00     0.037 A 
BRANCH  27  41
ATOM     41  C   UNL     1       8.017  -3.639   8.488  1.00  0.00     0.064 A 
ATOM     42  C   UNL     1       8.760  -4.337   7.523  1.00  0.00     0.173 A 
ATOM     43  C   UNL     1       7.415  -4.384   9.514  1.00  0.00     0.173 A 
ATOM     44  F   UNL     1       9.327  -3.678   6.501  1.00  0.00    -0.203 F 
ATOM     45  C   UNL     1       8.864  -5.726   7.565  1.00  0.00     0.198 A 
ATOM     46  C   UNL     1       7.547  -5.769   9.570  1.00  0.00     0.198 A 
ATOM     47  F   UNL     1       6.684  -3.769  10.456  1.00  0.00    -0.203 F 
ATOM     48  F   UNL     1       9.521  -6.377   6.595  1.00  0.00    -0.200 F 
ATOM     49  C   UNL     1       8.262  -6.440   8.590  1.00  0.00     0.200 A 
ATOM     50  F   UNL     1       6.965  -6.455  10.563  1.00  0.00    -0.200 F 
ATOM     51  F   UNL     1       8.355  -7.776   8.624  1.00  0.00    -0.200 F 
ENDBRANCH  27  41
BRANCH  28  52
ATOM     52  C   UNL     1       6.347   6.249   7.446  1.00  0.00     0.064 A 
ATOM     53  C   UNL     1       7.384   7.152   7.179  1.00  0.00     0.173 A 
ATOM     54  C   UNL     1       5.047   6.774   7.556  1.00  0.00     0.173 A 
ATOM     55  F   UNL     1       8.647   6.711   7.081  1.00  0.00    -0.203 F 
ATOM     56  C   UNL     1       7.138   8.520   7.051  1.00  0.00     0.198 A 
ATOM     57  C   UNL     1       4.798   8.136   7.400  1.00  0.00     0.198 A 
ATOM     58  F   UNL     1       4.011   5.958   7.807  1.00  0.00    -0.203 F 
ATOM     59  F   UNL     1       8.158   9.365   6.847  1.00  0.00    -0.200 F 
ATOM     60  C   UNL     1       5.845   9.010   7.160  1.00  0.00     0.200 A 
ATOM     61  F   UNL     1       3.543   8.599   7.496  1.00  0.00    -0.200 F 
ATOM     62  F   UNL     1       5.613  10.326   7.056  1.00  0.00    -0.200 F 
ENDBRANCH  28  52
BRANCH  40  63
ATOM     63  C   UNL     1       9.837   2.361  12.081  1.00  0.00     0.064 A 
ATOM     64  C   UNL     1       9.236   2.822  13.260  1.00  0.00     0.173 A 
ATOM     65  C   UNL     1      11.231   2.200  12.066  1.00  0.00     0.173 A 
ATOM     66  F   UNL     1       7.908   3.007  13.314  1.00  0.00    -0.203 F 
ATOM     67  C   UNL     1      10.006   3.135  14.375  1.00  0.00     0.198 A 
ATOM     68  C   UNL     1      11.993   2.481  13.194  1.00  0.00     0.198 A 
ATOM     69  F   UNL     1      11.849   1.755  10.962  1.00  0.00    -0.203 F 
ATOM     70  F   UNL     1       9.418   3.625  15.476  1.00  0.00    -0.200 F 
ATOM     71  C   UNL     1      11.381   2.956  14.344  1.00  0.00     0.200 A 
ATOM     72  F   UNL     1      13.319   2.290  13.168  1.00  0.00    -0.200 F 
ATOM     73  F   UNL     1      12.120   3.248  15.423  1.00  0.00    -0.200 F 
ENDBRANCH  40  63
ENDBRANCH  14  15
ENDBRANCH   7   9
ENDBRANCH   6   7
ENDBRANCH   5   6
ENDBRANCH   4   5
ENDBRANCH   3   4
ENDBRANCH   2   3
ENDBRANCH   1   2
BRANCH   1  74
ATOM     74  O   UNL     1       2.602   3.176  -2.962  1.00  0.00    -0.376 OA
BRANCH  74  75
ATOM     75  C   UNL     1       3.969   3.485  -2.723  1.00  0.00     0.202 C 
BRANCH  75  76
ATOM     76  C   UNL     1       4.309   4.452  -1.582  1.00  0.00     0.261 C 
BRANCH  76  77
ATOM     77  O   UNL     1       3.780   4.130  -0.285  1.00  0.00    -0.460 OA
BRANCH  77  78
ATOM     78  C   UNL     1       2.698   4.866   0.072  1.00  0.00     0.338 C 
ATOM     79  O   UNL     1       2.026   5.591  -0.648  1.00  0.00    -0.246 OA
BRANCH  78  80
ATOM     80  C   UNL     1       2.456   4.790   1.518  1.00  0.00     0.071 A 
ATOM     81  C   UNL     1       1.376   4.033   1.984  1.00  0.00     0.016 A 
ATOM     82  C   UNL     1       3.186   5.627   2.381  1.00  0.00     0.032 A 
ATOM     83  C   UNL     1       0.999   4.127   3.323  1.00  0.00     0.001 A 
ATOM     84  C   UNL     1       2.759   5.747   3.708  1.00  0.00     0.013 A 
ATOM     85  C   UNL     1       1.674   5.000   4.177  1.00  0.00     0.001 A 
BRANCH  82  86
ATOM     86  C   UNL     1       4.351   6.349   1.898  1.00  0.00     0.135 A 
ATOM     87  C   UNL     1       4.579   7.120   0.782  1.00  0.00     0.051 A 
ATOM     88  O   UNL     1       5.516   6.160   2.586  1.00  0.00    -0.457 OA
ATOM     89  C   UNL     1       5.967   7.319   0.725  1.00  0.00     0.051 A 
ATOM     90  C   UNL     1       6.516   6.797   1.892  1.00  0.00     0.128 A 
BRANCH  90  91
ATOM     91  C   UNL     1       7.860   6.941   2.332  1.00  0.00     0.068 C 
ATOM     92  C   UNL     1       8.326   8.173   2.575  1.00  0.00     0.084 C 
ATOM     93  S   UNL     1       9.980   8.630   2.600  1.00  0.00    -0.054 SA
ATOM     94  C   UNL     1       7.484   9.399   2.649  1.00  0.00     0.266 C 
ATOM     95  C   UNL     1       9.582  10.310   2.186  1.00  0.00     0.148 C 
ATOM     96  N   UNL     1       8.217  10.491   2.231  1.00  0.00    -0.288 N 
ATOM     97  O   UNL     1       6.347   9.419   3.080  1.00  0.00    -0.268 OA
ATOM     98  S   UNL     1      10.759  11.431   1.818  1.00  0.00    -0.052 S 
BRANCH  96  99
ATOM     99  C   UNL     1       7.501  11.742   1.988  1.00  0.00     0.163 C 
BRANCH  99 100
ATOM    100  C   UNL     1       6.909  11.831   0.591  1.00  0.00    -0.028 A 
ATOM    101  C   UNL     1       7.374  12.790  -0.320  1.00  0.00     0.005 A 
ATOM    102  C   UNL     1       5.843  11.004   0.197  1.00  0.00     0.005 A 
ATOM    103  C   UNL     1       6.785  12.923  -1.581  1.00  0.00     0.000 A 
ATOM    104  C   UNL     1       5.268  11.123  -1.071  1.00  0.00     0.000 A 
ATOM    105  C   UNL     1       5.735  12.088  -1.958  1.00  0.00     0.000 A 
ENDBRANCH  99 100
ENDBRANCH  96  99
ENDBRANCH  90  91
ENDBRANCH  82  86
ENDBRANCH  78  80
ENDBRANCH  77  78
ENDBRANCH  76  77
ENDBRANCH  75  76
ENDBRANCH  74  75
ENDBRANCH   1  74
TORSDOF 21
