REMARK SMILES O=C(OCCOCCOCCOC(=O)C1CCN(C2=[NH+]C(Cl)=[NH+]C3=[NH+]C=N[C@@H]32)CC1)c1ccc(-c2c3nc(c(-c4c(F)c(F)c(F)c(F)c4F)c4ccc([nH]4)c(-c4c(F)c(F)c(F)c(F)c4F)c4nc(c(-c5c(F)c(F)c(F)c(F)c5F)c5ccc2[nH]5)C=C4)C=C3)cc1
REMARK SMILES IDX 7 1 6 2 5 3 4 4 3 5 2 6 1 7 31 8 32 9 93 10 33 11 92 12
REMARK SMILES IDX 34 13 35 14 36 15 86 16 37 17 91 18 85 19 87 20 38 21 90 22
REMARK SMILES IDX 84 23 83 24 39 26 71 27 51 28 70 29 52 30 55 31 69 32 88 33
REMARK SMILES IDX 53 34 54 35 68 37 89 38 56 39 40 40 41 41 49 42 42 43 43 44
REMARK SMILES IDX 47 45 50 46 44 47 45 48 48 49 46 50 72 51 73 52 81 53 74 54
REMARK SMILES IDX 75 55 79 56 82 57 76 58 77 59 80 60 78 61 57 62 58 63 66 64
REMARK SMILES IDX 59 65 60 66 64 67 67 68 61 69 62 70 65 71 63 72 8 73 9 74
REMARK SMILES IDX 10 75 11 76 12 77 13 78 14 79 15 80 16 81 30 82 17 83 29 84
REMARK SMILES IDX 18 85 19 86 20 87 28 88 21 89 24 91 27 92 22 93 23 94 25 95
REMARK SMILES IDX 26 96
REMARK H PARENT 87 25 55 36 20 90 23 97 25 98
REMARK Flexibility Score: inf
ROOT
ATOM      1  C   UNL     1       3.187   1.494  -0.466  1.00  0.00     0.188 C 
ENDROOT
BRANCH   1   2
ATOM      2  O   UNL     1       4.572   1.317  -0.642  1.00  0.00    -0.376 OA
BRANCH   2   3
ATOM      3  C   UNL     1       5.207   0.084  -0.383  1.00  0.00     0.202 C 
BRANCH   3   4
ATOM      4  C   UNL     1       4.589  -1.258  -0.789  1.00  0.00     0.261 C 
BRANCH   4   5
ATOM      5  O   UNL     1       3.193  -1.273  -1.086  1.00  0.00    -0.460 OA
BRANCH   5   6
ATOM      6  C   UNL     1       2.141  -1.562  -0.299  1.00  0.00     0.338 C 
ATOM      7  O   UNL     1       1.069  -1.871  -0.815  1.00  0.00    -0.246 OA
BRANCH   6   8
ATOM      8  C   UNL     1       2.143  -1.326   1.165  1.00  0.00     0.060 A 
ATOM      9  C   UNL     1       3.210  -1.581   2.025  1.00  0.00     0.016 A 
ATOM     10  C   UNL     1       0.906  -0.897   1.696  1.00  0.00     0.016 A 
ATOM     11  C   UNL     1       2.983  -1.620   3.389  1.00  0.00     0.010 A 
ATOM     12  C   UNL     1       0.681  -0.918   3.057  1.00  0.00     0.010 A 
ATOM     13  C   UNL     1       1.693  -1.399   3.873  1.00  0.00    -0.014 A 
BRANCH  13  14
ATOM     14  C   UNL     1       1.420  -1.825   5.233  1.00  0.00     0.031 A 
ATOM     15  C   UNL     1       2.116  -1.055   6.288  1.00  0.00     0.074 A 
ATOM     16  C   UNL     1       0.597  -2.868   5.464  1.00  0.00     0.049 A 
ATOM     17  N   UNL     1       3.016  -1.474   7.117  1.00  0.00    -0.248 NA
ATOM     18  C   UNL     1       1.877   0.394   6.336  1.00  0.00     0.031 C 
ATOM     19  C   UNL     1      -0.293  -3.555   4.520  1.00  0.00     0.029 A 
ATOM     20  N   UNL     1       0.325  -3.492   6.640  1.00  0.00    -0.354 N 
ATOM     21  C   UNL     1       3.325  -0.380   7.922  1.00  0.00     0.074 A 
ATOM     22  C   UNL     1       2.719   0.768   7.301  1.00  0.00     0.031 C 
ATOM     23  C   UNL     1      -1.166  -4.325   5.205  1.00  0.00     0.029 A 
ATOM     24  C   UNL     1      -0.806  -4.296   6.609  1.00  0.00     0.049 A 
ATOM     25  H   UNL     1       0.882  -3.384   7.444  1.00  0.00     0.167 HD
ATOM     26  C   UNL     1       3.846  -0.550   9.168  1.00  0.00     0.037 A 
ATOM     27  C   UNL     1      -1.442  -4.811   7.690  1.00  0.00     0.037 A 
ATOM     28  C   UNL     1       4.487  -1.834   9.297  1.00  0.00     0.049 A 
ATOM     29  C   UNL     1      -0.471  -4.805   8.816  1.00  0.00     0.074 A 
ATOM     30  C   UNL     1       5.554  -2.452   8.674  1.00  0.00     0.029 A 
ATOM     31  N   UNL     1       3.816  -2.838   9.952  1.00  0.00    -0.354 N 
ATOM     32  N   UNL     1       0.590  -5.565   8.855  1.00  0.00    -0.248 NA
ATOM     33  C   UNL     1      -0.418  -3.616   9.655  1.00  0.00     0.031 C 
ATOM     34  C   UNL     1       5.182  -3.825   8.574  1.00  0.00     0.029 A 
ATOM     35  C   UNL     1       3.939  -3.970   9.189  1.00  0.00     0.049 A 
ATOM     36  H   UNL     1       3.337  -2.759  10.808  1.00  0.00     0.167 HD
ATOM     37  C   UNL     1       1.588  -4.756   9.380  1.00  0.00     0.074 A 
ATOM     38  C   UNL     1       0.891  -3.589   9.918  1.00  0.00     0.031 C 
ATOM     39  C   UNL     1       2.902  -4.966   9.073  1.00  0.00     0.037 A 
BRANCH  26  40
ATOM     40  C   UNL     1       3.425   0.270  10.366  1.00  0.00     0.064 A 
ATOM     41  C   UNL     1       4.065   0.052  11.602  1.00  0.00     0.173 A 
ATOM     42  C   UNL     1       2.223   1.010  10.429  1.00  0.00     0.173 A 
ATOM     43  F   UNL     1       5.214  -0.639  11.664  1.00  0.00    -0.203 F 
ATOM     44  C   UNL     1       3.488   0.447  12.812  1.00  0.00     0.198 A 
ATOM     45  C   UNL     1       1.676   1.446  11.634  1.00  0.00     0.198 A 
ATOM     46  F   UNL     1       1.467   1.248   9.352  1.00  0.00    -0.203 F 
ATOM     47  F   UNL     1       4.064   0.093  13.969  1.00  0.00    -0.200 F 
ATOM     48  C   UNL     1       2.287   1.131  12.828  1.00  0.00     0.200 A 
ATOM     49  F   UNL     1       0.505   2.098  11.626  1.00  0.00    -0.200 F 
ATOM     50  F   UNL     1       1.694   1.443  13.987  1.00  0.00    -0.200 F 
ENDBRANCH  26  40
BRANCH  27  51
ATOM     51  C   UNL     1      -2.908  -4.918   7.883  1.00  0.00     0.064 A 
ATOM     52  C   UNL     1      -3.454  -5.725   8.892  1.00  0.00     0.173 A 
ATOM     53  C   UNL     1      -3.797  -4.026   7.247  1.00  0.00     0.173 A 
ATOM     54  F   UNL     1      -2.667  -6.562   9.583  1.00  0.00    -0.203 F 
ATOM     55  C   UNL     1      -4.804  -5.637   9.251  1.00  0.00     0.198 A 
ATOM     56  C   UNL     1      -5.143  -3.945   7.598  1.00  0.00     0.198 A 
ATOM     57  F   UNL     1      -3.357  -3.147   6.335  1.00  0.00    -0.203 F 
ATOM     58  F   UNL     1      -5.279  -6.383  10.258  1.00  0.00    -0.200 F 
ATOM     59  C   UNL     1      -5.645  -4.742   8.608  1.00  0.00     0.200 A 
ATOM     60  F   UNL     1      -5.934  -3.046   6.995  1.00  0.00    -0.200 F 
ATOM     61  F   UNL     1      -6.924  -4.617   8.989  1.00  0.00    -0.200 F 
ENDBRANCH  27  51
BRANCH  39  62
ATOM     62  C   UNL     1       3.250  -6.227   8.334  1.00  0.00     0.064 A 
ATOM     63  C   UNL     1       2.813  -6.506   7.027  1.00  0.00     0.173 A 
ATOM     64  C   UNL     1       4.173  -7.109   8.906  1.00  0.00     0.173 A 
ATOM     65  F   UNL     1       2.018  -5.651   6.371  1.00  0.00    -0.203 F 
ATOM     66  C   UNL     1       3.244  -7.644   6.346  1.00  0.00     0.198 A 
ATOM     67  C   UNL     1       4.630  -8.226   8.212  1.00  0.00     0.198 A 
ATOM     68  F   UNL     1       4.675  -6.858  10.125  1.00  0.00    -0.203 F 
ATOM     69  F   UNL     1       2.806  -7.890   5.103  1.00  0.00    -0.200 F 
ATOM     70  C   UNL     1       4.157  -8.500   6.938  1.00  0.00     0.200 A 
ATOM     71  F   UNL     1       5.555  -9.022   8.766  1.00  0.00    -0.200 F 
ATOM     72  F   UNL     1       4.607  -9.571   6.269  1.00  0.00    -0.200 F 
ENDBRANCH  39  62
ENDBRANCH  13  14
ENDBRANCH   6   8
ENDBRANCH   5   6
ENDBRANCH   4   5
ENDBRANCH   3   4
ENDBRANCH   2   3
ENDBRANCH   1   2
BRANCH   1  73
ATOM     73  C   UNL     1       2.327   1.530  -1.754  1.00  0.00     0.188 C 
BRANCH  73  74
ATOM     74  O   UNL     1       2.856   1.769  -3.053  1.00  0.00    -0.376 OA
BRANCH  74  75
ATOM     75  C   UNL     1       4.244   1.952  -3.251  1.00  0.00     0.202 C 
BRANCH  75  76
ATOM     76  C   UNL     1       4.782   3.351  -2.913  1.00  0.00     0.261 C 
BRANCH  76  77
ATOM     77  O   UNL     1       4.365   3.881  -1.643  1.00  0.00    -0.463 OA
BRANCH  77  78
ATOM     78  C   UNL     1       3.212   4.605  -1.667  1.00  0.00     0.309 C 
ATOM     79  O   UNL     1       2.580   4.866  -2.672  1.00  0.00    -0.252 OA
BRANCH  78  80
ATOM     80  C   UNL     1       2.823   5.052  -0.257  1.00  0.00     0.108 C 
ATOM     81  C   UNL     1       1.356   4.736   0.072  1.00  0.00     0.070 C 
ATOM     82  C   UNL     1       3.072   6.548  -0.107  1.00  0.00     0.070 C 
ATOM     83  C   UNL     1       0.390   5.564  -0.764  1.00  0.00     0.277 C 
ATOM     84  C   UNL     1       2.118   7.357  -0.983  1.00  0.00     0.277 C 
ATOM     85  N   UNL     1       0.740   6.978  -0.688  1.00  0.00    -0.230 N 
ATOM     86  C   UNL     1      -0.241   7.946  -0.628  1.00  0.00     0.383 C 
ATOM     87  N   UNL     1      -0.242   8.970  -1.433  1.00  0.00    -0.155 N 
ATOM     88  C   UNL     1      -1.325   7.827   0.424  1.00  0.00     0.523 C 
ATOM     89  C   UNL     1      -1.242   9.902  -1.305  1.00  0.00     0.414 C 
ATOM     90  H   UNL     1       0.458   9.074  -2.118  1.00  0.00     0.367 HD
ATOM     91  C   UNL     1      -1.677   9.227   0.740  1.00  0.00     0.389 C 
ATOM     92  N   UNL     1      -0.818   7.357   1.736  1.00  0.00     0.003 NA
ATOM     93  Cl  UNL     1      -1.508  10.893  -2.673  1.00  0.00     0.028 Cl
ATOM     94  N   UNL     1      -1.977  10.089  -0.256  1.00  0.00    -0.155 N 
ATOM     95  N   UNL     1      -1.529   9.530   1.980  1.00  0.00    -0.169 N 
ATOM     96  C   UNL     1      -1.004   8.381   2.518  1.00  0.00     0.532 C 
ATOM     97  H   UNL     1      -2.675  10.781  -0.192  1.00  0.00     0.367 HD
ATOM     98  H   UNL     1      -1.739  10.378   2.433  1.00  0.00     0.365 HD
ENDBRANCH  78  80
ENDBRANCH  77  78
ENDBRANCH  76  77
ENDBRANCH  75  76
ENDBRANCH  74  75
ENDBRANCH  73  74
ENDBRANCH   1  73
TORSDOF 17
