REMARK SMILES C[C@H](O)[C@H](C)[NH2+]C1(C(=O)OCCOCCOCCOC(=O)c2ccc(-c3c4nc(c(-c5c(F)c(F)c(F)c(F)c5F)c5ccc([nH]5)c(-c5c(F)c(F)c(F)c(F)c5F)c5nc(c(-c6c(F)c(F)c(F)c(F)c6F)c6ccc3[nH]6)C=C5)C=C4)cc2)CC1
REMARK SMILES IDX 14 1 13 2 12 3 11 4 10 5 8 6 9 7 7 8 85 9 86 10 6 11 4 14
REMARK SMILES IDX 5 15 2 16 1 17 3 18 15 20 16 21 17 22 18 23 19 24 20 25
REMARK SMILES IDX 21 26 22 27 23 28 84 29 24 30 83 31 25 32 26 33 27 34 77 35
REMARK SMILES IDX 28 36 82 37 76 38 78 39 29 40 81 41 75 42 74 43 30 45 62 46
REMARK SMILES IDX 42 47 61 48 43 49 46 50 60 51 79 52 44 53 45 54 59 56 80 57
REMARK SMILES IDX 47 58 31 59 32 60 40 61 33 62 34 63 38 64 41 65 35 66 36 67
REMARK SMILES IDX 39 68 37 69 63 70 64 71 72 72 65 73 66 74 70 75 73 76 67 77
REMARK SMILES IDX 68 78 71 79 69 80 48 81 49 82 57 83 50 84 51 85 55 86 58 87
REMARK SMILES IDX 52 88 53 89 56 90 54 91
REMARK H PARENT 6 12 6 13 3 19 78 44 46 55
REMARK Flexibility Score: inf
ROOT
ATOM      1  C   UNL     1      -2.015  -3.573   3.353  1.00  0.00     0.188 C 
ENDROOT
BRANCH   1   2
ATOM      2  O   UNL     1      -2.523  -3.199   4.619  1.00  0.00    -0.376 OA
BRANCH   2   3
ATOM      3  C   UNL     1      -3.175  -1.940   4.721  1.00  0.00     0.202 C 
BRANCH   3   4
ATOM      4  C   UNL     1      -4.149  -1.425   3.636  1.00  0.00     0.261 C 
BRANCH   4   5
ATOM      5  O   UNL     1      -4.018  -2.050   2.356  1.00  0.00    -0.459 OA
BRANCH   5   6
ATOM      6  C   UNL     1      -3.664  -1.284   1.292  1.00  0.00     0.368 C 
ATOM      7  O   UNL     1      -3.561  -0.067   1.295  1.00  0.00    -0.245 OA
BRANCH   6   8
ATOM      8  C   UNL     1      -3.305  -2.131   0.075  1.00  0.00     0.195 C 
ATOM      9  C   UNL     1      -4.211  -2.099  -1.142  1.00  0.00     0.088 C 
ATOM     10  C   UNL     1      -4.208  -3.314  -0.282  1.00  0.00     0.088 C 
BRANCH   8  11
ATOM     11  N   UNL     1      -1.834  -2.378  -0.115  1.00  0.00    -0.328 N 
ATOM     12  H   UNL     1      -1.516  -2.969   0.653  1.00  0.00     0.347 HD
ATOM     13  H   UNL     1      -1.747  -2.803  -1.039  1.00  0.00     0.347 HD
BRANCH  11  14
ATOM     14  C   UNL     1      -0.965  -1.178  -0.150  1.00  0.00     0.208 C 
ATOM     15  C   UNL     1       0.482  -1.685   0.032  1.00  0.00     0.078 C 
BRANCH  14  16
ATOM     16  C   UNL     1      -1.058  -0.394  -1.490  1.00  0.00     0.169 C 
ATOM     17  C   UNL     1      -2.203   0.609  -1.561  1.00  0.00     0.045 C 
BRANCH  16  18
ATOM     18  O   UNL     1      -1.174  -1.340  -2.567  1.00  0.00    -0.387 OA
ATOM     19  H   UNL     1      -1.994  -1.848  -2.464  1.00  0.00     0.211 HD
ENDBRANCH  16  18
ENDBRANCH  14  16
ENDBRANCH  11  14
ENDBRANCH   8  11
ENDBRANCH   6   8
ENDBRANCH   5   6
ENDBRANCH   4   5
ENDBRANCH   3   4
ENDBRANCH   2   3
ENDBRANCH   1   2
BRANCH   1  20
ATOM     20  C   UNL     1      -2.897  -4.613   2.632  1.00  0.00     0.188 C 
BRANCH  20  21
ATOM     21  O   UNL     1      -4.188  -4.940   3.126  1.00  0.00    -0.376 OA
BRANCH  21  22
ATOM     22  C   UNL     1      -4.317  -5.306   4.494  1.00  0.00     0.202 C 
BRANCH  22  23
ATOM     23  C   UNL     1      -3.371  -6.346   5.130  1.00  0.00     0.261 C 
BRANCH  23  24
ATOM     24  O   UNL     1      -1.988  -6.284   4.738  1.00  0.00    -0.460 OA
BRANCH  24  25
ATOM     25  C   UNL     1      -1.572  -7.274   3.908  1.00  0.00     0.338 C 
ATOM     26  O   UNL     1      -2.216  -8.225   3.503  1.00  0.00    -0.246 OA
BRANCH  25  27
ATOM     27  C   UNL     1      -0.229  -6.943   3.384  1.00  0.00     0.060 A 
ATOM     28  C   UNL     1      -0.085  -6.673   2.014  1.00  0.00     0.016 A 
ATOM     29  C   UNL     1       0.885  -6.961   4.221  1.00  0.00     0.016 A 
ATOM     30  C   UNL     1       1.175  -6.427   1.473  1.00  0.00     0.010 A 
ATOM     31  C   UNL     1       2.153  -6.752   3.670  1.00  0.00     0.010 A 
ATOM     32  C   UNL     1       2.306  -6.511   2.291  1.00  0.00    -0.014 A 
BRANCH  32  33
ATOM     33  C   UNL     1       3.656  -6.538   1.680  1.00  0.00     0.031 A 
ATOM     34  C   UNL     1       4.312  -7.872   1.455  1.00  0.00     0.074 A 
ATOM     35  C   UNL     1       4.282  -5.405   1.320  1.00  0.00     0.049 A 
ATOM     36  N   UNL     1       5.518  -8.146   1.028  1.00  0.00    -0.248 NA
ATOM     37  C   UNL     1       3.495  -9.059   1.757  1.00  0.00     0.031 C 
ATOM     38  C   UNL     1       3.725  -4.059   1.428  1.00  0.00     0.029 A 
ATOM     39  N   UNL     1       5.538  -5.212   0.801  1.00  0.00    -0.354 N 
ATOM     40  C   UNL     1       5.610  -9.531   1.026  1.00  0.00     0.074 A 
ATOM     41  C   UNL     1       4.348 -10.043   1.514  1.00  0.00     0.031 C 
ATOM     42  C   UNL     1       4.644  -3.174   1.003  1.00  0.00     0.029 A 
ATOM     43  C   UNL     1       5.864  -3.889   0.632  1.00  0.00     0.049 A 
ATOM     44  H   UNL     1       6.147  -5.951   0.571  1.00  0.00     0.167 HD
ATOM     45  C   UNL     1       6.654 -10.306   0.647  1.00  0.00     0.037 A 
ATOM     46  C   UNL     1       7.027  -3.325   0.250  1.00  0.00     0.037 A 
ATOM     47  C   UNL     1       7.906  -9.792   0.158  1.00  0.00     0.049 A 
ATOM     48  C   UNL     1       8.204  -4.209  -0.082  1.00  0.00     0.074 A 
ATOM     49  C   UNL     1       9.019 -10.496  -0.266  1.00  0.00     0.029 A 
ATOM     50  N   UNL     1       8.213  -8.445   0.037  1.00  0.00    -0.354 N 
ATOM     51  N   UNL     1       8.284  -5.518  -0.094  1.00  0.00    -0.248 NA
ATOM     52  C   UNL     1       9.456  -3.532  -0.455  1.00  0.00     0.031 C 
ATOM     53  C   UNL     1      10.021  -9.575  -0.588  1.00  0.00     0.029 A 
ATOM     54  C   UNL     1       9.510  -8.297  -0.429  1.00  0.00     0.049 A 
ATOM     55  H   UNL     1       7.601  -7.704   0.249  1.00  0.00     0.167 HD
ATOM     56  C   UNL     1       9.576  -5.820  -0.509  1.00  0.00     0.074 A 
ATOM     57  C   UNL     1      10.242  -4.558  -0.750  1.00  0.00     0.031 C 
ATOM     58  C   UNL     1      10.157  -7.034  -0.678  1.00  0.00     0.037 A 
BRANCH  45  59
ATOM     59  C   UNL     1       6.501 -11.793   0.777  1.00  0.00     0.064 A 
ATOM     60  C   UNL     1       5.654 -12.528  -0.066  1.00  0.00     0.173 A 
ATOM     61  C   UNL     1       7.249 -12.499   1.732  1.00  0.00     0.173 A 
ATOM     62  F   UNL     1       4.906 -11.900  -0.986  1.00  0.00    -0.203 F 
ATOM     63  C   UNL     1       5.546 -13.911   0.056  1.00  0.00     0.198 A 
ATOM     64  C   UNL     1       7.162 -13.884   1.831  1.00  0.00     0.198 A 
ATOM     65  F   UNL     1       8.076 -11.845   2.562  1.00  0.00    -0.203 F 
ATOM     66  F   UNL     1       4.699 -14.588  -0.731  1.00  0.00    -0.200 F 
ATOM     67  C   UNL     1       6.307 -14.588   0.997  1.00  0.00     0.200 A 
ATOM     68  F   UNL     1       7.910 -14.538   2.731  1.00  0.00    -0.200 F 
ATOM     69  F   UNL     1       6.213 -15.921   1.104  1.00  0.00    -0.200 F 
ENDBRANCH  45  59
BRANCH  46  70
ATOM     70  C   UNL     1       7.150  -1.845   0.172  1.00  0.00     0.064 A 
ATOM     71  C   UNL     1       7.337  -1.202  -1.060  1.00  0.00     0.173 A 
ATOM     72  C   UNL     1       7.115  -1.047   1.325  1.00  0.00     0.173 A 
ATOM     73  F   UNL     1       7.406  -1.923  -2.188  1.00  0.00    -0.203 F 
ATOM     74  C   UNL     1       7.506   0.179  -1.133  1.00  0.00     0.198 A 
ATOM     75  C   UNL     1       7.253   0.337   1.247  1.00  0.00     0.198 A 
ATOM     76  F   UNL     1       6.945  -1.612   2.529  1.00  0.00    -0.203 F 
ATOM     77  F   UNL     1       7.737   0.762  -2.317  1.00  0.00    -0.200 F 
ATOM     78  C   UNL     1       7.458   0.948   0.020  1.00  0.00     0.200 A 
ATOM     79  F   UNL     1       7.195   1.078   2.363  1.00  0.00    -0.200 F 
ATOM     80  F   UNL     1       7.619   2.277  -0.051  1.00  0.00    -0.200 F 
ENDBRANCH  46  70
BRANCH  58  81
ATOM     81  C   UNL     1      11.567  -7.064  -1.197  1.00  0.00     0.064 A 
ATOM     82  C   UNL     1      12.655  -6.652  -0.414  1.00  0.00     0.173 A 
ATOM     83  C   UNL     1      11.837  -7.559  -2.484  1.00  0.00     0.173 A 
ATOM     84  F   UNL     1      12.453  -6.159   0.818  1.00  0.00    -0.203 F 
ATOM     85  C   UNL     1      13.956  -6.707  -0.909  1.00  0.00     0.198 A 
ATOM     86  C   UNL     1      13.141  -7.645  -2.962  1.00  0.00     0.198 A 
ATOM     87  F   UNL     1      10.835  -7.976  -3.272  1.00  0.00    -0.203 F 
ATOM     88  F   UNL     1      14.975  -6.260  -0.161  1.00  0.00    -0.200 F 
ATOM     89  C   UNL     1      14.199  -7.212  -2.178  1.00  0.00     0.200 A 
ATOM     90  F   UNL     1      13.374  -8.150  -4.181  1.00  0.00    -0.200 F 
ATOM     91  F   UNL     1      15.452  -7.273  -2.648  1.00  0.00    -0.200 F 
ENDBRANCH  58  81
ENDBRANCH  32  33
ENDBRANCH  25  27
ENDBRANCH  24  25
ENDBRANCH  23  24
ENDBRANCH  22  23
ENDBRANCH  21  22
ENDBRANCH  20  21
ENDBRANCH   1  20
TORSDOF 21
