REMARK SMILES COc1cccc([C@H]2CC(c3ccc(S(C)(=O)=O)cc3)=NN2c2ccc(C(=O)OCCOCCOCCOC(=O)c3ccc(-c4c5nc(c(-c6c(F)c(F)c(F)c(F)c6F)c6ccc([nH]6)c(-c6c(F)c(F)c(F)c(F)c6F)c6nc(c(-c7c(F)c(F)c(F)c(F)c7F)c7ccc4[nH]7)C=C6)C=C5)cc3)cc2)c1
REMARK SMILES IDX 33 1 32 2 31 3 30 4 29 5 27 6 28 7 26 8 23 9 24 10 105 11
REMARK SMILES IDX 25 12 104 13 22 14 8 15 9 16 10 17 21 18 7 19 3 20 4 21
REMARK SMILES IDX 106 22 5 23 6 24 2 25 1 26 11 27 12 28 20 29 13 30 19 31
REMARK SMILES IDX 14 32 15 33 16 34 17 35 18 36 34 37 35 38 36 39 37 40 38 41
REMARK SMILES IDX 39 42 40 43 41 44 42 45 103 46 43 47 102 48 44 49 45 50
REMARK SMILES IDX 46 51 96 52 47 53 101 54 95 55 97 56 48 57 100 58 94 59
REMARK SMILES IDX 93 60 49 62 81 63 61 64 80 65 62 66 65 67 79 68 98 69 63 70
REMARK SMILES IDX 64 71 78 73 99 74 66 75 50 76 51 77 59 78 52 79 53 80 57 81
REMARK SMILES IDX 60 82 54 83 55 84 58 85 56 86 82 87 83 88 91 89 84 90 85 91
REMARK SMILES IDX 89 92 92 93 86 94 87 95 90 96 88 97 67 98 68 99 76 100
REMARK SMILES IDX 69 101 70 102 74 103 77 104 71 105 72 106 75 107 73 108
REMARK H PARENT 97 61 65 72
REMARK Flexibility Score: inf
ROOT
ATOM      1  C   UNL     1       5.444   7.439  -4.035  1.00  0.00     0.188 C 
ENDROOT
BRANCH   1   2
ATOM      2  O   UNL     1       4.951   8.514  -4.805  1.00  0.00    -0.376 OA
BRANCH   2   3
ATOM      3  C   UNL     1       4.198   9.554  -4.206  1.00  0.00     0.202 C 
BRANCH   3   4
ATOM      4  C   UNL     1       3.291   9.375  -2.977  1.00  0.00     0.261 C 
BRANCH   4   5
ATOM      5  O   UNL     1       3.730   8.446  -1.980  1.00  0.00    -0.460 OA
BRANCH   5   6
ATOM      6  C   UNL     1       2.993   7.310  -1.894  1.00  0.00     0.338 C 
ATOM      7  O   UNL     1       2.013   7.022  -2.561  1.00  0.00    -0.246 OA
BRANCH   6   8
ATOM      8  C   UNL     1       3.654   6.345  -0.989  1.00  0.00     0.060 A 
ATOM      9  C   UNL     1       4.717   4.388   0.721  1.00  0.00     0.060 A 
ATOM     10  C   UNL     1       4.358   4.062  -0.592  1.00  0.00     0.029 A 
ATOM     11  C   UNL     1       4.626   5.730   1.128  1.00  0.00     0.029 A 
ATOM     12  C   UNL     1       3.795   5.025  -1.432  1.00  0.00     0.018 A 
ATOM     13  C   UNL     1       4.115   6.715   0.274  1.00  0.00     0.018 A 
BRANCH   9  14
ATOM     14  N   UNL     1       5.022   3.389   1.645  1.00  0.00    -0.257 N 
ATOM     15  C   UNL     1       4.122   3.111   2.773  1.00  0.00     0.144 C 
ATOM     16  C   UNL     1       4.665   1.791   3.323  1.00  0.00     0.091 C 
ATOM     17  C   UNL     1       5.736   1.500   2.309  1.00  0.00     0.071 C 
ATOM     18  N   UNL     1       5.891   2.378   1.365  1.00  0.00    -0.176 NA
BRANCH  15  19
ATOM     19  C   UNL     1       2.656   3.033   2.355  1.00  0.00    -0.019 A 
ATOM     20  C   UNL     1       0.859   2.063   1.017  1.00  0.00     0.119 A 
ATOM     21  C   UNL     1      -0.013   3.042   1.492  1.00  0.00     0.046 A 
ATOM     22  C   UNL     1       2.190   2.064   1.441  1.00  0.00     0.052 A 
ATOM     23  C   UNL     1       0.427   4.004   2.399  1.00  0.00     0.004 A 
ATOM     24  C   UNL     1       1.754   3.999   2.828  1.00  0.00     0.006 A 
BRANCH  20  25
ATOM     25  O   UNL     1       0.312   1.200   0.107  1.00  0.00    -0.497 OA
ATOM     26  C   UNL     1       0.955  -0.059  -0.035  1.00  0.00     0.278 C 
ENDBRANCH  20  25
ENDBRANCH  15  19
BRANCH  17  27
ATOM     27  C   UNL     1       6.585   0.310   2.463  1.00  0.00    -0.002 A 
ATOM     28  C   UNL     1       7.965   0.487   2.607  1.00  0.00     0.011 A 
ATOM     29  C   UNL     1       6.016  -0.964   2.536  1.00  0.00     0.011 A 
ATOM     30  C   UNL     1       8.785  -0.618   2.844  1.00  0.00     0.021 A 
ATOM     31  C   UNL     1       6.838  -2.075   2.746  1.00  0.00     0.021 A 
ATOM     32  C   UNL     1       8.218  -1.896   2.900  1.00  0.00     0.067 A 
BRANCH  32  33
ATOM     33  S   UNL     1       9.264  -3.299   3.224  1.00  0.00     0.175 S 
ATOM     34  C   UNL     1      10.394  -3.333   1.857  1.00  0.00     0.163 C 
ATOM     35  O   UNL     1      10.010  -2.991   4.429  1.00  0.00    -0.224 OA
ATOM     36  O   UNL     1       8.438  -4.488   3.139  1.00  0.00    -0.224 OA
ENDBRANCH  32  33
ENDBRANCH  17  27
ENDBRANCH   9  14
ENDBRANCH   6   8
ENDBRANCH   5   6
ENDBRANCH   4   5
ENDBRANCH   3   4
ENDBRANCH   2   3
ENDBRANCH   1   2
BRANCH   1  37
ATOM     37  C   UNL     1       6.444   7.697  -2.889  1.00  0.00     0.188 C 
BRANCH  37  38
ATOM     38  O   UNL     1       6.754   9.020  -2.521  1.00  0.00    -0.376 OA
BRANCH  38  39
ATOM     39  C   UNL     1       7.501   9.860  -3.382  1.00  0.00     0.202 C 
BRANCH  39  40
ATOM     40  C   UNL     1       8.425   9.384  -4.517  1.00  0.00     0.261 C 
BRANCH  40  41
ATOM     41  O   UNL     1       8.141   8.121  -5.121  1.00  0.00    -0.460 OA
BRANCH  41  42
ATOM     42  C   UNL     1       9.014   7.130  -4.828  1.00  0.00     0.338 C 
ATOM     43  O   UNL     1       9.989   7.184  -4.089  1.00  0.00    -0.246 OA
BRANCH  42  44
ATOM     44  C   UNL     1       8.536   5.878  -5.433  1.00  0.00     0.060 A 
ATOM     45  C   UNL     1       8.087   4.846  -4.598  1.00  0.00     0.016 A 
ATOM     46  C   UNL     1       8.577   5.711  -6.817  1.00  0.00     0.016 A 
ATOM     47  C   UNL     1       7.691   3.628  -5.149  1.00  0.00     0.010 A 
ATOM     48  C   UNL     1       8.201   4.484  -7.365  1.00  0.00     0.010 A 
ATOM     49  C   UNL     1       7.782   3.429  -6.532  1.00  0.00    -0.014 A 
BRANCH  49  50
ATOM     50  C   UNL     1       7.611   2.074  -7.106  1.00  0.00     0.031 A 
ATOM     51  C   UNL     1       8.841   1.273  -7.426  1.00  0.00     0.074 A 
ATOM     52  C   UNL     1       6.390   1.573  -7.359  1.00  0.00     0.049 A 
ATOM     53  N   UNL     1       8.951   0.124  -8.043  1.00  0.00    -0.248 NA
ATOM     54  C   UNL     1      10.124   1.852  -6.997  1.00  0.00     0.031 C 
ATOM     55  C   UNL     1       5.125   2.234  -7.050  1.00  0.00     0.029 A 
ATOM     56  N   UNL     1       6.021   0.395  -7.958  1.00  0.00    -0.354 N 
ATOM     57  C   UNL     1      10.312  -0.147  -8.090  1.00  0.00     0.074 A 
ATOM     58  C   UNL     1      10.990   0.965  -7.461  1.00  0.00     0.031 C 
ATOM     59  C   UNL     1       4.114   1.460  -7.484  1.00  0.00     0.029 A 
ATOM     60  C   UNL     1       4.665   0.274  -8.138  1.00  0.00     0.049 A 
ATOM     61  H   UNL     1       6.666  -0.297  -8.233  1.00  0.00     0.167 HD
ATOM     62  C   UNL     1      10.937  -1.231  -8.608  1.00  0.00     0.037 A 
ATOM     63  C   UNL     1       3.958  -0.671  -8.789  1.00  0.00     0.037 A 
ATOM     64  C   UNL     1      10.257  -2.331  -9.238  1.00  0.00     0.049 A 
ATOM     65  C   UNL     1       4.683  -1.827  -9.431  1.00  0.00     0.074 A 
ATOM     66  C   UNL     1      10.798  -3.482  -9.782  1.00  0.00     0.029 A 
ATOM     67  N   UNL     1       8.883  -2.411  -9.418  1.00  0.00    -0.354 N 
ATOM     68  N   UNL     1       5.967  -2.093  -9.456  1.00  0.00    -0.248 NA
ATOM     69  C   UNL     1       3.857  -2.818 -10.138  1.00  0.00     0.031 C 
ATOM     70  C   UNL     1       9.758  -4.230 -10.344  1.00  0.00     0.029 A 
ATOM     71  C   UNL     1       8.562  -3.580 -10.088  1.00  0.00     0.049 A 
ATOM     72  H   UNL     1       8.233  -1.736  -9.114  1.00  0.00     0.167 HD
ATOM     73  C   UNL     1       6.099  -3.294 -10.141  1.00  0.00     0.074 A 
ATOM     74  C   UNL     1       4.763  -3.711 -10.511  1.00  0.00     0.031 C 
ATOM     75  C   UNL     1       7.224  -3.992 -10.433  1.00  0.00     0.037 A 
BRANCH  62  76
ATOM     76  C   UNL     1      12.437  -1.261  -8.547  1.00  0.00     0.064 A 
ATOM     77  C   UNL     1      13.126  -1.422  -7.335  1.00  0.00     0.173 A 
ATOM     78  C   UNL     1      13.195  -1.159  -9.724  1.00  0.00     0.173 A 
ATOM     79  F   UNL     1      12.449  -1.510  -6.180  1.00  0.00    -0.203 F 
ATOM     80  C   UNL     1      14.517  -1.452  -7.301  1.00  0.00     0.198 A 
ATOM     81  C   UNL     1      14.586  -1.223  -9.689  1.00  0.00     0.198 A 
ATOM     82  F   UNL     1      12.588  -1.008 -10.910  1.00  0.00    -0.203 F 
ATOM     83  F   UNL     1      15.154  -1.556  -6.126  1.00  0.00    -0.200 F 
ATOM     84  C   UNL     1      15.246  -1.360  -8.478  1.00  0.00     0.200 A 
ATOM     85  F   UNL     1      15.287  -1.150 -10.829  1.00  0.00    -0.200 F 
ATOM     86  F   UNL     1      16.585  -1.399  -8.444  1.00  0.00    -0.200 F 
ENDBRANCH  62  76
BRANCH  63  87
ATOM     87  C   UNL     1       2.478  -0.559  -8.884  1.00  0.00     0.064 A 
ATOM     88  C   UNL     1       1.641  -1.480  -8.238  1.00  0.00     0.173 A 
ATOM     89  C   UNL     1       1.870   0.452  -9.644  1.00  0.00     0.173 A 
ATOM     90  F   UNL     1       2.173  -2.482  -7.523  1.00  0.00    -0.203 F 
ATOM     91  C   UNL     1       0.255  -1.407  -8.367  1.00  0.00     0.198 A 
ATOM     92  C   UNL     1       0.483   0.542  -9.746  1.00  0.00     0.198 A 
ATOM     93  F   UNL     1       2.625   1.355 -10.287  1.00  0.00    -0.203 F 
ATOM     94  F   UNL     1      -0.518  -2.334  -7.785  1.00  0.00    -0.200 F 
ATOM     95  C   UNL     1      -0.323  -0.393  -9.115  1.00  0.00     0.200 A 
ATOM     96  F   UNL     1      -0.070   1.530 -10.463  1.00  0.00    -0.200 F 
ATOM     97  F   UNL     1      -1.655  -0.324  -9.240  1.00  0.00    -0.200 F 
ENDBRANCH  63  87
BRANCH  75  98
ATOM     98  C   UNL     1       7.064  -5.312 -11.134  1.00  0.00     0.064 A 
ATOM     99  C   UNL     1       6.673  -5.399 -12.478  1.00  0.00     0.173 A 
ATOM    100  C   UNL     1       7.361  -6.508 -10.460  1.00  0.00     0.173 A 
ATOM    101  F   UNL     1       6.366  -4.288 -13.165  1.00  0.00    -0.203 F 
ATOM    102  C   UNL     1       6.561  -6.634 -13.114  1.00  0.00     0.198 A 
ATOM    103  C   UNL     1       7.282  -7.737 -11.108  1.00  0.00     0.198 A 
ATOM    104  F   UNL     1       7.749  -6.482  -9.176  1.00  0.00    -0.203 F 
ATOM    105  F   UNL     1       6.140  -6.696 -14.384  1.00  0.00    -0.200 F 
ATOM    106  C   UNL     1       6.874  -7.800 -12.431  1.00  0.00     0.200 A 
ATOM    107  F   UNL     1       7.602  -8.861 -10.452  1.00  0.00    -0.200 F 
ATOM    108  F   UNL     1       6.778  -8.986 -13.048  1.00  0.00    -0.200 F 
ENDBRANCH  75  98
ENDBRANCH  49  50
ENDBRANCH  42  44
ENDBRANCH  41  42
ENDBRANCH  40  41
ENDBRANCH  39  40
ENDBRANCH  38  39
ENDBRANCH  37  38
ENDBRANCH   1  37
TORSDOF 22
