REMARK SMILES O=C(OCCOCCOCCOC(=O)c1ccc(-c2c3nc(c(-c4c(F)c(F)c(F)c(F)c4F)c4ccc([nH]4)c(-c4c(F)c(F)c(F)c(F)c4F)c4nc(c(-c5c(F)c(F)c(F)c(F)c5F)c5ccc2[nH]5)C=C4)C=C3)cc1)C1=Cc2cc(Cl)cc(Cl)c2O[C@@H]1C(F)(F)F
REMARK SMILES IDX 8 1 7 2 6 3 5 4 4 5 3 6 2 7 1 8 78 9 79 10 89 11 80 12 88 13
REMARK SMILES IDX 81 14 87 15 82 16 85 17 83 18 84 19 86 20 90 21 91 22 92 23
REMARK SMILES IDX 93 24 9 25 10 26 11 27 12 28 13 29 14 30 15 31 16 32 77 33
REMARK SMILES IDX 17 34 76 35 18 36 19 37 20 38 70 39 21 40 75 41 69 42 71 43
REMARK SMILES IDX 22 44 74 45 68 46 67 47 23 49 55 50 35 51 54 52 36 53 39 54
REMARK SMILES IDX 53 55 72 56 37 57 38 58 52 60 73 61 40 62 24 63 25 64 33 65
REMARK SMILES IDX 26 66 27 67 31 68 34 69 28 70 29 71 32 72 30 73 56 74 57 75
REMARK SMILES IDX 65 76 58 77 59 78 63 79 66 80 60 81 61 82 64 83 62 84 41 85
REMARK SMILES IDX 42 86 50 87 43 88 44 89 48 90 51 91 45 92 46 93 49 94 47 95
REMARK H PARENT 71 48 39 59
REMARK Flexibility Score: inf
ROOT
ATOM      1  C   UNL     1       2.259   3.540   0.206  1.00  0.00     0.188 C 
ENDROOT
BRANCH   1   2
ATOM      2  C   UNL     1       2.482   2.201   0.929  1.00  0.00     0.188 C 
BRANCH   2   3
ATOM      3  O   UNL     1       3.793   1.639   1.319  1.00  0.00    -0.376 OA
BRANCH   3   4
ATOM      4  C   UNL     1       4.542   0.193   0.826  1.00  0.00     0.202 C 
BRANCH   4   5
ATOM      5  C   UNL     1       3.842  -1.176  -0.713  1.00  0.00     0.261 C 
BRANCH   5   6
ATOM      6  O   UNL     1       2.948  -2.409  -0.492  1.00  0.00    -0.460 OA
BRANCH   6   7
ATOM      7  C   UNL     1       3.155  -2.990   0.698  1.00  0.00     0.338 C 
ATOM      8  O   UNL     1       2.533  -3.867   1.241  1.00  0.00    -0.246 OA
BRANCH   7   9
ATOM      9  C   UNL     1       3.987  -1.933   1.230  1.00  0.00     0.087 C 
ATOM     10  C   UNL     1       5.373  -1.964   0.749  1.00  0.00     0.027 C 
ATOM     11  C   UNL     1       2.717  -0.529   0.871  1.00  0.00     0.316 C 
ATOM     12  C   UNL     1       6.034  -0.805  -0.463  1.00  0.00     0.020 A 
ATOM     13  O   UNL     1       3.366   0.646  -0.541  1.00  0.00    -0.474 OA
ATOM     14  C   UNL     1       7.300  -1.001  -0.945  1.00  0.00     0.032 A 
ATOM     15  C   UNL     1       5.065   0.439  -1.179  1.00  0.00     0.146 A 
ATOM     16  C   UNL     1       7.692  -0.122  -1.970  1.00  0.00     0.043 A 
ATOM     17  C   UNL     1       5.536   1.236  -2.188  1.00  0.00     0.085 A 
ATOM     18  Cl  UNL     1       9.286  -0.349  -2.620  1.00  0.00    -0.084 Cl
ATOM     19  C   UNL     1       6.872   0.933  -2.550  1.00  0.00     0.045 A 
ATOM     20  Cl  UNL     1       4.651   2.422  -3.017  1.00  0.00    -0.080 Cl
BRANCH  11  21
ATOM     21  C   UNL     1       2.374  -0.293   2.466  1.00  0.00     0.430 C 
ATOM     22  F   UNL     1       1.898   0.869   2.904  1.00  0.00    -0.167 F 
ATOM     23  F   UNL     1       1.405  -1.198   2.798  1.00  0.00    -0.167 F 
ATOM     24  F   UNL     1       3.416  -0.607   3.288  1.00  0.00    -0.167 F 
ENDBRANCH  11  21
ENDBRANCH   7   9
ENDBRANCH   6   7
ENDBRANCH   5   6
ENDBRANCH   4   5
ENDBRANCH   3   4
ENDBRANCH   2   3
ENDBRANCH   1   2
BRANCH   1  25
ATOM     25  O   UNL     1       3.256   4.063  -0.627  1.00  0.00    -0.376 OA
BRANCH  25  26
ATOM     26  C   UNL     1       4.537   4.227  -0.041  1.00  0.00     0.202 C 
BRANCH  26  27
ATOM     27  C   UNL     1       4.626   5.055   1.248  1.00  0.00     0.261 C 
BRANCH  27  28
ATOM     28  O   UNL     1       4.124   4.360   2.410  1.00  0.00    -0.460 OA
BRANCH  28  29
ATOM     29  C   UNL     1       3.075   4.926   3.055  1.00  0.00     0.338 C 
ATOM     30  O   UNL     1       2.498   5.961   2.769  1.00  0.00    -0.246 OA
BRANCH  29  31
ATOM     31  C   UNL     1       2.603   4.025   4.124  1.00  0.00     0.060 A 
ATOM     32  C   UNL     1       1.276   3.569   4.093  1.00  0.00     0.016 A 
ATOM     33  C   UNL     1       3.438   3.700   5.192  1.00  0.00     0.016 A 
ATOM     34  C   UNL     1       0.781   2.784   5.134  1.00  0.00     0.010 A 
ATOM     35  C   UNL     1       2.929   2.952   6.257  1.00  0.00     0.010 A 
ATOM     36  C   UNL     1       1.590   2.519   6.246  1.00  0.00    -0.014 A 
BRANCH  36  37
ATOM     37  C   UNL     1       0.958   2.051   7.502  1.00  0.00     0.031 A 
ATOM     38  C   UNL     1       0.474   3.099   8.466  1.00  0.00     0.074 A 
ATOM     39  C   UNL     1       0.800   0.745   7.777  1.00  0.00     0.049 A 
ATOM     40  N   UNL     1      -0.103   2.964   9.631  1.00  0.00    -0.248 NA
ATOM     41  C   UNL     1       0.676   4.498   8.053  1.00  0.00     0.031 C 
ATOM     42  C   UNL     1       1.190  -0.358   6.904  1.00  0.00     0.029 A 
ATOM     43  N   UNL     1       0.268   0.132   8.884  1.00  0.00    -0.354 N 
ATOM     44  C   UNL     1      -0.334   4.256  10.086  1.00  0.00     0.074 A 
ATOM     45  C   UNL     1       0.202   5.161   9.095  1.00  0.00     0.031 C 
ATOM     46  C   UNL     1       0.889  -1.520   7.513  1.00  0.00     0.029 A 
ATOM     47  C   UNL     1       0.312  -1.239   8.828  1.00  0.00     0.049 A 
ATOM     48  H   UNL     1      -0.109   0.628   9.646  1.00  0.00     0.167 HD
ATOM     49  C   UNL     1      -0.947   4.653  11.226  1.00  0.00     0.037 A 
ATOM     50  C   UNL     1      -0.061  -2.154   9.746  1.00  0.00     0.037 A 
ATOM     51  C   UNL     1      -1.450   3.746  12.223  1.00  0.00     0.049 A 
ATOM     52  C   UNL     1      -0.654  -1.684  11.053  1.00  0.00     0.074 A 
ATOM     53  C   UNL     1      -2.093   4.039  13.411  1.00  0.00     0.029 A 
ATOM     54  N   UNL     1      -1.345   2.364  12.153  1.00  0.00    -0.354 N 
ATOM     55  N   UNL     1      -0.912  -0.464  11.462  1.00  0.00    -0.248 NA
ATOM     56  C   UNL     1      -1.017  -2.725  12.026  1.00  0.00     0.031 C 
ATOM     57  C   UNL     1      -2.308   2.839  14.096  1.00  0.00     0.029 A 
ATOM     58  C   UNL     1      -1.879   1.791  13.296  1.00  0.00     0.049 A 
ATOM     59  H   UNL     1      -0.950   1.864  11.403  1.00  0.00     0.167 HD
ATOM     60  C   UNL     1      -1.505  -0.592  12.713  1.00  0.00     0.074 A 
ATOM     61  C   UNL     1      -1.579  -2.011  12.991  1.00  0.00     0.031 C 
ATOM     62  C   UNL     1      -1.953   0.374  13.554  1.00  0.00     0.037 A 
BRANCH  49  63
ATOM     63  C   UNL     1      -1.055   6.131  11.470  1.00  0.00     0.064 A 
ATOM     64  C   UNL     1      -1.862   6.959  10.672  1.00  0.00     0.173 A 
ATOM     65  C   UNL     1      -0.339   6.731  12.517  1.00  0.00     0.173 A 
ATOM     66  F   UNL     1      -2.556   6.441   9.647  1.00  0.00    -0.203 F 
ATOM     67  C   UNL     1      -1.913   8.334  10.887  1.00  0.00     0.198 A 
ATOM     68  C   UNL     1      -0.423   8.101  12.753  1.00  0.00     0.198 A 
ATOM     69  F   UNL     1       0.447   5.990  13.312  1.00  0.00    -0.203 F 
ATOM     70  F   UNL     1      -2.635   9.112  10.068  1.00  0.00    -0.200 F 
ATOM     71  C   UNL     1      -1.199   8.903  11.931  1.00  0.00     0.200 A 
ATOM     72  F   UNL     1       0.256   8.645  13.772  1.00  0.00    -0.200 F 
ATOM     73  F   UNL     1      -1.251  10.226  12.138  1.00  0.00    -0.200 F 
ENDBRANCH  49  63
BRANCH  50  74
ATOM     74  C   UNL     1       0.105  -3.608   9.470  1.00  0.00     0.064 A 
ATOM     75  C   UNL     1      -1.009  -4.453   9.353  1.00  0.00     0.173 A 
ATOM     76  C   UNL     1       1.376  -4.191   9.357  1.00  0.00     0.173 A 
ATOM     77  F   UNL     1      -2.246  -3.953   9.483  1.00  0.00    -0.203 F 
ATOM     78  C   UNL     1      -0.857  -5.826   9.162  1.00  0.00     0.198 A 
ATOM     79  C   UNL     1       1.526  -5.559   9.132  1.00  0.00     0.198 A 
ATOM     80  F   UNL     1       2.476  -3.432   9.469  1.00  0.00    -0.203 F 
ATOM     81  F   UNL     1      -1.938  -6.617   9.119  1.00  0.00    -0.200 F 
ATOM     82  C   UNL     1       0.410  -6.377   9.046  1.00  0.00     0.200 A 
ATOM     83  F   UNL     1       2.752  -6.085   9.011  1.00  0.00    -0.200 F 
ATOM     84  F   UNL     1       0.555  -7.697   8.866  1.00  0.00    -0.200 F 
ENDBRANCH  50  74
BRANCH  62  85
ATOM     85  C   UNL     1      -2.618  -0.068  14.830  1.00  0.00     0.064 A 
ATOM     86  C   UNL     1      -1.907  -0.695  15.864  1.00  0.00     0.173 A 
ATOM     87  C   UNL     1      -3.987   0.173  15.032  1.00  0.00     0.173 A 
ATOM     88  F   UNL     1      -0.599  -0.958  15.723  1.00  0.00    -0.203 F 
ATOM     89  C   UNL     1      -2.549  -1.100  17.032  1.00  0.00     0.198 A 
ATOM     90  C   UNL     1      -4.616  -0.194  16.218  1.00  0.00     0.198 A 
ATOM     91  F   UNL     1      -4.715   0.782  14.083  1.00  0.00    -0.203 F 
ATOM     92  F   UNL     1      -1.863  -1.757  17.978  1.00  0.00    -0.200 F 
ATOM     93  C   UNL     1      -3.900  -0.842  17.211  1.00  0.00     0.200 A 
ATOM     94  F   UNL     1      -5.916   0.078  16.397  1.00  0.00    -0.200 F 
ATOM     95  F   UNL     1      -4.514  -1.226  18.339  1.00  0.00    -0.200 F 
ENDBRANCH  62  85
ENDBRANCH  36  37
ENDBRANCH  29  31
ENDBRANCH  28  29
ENDBRANCH  27  28
ENDBRANCH  26  27
ENDBRANCH  25  26
ENDBRANCH   1  25
TORSDOF 18
