REMARK SMILES O=C(CN1CSCC1=O)NCCCC(=O)OCCOCCOCCOC(=O)c1ccc(-c2c3nc(c(-c4c(F)c(F)c(F)c(F)c4F)c4ccc([nH]4)c(-c4c(F)c(F)c(F)c(F)c4F)c4nc(c(-c5c(F)c(F)c(F)c(F)c5F)c5ccc2[nH]5)C=C4)C=C3)cc1
REMARK SMILES IDX 19 1 18 2 17 3 16 4 14 5 15 6 13 7 12 8 11 9 10 10 1 11 2 12
REMARK SMILES IDX 3 14 4 15 5 16 8 17 6 18 7 19 9 20 20 21 21 22 22 23 23 24
REMARK SMILES IDX 24 25 25 26 26 27 27 28 28 29 29 30 90 31 30 32 89 33 31 34
REMARK SMILES IDX 32 35 33 36 83 37 34 38 88 39 82 40 84 41 35 42 87 43 81 44
REMARK SMILES IDX 80 45 36 47 68 48 48 49 67 50 49 51 52 52 66 53 85 54 50 55
REMARK SMILES IDX 51 56 65 58 86 59 53 60 37 61 38 62 46 63 39 64 40 65 44 66
REMARK SMILES IDX 47 67 41 68 42 69 45 70 43 71 69 72 70 73 78 74 71 75 72 76
REMARK SMILES IDX 76 77 79 78 73 79 74 80 77 81 75 82 54 83 55 84 63 85 56 86
REMARK SMILES IDX 57 87 61 88 64 89 58 90 59 91 62 92 60 93
REMARK H PARENT 10 13 84 46 52 57
REMARK Flexibility Score: inf
ROOT
ATOM      1  O   UNL     1       5.330  -4.023  -5.628  1.00  0.00    -0.376 OA
ENDROOT
BRANCH   1   2
ATOM      2  C   UNL     1       5.182  -4.655  -4.354  1.00  0.00     0.202 C 
BRANCH   2   3
ATOM      3  C   UNL     1       5.496  -3.784  -3.125  1.00  0.00     0.261 C 
BRANCH   3   4
ATOM      4  O   UNL     1       4.748  -2.546  -3.078  1.00  0.00    -0.463 OA
BRANCH   4   5
ATOM      5  C   UNL     1       5.480  -1.409  -2.974  1.00  0.00     0.305 C 
ATOM      6  O   UNL     1       6.690  -1.379  -2.776  1.00  0.00    -0.252 OA
BRANCH   5   7
ATOM      7  C   UNL     1       4.705  -0.127  -3.227  1.00  0.00     0.124 C 
BRANCH   7   8
ATOM      8  C   UNL     1       3.176  -0.098  -3.216  1.00  0.00     0.033 C 
BRANCH   8   9
ATOM      9  C   UNL     1       2.490  -0.807  -2.061  1.00  0.00     0.116 C 
BRANCH   9  10
ATOM     10  N   UNL     1       3.031  -0.393  -0.789  1.00  0.00    -0.355 N 
ATOM     11  O   UNL     1       1.054   0.315   0.139  1.00  0.00    -0.273 OA
ATOM     12  C   UNL     1       2.247   0.058   0.249  1.00  0.00     0.239 C 
ATOM     13  H   UNL     1       4.006  -0.435  -0.657  1.00  0.00     0.163 HD
BRANCH  12  14
ATOM     14  C   UNL     1       3.036   0.333   1.528  1.00  0.00     0.220 C 
BRANCH  14  15
ATOM     15  N   UNL     1       3.945  -0.732   1.961  1.00  0.00    -0.323 N 
ATOM     16  C   UNL     1       3.730  -2.115   1.605  1.00  0.00     0.190 C 
ATOM     17  C   UNL     1       4.892  -0.471   2.936  1.00  0.00     0.233 C 
ATOM     18  S   UNL     1       4.666  -3.124   2.754  1.00  0.00    -0.130 SA
ATOM     19  C   UNL     1       5.585  -1.722   3.422  1.00  0.00     0.171 C 
ATOM     20  O   UNL     1       5.151   0.650   3.358  1.00  0.00    -0.274 OA
ENDBRANCH  14  15
ENDBRANCH  12  14
ENDBRANCH   9  10
ENDBRANCH   8   9
ENDBRANCH   7   8
ENDBRANCH   5   7
ENDBRANCH   4   5
ENDBRANCH   3   4
ENDBRANCH   2   3
ENDBRANCH   1   2
BRANCH   1  21
ATOM     21  C   UNL     1       4.531  -2.868  -5.859  1.00  0.00     0.188 C 
BRANCH  21  22
ATOM     22  C   UNL     1       3.021  -3.065  -5.722  1.00  0.00     0.188 C 
BRANCH  22  23
ATOM     23  O   UNL     1       2.581  -3.801  -4.595  1.00  0.00    -0.376 OA
BRANCH  23  24
ATOM     24  C   UNL     1       1.226  -4.261  -4.603  1.00  0.00     0.202 C 
BRANCH  24  25
ATOM     25  C   UNL     1       0.675  -4.964  -5.868  1.00  0.00     0.261 C 
BRANCH  25  26
ATOM     26  O   UNL     1       0.784  -4.270  -7.131  1.00  0.00    -0.460 OA
BRANCH  26  27
ATOM     27  C   UNL     1       0.373  -2.984  -7.211  1.00  0.00     0.338 C 
ATOM     28  O   UNL     1      -0.295  -2.385  -6.383  1.00  0.00    -0.246 OA
BRANCH  27  29
ATOM     29  C   UNL     1       1.122  -2.324  -8.322  1.00  0.00     0.060 A 
ATOM     30  C   UNL     1       1.640  -1.035  -8.109  1.00  0.00     0.016 A 
ATOM     31  C   UNL     1       1.406  -2.986  -9.521  1.00  0.00     0.016 A 
ATOM     32  C   UNL     1       2.415  -0.402  -9.090  1.00  0.00     0.010 A 
ATOM     33  C   UNL     1       2.159  -2.343 -10.511  1.00  0.00     0.010 A 
ATOM     34  C   UNL     1       2.647  -1.037 -10.315  1.00  0.00    -0.014 A 
BRANCH  34  35
ATOM     35  C   UNL     1       3.190  -0.287 -11.481  1.00  0.00     0.031 A 
ATOM     36  C   UNL     1       2.207   0.237 -12.492  1.00  0.00     0.074 A 
ATOM     37  C   UNL     1       4.508  -0.101 -11.678  1.00  0.00     0.049 A 
ATOM     38  N   UNL     1       2.415   0.745 -13.680  1.00  0.00    -0.248 NA
ATOM     39  C   UNL     1       0.788   0.164 -12.108  1.00  0.00     0.031 C 
ATOM     40  C   UNL     1       5.570  -0.490 -10.755  1.00  0.00     0.029 A 
ATOM     41  N   UNL     1       5.177   0.446 -12.750  1.00  0.00    -0.354 N 
ATOM     42  C   UNL     1       1.155   1.026 -14.193  1.00  0.00     0.074 A 
ATOM     43  C   UNL     1       0.189   0.616 -13.198  1.00  0.00     0.031 C 
ATOM     44  C   UNL     1       6.760  -0.199 -11.313  1.00  0.00     0.029 A 
ATOM     45  C   UNL     1       6.545   0.350 -12.653  1.00  0.00     0.049 A 
ATOM     46  H   UNL     1       4.720   0.865 -13.514  1.00  0.00     0.167 HD
ATOM     47  C   UNL     1       0.831   1.574 -15.388  1.00  0.00     0.037 A 
ATOM     48  C   UNL     1       7.507   0.630 -13.558  1.00  0.00     0.037 A 
ATOM     49  C   UNL     1       1.791   1.981 -16.378  1.00  0.00     0.049 A 
ATOM     50  C   UNL     1       7.121   1.148 -14.925  1.00  0.00     0.074 A 
ATOM     51  C   UNL     1       1.561   2.558 -17.614  1.00  0.00     0.029 A 
ATOM     52  N   UNL     1       3.165   1.846 -16.248  1.00  0.00    -0.354 N 
ATOM     53  N   UNL     1       5.931   1.414 -15.406  1.00  0.00    -0.248 NA
ATOM     54  C   UNL     1       8.214   1.397 -15.879  1.00  0.00     0.031 C 
ATOM     55  C   UNL     1       2.791   2.712 -18.259  1.00  0.00     0.029 A 
ATOM     56  C   UNL     1       3.793   2.301 -17.395  1.00  0.00     0.049 A 
ATOM     57  H   UNL     1       3.625   1.481 -15.458  1.00  0.00     0.167 HD
ATOM     58  C   UNL     1       6.134   1.898 -16.695  1.00  0.00     0.074 A 
ATOM     59  C   UNL     1       7.562   1.890 -16.923  1.00  0.00     0.031 C 
ATOM     60  C   UNL     1       5.219   2.316 -17.603  1.00  0.00     0.037 A 
BRANCH  47  61
ATOM     61  C   UNL     1      -0.627   1.725 -15.710  1.00  0.00     0.064 A 
ATOM     62  C   UNL     1      -1.442   2.653 -15.043  1.00  0.00     0.173 A 
ATOM     63  C   UNL     1      -1.211   0.949 -16.723  1.00  0.00     0.173 A 
ATOM     64  F   UNL     1      -0.937   3.408 -14.056  1.00  0.00    -0.203 F 
ATOM     65  C   UNL     1      -2.792   2.777 -15.360  1.00  0.00     0.198 A 
ATOM     66  C   UNL     1      -2.552   1.101 -17.061  1.00  0.00     0.198 A 
ATOM     67  F   UNL     1      -0.476   0.049 -17.394  1.00  0.00    -0.203 F 
ATOM     68  F   UNL     1      -3.563   3.631 -14.673  1.00  0.00    -0.200 F 
ATOM     69  C   UNL     1      -3.344   2.008 -16.373  1.00  0.00     0.200 A 
ATOM     70  F   UNL     1      -3.079   0.367 -18.051  1.00  0.00    -0.200 F 
ATOM     71  F   UNL     1      -4.641   2.135 -16.683  1.00  0.00    -0.200 F 
ENDBRANCH  47  61
BRANCH  48  72
ATOM     72  C   UNL     1       8.941   0.396 -13.226  1.00  0.00     0.064 A 
ATOM     73  C   UNL     1       9.845   1.463 -13.126  1.00  0.00     0.173 A 
ATOM     74  C   UNL     1       9.446  -0.901 -13.044  1.00  0.00     0.173 A 
ATOM     75  F   UNL     1       9.421   2.720 -13.327  1.00  0.00    -0.203 F 
ATOM     76  C   UNL     1      11.199   1.242 -12.877  1.00  0.00     0.198 A 
ATOM     77  C   UNL     1      10.793  -1.118 -12.761  1.00  0.00     0.198 A 
ATOM     78  F   UNL     1       8.629  -1.960 -13.140  1.00  0.00    -0.203 F 
ATOM     79  F   UNL     1      12.049   2.277 -12.844  1.00  0.00    -0.200 F 
ATOM     80  C   UNL     1      11.671  -0.048 -12.687  1.00  0.00     0.200 A 
ATOM     81  F   UNL     1      11.243  -2.366 -12.571  1.00  0.00    -0.200 F 
ATOM     82  F   UNL     1      12.972  -0.259 -12.446  1.00  0.00    -0.200 F 
ENDBRANCH  48  72
BRANCH  60  83
ATOM     83  C   UNL     1       5.717   2.866 -18.910  1.00  0.00     0.064 A 
ATOM     84  C   UNL     1       6.264   2.043 -19.905  1.00  0.00     0.173 A 
ATOM     85  C   UNL     1       5.558   4.231 -19.204  1.00  0.00     0.173 A 
ATOM     86  F   UNL     1       6.447   0.734 -19.672  1.00  0.00    -0.203 F 
ATOM     87  C   UNL     1       6.644   2.566 -21.139  1.00  0.00     0.198 A 
ATOM     88  C   UNL     1       5.909   4.744 -20.449  1.00  0.00     0.198 A 
ATOM     89  F   UNL     1       5.032   5.061 -18.291  1.00  0.00    -0.203 F 
ATOM     90  F   UNL     1       7.194   1.767 -22.063  1.00  0.00    -0.200 F 
ATOM     91  C   UNL     1       6.455   3.913 -21.414  1.00  0.00     0.200 A 
ATOM     92  F   UNL     1       5.707   6.042 -20.719  1.00  0.00    -0.200 F 
ATOM     93  F   UNL     1       6.800   4.409 -22.610  1.00  0.00    -0.200 F 
ENDBRANCH  60  83
ENDBRANCH  34  35
ENDBRANCH  27  29
ENDBRANCH  26  27
ENDBRANCH  25  26
ENDBRANCH  24  25
ENDBRANCH  23  24
ENDBRANCH  22  23
ENDBRANCH  21  22
ENDBRANCH   1  21
TORSDOF 22
