REMARK SMILES O=C(OCCOCCOCCOC(=O)[C@H]1CC(=O)N(c2cccc(OC(F)(F)F)c2)C1)c1ccc(-c2c3nc(c(-c4c(F)c(F)c(F)c(F)c4F)c4ccc([nH]4)c(-c4c(F)c(F)c(F)c(F)c4F)c4nc(c(-c5c(F)c(F)c(F)c(F)c5F)c5ccc2[nH]5)C=C4)C=C3)cc1
REMARK SMILES IDX 8 1 7 2 6 3 5 4 4 5 3 6 2 7 1 8 32 9 33 10 94 11 34 12 93 13
REMARK SMILES IDX 35 14 36 15 37 16 87 17 38 18 92 19 86 20 88 21 39 22 91 23
REMARK SMILES IDX 85 24 84 25 40 27 72 28 52 29 71 30 53 31 56 32 70 33 89 34
REMARK SMILES IDX 54 35 55 36 69 38 90 39 57 40 41 41 42 42 50 43 43 44 44 45
REMARK SMILES IDX 48 46 51 47 45 48 46 49 49 50 47 51 73 52 74 53 82 54 75 55
REMARK SMILES IDX 76 56 80 57 83 58 77 59 78 60 81 61 79 62 58 63 59 64 67 65
REMARK SMILES IDX 60 66 61 67 65 68 68 69 62 70 63 71 66 72 64 73 9 74 10 75
REMARK SMILES IDX 11 76 12 77 13 78 14 79 15 80 16 81 31 82 17 83 19 84 18 85
REMARK SMILES IDX 20 86 21 87 30 88 22 89 24 90 23 91 25 92 26 93 27 94 28 95
REMARK SMILES IDX 29 96
REMARK H PARENT 88 26 56 37
REMARK Flexibility Score: inf
ROOT
ATOM      1  C   UNL     1       4.506   2.378   1.837  1.00  0.00     0.188 C 
ENDROOT
BRANCH   1   2
ATOM      2  C   UNL     1       3.449   2.213   2.932  1.00  0.00     0.188 C 
BRANCH   2   3
ATOM      3  O   UNL     1       2.939   3.454   3.440  1.00  0.00    -0.376 OA
BRANCH   3   4
ATOM      4  C   UNL     1       2.880   3.492   4.872  1.00  0.00     0.202 C 
BRANCH   4   5
ATOM      5  C   UNL     1       1.774   2.645   5.528  1.00  0.00     0.261 C 
BRANCH   5   6
ATOM      6  O   UNL     1       1.324   1.533   4.735  1.00  0.00    -0.460 OA
BRANCH   6   7
ATOM      7  C   UNL     1       0.407   1.486   3.736  1.00  0.00     0.338 C 
ATOM      8  O   UNL     1       0.143   0.387   3.249  1.00  0.00    -0.246 OA
BRANCH   7   9
ATOM      9  C   UNL     1      -0.285   2.685   3.160  1.00  0.00     0.060 A 
ATOM     10  C   UNL     1      -0.049   4.002   3.540  1.00  0.00     0.016 A 
ATOM     11  C   UNL     1      -1.253   2.464   2.159  1.00  0.00     0.016 A 
ATOM     12  C   UNL     1      -0.789   5.054   3.033  1.00  0.00     0.010 A 
ATOM     13  C   UNL     1      -1.994   3.525   1.617  1.00  0.00     0.010 A 
ATOM     14  C   UNL     1      -1.789   4.822   2.096  1.00  0.00    -0.014 A 
BRANCH  14  15
ATOM     15  C   UNL     1      -2.741   5.932   1.898  1.00  0.00     0.031 A 
ATOM     16  C   UNL     1      -4.032   5.857   2.665  1.00  0.00     0.074 A 
ATOM     17  C   UNL     1      -2.325   7.079   1.325  1.00  0.00     0.049 A 
ATOM     18  N   UNL     1      -5.008   6.720   2.740  1.00  0.00    -0.248 NA
ATOM     19  C   UNL     1      -4.221   4.668   3.521  1.00  0.00     0.031 C 
ATOM     20  C   UNL     1      -0.982   7.309   0.787  1.00  0.00     0.029 A 
ATOM     21  N   UNL     1      -2.951   8.283   1.152  1.00  0.00    -0.354 N 
ATOM     22  C   UNL     1      -5.907   6.188   3.657  1.00  0.00     0.074 A 
ATOM     23  C   UNL     1      -5.390   4.913   4.089  1.00  0.00     0.031 C 
ATOM     24  C   UNL     1      -0.882   8.576   0.355  1.00  0.00     0.029 A 
ATOM     25  C   UNL     1      -2.181   9.218   0.494  1.00  0.00     0.049 A 
ATOM     26  H   UNL     1      -3.866   8.465   1.468  1.00  0.00     0.167 HD
ATOM     27  C   UNL     1      -7.056   6.739   4.109  1.00  0.00     0.037 A 
ATOM     28  C   UNL     1      -2.538  10.418  -0.004  1.00  0.00     0.037 A 
ATOM     29  C   UNL     1      -7.541   8.005   3.637  1.00  0.00     0.049 A 
ATOM     30  C   UNL     1      -3.988  10.800   0.189  1.00  0.00     0.074 A 
ATOM     31  C   UNL     1      -8.714   8.662   3.947  1.00  0.00     0.029 A 
ATOM     32  N   UNL     1      -6.859   8.799   2.723  1.00  0.00    -0.354 N 
ATOM     33  N   UNL     1      -4.888  10.271   0.986  1.00  0.00    -0.248 NA
ATOM     34  C   UNL     1      -4.491  11.912  -0.623  1.00  0.00     0.031 C 
ATOM     35  C   UNL     1      -8.769   9.826   3.172  1.00  0.00     0.029 A 
ATOM     36  C   UNL     1      -7.601   9.926   2.429  1.00  0.00     0.049 A 
ATOM     37  H   UNL     1      -5.976   8.590   2.341  1.00  0.00     0.167 HD
ATOM     38  C   UNL     1      -6.029  11.045   0.845  1.00  0.00     0.074 A 
ATOM     39  C   UNL     1      -5.719  12.054  -0.148  1.00  0.00     0.031 C 
ATOM     40  C   UNL     1      -7.215  10.954   1.496  1.00  0.00     0.037 A 
BRANCH  27  41
ATOM     41  C   UNL     1      -7.866   5.945   5.092  1.00  0.00     0.064 A 
ATOM     42  C   UNL     1      -7.437   5.735   6.412  1.00  0.00     0.173 A 
ATOM     43  C   UNL     1      -9.076   5.355   4.697  1.00  0.00     0.173 A 
ATOM     44  F   UNL     1      -6.274   6.252   6.836  1.00  0.00    -0.203 F 
ATOM     45  C   UNL     1      -8.174   4.939   7.288  1.00  0.00     0.198 A 
ATOM     46  C   UNL     1      -9.823   4.583   5.583  1.00  0.00     0.198 A 
ATOM     47  F   UNL     1      -9.528   5.516   3.444  1.00  0.00    -0.203 F 
ATOM     48  F   UNL     1      -7.714   4.703   8.525  1.00  0.00    -0.200 F 
ATOM     49  C   UNL     1      -9.367   4.368   6.875  1.00  0.00     0.200 A 
ATOM     50  F   UNL     1     -10.978   4.035   5.181  1.00  0.00    -0.200 F 
ATOM     51  F   UNL     1     -10.072   3.598   7.715  1.00  0.00    -0.200 F 
ENDBRANCH  27  41
BRANCH  28  52
ATOM     52  C   UNL     1      -1.634  11.265  -0.848  1.00  0.00     0.064 A 
ATOM     53  C   UNL     1      -1.460  12.636  -0.608  1.00  0.00     0.173 A 
ATOM     54  C   UNL     1      -1.052  10.762  -2.022  1.00  0.00     0.173 A 
ATOM     55  F   UNL     1      -1.989  13.195   0.490  1.00  0.00    -0.203 F 
ATOM     56  C   UNL     1      -0.819  13.464  -1.536  1.00  0.00     0.198 A 
ATOM     57  C   UNL     1      -0.387  11.577  -2.935  1.00  0.00     0.198 A 
ATOM     58  F   UNL     1      -1.156   9.464  -2.309  1.00  0.00    -0.203 F 
ATOM     59  F   UNL     1      -0.758  14.785  -1.321  1.00  0.00    -0.200 F 
ATOM     60  C   UNL     1      -0.294  12.935  -2.704  1.00  0.00     0.200 A 
ATOM     61  F   UNL     1       0.127  11.050  -4.054  1.00  0.00    -0.200 F 
ATOM     62  F   UNL     1       0.278  13.733  -3.616  1.00  0.00    -0.200 F 
ENDBRANCH  28  52
BRANCH  40  63
ATOM     63  C   UNL     1      -8.170  12.090   1.301  1.00  0.00     0.064 A 
ATOM     64  C   UNL     1      -8.895  12.276   0.118  1.00  0.00     0.173 A 
ATOM     65  C   UNL     1      -8.364  13.003   2.350  1.00  0.00     0.173 A 
ATOM     66  F   UNL     1      -8.722  11.444  -0.920  1.00  0.00    -0.203 F 
ATOM     67  C   UNL     1      -9.758  13.359  -0.020  1.00  0.00     0.198 A 
ATOM     68  C   UNL     1      -9.257  14.059   2.223  1.00  0.00     0.198 A 
ATOM     69  F   UNL     1      -7.694  12.860   3.504  1.00  0.00    -0.203 F 
ATOM     70  F   UNL     1     -10.393  13.561  -1.182  1.00  0.00    -0.200 F 
ATOM     71  C   UNL     1      -9.944  14.243   1.034  1.00  0.00     0.200 A 
ATOM     72  F   UNL     1      -9.447  14.899   3.249  1.00  0.00    -0.200 F 
ATOM     73  F   UNL     1     -10.781  15.280   0.900  1.00  0.00    -0.200 F 
ENDBRANCH  40  63
ENDBRANCH  14  15
ENDBRANCH   7   9
ENDBRANCH   6   7
ENDBRANCH   5   6
ENDBRANCH   4   5
ENDBRANCH   3   4
ENDBRANCH   2   3
ENDBRANCH   1   2
BRANCH   1  74
ATOM     74  O   UNL     1       5.743   2.986   2.200  1.00  0.00    -0.376 OA
BRANCH  74  75
ATOM     75  C   UNL     1       5.699   4.243   2.862  1.00  0.00     0.202 C 
BRANCH  75  76
ATOM     76  C   UNL     1       5.204   5.458   2.066  1.00  0.00     0.261 C 
BRANCH  76  77
ATOM     77  O   UNL     1       4.029   5.213   1.276  1.00  0.00    -0.463 OA
BRANCH  77  78
ATOM     78  C   UNL     1       4.236   5.182  -0.063  1.00  0.00     0.311 C 
ATOM     79  O   UNL     1       5.303   5.429  -0.615  1.00  0.00    -0.252 OA
BRANCH  78  80
ATOM     80  C   UNL     1       3.012   4.851  -0.867  1.00  0.00     0.128 C 
ATOM     81  C   UNL     1       1.732   4.377  -0.200  1.00  0.00     0.117 C 
ATOM     82  C   UNL     1       2.573   6.124  -1.550  1.00  0.00     0.141 C 
ATOM     83  C   UNL     1       0.669   4.824  -1.195  1.00  0.00     0.227 C 
ATOM     84  N   UNL     1       1.236   5.833  -1.994  1.00  0.00    -0.311 N 
ATOM     85  O   UNL     1      -0.449   4.352  -1.238  1.00  0.00    -0.274 OA
BRANCH  84  86
ATOM     86  C   UNL     1       0.601   6.559  -3.035  1.00  0.00     0.047 A 
ATOM     87  C   UNL     1       1.371   7.245  -3.988  1.00  0.00     0.026 A 
ATOM     88  C   UNL     1      -0.795   6.622  -3.151  1.00  0.00     0.073 A 
ATOM     89  C   UNL     1       0.774   7.973  -5.018  1.00  0.00     0.006 A 
ATOM     90  C   UNL     1      -1.400   7.408  -4.142  1.00  0.00     0.131 A 
ATOM     91  C   UNL     1      -0.612   8.057  -5.092  1.00  0.00     0.047 A 
BRANCH  90  92
ATOM     92  O   UNL     1      -2.751   7.515  -4.304  1.00  0.00    -0.406 OA
BRANCH  92  93
ATOM     93  C   UNL     1      -3.511   7.932  -3.171  1.00  0.00     0.573 C 
ATOM     94  F   UNL     1      -4.706   7.302  -3.206  1.00  0.00    -0.132 F 
ATOM     95  F   UNL     1      -2.935   7.663  -1.987  1.00  0.00    -0.132 F 
ATOM     96  F   UNL     1      -3.742   9.265  -3.246  1.00  0.00    -0.132 F 
ENDBRANCH  92  93
ENDBRANCH  90  92
ENDBRANCH  84  86
ENDBRANCH  78  80
ENDBRANCH  77  78
ENDBRANCH  76  77
ENDBRANCH  75  76
ENDBRANCH  74  75
ENDBRANCH   1  74
TORSDOF 20
