REMARK SMILES CS(=O)(=O)Nc1ccc(-c2cc(Cl)cc3c2O[C@H](C(F)(F)F)C(C(=O)OCCOCCOCCOC(=O)c2ccc(-c4c5nc(c(-c6c(F)c(F)c(F)c(F)c6F)c6ccc([nH]6)c(-c6c(F)c(F)c(F)c(F)c6F)c6nc(c(-c7c(F)c(F)c(F)c(F)c7F)c7ccc4[nH]7)C=C6)C=C5)cc2)=C3)cc1
REMARK SMILES IDX 30 1 29 2 28 3 27 4 26 5 24 6 25 7 23 8 10 9 11 10 16 11
REMARK SMILES IDX 12 12 15 13 17 14 13 15 14 16 101 17 18 18 9 19 6 20 7 21
REMARK SMILES IDX 103 22 8 23 102 24 5 25 2 27 1 28 3 29 4 30 19 31 20 32
REMARK SMILES IDX 21 33 22 34 31 35 32 36 33 37 34 38 35 39 36 40 37 41 38 42
REMARK SMILES IDX 39 43 100 44 40 45 99 46 41 47 42 48 43 49 93 50 44 51 98 52
REMARK SMILES IDX 92 53 94 54 45 55 97 56 91 57 90 58 46 60 78 61 58 62 77 63
REMARK SMILES IDX 59 64 62 65 76 66 95 67 60 68 61 69 75 71 96 72 63 73 47 74
REMARK SMILES IDX 48 75 56 76 49 77 50 78 54 79 57 80 51 81 52 82 55 83 53 84
REMARK SMILES IDX 79 85 80 86 88 87 81 88 82 89 86 90 89 91 83 92 84 93 87 94
REMARK SMILES IDX 85 95 64 96 65 97 73 98 66 99 67 100 71 101 74 102 68 103
REMARK SMILES IDX 69 104 72 105 70 106
REMARK H PARENT 5 26 94 59 62 70
REMARK Flexibility Score: inf
ROOT
ATOM      1  C   UNL     1       6.744  -8.966   3.630  1.00  0.00     0.188 C 
ENDROOT
BRANCH   1   2
ATOM      2  O   UNL     1       6.554 -10.284   3.154  1.00  0.00    -0.376 OA
BRANCH   2   3
ATOM      3  C   UNL     1       7.161 -10.603   1.905  1.00  0.00     0.202 C 
BRANCH   3   4
ATOM      4  C   UNL     1       8.645 -10.230   1.736  1.00  0.00     0.261 C 
BRANCH   4   5
ATOM      5  O   UNL     1       8.881  -8.798   1.802  1.00  0.00    -0.460 OA
BRANCH   5   6
ATOM      6  C   UNL     1       8.768  -8.137   0.631  1.00  0.00     0.338 C 
ATOM      7  O   UNL     1       8.581  -8.681  -0.450  1.00  0.00    -0.246 OA
BRANCH   6   8
ATOM      8  C   UNL     1       8.764  -6.654   0.796  1.00  0.00     0.087 C 
ATOM      9  C   UNL     1       5.509  -4.529   2.217  1.00  0.00     0.026 A 
ATOM     10  C   UNL     1       4.435  -5.429   2.012  1.00  0.00     0.033 A 
ATOM     11  C   UNL     1       6.723  -4.934   1.643  1.00  0.00     0.135 A 
ATOM     12  C   UNL     1       4.496  -6.511   1.133  1.00  0.00     0.042 A 
ATOM     13  C   UNL     1       6.705  -5.859   0.578  1.00  0.00     0.019 A 
ATOM     14  O   UNL     1       7.987  -4.672   2.177  1.00  0.00    -0.475 OA
ATOM     15  Cl  UNL     1       3.165  -7.577   0.949  1.00  0.00    -0.084 Cl
ATOM     16  C   UNL     1       5.610  -6.677   0.342  1.00  0.00     0.032 A 
ATOM     17  C   UNL     1       7.978  -6.090  -0.135  1.00  0.00     0.027 C 
ATOM     18  C   UNL     1       8.857  -5.921   2.135  1.00  0.00     0.316 C 
BRANCH   9  19
ATOM     19  C   UNL     1       5.046  -3.140   2.565  1.00  0.00    -0.014 A 
ATOM     20  C   UNL     1       3.074  -1.043   2.559  1.00  0.00     0.048 A 
ATOM     21  C   UNL     1       3.202  -1.903   3.646  1.00  0.00     0.027 A 
ATOM     22  C   UNL     1       4.012  -1.149   1.533  1.00  0.00     0.027 A 
ATOM     23  C   UNL     1       4.191  -2.909   3.659  1.00  0.00     0.011 A 
ATOM     24  C   UNL     1       4.988  -2.175   1.541  1.00  0.00     0.011 A 
BRANCH  20  25
ATOM     25  N   UNL     1       1.843  -0.322   2.425  1.00  0.00    -0.284 N 
ATOM     26  H   UNL     1       1.017  -0.759   2.734  1.00  0.00     0.180 HD
BRANCH  25  27
ATOM     27  S   UNL     1       1.720   1.217   1.775  1.00  0.00     0.229 S 
ATOM     28  C   UNL     1       1.763   0.949   0.008  1.00  0.00     0.183 C 
ATOM     29  O   UNL     1       2.877   1.990   2.162  1.00  0.00    -0.207 OA
ATOM     30  O   UNL     1       0.379   1.659   2.107  1.00  0.00    -0.207 OA
ENDBRANCH  25  27
ENDBRANCH  20  25
ENDBRANCH   9  19
BRANCH  18  31
ATOM     31  C   UNL     1      10.334  -5.624   2.420  1.00  0.00     0.430 C 
ATOM     32  F   UNL     1      10.875  -4.802   1.494  1.00  0.00    -0.167 F 
ATOM     33  F   UNL     1      10.511  -5.059   3.635  1.00  0.00    -0.167 F 
ATOM     34  F   UNL     1      11.062  -6.770   2.412  1.00  0.00    -0.167 F 
ENDBRANCH  18  31
ENDBRANCH   6   8
ENDBRANCH   5   6
ENDBRANCH   4   5
ENDBRANCH   3   4
ENDBRANCH   2   3
ENDBRANCH   1   2
BRANCH   1  35
ATOM     35  C   UNL     1       7.866  -8.818   4.682  1.00  0.00     0.188 C 
BRANCH  35  36
ATOM     36  O   UNL     1       8.653  -9.940   5.048  1.00  0.00    -0.376 OA
BRANCH  36  37
ATOM     37  C   UNL     1       8.011 -11.163   5.381  1.00  0.00     0.202 C 
BRANCH  37  38
ATOM     38  C   UNL     1       6.863 -11.170   6.404  1.00  0.00     0.261 C 
BRANCH  38  39
ATOM     39  O   UNL     1       5.777 -10.262   6.132  1.00  0.00    -0.460 OA
BRANCH  39  40
ATOM     40  C   UNL     1       5.617  -9.258   7.024  1.00  0.00     0.338 C 
ATOM     41  O   UNL     1       6.304  -9.028   8.013  1.00  0.00    -0.246 OA
BRANCH  40  42
ATOM     42  C   UNL     1       4.573  -8.318   6.572  1.00  0.00     0.060 A 
ATOM     43  C   UNL     1       4.946  -6.996   6.312  1.00  0.00     0.016 A 
ATOM     44  C   UNL     1       3.228  -8.687   6.514  1.00  0.00     0.016 A 
ATOM     45  C   UNL     1       3.972  -6.042   6.016  1.00  0.00     0.010 A 
ATOM     46  C   UNL     1       2.251  -7.721   6.220  1.00  0.00     0.010 A 
ATOM     47  C   UNL     1       2.611  -6.385   5.980  1.00  0.00    -0.014 A 
BRANCH  47  48
ATOM     48  C   UNL     1       1.577  -5.315   5.853  1.00  0.00     0.031 A 
ATOM     49  C   UNL     1       1.176  -4.554   7.080  1.00  0.00     0.074 A 
ATOM     50  C   UNL     1       1.002  -5.011   4.674  1.00  0.00     0.049 A 
ATOM     51  N   UNL     1       0.348  -3.548   7.196  1.00  0.00    -0.248 NA
ATOM     52  C   UNL     1       1.759  -5.013   8.348  1.00  0.00     0.031 C 
ATOM     53  C   UNL     1       1.283  -5.712   3.436  1.00  0.00     0.029 A 
ATOM     54  N   UNL     1       0.114  -4.026   4.298  1.00  0.00    -0.354 N 
ATOM     55  C   UNL     1       0.250  -3.305   8.559  1.00  0.00     0.074 A 
ATOM     56  C   UNL     1       1.141  -4.234   9.221  1.00  0.00     0.031 C 
ATOM     57  C   UNL     1       0.707  -5.059   2.414  1.00  0.00     0.029 A 
ATOM     58  C   UNL     1      -0.095  -3.955   2.933  1.00  0.00     0.049 A 
ATOM     59  H   UNL     1      -0.331  -3.429   4.941  1.00  0.00     0.167 HD
ATOM     60  C   UNL     1      -0.553  -2.422   9.197  1.00  0.00     0.037 A 
ATOM     61  C   UNL     1      -0.842  -3.098   2.197  1.00  0.00     0.037 A 
ATOM     62  C   UNL     1      -1.442  -1.508   8.531  1.00  0.00     0.049 A 
ATOM     63  C   UNL     1      -1.647  -2.053   2.947  1.00  0.00     0.074 A 
ATOM     64  C   UNL     1      -2.310  -0.588   9.092  1.00  0.00     0.029 A 
ATOM     65  N   UNL     1      -1.585  -1.404   7.154  1.00  0.00    -0.354 N 
ATOM     66  N   UNL     1      -1.609  -1.732   4.220  1.00  0.00    -0.248 NA
ATOM     67  C   UNL     1      -2.599  -1.252   2.163  1.00  0.00     0.031 C 
ATOM     68  C   UNL     1      -3.017   0.032   8.057  1.00  0.00     0.029 A 
ATOM     69  C   UNL     1      -2.546  -0.454   6.848  1.00  0.00     0.049 A 
ATOM     70  H   UNL     1      -1.078  -1.928   6.493  1.00  0.00     0.167 HD
ATOM     71  C   UNL     1      -2.515  -0.687   4.378  1.00  0.00     0.074 A 
ATOM     72  C   UNL     1      -3.006  -0.363   3.056  1.00  0.00     0.031 C 
ATOM     73  C   UNL     1      -2.953  -0.086   5.514  1.00  0.00     0.037 A 
BRANCH  60  74
ATOM     74  C   UNL     1      -0.575  -2.476  10.696  1.00  0.00     0.064 A 
ATOM     75  C   UNL     1       0.507  -2.046  11.477  1.00  0.00     0.173 A 
ATOM     76  C   UNL     1      -1.708  -2.973  11.360  1.00  0.00     0.173 A 
ATOM     77  F   UNL     1       1.623  -1.588  10.890  1.00  0.00    -0.203 F 
ATOM     78  C   UNL     1       0.466  -2.139  12.867  1.00  0.00     0.198 A 
ATOM     79  C   UNL     1      -1.759  -3.033  12.749  1.00  0.00     0.198 A 
ATOM     80  F   UNL     1      -2.769  -3.402  10.660  1.00  0.00    -0.203 F 
ATOM     81  F   UNL     1       1.534  -1.779  13.591  1.00  0.00    -0.200 F 
ATOM     82  C   UNL     1      -0.668  -2.625  13.501  1.00  0.00     0.200 A 
ATOM     83  F   UNL     1      -2.860  -3.493  13.359  1.00  0.00    -0.200 F 
ATOM     84  F   UNL     1      -0.705  -2.711  14.838  1.00  0.00    -0.200 F 
ENDBRANCH  60  74
BRANCH  61  85
ATOM     85  C   UNL     1      -0.820  -3.116   0.691  1.00  0.00     0.064 A 
ATOM     86  C   UNL     1      -0.542  -1.943  -0.031  1.00  0.00     0.173 A 
ATOM     87  C   UNL     1      -1.056  -4.265  -0.081  1.00  0.00     0.173 A 
ATOM     88  F   UNL     1      -0.377  -0.785   0.619  1.00  0.00    -0.203 F 
ATOM     89  C   UNL     1      -0.470  -1.916  -1.425  1.00  0.00     0.198 A 
ATOM     90  C   UNL     1      -0.932  -4.255  -1.475  1.00  0.00     0.198 A 
ATOM     91  F   UNL     1      -1.396  -5.418   0.511  1.00  0.00    -0.203 F 
ATOM     92  F   UNL     1      -0.233  -0.758  -2.056  1.00  0.00    -0.200 F 
ATOM     93  C   UNL     1      -0.641  -3.080  -2.147  1.00  0.00     0.200 A 
ATOM     94  F   UNL     1      -1.089  -5.392  -2.166  1.00  0.00    -0.200 F 
ATOM     95  F   UNL     1      -0.534  -3.066  -3.482  1.00  0.00    -0.200 F 
ENDBRANCH  61  85
BRANCH  73  96
ATOM     96  C   UNL     1      -3.973   1.016   5.380  1.00  0.00     0.064 A 
ATOM     97  C   UNL     1      -5.277   0.763   4.925  1.00  0.00     0.173 A 
ATOM     98  C   UNL     1      -3.667   2.327   5.780  1.00  0.00     0.173 A 
ATOM     99  F   UNL     1      -5.631  -0.472   4.538  1.00  0.00    -0.203 F 
ATOM    100  C   UNL     1      -6.219   1.786   4.833  1.00  0.00     0.198 A 
ATOM    101  C   UNL     1      -4.624   3.338   5.725  1.00  0.00     0.198 A 
ATOM    102  F   UNL     1      -2.447   2.623   6.253  1.00  0.00    -0.203 F 
ATOM    103  F   UNL     1      -7.439   1.526   4.341  1.00  0.00    -0.200 F 
ATOM    104  C   UNL     1      -5.895   3.070   5.241  1.00  0.00     0.200 A 
ATOM    105  F   UNL     1      -4.320   4.572   6.152  1.00  0.00    -0.200 F 
ATOM    106  F   UNL     1      -6.809   4.047   5.170  1.00  0.00    -0.200 F 
ENDBRANCH  73  96
ENDBRANCH  47  48
ENDBRANCH  40  42
ENDBRANCH  39  40
ENDBRANCH  38  39
ENDBRANCH  37  38
ENDBRANCH  36  37
ENDBRANCH  35  36
ENDBRANCH   1  35
TORSDOF 21
