REMARK SMILES CC(C)(C)OC(=O)N1CCC[C@H]1C(=O)N[C@@H](Cc1ccccc1)C(=O)OCCOCCOCCOC(=O)c1ccc(-c2c3nc(c(-c4c(F)c(F)c(F)c(F)c4F)c4ccc([nH]4)c(-c4c(F)c(F)c(F)c(F)c4F)c4nc(c(-c5c(F)c(F)c(F)c(F)c5F)c5ccc2[nH]5)C=C4)C=C3)cc1
REMARK SMILES IDX 29 1 28 2 27 3 26 4 24 5 25 6 16 7 15 8 13 9 14 10 12 12
REMARK SMILES IDX 8 13 9 14 10 15 11 16 6 17 7 18 5 19 2 20 1 21 3 22 4 23
REMARK SMILES IDX 17 24 18 25 19 26 23 27 20 28 22 29 21 30 30 31 31 32 32 33
REMARK SMILES IDX 33 34 34 35 35 36 36 37 37 38 38 39 39 40 100 41 40 42 99 43
REMARK SMILES IDX 41 44 42 45 43 46 93 47 44 48 98 49 92 50 94 51 45 52 97 53
REMARK SMILES IDX 91 54 90 55 46 57 78 58 58 59 77 60 59 61 62 62 76 63 95 64
REMARK SMILES IDX 60 65 61 66 75 68 96 69 63 70 47 71 48 72 56 73 49 74 50 75
REMARK SMILES IDX 54 76 57 77 51 78 52 79 55 80 53 81 79 82 80 83 88 84 81 85
REMARK SMILES IDX 82 86 86 87 89 88 83 89 84 90 87 91 85 92 64 93 65 94 73 95
REMARK SMILES IDX 66 96 67 97 71 98 74 99 68 100 69 101 72 102 70 103
REMARK H PARENT 15 11 94 56 62 67
REMARK Flexibility Score: inf
ROOT
ATOM      1  O   UNL     1       2.131  -2.624   5.380  1.00  0.00    -0.376 OA
ENDROOT
BRANCH   1   2
ATOM      2  C   UNL     1       0.982  -1.869   5.718  1.00  0.00     0.202 C 
BRANCH   2   3
ATOM      3  C   UNL     1      -0.248  -2.733   5.980  1.00  0.00     0.261 C 
BRANCH   3   4
ATOM      4  O   UNL     1      -0.573  -3.646   4.909  1.00  0.00    -0.462 OA
BRANCH   4   5
ATOM      5  C   UNL     1      -1.433  -3.209   3.953  1.00  0.00     0.329 C 
ATOM      6  O   UNL     1      -1.834  -2.052   3.885  1.00  0.00    -0.250 OA
BRANCH   5   7
ATOM      7  C   UNL     1      -1.994  -4.367   3.092  1.00  0.00     0.196 C 
BRANCH   7   8
ATOM      8  N   UNL     1      -1.240  -5.627   3.169  1.00  0.00    -0.341 N 
ATOM      9  C   UNL     1      -0.614  -6.381   2.220  1.00  0.00     0.243 C 
ATOM     10  O   UNL     1      -0.004  -7.377   2.623  1.00  0.00    -0.273 OA
ATOM     11  H   UNL     1      -1.174  -5.997   4.079  1.00  0.00     0.164 HD
BRANCH   9  12
ATOM     12  C   UNL     1      -0.617  -5.984   0.721  1.00  0.00     0.178 C 
ATOM     13  N   UNL     1       0.302  -4.860   0.502  1.00  0.00    -0.296 N 
ATOM     14  C   UNL     1       1.561  -5.361  -0.006  1.00  0.00     0.124 C 
ATOM     15  C   UNL     1       1.182  -6.570  -0.840  1.00  0.00     0.024 C 
ATOM     16  C   UNL     1      -0.065  -7.126  -0.162  1.00  0.00     0.037 C 
BRANCH  13  17
ATOM     17  C   UNL     1      -0.166  -3.594   0.241  1.00  0.00     0.410 C 
ATOM     18  O   UNL     1      -1.316  -3.418  -0.201  1.00  0.00    -0.224 OA
BRANCH  17  19
ATOM     19  O   UNL     1       0.656  -2.590   0.648  1.00  0.00    -0.444 OA
BRANCH  19  20
ATOM     20  C   UNL     1       0.196  -1.192   0.786  1.00  0.00     0.106 C 
ATOM     21  C   UNL     1       0.753  -0.339  -0.343  1.00  0.00     0.056 C 
ATOM     22  C   UNL     1       0.807  -0.642   2.081  1.00  0.00     0.056 C 
ATOM     23  C   UNL     1      -1.321  -0.972   0.826  1.00  0.00     0.056 C 
ENDBRANCH  19  20
ENDBRANCH  17  19
ENDBRANCH  13  17
ENDBRANCH   9  12
ENDBRANCH   7   8
BRANCH   7  24
ATOM     24  C   UNL     1      -3.469  -4.582   3.501  1.00  0.00     0.072 C 
BRANCH  24  25
ATOM     25  C   UNL     1      -3.633  -5.080   4.925  1.00  0.00    -0.045 A 
ATOM     26  C   UNL     1      -3.427  -4.222   6.017  1.00  0.00     0.004 A 
ATOM     27  C   UNL     1      -3.916  -6.427   5.177  1.00  0.00     0.004 A 
ATOM     28  C   UNL     1      -3.385  -4.717   7.319  1.00  0.00     0.000 A 
ATOM     29  C   UNL     1      -3.928  -6.912   6.486  1.00  0.00     0.000 A 
ATOM     30  C   UNL     1      -3.634  -6.065   7.553  1.00  0.00     0.000 A 
ENDBRANCH  24  25
ENDBRANCH   7  24
ENDBRANCH   5   7
ENDBRANCH   4   5
ENDBRANCH   3   4
ENDBRANCH   2   3
ENDBRANCH   1   2
BRANCH   1  31
ATOM     31  C   UNL     1       2.104  -3.206   4.087  1.00  0.00     0.188 C 
BRANCH  31  32
ATOM     32  C   UNL     1       2.074  -4.747   4.064  1.00  0.00     0.188 C 
BRANCH  32  33
ATOM     33  O   UNL     1       2.234  -5.443   5.286  1.00  0.00    -0.376 OA
BRANCH  33  34
ATOM     34  C   UNL     1       3.373  -5.097   6.064  1.00  0.00     0.202 C 
BRANCH  34  35
ATOM     35  C   UNL     1       4.738  -5.113   5.354  1.00  0.00     0.261 C 
BRANCH  35  36
ATOM     36  O   UNL     1       4.801  -4.308   4.150  1.00  0.00    -0.460 OA
BRANCH  36  37
ATOM     37  C   UNL     1       5.598  -4.788   3.165  1.00  0.00     0.338 C 
ATOM     38  O   UNL     1       6.336  -5.769   3.254  1.00  0.00    -0.246 OA
BRANCH  37  39
ATOM     39  C   UNL     1       5.495  -4.027   1.889  1.00  0.00     0.060 A 
ATOM     40  C   UNL     1       4.270  -3.690   1.323  1.00  0.00     0.016 A 
ATOM     41  C   UNL     1       6.644  -3.813   1.125  1.00  0.00     0.016 A 
ATOM     42  C   UNL     1       4.184  -3.238   0.002  1.00  0.00     0.010 A 
ATOM     43  C   UNL     1       6.553  -3.342  -0.203  1.00  0.00     0.010 A 
ATOM     44  C   UNL     1       5.309  -3.122  -0.816  1.00  0.00    -0.014 A 
BRANCH  44  45
ATOM     45  C   UNL     1       5.153  -2.983  -2.310  1.00  0.00     0.031 A 
ATOM     46  C   UNL     1       5.824  -3.975  -3.220  1.00  0.00     0.074 A 
ATOM     47  C   UNL     1       4.322  -2.100  -2.907  1.00  0.00     0.049 A 
ATOM     48  N   UNL     1       6.055  -3.890  -4.505  1.00  0.00    -0.248 NA
ATOM     49  C   UNL     1       6.300  -5.222  -2.605  1.00  0.00     0.031 C 
ATOM     50  C   UNL     1       3.477  -1.158  -2.199  1.00  0.00     0.029 A 
ATOM     51  N   UNL     1       4.020  -1.865  -4.233  1.00  0.00    -0.354 N 
ATOM     52  C   UNL     1       6.802  -5.012  -4.828  1.00  0.00     0.074 A 
ATOM     53  C   UNL     1       6.947  -5.788  -3.614  1.00  0.00     0.031 C 
ATOM     54  C   UNL     1       2.683  -0.522  -3.070  1.00  0.00     0.029 A 
ATOM     55  C   UNL     1       3.087  -0.870  -4.421  1.00  0.00     0.049 A 
ATOM     56  H   UNL     1       4.433  -2.363  -4.976  1.00  0.00     0.167 HD
ATOM     57  C   UNL     1       7.340  -5.339  -6.026  1.00  0.00     0.037 A 
ATOM     58  C   UNL     1       2.659  -0.221  -5.525  1.00  0.00     0.037 A 
ATOM     59  C   UNL     1       7.108  -4.611  -7.248  1.00  0.00     0.049 A 
ATOM     60  C   UNL     1       3.321  -0.539  -6.833  1.00  0.00     0.074 A 
ATOM     61  C   UNL     1       7.644  -4.838  -8.504  1.00  0.00     0.029 A 
ATOM     62  N   UNL     1       6.242  -3.534  -7.376  1.00  0.00    -0.354 N 
ATOM     63  N   UNL     1       4.204  -1.467  -7.102  1.00  0.00    -0.248 NA
ATOM     64  C   UNL     1       2.981   0.320  -7.976  1.00  0.00     0.031 C 
ATOM     65  C   UNL     1       7.135  -3.874  -9.381  1.00  0.00     0.029 A 
ATOM     66  C   UNL     1       6.237  -3.081  -8.687  1.00  0.00     0.049 A 
ATOM     67  H   UNL     1       5.709  -3.149  -6.644  1.00  0.00     0.167 HD
ATOM     68  C   UNL     1       4.531  -1.304  -8.439  1.00  0.00     0.074 A 
ATOM     69  C   UNL     1       3.724  -0.209  -8.938  1.00  0.00     0.031 C 
ATOM     70  C   UNL     1       5.434  -1.992  -9.178  1.00  0.00     0.037 A 
BRANCH  57  71
ATOM     71  C   UNL     1       8.316  -6.477  -6.051  1.00  0.00     0.064 A 
ATOM     72  C   UNL     1       7.928  -7.816  -5.912  1.00  0.00     0.173 A 
ATOM     73  C   UNL     1       9.682  -6.203  -6.228  1.00  0.00     0.173 A 
ATOM     74  F   UNL     1       6.639  -8.128  -5.713  1.00  0.00    -0.203 F 
ATOM     75  C   UNL     1       8.875  -8.838  -5.928  1.00  0.00     0.198 A 
ATOM     76  C   UNL     1      10.621  -7.228  -6.277  1.00  0.00     0.198 A 
ATOM     77  F   UNL     1      10.106  -4.937  -6.362  1.00  0.00    -0.203 F 
ATOM     78  F   UNL     1       8.490 -10.107  -5.739  1.00  0.00    -0.200 F 
ATOM     79  C   UNL     1      10.218  -8.544  -6.119  1.00  0.00     0.200 A 
ATOM     80  F   UNL     1      11.915  -6.940  -6.474  1.00  0.00    -0.200 F 
ATOM     81  F   UNL     1      11.125  -9.530  -6.141  1.00  0.00    -0.200 F 
ENDBRANCH  57  71
BRANCH  58  82
ATOM     82  C   UNL     1       1.662   0.888  -5.426  1.00  0.00     0.064 A 
ATOM     83  C   UNL     1       0.424   0.824  -6.083  1.00  0.00     0.173 A 
ATOM     84  C   UNL     1       1.933   2.051  -4.684  1.00  0.00     0.173 A 
ATOM     85  F   UNL     1       0.124  -0.237  -6.846  1.00  0.00    -0.203 F 
ATOM     86  C   UNL     1      -0.496   1.871  -5.998  1.00  0.00     0.198 A 
ATOM     87  C   UNL     1       0.995   3.072  -4.559  1.00  0.00     0.198 A 
ATOM     88  F   UNL     1       3.109   2.187  -4.052  1.00  0.00    -0.203 F 
ATOM     89  F   UNL     1      -1.648   1.806  -6.680  1.00  0.00    -0.200 F 
ATOM     90  C   UNL     1      -0.216   2.987  -5.223  1.00  0.00     0.200 A 
ATOM     91  F   UNL     1       1.266   4.136  -3.790  1.00  0.00    -0.200 F 
ATOM     92  F   UNL     1      -1.108   3.982  -5.126  1.00  0.00    -0.200 F 
ENDBRANCH  58  82
BRANCH  70  93
ATOM     93  C   UNL     1       5.563  -1.605 -10.621  1.00  0.00     0.064 A 
ATOM     94  C   UNL     1       6.165  -0.400 -11.011  1.00  0.00     0.173 A 
ATOM     95  C   UNL     1       5.077  -2.455 -11.626  1.00  0.00     0.173 A 
ATOM     96  F   UNL     1       6.623   0.457 -10.086  1.00  0.00    -0.203 F 
ATOM     97  C   UNL     1       6.249  -0.046 -12.355  1.00  0.00     0.198 A 
ATOM     98  C   UNL     1       5.191  -2.112 -12.969  1.00  0.00     0.198 A 
ATOM     99  F   UNL     1       4.493  -3.619 -11.303  1.00  0.00    -0.203 F 
ATOM    100  F   UNL     1       6.774   1.137 -12.703  1.00  0.00    -0.200 F 
ATOM    101  C   UNL     1       5.767  -0.904 -13.332  1.00  0.00     0.200 A 
ATOM    102  F   UNL     1       4.734  -2.947 -13.912  1.00  0.00    -0.200 F 
ATOM    103  F   UNL     1       5.847  -0.561 -14.625  1.00  0.00    -0.200 F 
ENDBRANCH  70  93
ENDBRANCH  44  45
ENDBRANCH  37  39
ENDBRANCH  36  37
ENDBRANCH  35  36
ENDBRANCH  34  35
ENDBRANCH  33  34
ENDBRANCH  32  33
ENDBRANCH  31  32
ENDBRANCH   1  31
TORSDOF 24
