REMARK SMILES Cc1ncccc1OC1(C(=O)OCCOCCOCCOC(=O)c2ccc(-c3c4nc(c(-c5c(F)c(F)c(F)c(F)c5F)c5ccc([nH]5)c(-c5c(F)c(F)c(F)c(F)c5F)c5nc(c(-c6c(F)c(F)c(F)c(F)c6F)c6ccc3[nH]6)C=C5)C=C4)cc2)CCN(C(=O)c2ccc(O)nn2)CC1
REMARK SMILES IDX 16 1 15 2 14 3 13 4 12 5 10 6 11 7 9 8 87 9 100 10 88 11
REMARK SMILES IDX 99 12 89 13 90 14 91 15 8 16 7 17 1 18 2 19 3 20 4 21 6 22
REMARK SMILES IDX 5 23 92 24 93 25 98 26 94 27 97 28 95 29 96 30 17 32 18 33
REMARK SMILES IDX 19 34 20 35 21 36 22 37 23 38 24 39 25 40 86 41 26 42 85 43
REMARK SMILES IDX 27 44 28 45 29 46 79 47 30 48 84 49 78 50 80 51 31 52 83 53
REMARK SMILES IDX 77 54 76 55 32 57 64 58 44 59 63 60 45 61 48 62 62 63 81 64
REMARK SMILES IDX 46 65 47 66 61 68 82 69 49 70 33 71 34 72 42 73 35 74 36 75
REMARK SMILES IDX 40 76 43 77 37 78 38 79 41 80 39 81 65 82 66 83 74 84 67 85
REMARK SMILES IDX 68 86 72 87 75 88 69 89 70 90 73 91 71 92 50 93 51 94 59 95
REMARK SMILES IDX 52 96 53 97 57 98 60 99 54 100 55 101 58 102 56 103
REMARK H PARENT 96 31 80 56 48 67
REMARK Flexibility Score: inf
ROOT
ATOM      1  C   UNL     1       1.962  -5.973   1.637  1.00  0.00     0.188 C 
ENDROOT
BRANCH   1   2
ATOM      2  O   UNL     1       2.552  -6.940   0.775  1.00  0.00    -0.376 OA
BRANCH   2   3
ATOM      3  C   UNL     1       3.771  -6.641   0.109  1.00  0.00     0.202 C 
BRANCH   3   4
ATOM      4  C   UNL     1       3.696  -5.604  -1.015  1.00  0.00     0.261 C 
BRANCH   4   5
ATOM      5  O   UNL     1       3.526  -4.237  -0.581  1.00  0.00    -0.460 OA
BRANCH   5   6
ATOM      6  C   UNL     1       2.321  -3.627  -0.836  1.00  0.00     0.350 C 
ATOM      7  O   UNL     1       1.339  -4.229  -1.254  1.00  0.00    -0.247 OA
BRANCH   6   8
ATOM      8  C   UNL     1       2.389  -2.069  -0.630  1.00  0.00     0.209 C 
ATOM      9  C   UNL     1       3.004  -1.741   0.738  1.00  0.00     0.082 C 
ATOM     10  C   UNL     1       3.316  -1.631  -1.773  1.00  0.00     0.082 C 
ATOM     11  C   UNL     1       3.750  -0.426   0.899  1.00  0.00     0.124 C 
ATOM     12  C   UNL     1       3.874  -0.238  -1.635  1.00  0.00     0.124 C 
ATOM     13  N   UNL     1       4.356   0.134  -0.303  1.00  0.00    -0.337 N 
ATOM     14  C   UNL     1       5.120   1.305  -0.111  1.00  0.00     0.274 C 
ATOM     15  O   UNL     1       5.476   1.717   0.989  1.00  0.00    -0.267 OA
BRANCH   8  16
ATOM     16  O   UNL     1       1.086  -1.557  -1.000  1.00  0.00    -0.474 OA
BRANCH  16  17
ATOM     17  C   UNL     1       0.103  -0.910  -0.316  1.00  0.00     0.142 A 
ATOM     18  C   UNL     1       1.173   1.421  -0.258  1.00  0.00     0.071 C 
ATOM     19  C   UNL     1       0.048   0.471  -0.079  1.00  0.00     0.079 A 
ATOM     20  N   UNL     1      -1.103   1.140   0.223  1.00  0.00    -0.258 NA
ATOM     21  C   UNL     1      -2.258   0.460   0.233  1.00  0.00     0.111 A 
ATOM     22  C   UNL     1      -1.129  -1.583  -0.259  1.00  0.00     0.050 A 
ATOM     23  C   UNL     1      -2.322  -0.897   0.010  1.00  0.00     0.024 A 
ENDBRANCH  16  17
ENDBRANCH   8  16
BRANCH  14  24
ATOM     24  C   UNL     1       5.542   2.045  -1.321  1.00  0.00     0.151 A 
ATOM     25  C   UNL     1       6.844   1.907  -1.770  1.00  0.00     0.042 A 
ATOM     26  N   UNL     1       4.558   2.635  -2.048  1.00  0.00    -0.142 NA
ATOM     27  C   UNL     1       7.131   2.374  -3.044  1.00  0.00     0.072 A 
ATOM     28  N   UNL     1       4.848   3.099  -3.291  1.00  0.00    -0.112 NA
ATOM     29  C   UNL     1       6.103   2.950  -3.759  1.00  0.00     0.230 A 
BRANCH  29  30
ATOM     30  O   UNL     1       6.304   3.369  -5.035  1.00  0.00    -0.492 OA
ATOM     31  H   UNL     1       7.154   3.294  -5.423  1.00  0.00     0.295 HD
ENDBRANCH  29  30
ENDBRANCH  14  24
ENDBRANCH   6   8
ENDBRANCH   5   6
ENDBRANCH   4   5
ENDBRANCH   3   4
ENDBRANCH   2   3
ENDBRANCH   1   2
BRANCH   1  32
ATOM     32  C   UNL     1       2.864  -4.959   2.345  1.00  0.00     0.188 C 
BRANCH  32  33
ATOM     33  O   UNL     1       4.115  -5.487   2.752  1.00  0.00    -0.376 OA
BRANCH  33  34
ATOM     34  C   UNL     1       4.412  -5.352   4.135  1.00  0.00     0.202 C 
BRANCH  34  35
ATOM     35  C   UNL     1       3.713  -6.441   4.952  1.00  0.00     0.261 C 
BRANCH  35  36
ATOM     36  O   UNL     1       2.274  -6.369   4.909  1.00  0.00    -0.460 OA
BRANCH  36  37
ATOM     37  C   UNL     1       1.702  -5.258   5.422  1.00  0.00     0.338 C 
ATOM     38  O   UNL     1       2.260  -4.338   5.994  1.00  0.00    -0.246 OA
BRANCH  37  39
ATOM     39  C   UNL     1       0.294  -5.224   4.967  1.00  0.00     0.060 A 
ATOM     40  C   UNL     1      -0.191  -4.064   4.346  1.00  0.00     0.016 A 
ATOM     41  C   UNL     1      -0.533  -6.337   5.130  1.00  0.00     0.016 A 
ATOM     42  C   UNL     1      -1.518  -4.005   3.915  1.00  0.00     0.010 A 
ATOM     43  C   UNL     1      -1.864  -6.270   4.716  1.00  0.00     0.010 A 
ATOM     44  C   UNL     1      -2.372  -5.094   4.135  1.00  0.00    -0.014 A 
BRANCH  44  45
ATOM     45  C   UNL     1      -3.838  -4.949   3.959  1.00  0.00     0.031 A 
ATOM     46  C   UNL     1      -4.669  -4.631   5.171  1.00  0.00     0.074 A 
ATOM     47  C   UNL     1      -4.430  -5.119   2.764  1.00  0.00     0.049 A 
ATOM     48  N   UNL     1      -5.969  -4.553   5.296  1.00  0.00    -0.248 NA
ATOM     49  C   UNL     1      -3.927  -4.373   6.416  1.00  0.00     0.031 C 
ATOM     50  C   UNL     1      -3.741  -5.396   1.507  1.00  0.00     0.029 A 
ATOM     51  N   UNL     1      -5.761  -5.101   2.425  1.00  0.00    -0.354 N 
ATOM     52  C   UNL     1      -6.200  -4.249   6.631  1.00  0.00     0.074 A 
ATOM     53  C   UNL     1      -4.910  -4.183   7.282  1.00  0.00     0.031 C 
ATOM     54  C   UNL     1      -4.659  -5.541   0.533  1.00  0.00     0.029 A 
ATOM     55  C   UNL     1      -5.997  -5.401   1.107  1.00  0.00     0.049 A 
ATOM     56  H   UNL     1      -6.478  -4.893   3.067  1.00  0.00     0.167 HD
ATOM     57  C   UNL     1      -7.381  -4.038   7.258  1.00  0.00     0.037 A 
ATOM     58  C   UNL     1      -7.163  -5.568   0.450  1.00  0.00     0.037 A 
ATOM     59  C   UNL     1      -8.666  -4.104   6.615  1.00  0.00     0.049 A 
ATOM     60  C   UNL     1      -8.469  -5.405   1.188  1.00  0.00     0.074 A 
ATOM     61  C   UNL     1      -9.916  -3.875   7.162  1.00  0.00     0.029 A 
ATOM     62  N   UNL     1      -8.865  -4.433   5.284  1.00  0.00    -0.354 N 
ATOM     63  N   UNL     1      -8.681  -5.083   2.441  1.00  0.00    -0.248 NA
ATOM     64  C   UNL     1      -9.700  -5.631   0.416  1.00  0.00     0.031 C 
ATOM     65  C   UNL     1     -10.876  -4.119   6.175  1.00  0.00     0.029 A 
ATOM     66  C   UNL     1     -10.221  -4.443   4.998  1.00  0.00     0.049 A 
ATOM     67  H   UNL     1      -8.150  -4.631   4.637  1.00  0.00     0.167 HD
ATOM     68  C   UNL     1     -10.062  -5.034   2.597  1.00  0.00     0.074 A 
ATOM     69  C   UNL     1     -10.639  -5.352   1.309  1.00  0.00     0.031 C 
ATOM     70  C   UNL     1     -10.786  -4.747   3.708  1.00  0.00     0.037 A 
BRANCH  57  71
ATOM     71  C   UNL     1      -7.336  -3.743   8.728  1.00  0.00     0.064 A 
ATOM     72  C   UNL     1      -6.854  -2.521   9.221  1.00  0.00     0.173 A 
ATOM     73  C   UNL     1      -7.803  -4.688   9.653  1.00  0.00     0.173 A 
ATOM     74  F   UNL     1      -6.381  -1.592   8.377  1.00  0.00    -0.203 F 
ATOM     75  C   UNL     1      -6.816  -2.268  10.590  1.00  0.00     0.198 A 
ATOM     76  C   UNL     1      -7.791  -4.419  11.019  1.00  0.00     0.198 A 
ATOM     77  F   UNL     1      -8.274  -5.871   9.233  1.00  0.00    -0.203 F 
ATOM     78  F   UNL     1      -6.306  -1.114  11.042  1.00  0.00    -0.200 F 
ATOM     79  C   UNL     1      -7.291  -3.213  11.486  1.00  0.00     0.200 A 
ATOM     80  F   UNL     1      -8.260  -5.330  11.883  1.00  0.00    -0.200 F 
ATOM     81  F   UNL     1      -7.258  -2.966  12.803  1.00  0.00    -0.200 F 
ENDBRANCH  57  71
BRANCH  58  82
ATOM     82  C   UNL     1      -7.160  -5.922  -0.995  1.00  0.00     0.064 A 
ATOM     83  C   UNL     1      -7.614  -5.012  -1.959  1.00  0.00     0.173 A 
ATOM     84  C   UNL     1      -6.740  -7.185  -1.436  1.00  0.00     0.173 A 
ATOM     85  F   UNL     1      -8.056  -3.803  -1.583  1.00  0.00    -0.203 F 
ATOM     86  C   UNL     1      -7.665  -5.358  -3.308  1.00  0.00     0.198 A 
ATOM     87  C   UNL     1      -6.765  -7.521  -2.788  1.00  0.00     0.198 A 
ATOM     88  F   UNL     1      -6.306  -8.095  -0.551  1.00  0.00    -0.203 F 
ATOM     89  F   UNL     1      -8.153  -4.488  -4.202  1.00  0.00    -0.200 F 
ATOM     90  C   UNL     1      -7.236  -6.610  -3.722  1.00  0.00     0.200 A 
ATOM     91  F   UNL     1      -6.345  -8.730  -3.184  1.00  0.00    -0.200 F 
ATOM     92  F   UNL     1      -7.288  -6.943  -5.019  1.00  0.00    -0.200 F 
ENDBRANCH  58  82
BRANCH  70  93
ATOM     93  C   UNL     1     -12.282  -4.715   3.577  1.00  0.00     0.064 A 
ATOM     94  C   UNL     1     -13.036  -5.886   3.415  1.00  0.00     0.173 A 
ATOM     95  C   UNL     1     -12.975  -3.497   3.667  1.00  0.00     0.173 A 
ATOM     96  F   UNL     1     -12.423  -7.075   3.311  1.00  0.00    -0.203 F 
ATOM     97  C   UNL     1     -14.426  -5.837   3.326  1.00  0.00     0.198 A 
ATOM     98  C   UNL     1     -14.365  -3.455   3.608  1.00  0.00     0.198 A 
ATOM     99  F   UNL     1     -12.302  -2.348   3.831  1.00  0.00    -0.203 F 
ATOM    100  F   UNL     1     -15.123  -6.964   3.128  1.00  0.00    -0.200 F 
ATOM    101  C   UNL     1     -15.089  -4.623   3.431  1.00  0.00     0.200 A 
ATOM    102  F   UNL     1     -15.004  -2.282   3.726  1.00  0.00    -0.200 F 
ATOM    103  F   UNL     1     -16.426  -4.579   3.355  1.00  0.00    -0.200 F 
ENDBRANCH  70  93
ENDBRANCH  44  45
ENDBRANCH  37  39
ENDBRANCH  36  37
ENDBRANCH  35  36
ENDBRANCH  34  35
ENDBRANCH  33  34
ENDBRANCH  32  33
ENDBRANCH   1  32
TORSDOF 21
