REMARK SMILES Cc1ccc(OCCC(=O)N2C[C@H](O)C[C@@H]2C(=O)OCCOCCOCCOC(=O)c2ccc(-c3c4nc(c(-c5c(F)c(F)c(F)c(F)c5F)c5ccc([nH]5)c(-c5c(F)c(F)c(F)c(F)c5F)c5nc(c(-c6c(F)c(F)c(F)c(F)c6F)c6ccc3[nH]6)C=C5)C=C4)cc2)cc1
REMARK SMILES IDX 22 1 21 2 20 3 19 4 17 5 18 6 16 7 11 8 12 9 13 10 15 11
REMARK SMILES IDX 9 12 10 13 8 14 7 15 6 16 5 17 1 18 2 19 3 20 95 21 4 22
REMARK SMILES IDX 94 23 14 24 23 26 24 27 25 28 26 29 27 30 28 31 29 32 30 33
REMARK SMILES IDX 31 34 32 35 93 36 33 37 92 38 34 39 35 40 36 41 86 42 37 43
REMARK SMILES IDX 91 44 85 45 87 46 38 47 90 48 84 49 83 50 39 52 71 53 51 54
REMARK SMILES IDX 70 55 52 56 55 57 69 58 88 59 53 60 54 61 68 63 89 64 56 65
REMARK SMILES IDX 40 66 41 67 49 68 42 69 43 70 47 71 50 72 44 73 45 74 48 75
REMARK SMILES IDX 46 76 72 77 73 78 81 79 74 80 75 81 79 82 82 83 76 84 77 85
REMARK SMILES IDX 80 86 78 87 57 88 58 89 66 90 59 91 60 92 64 93 67 94 61 95
REMARK SMILES IDX 62 96 65 97 63 98
REMARK H PARENT 14 25 87 51 55 62
REMARK Flexibility Score: inf
ROOT
ATOM      1  O   UNL     1      -1.852  -0.671   7.075  1.00  0.00    -0.376 OA
ENDROOT
BRANCH   1   2
ATOM      2  C   UNL     1      -3.213  -1.052   6.860  1.00  0.00     0.202 C 
BRANCH   2   3
ATOM      3  C   UNL     1      -4.073  -0.371   5.697  1.00  0.00     0.261 C 
BRANCH   3   4
ATOM      4  O   UNL     1      -3.852  -0.606   4.215  1.00  0.00    -0.462 OA
BRANCH   4   5
ATOM      5  C   UNL     1      -2.928   0.262   3.742  1.00  0.00     0.329 C 
ATOM      6  O   UNL     1      -2.325   0.816   4.648  1.00  0.00    -0.250 OA
BRANCH   5   7
ATOM      7  C   UNL     1      -2.528   0.584   2.215  1.00  0.00     0.197 C 
ATOM      8  N   UNL     1      -3.294   0.325   1.002  1.00  0.00    -0.326 N 
ATOM      9  C   UNL     1      -2.551  -0.590   0.151  1.00  0.00     0.152 C 
ATOM     10  C   UNL     1      -1.148  -0.736   0.672  1.00  0.00     0.136 C 
ATOM     11  C   UNL     1      -1.096   0.462   1.589  1.00  0.00     0.070 C 
BRANCH   8  12
ATOM     12  C   UNL     1      -3.661   1.476   0.253  1.00  0.00     0.226 C 
ATOM     13  O   UNL     1      -3.124   2.578   0.342  1.00  0.00    -0.275 OA
BRANCH  12  14
ATOM     14  C   UNL     1      -4.691   1.197  -0.798  1.00  0.00     0.141 C 
BRANCH  14  15
ATOM     15  C   UNL     1      -4.173   1.342  -2.241  1.00  0.00     0.239 C 
BRANCH  15  16
ATOM     16  O   UNL     1      -3.369   0.261  -2.763  1.00  0.00    -0.493 OA
BRANCH  16  17
ATOM     17  C   UNL     1      -1.996   0.376  -2.855  1.00  0.00     0.119 A 
ATOM     18  C   UNL     1       2.189   0.141  -1.812  1.00  0.00     0.044 C 
ATOM     19  C   UNL     1       0.788   0.239  -2.350  1.00  0.00    -0.051 A 
ATOM     20  C   UNL     1       0.073  -0.919  -2.678  1.00  0.00     0.007 A 
ATOM     21  C   UNL     1       0.123   1.470  -2.397  1.00  0.00     0.007 A 
ATOM     22  C   UNL     1      -1.305  -0.849  -2.936  1.00  0.00     0.046 A 
ATOM     23  C   UNL     1      -1.258   1.540  -2.650  1.00  0.00     0.046 A 
ENDBRANCH  16  17
ENDBRANCH  15  16
ENDBRANCH  14  15
ENDBRANCH  12  14
ENDBRANCH   8  12
BRANCH  10  24
ATOM     24  O   UNL     1      -0.980  -2.002   1.241  1.00  0.00    -0.391 OA
ATOM     25  H   UNL     1      -1.669  -2.151   1.907  1.00  0.00     0.211 HD
ENDBRANCH  10  24
ENDBRANCH   5   7
ENDBRANCH   4   5
ENDBRANCH   3   4
ENDBRANCH   2   3
ENDBRANCH   1   2
BRANCH   1  26
ATOM     26  C   UNL     1      -0.789  -1.631   7.133  1.00  0.00     0.188 C 
BRANCH  26  27
ATOM     27  C   UNL     1      -0.992  -3.111   6.824  1.00  0.00     0.188 C 
BRANCH  27  28
ATOM     28  O   UNL     1      -1.924  -3.255   5.769  1.00  0.00    -0.376 OA
BRANCH  28  29
ATOM     29  C   UNL     1      -2.289  -4.572   5.405  1.00  0.00     0.202 C 
BRANCH  29  30
ATOM     30  C   UNL     1      -1.124  -5.434   4.875  1.00  0.00     0.261 C 
BRANCH  30  31
ATOM     31  O   UNL     1      -0.667  -5.003   3.558  1.00  0.00    -0.460 OA
BRANCH  31  32
ATOM     32  C   UNL     1       0.626  -4.532   3.406  1.00  0.00     0.338 C 
ATOM     33  O   UNL     1       1.575  -5.251   3.213  1.00  0.00    -0.246 OA
BRANCH  32  34
ATOM     34  C   UNL     1       0.690  -3.021   3.442  1.00  0.00     0.060 A 
ATOM     35  C   UNL     1       1.786  -2.160   3.300  1.00  0.00     0.016 A 
ATOM     36  C   UNL     1      -0.476  -2.385   3.709  1.00  0.00     0.016 A 
ATOM     37  C   UNL     1       1.666  -0.706   3.520  1.00  0.00     0.010 A 
ATOM     38  C   UNL     1      -0.490  -1.060   4.136  1.00  0.00     0.010 A 
ATOM     39  C   UNL     1       0.510  -0.094   4.031  1.00  0.00    -0.014 A 
BRANCH  39  40
ATOM     40  C   UNL     1       0.199   1.398   4.533  1.00  0.00     0.031 A 
ATOM     41  C   UNL     1      -0.791   2.569   3.976  1.00  0.00     0.074 A 
ATOM     42  C   UNL     1       0.315   1.444   5.880  1.00  0.00     0.049 A 
ATOM     43  N   UNL     1      -1.863   3.016   4.601  1.00  0.00    -0.248 NA
ATOM     44  C   UNL     1      -0.672   3.319   2.705  1.00  0.00     0.031 C 
ATOM     45  C   UNL     1      -0.265   2.358   6.859  1.00  0.00     0.029 A 
ATOM     46  N   UNL     1       1.329   0.821   6.612  1.00  0.00    -0.354 N 
ATOM     47  C   UNL     1      -2.685   3.789   3.791  1.00  0.00     0.074 A 
ATOM     48  C   UNL     1      -1.835   4.013   2.623  1.00  0.00     0.031 C 
ATOM     49  C   UNL     1       0.653   2.572   7.820  1.00  0.00     0.029 A 
ATOM     50  C   UNL     1       1.857   1.881   7.386  1.00  0.00     0.049 A 
ATOM     51  H   UNL     1       1.607  -0.123   6.595  1.00  0.00     0.167 HD
ATOM     52  C   UNL     1      -3.531   4.711   4.367  1.00  0.00     0.037 A 
ATOM     53  C   UNL     1       3.001   2.442   6.887  1.00  0.00     0.037 A 
ATOM     54  C   UNL     1      -2.814   5.324   5.460  1.00  0.00     0.049 A 
ATOM     55  C   UNL     1       2.734   3.846   6.332  1.00  0.00     0.074 A 
ATOM     56  C   UNL     1      -2.732   5.217   6.829  1.00  0.00     0.029 A 
ATOM     57  N   UNL     1      -1.691   5.998   5.061  1.00  0.00    -0.354 N 
ATOM     58  N   UNL     1       1.552   4.410   6.258  1.00  0.00    -0.248 NA
ATOM     59  C   UNL     1       3.769   4.716   5.786  1.00  0.00     0.031 C 
ATOM     60  C   UNL     1      -1.402   5.647   7.188  1.00  0.00     0.029 A 
ATOM     61  C   UNL     1      -0.741   6.070   6.043  1.00  0.00     0.049 A 
ATOM     62  H   UNL     1      -1.578   6.389   4.164  1.00  0.00     0.167 HD
ATOM     63  C   UNL     1       1.641   5.664   5.731  1.00  0.00     0.074 A 
ATOM     64  C   UNL     1       3.050   5.780   5.385  1.00  0.00     0.031 C 
ATOM     65  C   UNL     1       0.580   6.527   5.631  1.00  0.00     0.037 A 
BRANCH  52  66
ATOM     66  C   UNL     1      -4.934   5.130   3.928  1.00  0.00     0.064 A 
ATOM     67  C   UNL     1      -5.669   6.106   4.654  1.00  0.00     0.173 A 
ATOM     68  C   UNL     1      -5.655   4.534   2.872  1.00  0.00     0.173 A 
ATOM     69  F   UNL     1      -5.128   6.731   5.710  1.00  0.00    -0.203 F 
ATOM     70  C   UNL     1      -6.993   6.465   4.342  1.00  0.00     0.198 A 
ATOM     71  C   UNL     1      -6.982   4.903   2.553  1.00  0.00     0.198 A 
ATOM     72  F   UNL     1      -5.104   3.559   2.136  1.00  0.00    -0.203 F 
ATOM     73  F   UNL     1      -7.632   7.388   5.078  1.00  0.00    -0.200 F 
ATOM     74  C   UNL     1      -7.649   5.867   3.287  1.00  0.00     0.200 A 
ATOM     75  F   UNL     1      -7.620   4.308   1.532  1.00  0.00    -0.200 F 
ATOM     76  F   UNL     1      -8.912   6.210   2.987  1.00  0.00    -0.200 F 
ENDBRANCH  52  66
BRANCH  53  77
ATOM     77  C   UNL     1       3.911   1.354   6.332  1.00  0.00     0.064 A 
ATOM     78  C   UNL     1       4.028   0.144   7.082  1.00  0.00     0.173 A 
ATOM     79  C   UNL     1       4.319   1.281   4.997  1.00  0.00     0.173 A 
ATOM     80  F   UNL     1       3.675   0.119   8.380  1.00  0.00    -0.203 F 
ATOM     81  C   UNL     1       4.312  -1.083   6.481  1.00  0.00     0.198 A 
ATOM     82  C   UNL     1       4.720   0.060   4.426  1.00  0.00     0.198 A 
ATOM     83  F   UNL     1       4.215   2.345   4.189  1.00  0.00    -0.203 F 
ATOM     84  F   UNL     1       4.154  -2.223   7.172  1.00  0.00    -0.200 F 
ATOM     85  C   UNL     1       4.654  -1.125   5.148  1.00  0.00     0.200 A 
ATOM     86  F   UNL     1       5.007   0.004   3.116  1.00  0.00    -0.200 F 
ATOM     87  F   UNL     1       4.840  -2.305   4.536  1.00  0.00    -0.200 F 
ENDBRANCH  53  77
BRANCH  65  88
ATOM     88  C   UNL     1       0.729   7.923   5.073  1.00  0.00     0.064 A 
ATOM     89  C   UNL     1       1.814   8.726   5.444  1.00  0.00     0.173 A 
ATOM     90  C   UNL     1      -0.229   8.545   4.234  1.00  0.00     0.173 A 
ATOM     91  F   UNL     1       2.711   8.294   6.342  1.00  0.00    -0.203 F 
ATOM     92  C   UNL     1       2.002  10.000   4.911  1.00  0.00     0.198 A 
ATOM     93  C   UNL     1      -0.088   9.853   3.781  1.00  0.00     0.198 A 
ATOM     94  F   UNL     1      -1.316   7.906   3.780  1.00  0.00    -0.203 F 
ATOM     95  F   UNL     1       3.121  10.675   5.200  1.00  0.00    -0.200 F 
ATOM     96  C   UNL     1       1.048  10.566   4.087  1.00  0.00     0.200 A 
ATOM     97  F   UNL     1      -1.053  10.400   3.027  1.00  0.00    -0.200 F 
ATOM     98  F   UNL     1       1.225  11.794   3.585  1.00  0.00    -0.200 F 
ENDBRANCH  65  88
ENDBRANCH  39  40
ENDBRANCH  32  34
ENDBRANCH  31  32
ENDBRANCH  30  31
ENDBRANCH  29  30
ENDBRANCH  28  29
ENDBRANCH  27  28
ENDBRANCH  26  27
ENDBRANCH   1  26
TORSDOF 23
