REMARK SMILES [NH3+][C@H](CS[C@@H]1CC(=O)N(c2ccc3ccccc3c2)C1=O)C(=O)OCCOCCOCCOC(=O)c1ccc(-c2c3nc(c(-c4c(F)c(F)c(F)c(F)c4F)c4ccc([nH]4)c(-c4c(F)c(F)c(F)c(F)c4F)c4nc(c(-c5c(F)c(F)c(F)c(F)c5F)c5ccc2[nH]5)C=C4)C=C3)cc1
REMARK SMILES IDX 28 1 27 2 26 3 25 4 24 5 22 6 23 7 2 8 1 9 3 13 4 14 5 15
REMARK SMILES IDX 6 16 20 17 7 18 9 19 21 20 8 21 10 22 11 23 19 24 12 25
REMARK SMILES IDX 18 26 13 27 17 28 14 29 16 30 15 31 29 32 30 33 31 34 32 35
REMARK SMILES IDX 33 36 34 37 35 38 36 39 37 40 98 41 38 42 97 43 39 44 40 45
REMARK SMILES IDX 41 46 91 47 42 48 96 49 90 50 92 51 43 52 95 53 89 54 88 55
REMARK SMILES IDX 44 57 76 58 56 59 75 60 57 61 60 62 74 63 93 64 58 65 59 66
REMARK SMILES IDX 73 68 94 69 61 70 45 71 46 72 54 73 47 74 48 75 52 76 55 77
REMARK SMILES IDX 49 78 50 79 53 80 51 81 77 82 78 83 86 84 79 85 80 86 84 87
REMARK SMILES IDX 87 88 81 89 82 90 85 91 83 92 62 93 63 94 71 95 64 96 65 97
REMARK SMILES IDX 69 98 72 99 66 100 67 101 70 102 68 103
REMARK H PARENT 1 10 1 11 1 12 92 56 60 67
REMARK Flexibility Score: inf
ROOT
ATOM      1  C   UNL     1      -1.774  -1.984   0.895  1.00  0.00     0.188 C 
ENDROOT
BRANCH   1   2
ATOM      2  O   UNL     1      -3.051  -2.156   1.488  1.00  0.00    -0.376 OA
BRANCH   2   3
ATOM      3  C   UNL     1      -3.626  -0.958   2.014  1.00  0.00     0.202 C 
BRANCH   3   4
ATOM      4  C   UNL     1      -2.888  -0.349   3.242  1.00  0.00     0.261 C 
BRANCH   4   5
ATOM      5  O   UNL     1      -1.735   0.504   2.954  1.00  0.00    -0.459 OA
BRANCH   5   6
ATOM      6  C   UNL     1      -0.487  -0.032   2.935  1.00  0.00     0.365 C 
ATOM      7  O   UNL     1      -0.231  -1.144   3.397  1.00  0.00    -0.245 OA
BRANCH   6   8
ATOM      8  C   UNL     1       0.605   0.824   2.191  1.00  0.00     0.301 C 
BRANCH   8   9
ATOM      9  N   UNL     1       0.852   2.119   2.863  1.00  0.00    -0.345 N 
ATOM     10  H   UNL     1       0.810   1.991   3.874  1.00  0.00     0.345 HD
ATOM     11  H   UNL     1       0.141   2.792   2.577  1.00  0.00     0.345 HD
ATOM     12  H   UNL     1       1.774   2.467   2.603  1.00  0.00     0.345 HD
ENDBRANCH   8   9
BRANCH   8  13
ATOM     13  C   UNL     1       0.647   0.911   0.619  1.00  0.00     0.147 C 
BRANCH  13  14
ATOM     14  S   UNL     1       0.293   2.563  -0.288  1.00  0.00    -0.141 SA
BRANCH  14  15
ATOM     15  C   UNL     1      -1.326   2.151  -1.121  1.00  0.00     0.146 C 
ATOM     16  C   UNL     1      -2.143   3.176  -1.904  1.00  0.00     0.125 C 
ATOM     17  C   UNL     1      -2.232   1.922   0.016  1.00  0.00     0.247 C 
ATOM     18  C   UNL     1      -3.365   3.454  -1.038  1.00  0.00     0.235 C 
ATOM     19  N   UNL     1      -3.122   2.919   0.184  1.00  0.00    -0.250 N 
ATOM     20  O   UNL     1      -2.134   0.904   0.677  1.00  0.00    -0.273 OA
ATOM     21  O   UNL     1      -4.374   4.018  -1.431  1.00  0.00    -0.274 OA
BRANCH  19  22
ATOM     22  C   UNL     1      -3.842   3.035   1.390  1.00  0.00     0.052 A 
ATOM     23  C   UNL     1      -5.220   2.885   1.481  1.00  0.00     0.027 A 
ATOM     24  C   UNL     1      -3.092   3.199   2.571  1.00  0.00     0.035 A 
ATOM     25  C   UNL     1      -5.823   2.809   2.749  1.00  0.00     0.011 A 
ATOM     26  C   UNL     1      -3.682   3.151   3.842  1.00  0.00    -0.016 A 
ATOM     27  C   UNL     1      -5.069   2.925   3.938  1.00  0.00    -0.018 A 
ATOM     28  C   UNL     1      -2.907   3.267   5.010  1.00  0.00     0.009 A 
ATOM     29  C   UNL     1      -5.641   2.795   5.218  1.00  0.00     0.009 A 
ATOM     30  C   UNL     1      -3.492   3.142   6.269  1.00  0.00     0.001 A 
ATOM     31  C   UNL     1      -4.857   2.899   6.373  1.00  0.00     0.001 A 
ENDBRANCH  19  22
ENDBRANCH  14  15
ENDBRANCH  13  14
ENDBRANCH   8  13
ENDBRANCH   6   8
ENDBRANCH   5   6
ENDBRANCH   4   5
ENDBRANCH   3   4
ENDBRANCH   2   3
ENDBRANCH   1   2
BRANCH   1  32
ATOM     32  C   UNL     1      -1.776  -2.108  -0.611  1.00  0.00     0.188 C 
BRANCH  32  33
ATOM     33  O   UNL     1      -2.368  -1.092  -1.409  1.00  0.00    -0.376 OA
BRANCH  33  34
ATOM     34  C   UNL     1      -3.634  -1.451  -1.971  1.00  0.00     0.202 C 
BRANCH  34  35
ATOM     35  C   UNL     1      -3.685  -2.645  -2.967  1.00  0.00     0.261 C 
BRANCH  35  36
ATOM     36  O   UNL     1      -3.209  -3.905  -2.437  1.00  0.00    -0.460 OA
BRANCH  36  37
ATOM     37  C   UNL     1      -1.920  -4.232  -2.739  1.00  0.00     0.338 C 
ATOM     38  O   UNL     1      -1.222  -3.702  -3.589  1.00  0.00    -0.246 OA
BRANCH  37  39
ATOM     39  C   UNL     1      -1.355  -5.115  -1.671  1.00  0.00     0.060 A 
ATOM     40  C   UNL     1      -0.060  -4.825  -1.202  1.00  0.00     0.016 A 
ATOM     41  C   UNL     1      -2.095  -6.129  -1.058  1.00  0.00     0.016 A 
ATOM     42  C   UNL     1       0.506  -5.559  -0.156  1.00  0.00     0.010 A 
ATOM     43  C   UNL     1      -1.512  -6.893  -0.035  1.00  0.00     0.010 A 
ATOM     44  C   UNL     1      -0.196  -6.635   0.395  1.00  0.00    -0.014 A 
BRANCH  44  45
ATOM     45  C   UNL     1       0.541  -7.640   1.205  1.00  0.00     0.031 A 
ATOM     46  C   UNL     1       1.085  -8.846   0.482  1.00  0.00     0.074 A 
ATOM     47  C   UNL     1       0.769  -7.483   2.521  1.00  0.00     0.049 A 
ATOM     48  N   UNL     1       1.731  -9.884   0.949  1.00  0.00    -0.248 NA
ATOM     49  C   UNL     1       0.865  -8.882  -0.974  1.00  0.00     0.031 C 
ATOM     50  C   UNL     1       0.341  -6.343   3.327  1.00  0.00     0.029 A 
ATOM     51  N   UNL     1       1.418  -8.303   3.414  1.00  0.00    -0.354 N 
ATOM     52  C   UNL     1       1.995 -10.688  -0.154  1.00  0.00     0.074 A 
ATOM     53  C   UNL     1       1.405 -10.044  -1.305  1.00  0.00     0.031 C 
ATOM     54  C   UNL     1       0.719  -6.545   4.603  1.00  0.00     0.029 A 
ATOM     55  C   UNL     1       1.392  -7.840   4.708  1.00  0.00     0.049 A 
ATOM     56  H   UNL     1       1.860  -9.142   3.152  1.00  0.00     0.167 HD
ATOM     57  C   UNL     1       2.682 -11.853  -0.206  1.00  0.00     0.037 A 
ATOM     58  C   UNL     1       1.839  -8.413   5.845  1.00  0.00     0.037 A 
ATOM     59  C   UNL     1       3.255 -12.503   0.941  1.00  0.00     0.049 A 
ATOM     60  C   UNL     1       2.529  -9.756   5.770  1.00  0.00     0.074 A 
ATOM     61  C   UNL     1       3.960 -13.692   0.998  1.00  0.00     0.029 A 
ATOM     62  N   UNL     1       3.182 -12.018   2.239  1.00  0.00    -0.354 N 
ATOM     63  N   UNL     1       2.791 -10.502   4.723  1.00  0.00    -0.248 NA
ATOM     64  C   UNL     1       2.996 -10.332   7.040  1.00  0.00     0.031 C 
ATOM     65  C   UNL     1       4.266 -13.954   2.337  1.00  0.00     0.029 A 
ATOM     66  C   UNL     1       3.811 -12.895   3.107  1.00  0.00     0.049 A 
ATOM     67  H   UNL     1       2.748 -11.175   2.503  1.00  0.00     0.167 HD
ATOM     68  C   UNL     1       3.474 -11.614   5.203  1.00  0.00     0.074 A 
ATOM     69  C   UNL     1       3.614 -11.430   6.632  1.00  0.00     0.031 C 
ATOM     70  C   UNL     1       3.942 -12.694   4.527  1.00  0.00     0.037 A 
BRANCH  57  71
ATOM     71  C   UNL     1       2.834 -12.508  -1.549  1.00  0.00     0.064 A 
ATOM     72  C   UNL     1       3.653 -11.959  -2.547  1.00  0.00     0.173 A 
ATOM     73  C   UNL     1       2.184 -13.720  -1.828  1.00  0.00     0.173 A 
ATOM     74  F   UNL     1       4.281 -10.791  -2.340  1.00  0.00    -0.203 F 
ATOM     75  C   UNL     1       3.801 -12.589  -3.781  1.00  0.00     0.198 A 
ATOM     76  C   UNL     1       2.359 -14.363  -3.050  1.00  0.00     0.198 A 
ATOM     77  F   UNL     1       1.387 -14.287  -0.910  1.00  0.00    -0.203 F 
ATOM     78  F   UNL     1       4.552 -12.023  -4.735  1.00  0.00    -0.200 F 
ATOM     79  C   UNL     1       3.162 -13.795  -4.027  1.00  0.00     0.200 A 
ATOM     80  F   UNL     1       1.751 -15.535  -3.282  1.00  0.00    -0.200 F 
ATOM     81  F   UNL     1       3.317 -14.407  -5.209  1.00  0.00    -0.200 F 
ENDBRANCH  57  71
BRANCH  58  82
ATOM     82  C   UNL     1       1.630  -7.747   7.161  1.00  0.00     0.064 A 
ATOM     83  C   UNL     1       2.711  -7.312   7.943  1.00  0.00     0.173 A 
ATOM     84  C   UNL     1       0.342  -7.589   7.696  1.00  0.00     0.173 A 
ATOM     85  F   UNL     1       3.966  -7.470   7.496  1.00  0.00    -0.203 F 
ATOM     86  C   UNL     1       2.515  -6.780   9.217  1.00  0.00     0.198 A 
ATOM     87  C   UNL     1       0.144  -7.022   8.954  1.00  0.00     0.198 A 
ATOM     88  F   UNL     1      -0.730  -7.998   7.000  1.00  0.00    -0.203 F 
ATOM     89  F   UNL     1       3.571  -6.444   9.970  1.00  0.00    -0.200 F 
ATOM     90  C   UNL     1       1.231  -6.630   9.719  1.00  0.00     0.200 A 
ATOM     91  F   UNL     1      -1.099  -6.874   9.432  1.00  0.00    -0.200 F 
ATOM     92  F   UNL     1       1.044  -6.126  10.947  1.00  0.00    -0.200 F 
ENDBRANCH  58  82
BRANCH  70  93
ATOM     93  C   UNL     1       4.678 -13.738   5.322  1.00  0.00     0.064 A 
ATOM     94  C   UNL     1       4.026 -14.546   6.267  1.00  0.00     0.173 A 
ATOM     95  C   UNL     1       6.053 -13.941   5.128  1.00  0.00     0.173 A 
ATOM     96  F   UNL     1       2.713 -14.390   6.498  1.00  0.00    -0.203 F 
ATOM     97  C   UNL     1       4.732 -15.478   7.022  1.00  0.00     0.198 A 
ATOM     98  C   UNL     1       6.748 -14.902   5.856  1.00  0.00     0.198 A 
ATOM     99  F   UNL     1       6.725 -13.209   4.226  1.00  0.00    -0.203 F 
ATOM    100  F   UNL     1       4.101 -16.185   7.971  1.00  0.00    -0.200 F 
ATOM    101  C   UNL     1       6.091 -15.659   6.813  1.00  0.00     0.200 A 
ATOM    102  F   UNL     1       8.057 -15.090   5.637  1.00  0.00    -0.200 F 
ATOM    103  F   UNL     1       6.769 -16.556   7.542  1.00  0.00    -0.200 F 
ENDBRANCH  70  93
ENDBRANCH  44  45
ENDBRANCH  37  39
ENDBRANCH  36  37
ENDBRANCH  35  36
ENDBRANCH  34  35
ENDBRANCH  33  34
ENDBRANCH  32  33
ENDBRANCH   1  32
TORSDOF 22
