REMARK SMILES CCn1c(C(=O)OCCOCCOCCOC(=O)c2ccc(-c3c4nc(c(-c5c(F)c(F)c(F)c(F)c5F)c5ccc([nH]5)c(-c5c(F)c(F)c(F)c(F)c5F)c5nc(c(-c6c(F)c(F)c(F)c(F)c6F)c6ccc3[nH]6)C=C5)C=C4)cc2)c(CC(=O)Nc2ccccc2OC)c2ccccc21
REMARK SMILES IDX 11 1 10 2 9 3 8 4 7 5 5 6 6 7 4 8 3 9 100 10 82 11 95 12
REMARK SMILES IDX 99 13 96 14 98 15 97 16 2 17 1 18 83 19 84 20 85 21 86 22
REMARK SMILES IDX 87 24 88 25 92 26 89 27 91 28 90 29 93 30 94 31 12 32 13 33
REMARK SMILES IDX 14 34 15 35 16 36 17 37 18 38 19 39 20 40 81 41 21 42 80 43
REMARK SMILES IDX 22 44 23 45 24 46 74 47 25 48 79 49 73 50 75 51 26 52 78 53
REMARK SMILES IDX 72 54 71 55 27 57 59 58 39 59 58 60 40 61 43 62 57 63 76 64
REMARK SMILES IDX 41 65 42 66 56 68 77 69 44 70 28 71 29 72 37 73 30 74 31 75
REMARK SMILES IDX 35 76 38 77 32 78 33 79 36 80 34 81 60 82 61 83 69 84 62 85
REMARK SMILES IDX 63 86 67 87 70 88 64 89 65 90 68 91 66 92 45 93 46 94 54 95
REMARK SMILES IDX 47 96 48 97 52 98 55 99 49 100 50 101 53 102 51 103
REMARK H PARENT 86 23 75 56 43 67
REMARK Flexibility Score: inf
ROOT
ATOM      1  C   UNL     1       3.286   3.731  -4.207  1.00  0.00     0.188 C 
ENDROOT
BRANCH   1   2
ATOM      2  O   UNL     1       2.428   4.768  -3.741  1.00  0.00    -0.376 OA
BRANCH   2   3
ATOM      3  C   UNL     1       1.597   4.472  -2.623  1.00  0.00     0.202 C 
BRANCH   3   4
ATOM      4  C   UNL     1       0.469   3.463  -2.882  1.00  0.00     0.261 C 
BRANCH   4   5
ATOM      5  O   UNL     1       0.602   2.223  -2.136  1.00  0.00    -0.459 OA
BRANCH   5   6
ATOM      6  C   UNL     1       1.179   1.181  -2.791  1.00  0.00     0.355 C 
ATOM      7  O   UNL     1       1.798   1.324  -3.832  1.00  0.00    -0.244 OA
BRANCH   6   8
ATOM      8  C   UNL     1       0.909  -0.131  -2.206  1.00  0.00     0.132 A 
ATOM      9  N   UNL     1       0.081  -0.485  -1.156  1.00  0.00    -0.335 N 
ATOM     10  C   UNL     1      -0.157  -1.853  -1.177  1.00  0.00     0.049 A 
ATOM     11  C   UNL     1       1.439  -1.345  -2.689  1.00  0.00     0.002 A 
ATOM     12  C   UNL     1       0.638  -2.397  -2.179  1.00  0.00     0.004 A 
ATOM     13  C   UNL     1      -0.991  -2.665  -0.391  1.00  0.00     0.027 A 
ATOM     14  C   UNL     1       0.534  -3.769  -2.475  1.00  0.00     0.010 A 
ATOM     15  C   UNL     1      -1.050  -4.033  -0.678  1.00  0.00     0.002 A 
ATOM     16  C   UNL     1      -0.313  -4.577  -1.722  1.00  0.00     0.001 A 
BRANCH   9  17
ATOM     17  C   UNL     1      -0.456   0.384  -0.120  1.00  0.00     0.119 C 
ATOM     18  C   UNL     1       0.398   0.321   1.136  1.00  0.00     0.027 C 
ENDBRANCH   9  17
BRANCH  11  19
ATOM     19  C   UNL     1       2.546  -1.496  -3.684  1.00  0.00     0.139 C 
BRANCH  19  20
ATOM     20  C   UNL     1       3.482  -2.697  -3.578  1.00  0.00     0.229 C 
ATOM     21  O   UNL     1       3.267  -3.732  -4.221  1.00  0.00    -0.274 OA
ATOM     22  N   UNL     1       4.705  -2.578  -2.964  1.00  0.00    -0.323 N 
ATOM     23  H   UNL     1       5.322  -3.335  -3.084  1.00  0.00     0.170 HD
BRANCH  22  24
ATOM     24  C   UNL     1       5.184  -1.513  -2.188  1.00  0.00     0.083 A 
ATOM     25  C   UNL     1       4.315  -0.946  -1.241  1.00  0.00     0.030 A 
ATOM     26  C   UNL     1       6.500  -1.037  -2.270  1.00  0.00     0.142 A 
ATOM     27  C   UNL     1       4.681   0.153  -0.473  1.00  0.00     0.002 A 
ATOM     28  C   UNL     1       6.860   0.066  -1.475  1.00  0.00     0.048 A 
ATOM     29  C   UNL     1       5.955   0.675  -0.605  1.00  0.00     0.004 A 
BRANCH  26  30
ATOM     30  O   UNL     1       7.549  -1.453  -3.038  1.00  0.00    -0.495 OA
ATOM     31  C   UNL     1       7.391  -2.306  -4.156  1.00  0.00     0.278 C 
ENDBRANCH  26  30
ENDBRANCH  22  24
ENDBRANCH  19  20
ENDBRANCH  11  19
ENDBRANCH   6   8
ENDBRANCH   5   6
ENDBRANCH   4   5
ENDBRANCH   3   4
ENDBRANCH   2   3
ENDBRANCH   1   2
BRANCH   1  32
ATOM     32  C   UNL     1       4.066   2.949  -3.133  1.00  0.00     0.188 C 
BRANCH  32  33
ATOM     33  O   UNL     1       4.923   3.730  -2.301  1.00  0.00    -0.376 OA
BRANCH  33  34
ATOM     34  C   UNL     1       5.918   4.507  -2.969  1.00  0.00     0.202 C 
BRANCH  34  35
ATOM     35  C   UNL     1       6.857   3.700  -3.875  1.00  0.00     0.261 C 
BRANCH  35  36
ATOM     36  O   UNL     1       6.174   3.422  -5.114  1.00  0.00    -0.460 OA
BRANCH  36  37
ATOM     37  C   UNL     1       6.593   2.309  -5.756  1.00  0.00     0.338 C 
ATOM     38  O   UNL     1       7.690   1.786  -5.650  1.00  0.00    -0.246 OA
BRANCH  37  39
ATOM     39  C   UNL     1       5.389   1.619  -6.284  1.00  0.00     0.060 A 
ATOM     40  C   UNL     1       4.361   2.216  -7.021  1.00  0.00     0.016 A 
ATOM     41  C   UNL     1       5.254   0.298  -5.886  1.00  0.00     0.016 A 
ATOM     42  C   UNL     1       3.167   1.500  -7.287  1.00  0.00     0.010 A 
ATOM     43  C   UNL     1       4.094  -0.409  -6.181  1.00  0.00     0.010 A 
ATOM     44  C   UNL     1       2.996   0.188  -6.821  1.00  0.00    -0.014 A 
BRANCH  44  45
ATOM     45  C   UNL     1       1.886  -0.709  -7.239  1.00  0.00     0.031 A 
ATOM     46  C   UNL     1       2.297  -1.574  -8.355  1.00  0.00     0.074 A 
ATOM     47  C   UNL     1       0.638  -0.990  -6.774  1.00  0.00     0.049 A 
ATOM     48  N   UNL     1       2.166  -1.247  -9.595  1.00  0.00    -0.248 NA
ATOM     49  C   UNL     1       2.965  -2.858  -8.121  1.00  0.00     0.031 C 
ATOM     50  C   UNL     1      -0.048  -0.456  -5.605  1.00  0.00     0.029 A 
ATOM     51  N   UNL     1      -0.283  -1.920  -7.234  1.00  0.00    -0.354 N 
ATOM     52  C   UNL     1       2.459  -2.397 -10.291  1.00  0.00     0.074 A 
ATOM     53  C   UNL     1       3.181  -3.254  -9.381  1.00  0.00     0.031 C 
ATOM     54  C   UNL     1      -1.133  -1.206  -5.293  1.00  0.00     0.029 A 
ATOM     55  C   UNL     1      -1.372  -2.129  -6.389  1.00  0.00     0.049 A 
ATOM     56  H   UNL     1      -0.176  -2.396  -8.089  1.00  0.00     0.167 HD
ATOM     57  C   UNL     1       1.764  -2.683 -11.423  1.00  0.00     0.037 A 
ATOM     58  C   UNL     1      -2.522  -2.814  -6.626  1.00  0.00     0.037 A 
ATOM     59  C   UNL     1       0.851  -1.617 -11.774  1.00  0.00     0.049 A 
ATOM     60  C   UNL     1      -2.866  -2.563  -8.040  1.00  0.00     0.074 A 
ATOM     61  C   UNL     1       0.905  -0.370 -12.359  1.00  0.00     0.029 A 
ATOM     62  N   UNL     1      -0.355  -1.694 -11.135  1.00  0.00    -0.354 N 
ATOM     63  N   UNL     1      -3.231  -1.395  -8.492  1.00  0.00    -0.248 NA
ATOM     64  C   UNL     1      -2.670  -3.598  -9.050  1.00  0.00     0.031 C 
ATOM     65  C   UNL     1      -0.305   0.313 -12.012  1.00  0.00     0.029 A 
ATOM     66  C   UNL     1      -1.075  -0.529 -11.224  1.00  0.00     0.049 A 
ATOM     67  H   UNL     1      -0.672  -2.497 -10.662  1.00  0.00     0.167 HD
ATOM     68  C   UNL     1      -2.849  -1.431  -9.810  1.00  0.00     0.074 A 
ATOM     69  C   UNL     1      -2.737  -2.842 -10.149  1.00  0.00     0.031 C 
ATOM     70  C   UNL     1      -2.221  -0.355 -10.361  1.00  0.00     0.037 A 
BRANCH  57  71
ATOM     71  C   UNL     1       1.548  -4.062 -11.972  1.00  0.00     0.064 A 
ATOM     72  C   UNL     1       1.167  -4.195 -13.319  1.00  0.00     0.173 A 
ATOM     73  C   UNL     1       1.452  -5.226 -11.183  1.00  0.00     0.173 A 
ATOM     74  F   UNL     1       1.171  -3.130 -14.135  1.00  0.00    -0.203 F 
ATOM     75  C   UNL     1       0.712  -5.408 -13.836  1.00  0.00     0.198 A 
ATOM     76  C   UNL     1       1.060  -6.451 -11.718  1.00  0.00     0.198 A 
ATOM     77  F   UNL     1       1.624  -5.195  -9.855  1.00  0.00    -0.203 F 
ATOM     78  F   UNL     1       0.268  -5.468 -15.099  1.00  0.00    -0.200 F 
ATOM     79  C   UNL     1       0.670  -6.538 -13.039  1.00  0.00     0.200 A 
ATOM     80  F   UNL     1       0.995  -7.529 -10.924  1.00  0.00    -0.200 F 
ATOM     81  F   UNL     1       0.210  -7.697 -13.527  1.00  0.00    -0.200 F 
ENDBRANCH  57  71
BRANCH  58  82
ATOM     82  C   UNL     1      -3.530  -3.434  -5.734  1.00  0.00     0.064 A 
ATOM     83  C   UNL     1      -4.896  -3.490  -6.069  1.00  0.00     0.173 A 
ATOM     84  C   UNL     1      -3.112  -4.262  -4.680  1.00  0.00     0.173 A 
ATOM     85  F   UNL     1      -5.379  -2.772  -7.092  1.00  0.00    -0.203 F 
ATOM     86  C   UNL     1      -5.783  -4.345  -5.410  1.00  0.00     0.198 A 
ATOM     87  C   UNL     1      -4.003  -5.109  -4.010  1.00  0.00     0.198 A 
ATOM     88  F   UNL     1      -1.812  -4.346  -4.375  1.00  0.00    -0.203 F 
ATOM     89  F   UNL     1      -7.059  -4.422  -5.814  1.00  0.00    -0.200 F 
ATOM     90  C   UNL     1      -5.334  -5.161  -4.387  1.00  0.00     0.200 A 
ATOM     91  F   UNL     1      -3.554  -5.928  -3.049  1.00  0.00    -0.200 F 
ATOM     92  F   UNL     1      -6.171  -6.029  -3.801  1.00  0.00    -0.200 F 
ENDBRANCH  58  82
BRANCH  70  93
ATOM     93  C   UNL     1      -2.610   1.004  -9.869  1.00  0.00     0.064 A 
ATOM     94  C   UNL     1      -2.381   1.480  -8.567  1.00  0.00     0.173 A 
ATOM     95  C   UNL     1      -3.251   1.873 -10.761  1.00  0.00     0.173 A 
ATOM     96  F   UNL     1      -1.729   0.737  -7.668  1.00  0.00    -0.203 F 
ATOM     97  C   UNL     1      -2.807   2.746  -8.168  1.00  0.00     0.198 A 
ATOM     98  C   UNL     1      -3.650   3.150 -10.370  1.00  0.00     0.198 A 
ATOM     99  F   UNL     1      -3.485   1.485 -12.024  1.00  0.00    -0.203 F 
ATOM    100  F   UNL     1      -2.597   3.161  -6.908  1.00  0.00    -0.200 F 
ATOM    101  C   UNL     1      -3.438   3.583  -9.072  1.00  0.00     0.200 A 
ATOM    102  F   UNL     1      -4.240   3.964 -11.257  1.00  0.00    -0.200 F 
ATOM    103  F   UNL     1      -3.830   4.808  -8.696  1.00  0.00    -0.200 F 
ENDBRANCH  70  93
ENDBRANCH  44  45
ENDBRANCH  37  39
ENDBRANCH  36  37
ENDBRANCH  35  36
ENDBRANCH  34  35
ENDBRANCH  33  34
ENDBRANCH  32  33
ENDBRANCH   1  32
TORSDOF 22
