REMARK SMILES C[C@@H](NC(=O)[C@H]1CC=CC[C@@H]1C(=O)OCCOCCOCCOC(=O)c1ccc(-c2c3nc(c(-c4c(F)c(F)c(F)c(F)c4F)c4ccc([nH]4)c(-c4c(F)c(F)c(F)c(F)c4F)c4nc(c(-c5c(F)c(F)c(F)c(F)c5F)c5ccc2[nH]5)C=C4)C=C3)cc1)c1ccc(-n2ccnc2)cc1
REMARK SMILES IDX 18 1 17 2 16 3 15 4 14 5 12 6 13 7 11 8 6 9 7 10 8 11 10 12
REMARK SMILES IDX 9 13 4 14 3 15 5 17 2 18 1 19 89 20 90 21 99 22 91 23 98 24
REMARK SMILES IDX 92 25 93 26 94 27 97 28 95 29 96 30 19 31 20 32 21 33 22 34
REMARK SMILES IDX 23 35 24 36 25 37 26 38 27 39 88 40 28 41 87 42 29 43 30 44
REMARK SMILES IDX 31 45 81 46 32 47 86 48 80 49 82 50 33 51 85 52 79 53 78 54
REMARK SMILES IDX 34 56 66 57 46 58 65 59 47 60 50 61 64 62 83 63 48 64 49 65
REMARK SMILES IDX 63 67 84 68 51 69 35 70 36 71 44 72 37 73 38 74 42 75 45 76
REMARK SMILES IDX 39 77 40 78 43 79 41 80 67 81 68 82 76 83 69 84 70 85 74 86
REMARK SMILES IDX 77 87 71 88 72 89 75 90 73 91 52 92 53 93 61 94 54 95 55 96
REMARK SMILES IDX 59 97 62 98 56 99 57 100 60 101 58 102
REMARK H PARENT 3 16 82 55 50 66
REMARK Flexibility Score: inf
ROOT
ATOM      1  C   UNL     1      -4.470   0.755   4.328  1.00  0.00     0.188 C 
ENDROOT
BRANCH   1   2
ATOM      2  O   UNL     1      -5.688   0.505   3.659  1.00  0.00    -0.376 OA
BRANCH   2   3
ATOM      3  C   UNL     1      -5.752  -0.542   2.709  1.00  0.00     0.202 C 
BRANCH   3   4
ATOM      4  C   UNL     1      -4.502  -1.347   2.386  1.00  0.00     0.261 C 
BRANCH   4   5
ATOM      5  O   UNL     1      -3.275  -0.644   2.121  1.00  0.00    -0.463 OA
BRANCH   5   6
ATOM      6  C   UNL     1      -3.201   0.508   1.394  1.00  0.00     0.310 C 
ATOM      7  O   UNL     1      -4.136   1.099   0.884  1.00  0.00    -0.252 OA
BRANCH   6   8
ATOM      8  C   UNL     1      -1.736   0.857   1.217  1.00  0.00     0.115 C 
ATOM      9  C   UNL     1      -0.908   0.850   2.479  1.00  0.00     0.097 C 
ATOM     10  C   UNL     1      -0.804   2.265   3.110  1.00  0.00     0.041 C 
ATOM     11  C   UNL     1      -1.004   3.432   2.183  1.00  0.00    -0.030 C 
ATOM     12  C   UNL     1      -1.411   1.974   0.236  1.00  0.00     0.043 C 
ATOM     13  C   UNL     1      -1.273   3.305   0.880  1.00  0.00    -0.030 C 
BRANCH   9  14
ATOM     14  C   UNL     1       0.430   0.095   2.323  1.00  0.00     0.224 C 
ATOM     15  N   UNL     1       0.576  -1.105   1.667  1.00  0.00    -0.349 N 
ATOM     16  H   UNL     1       0.817  -1.827   2.292  1.00  0.00     0.164 HD
ATOM     17  O   UNL     1       1.385   0.409   3.047  1.00  0.00    -0.275 OA
BRANCH  15  18
ATOM     18  C   UNL     1       0.469  -1.620   0.251  1.00  0.00     0.109 C 
ATOM     19  C   UNL     1       1.474  -0.892  -0.644  1.00  0.00     0.036 C 
BRANCH  18  20
ATOM     20  C   UNL     1      -0.915  -1.827  -0.380  1.00  0.00    -0.026 A 
ATOM     21  C   UNL     1      -1.429  -0.976  -1.383  1.00  0.00     0.008 A 
ATOM     22  C   UNL     1      -1.770  -2.831   0.097  1.00  0.00     0.008 A 
ATOM     23  C   UNL     1      -2.803  -0.944  -1.679  1.00  0.00     0.027 A 
ATOM     24  C   UNL     1      -3.123  -2.877  -0.286  1.00  0.00     0.027 A 
ATOM     25  C   UNL     1      -3.673  -1.850  -1.070  1.00  0.00     0.046 A 
BRANCH  25  26
ATOM     26  N   UNL     1      -5.088  -1.626  -1.085  1.00  0.00    -0.306 N 
ATOM     27  C   UNL     1      -6.084  -2.482  -0.654  1.00  0.00     0.113 A 
ATOM     28  C   UNL     1      -5.736  -0.434  -1.353  1.00  0.00     0.204 A 
ATOM     29  C   UNL     1      -7.249  -1.750  -0.643  1.00  0.00     0.131 A 
ATOM     30  N   UNL     1      -7.027  -0.486  -1.102  1.00  0.00    -0.245 NA
ENDBRANCH  25  26
ENDBRANCH  18  20
ENDBRANCH  15  18
ENDBRANCH   9  14
ENDBRANCH   6   8
ENDBRANCH   5   6
ENDBRANCH   4   5
ENDBRANCH   3   4
ENDBRANCH   2   3
ENDBRANCH   1   2
BRANCH   1  31
ATOM     31  C   UNL     1      -3.941  -0.366   5.230  1.00  0.00     0.188 C 
BRANCH  31  32
ATOM     32  O   UNL     1      -4.920  -1.376   5.447  1.00  0.00    -0.376 OA
BRANCH  32  33
ATOM     33  C   UNL     1      -5.501  -1.387   6.743  1.00  0.00     0.202 C 
BRANCH  33  34
ATOM     34  C   UNL     1      -6.489  -0.252   7.059  1.00  0.00     0.261 C 
BRANCH  34  35
ATOM     35  O   UNL     1      -6.041   1.095   6.823  1.00  0.00    -0.460 OA
BRANCH  35  36
ATOM     36  C   UNL     1      -5.038   1.605   7.578  1.00  0.00     0.338 C 
ATOM     37  O   UNL     1      -4.456   1.054   8.484  1.00  0.00    -0.246 OA
BRANCH  36  38
ATOM     38  C   UNL     1      -4.610   2.887   6.939  1.00  0.00     0.060 A 
ATOM     39  C   UNL     1      -3.252   3.062   6.630  1.00  0.00     0.016 A 
ATOM     40  C   UNL     1      -5.544   3.842   6.518  1.00  0.00     0.016 A 
ATOM     41  C   UNL     1      -2.828   4.199   5.930  1.00  0.00     0.010 A 
ATOM     42  C   UNL     1      -5.115   4.999   5.853  1.00  0.00     0.010 A 
ATOM     43  C   UNL     1      -3.750   5.201   5.587  1.00  0.00    -0.014 A 
BRANCH  43  44
ATOM     44  C   UNL     1      -3.254   6.572   5.286  1.00  0.00     0.031 A 
ATOM     45  C   UNL     1      -2.887   7.429   6.471  1.00  0.00     0.074 A 
ATOM     46  C   UNL     1      -3.122   7.066   4.042  1.00  0.00     0.049 A 
ATOM     47  N   UNL     1      -2.443   8.659   6.516  1.00  0.00    -0.248 NA
ATOM     48  C   UNL     1      -3.042   6.798   7.793  1.00  0.00     0.031 C 
ATOM     49  C   UNL     1      -3.394   6.346   2.803  1.00  0.00     0.029 A 
ATOM     50  N   UNL     1      -2.715   8.313   3.624  1.00  0.00    -0.354 N 
ATOM     51  C   UNL     1      -2.259   8.939   7.863  1.00  0.00     0.074 A 
ATOM     52  C   UNL     1      -2.651   7.763   8.605  1.00  0.00     0.031 C 
ATOM     53  C   UNL     1      -3.142   7.162   1.761  1.00  0.00     0.029 A 
ATOM     54  C   UNL     1      -2.728   8.475   2.259  1.00  0.00     0.049 A 
ATOM     55  H   UNL     1      -2.439   9.025   4.246  1.00  0.00     0.167 HD
ATOM     56  C   UNL     1      -1.814  10.077   8.444  1.00  0.00     0.037 A 
ATOM     57  C   UNL     1      -2.457   9.564   1.509  1.00  0.00     0.037 A 
ATOM     58  C   UNL     1      -1.480  11.274   7.726  1.00  0.00     0.049 A 
ATOM     59  C   UNL     1      -2.073  10.862   2.184  1.00  0.00     0.074 A 
ATOM     60  C   UNL     1      -1.048  12.488   8.226  1.00  0.00     0.029 A 
ATOM     61  N   UNL     1      -1.572  11.414   6.349  1.00  0.00    -0.354 N 
ATOM     62  N   UNL     1      -1.878  11.114   3.457  1.00  0.00    -0.248 NA
ATOM     63  C   UNL     1      -1.887  12.035   1.313  1.00  0.00     0.031 C 
ATOM     64  C   UNL     1      -0.934  13.382   7.157  1.00  0.00     0.029 A 
ATOM     65  C   UNL     1      -1.236  12.706   5.985  1.00  0.00     0.049 A 
ATOM     66  H   UNL     1      -1.837  10.700   5.725  1.00  0.00     0.167 HD
ATOM     67  C   UNL     1      -1.522  12.456   3.535  1.00  0.00     0.074 A 
ATOM     68  C   UNL     1      -1.516  12.966   2.181  1.00  0.00     0.031 C 
ATOM     69  C   UNL     1      -1.225  13.199   4.631  1.00  0.00     0.037 A 
BRANCH  56  70
ATOM     70  C   UNL     1      -1.740  10.082   9.941  1.00  0.00     0.064 A 
ATOM     71  C   UNL     1      -0.777   9.332  10.634  1.00  0.00     0.173 A 
ATOM     72  C   UNL     1      -2.676  10.807  10.691  1.00  0.00     0.173 A 
ATOM     73  F   UNL     1       0.120   8.596   9.959  1.00  0.00    -0.203 F 
ATOM     74  C   UNL     1      -0.779   9.278  12.025  1.00  0.00     0.198 A 
ATOM     75  C   UNL     1      -2.656  10.775  12.082  1.00  0.00     0.198 A 
ATOM     76  F   UNL     1      -3.622  11.532  10.075  1.00  0.00    -0.203 F 
ATOM     77  F   UNL     1       0.105   8.500  12.665  1.00  0.00    -0.200 F 
ATOM     78  C   UNL     1      -1.716  10.002  12.747  1.00  0.00     0.200 A 
ATOM     79  F   UNL     1      -3.559  11.478  12.779  1.00  0.00    -0.200 F 
ATOM     80  F   UNL     1      -1.724   9.941  14.086  1.00  0.00    -0.200 F 
ENDBRANCH  56  70
BRANCH  57  81
ATOM     81  C   UNL     1      -2.551   9.500   0.024  1.00  0.00     0.064 A 
ATOM     82  C   UNL     1      -1.409   9.635  -0.780  1.00  0.00     0.173 A 
ATOM     83  C   UNL     1      -3.787   9.354  -0.625  1.00  0.00     0.173 A 
ATOM     84  F   UNL     1      -0.208   9.818  -0.211  1.00  0.00    -0.203 F 
ATOM     85  C   UNL     1      -1.500   9.636  -2.171  1.00  0.00     0.198 A 
ATOM     86  C   UNL     1      -3.873   9.328  -2.016  1.00  0.00     0.198 A 
ATOM     87  F   UNL     1      -4.913   9.243   0.094  1.00  0.00    -0.203 F 
ATOM     88  F   UNL     1      -0.399   9.817  -2.913  1.00  0.00    -0.200 F 
ATOM     89  C   UNL     1      -2.732   9.476  -2.788  1.00  0.00     0.200 A 
ATOM     90  F   UNL     1      -5.065   9.172  -2.609  1.00  0.00    -0.200 F 
ATOM     91  F   UNL     1      -2.819   9.478  -4.126  1.00  0.00    -0.200 F 
ENDBRANCH  57  81
BRANCH  69  92
ATOM     92  C   UNL     1      -0.831  14.634   4.421  1.00  0.00     0.064 A 
ATOM     93  C   UNL     1      -1.765  15.611   4.046  1.00  0.00     0.173 A 
ATOM     94  C   UNL     1       0.487  15.049   4.669  1.00  0.00     0.173 A 
ATOM     95  F   UNL     1      -3.035  15.267   3.788  1.00  0.00    -0.203 F 
ATOM     96  C   UNL     1      -1.389  16.945   3.908  1.00  0.00     0.198 A 
ATOM     97  C   UNL     1       0.853  16.387   4.560  1.00  0.00     0.198 A 
ATOM     98  F   UNL     1       1.418  14.157   5.042  1.00  0.00    -0.203 F 
ATOM     99  F   UNL     1      -2.288  17.856   3.510  1.00  0.00    -0.200 F 
ATOM    100  C   UNL     1      -0.084  17.334   4.174  1.00  0.00     0.200 A 
ATOM    101  F   UNL     1       2.110  16.762   4.835  1.00  0.00    -0.200 F 
ATOM    102  F   UNL     1       0.273  18.620   4.054  1.00  0.00    -0.200 F 
ENDBRANCH  69  92
ENDBRANCH  43  44
ENDBRANCH  36  38
ENDBRANCH  35  36
ENDBRANCH  34  35
ENDBRANCH  33  34
ENDBRANCH  32  33
ENDBRANCH  31  32
ENDBRANCH   1  31
TORSDOF 21
