REMARK SMILES CC(C)CSc1cc2c(cc1Cl)C=C(C(=O)OCCOCCOCCOC(=O)c1ccc(-c3c4nc(c(-c5c(F)c(F)c(F)c(F)c5F)c5ccc([nH]5)c(-c5c(F)c(F)c(F)c(F)c5F)c5nc(c(-c6c(F)c(F)c(F)c(F)c6F)c6ccc3[nH]6)C=C5)C=C4)cc1)[C@H](C(F)(F)F)O2
REMARK SMILES IDX 21 1 20 2 19 3 18 4 17 5 15 6 16 7 14 8 6 9 7 10 11 11 8 12
REMARK SMILES IDX 10 13 12 14 9 15 97 16 13 17 92 18 5 19 4 20 2 21 1 22 3 23
REMARK SMILES IDX 93 24 94 25 95 26 96 27 22 28 23 29 24 30 25 31 26 32 27 33
REMARK SMILES IDX 28 34 29 35 30 36 91 37 31 38 90 39 32 40 33 41 34 42 84 43
REMARK SMILES IDX 35 44 89 45 83 46 85 47 36 48 88 49 82 50 81 51 37 53 69 54
REMARK SMILES IDX 49 55 68 56 50 57 53 58 67 59 86 60 51 61 52 62 66 64 87 65
REMARK SMILES IDX 54 66 38 67 39 68 47 69 40 70 41 71 45 72 48 73 42 74 43 75
REMARK SMILES IDX 46 76 44 77 70 78 71 79 79 80 72 81 73 82 77 83 80 84 74 85
REMARK SMILES IDX 75 86 78 87 76 88 55 89 56 90 64 91 57 92 58 93 62 94 65 95
REMARK SMILES IDX 59 96 60 97 63 98 61 99
REMARK H PARENT 85 52 53 63
REMARK Flexibility Score: inf
ROOT
ATOM      1  C   UNL     1       0.283   0.758   8.896  1.00  0.00     0.188 C 
ENDROOT
BRANCH   1   2
ATOM      2  O   UNL     1       1.204   0.827   9.980  1.00  0.00    -0.376 OA
BRANCH   2   3
ATOM      3  C   UNL     1       1.989   2.003  10.163  1.00  0.00     0.202 C 
BRANCH   3   4
ATOM      4  C   UNL     1       2.852   2.477   8.986  1.00  0.00     0.261 C 
BRANCH   4   5
ATOM      5  O   UNL     1       2.092   2.787   7.801  1.00  0.00    -0.460 OA
BRANCH   5   6
ATOM      6  C   UNL     1       2.501   2.179   6.666  1.00  0.00     0.338 C 
ATOM      7  O   UNL     1       3.498   1.488   6.529  1.00  0.00    -0.246 OA
BRANCH   6   8
ATOM      8  C   UNL     1       1.483   2.311   5.609  1.00  0.00     0.087 C 
ATOM      9  C   UNL     1      -1.115   1.291   1.431  1.00  0.00     0.030 A 
ATOM     10  C   UNL     1      -0.522   2.448   1.970  1.00  0.00     0.063 A 
ATOM     11  C   UNL     1      -1.157   0.131   2.222  1.00  0.00     0.055 A 
ATOM     12  C   UNL     1       0.113   2.417   3.212  1.00  0.00     0.129 A 
ATOM     13  C   UNL     1      -0.494   0.094   3.456  1.00  0.00     0.033 A 
ATOM     14  Cl  UNL     1      -2.008  -1.302   1.767  1.00  0.00    -0.083 Cl
ATOM     15  C   UNL     1       0.168   1.226   3.935  1.00  0.00     0.019 A 
ATOM     16  O   UNL     1       0.747   3.564   3.614  1.00  0.00    -0.475 OA
ATOM     17  C   UNL     1       1.013   1.156   5.115  1.00  0.00     0.027 C 
ATOM     18  C   UNL     1       1.138   3.652   5.019  1.00  0.00     0.316 C 
BRANCH   9  19
ATOM     19  S   UNL     1      -1.724   1.456  -0.245  1.00  0.00    -0.124 SA
BRANCH  19  20
ATOM     20  C   UNL     1      -0.896   0.092  -1.161  1.00  0.00     0.078 C 
BRANCH  20  21
ATOM     21  C   UNL     1       0.629   0.170  -1.374  1.00  0.00    -0.007 C 
ATOM     22  C   UNL     1       1.458   0.009  -0.100  1.00  0.00     0.008 C 
ATOM     23  C   UNL     1       1.042  -0.939  -2.356  1.00  0.00     0.008 C 
ENDBRANCH  20  21
ENDBRANCH  19  20
ENDBRANCH   9  19
BRANCH  18  24
ATOM     24  C   UNL     1       0.067   4.447   5.790  1.00  0.00     0.430 C 
ATOM     25  F   UNL     1      -1.084   3.750   5.933  1.00  0.00    -0.167 F 
ATOM     26  F   UNL     1       0.492   4.802   7.022  1.00  0.00    -0.167 F 
ATOM     27  F   UNL     1      -0.242   5.599   5.145  1.00  0.00    -0.167 F 
ENDBRANCH  18  24
ENDBRANCH   6   8
ENDBRANCH   5   6
ENDBRANCH   4   5
ENDBRANCH   3   4
ENDBRANCH   2   3
ENDBRANCH   1   2
BRANCH   1  28
ATOM     28  C   UNL     1      -0.614   1.971   8.583  1.00  0.00     0.188 C 
BRANCH  28  29
ATOM     29  O   UNL     1      -0.484   3.009   9.527  1.00  0.00    -0.376 OA
BRANCH  29  30
ATOM     30  C   UNL     1      -1.612   3.354  10.306  1.00  0.00     0.202 C 
BRANCH  30  31
ATOM     31  C   UNL     1      -2.281   2.272  11.169  1.00  0.00     0.261 C 
BRANCH  31  32
ATOM     32  O   UNL     1      -2.372   0.960  10.599  1.00  0.00    -0.460 OA
BRANCH  32  33
ATOM     33  C   UNL     1      -3.400   0.713   9.749  1.00  0.00     0.338 C 
ATOM     34  O   UNL     1      -4.247   1.485   9.370  1.00  0.00    -0.246 OA
BRANCH  33  35
ATOM     35  C   UNL     1      -3.167  -0.648   9.205  1.00  0.00     0.060 A 
ATOM     36  C   UNL     1      -3.069  -1.740  10.070  1.00  0.00     0.016 A 
ATOM     37  C   UNL     1      -2.979  -0.814   7.826  1.00  0.00     0.016 A 
ATOM     38  C   UNL     1      -2.788  -3.006   9.552  1.00  0.00     0.010 A 
ATOM     39  C   UNL     1      -2.683  -2.080   7.311  1.00  0.00     0.010 A 
ATOM     40  C   UNL     1      -2.599  -3.186   8.171  1.00  0.00    -0.014 A 
BRANCH  40  41
ATOM     41  C   UNL     1      -2.484  -4.560   7.626  1.00  0.00     0.031 A 
ATOM     42  C   UNL     1      -1.161  -5.179   7.295  1.00  0.00     0.074 A 
ATOM     43  C   UNL     1      -3.620  -5.260   7.453  1.00  0.00     0.049 A 
ATOM     44  N   UNL     1      -0.903  -6.403   6.907  1.00  0.00    -0.248 NA
ATOM     45  C   UNL     1       0.024  -4.318   7.407  1.00  0.00     0.031 C 
ATOM     46  C   UNL     1      -4.963  -4.747   7.726  1.00  0.00     0.029 A 
ATOM     47  N   UNL     1      -3.830  -6.544   7.023  1.00  0.00    -0.354 N 
ATOM     48  C   UNL     1       0.475  -6.473   6.755  1.00  0.00     0.074 A 
ATOM     49  C   UNL     1       0.994  -5.151   7.044  1.00  0.00     0.031 C 
ATOM     50  C   UNL     1      -5.858  -5.716   7.481  1.00  0.00     0.029 A 
ATOM     51  C   UNL     1      -5.154  -6.908   7.017  1.00  0.00     0.049 A 
ATOM     52  H   UNL     1      -3.103  -7.147   6.746  1.00  0.00     0.167 HD
ATOM     53  C   UNL     1       1.229  -7.550   6.425  1.00  0.00     0.037 A 
ATOM     54  C   UNL     1      -5.737  -8.074   6.684  1.00  0.00     0.037 A 
ATOM     55  C   UNL     1       0.700  -8.858   6.122  1.00  0.00     0.049 A 
ATOM     56  C   UNL     1      -4.877  -9.235   6.275  1.00  0.00     0.074 A 
ATOM     57  C   UNL     1       1.391 -10.017   5.809  1.00  0.00     0.029 A 
ATOM     58  N   UNL     1      -0.650  -9.180   6.080  1.00  0.00    -0.354 N 
ATOM     59  N   UNL     1      -3.571  -9.312   6.204  1.00  0.00    -0.248 NA
ATOM     60  C   UNL     1      -5.573 -10.476   5.909  1.00  0.00     0.031 C 
ATOM     61  C   UNL     1       0.462 -11.023   5.526  1.00  0.00     0.029 A 
ATOM     62  C   UNL     1      -0.810 -10.509   5.718  1.00  0.00     0.049 A 
ATOM     63  H   UNL     1      -1.385  -8.556   6.279  1.00  0.00     0.167 HD
ATOM     64  C   UNL     1      -3.286 -10.610   5.808  1.00  0.00     0.074 A 
ATOM     65  C   UNL     1      -4.556 -11.294   5.672  1.00  0.00     0.031 C 
ATOM     66  C   UNL     1      -2.078 -11.182   5.578  1.00  0.00     0.037 A 
BRANCH  53  67
ATOM     67  C   UNL     1       2.721  -7.379   6.383  1.00  0.00     0.064 A 
ATOM     68  C   UNL     1       3.470  -7.238   7.561  1.00  0.00     0.173 A 
ATOM     69  C   UNL     1       3.420  -7.464   5.169  1.00  0.00     0.173 A 
ATOM     70  F   UNL     1       2.851  -7.150   8.748  1.00  0.00    -0.203 F 
ATOM     71  C   UNL     1       4.861  -7.177   7.524  1.00  0.00     0.198 A 
ATOM     72  C   UNL     1       4.812  -7.429   5.138  1.00  0.00     0.198 A 
ATOM     73  F   UNL     1       2.753  -7.612   4.014  1.00  0.00    -0.203 F 
ATOM     74  F   UNL     1       5.554  -7.021   8.660  1.00  0.00    -0.200 F 
ATOM     75  C   UNL     1       5.531  -7.284   6.314  1.00  0.00     0.200 A 
ATOM     76  F   UNL     1       5.458  -7.551   3.970  1.00  0.00    -0.200 F 
ATOM     77  F   UNL     1       6.871  -7.249   6.283  1.00  0.00    -0.200 F 
ENDBRANCH  53  67
BRANCH  54  78
ATOM     78  C   UNL     1      -7.213  -8.201   6.775  1.00  0.00     0.064 A 
ATOM     79  C   UNL     1      -7.805  -8.990   7.770  1.00  0.00     0.173 A 
ATOM     80  C   UNL     1      -8.059  -7.510   5.896  1.00  0.00     0.173 A 
ATOM     81  F   UNL     1      -7.036  -9.682   8.623  1.00  0.00    -0.203 F 
ATOM     82  C   UNL     1      -9.190  -9.089   7.877  1.00  0.00     0.198 A 
ATOM     83  C   UNL     1      -9.443  -7.587   6.021  1.00  0.00     0.198 A 
ATOM     84  F   UNL     1      -7.538  -6.736   4.932  1.00  0.00    -0.203 F 
ATOM     85  F   UNL     1      -9.732  -9.875   8.817  1.00  0.00    -0.200 F 
ATOM     86  C   UNL     1     -10.008  -8.381   7.008  1.00  0.00     0.200 A 
ATOM     87  F   UNL     1     -10.229  -6.888   5.192  1.00  0.00    -0.200 F 
ATOM     88  F   UNL     1     -11.340  -8.466   7.122  1.00  0.00    -0.200 F 
ENDBRANCH  54  78
BRANCH  66  89
ATOM     89  C   UNL     1      -2.066 -12.626   5.163  1.00  0.00     0.064 A 
ATOM     90  C   UNL     1      -2.502 -13.028   3.892  1.00  0.00     0.173 A 
ATOM     91  C   UNL     1      -1.568 -13.613   6.028  1.00  0.00     0.173 A 
ATOM     92  F   UNL     1      -3.001 -12.127   3.033  1.00  0.00    -0.203 F 
ATOM     93  C   UNL     1      -2.460 -14.367   3.510  1.00  0.00     0.198 A 
ATOM     94  C   UNL     1      -1.499 -14.946   5.632  1.00  0.00     0.198 A 
ATOM     95  F   UNL     1      -1.133 -13.282   7.253  1.00  0.00    -0.203 F 
ATOM     96  F   UNL     1      -2.923 -14.733   2.307  1.00  0.00    -0.200 F 
ATOM     97  C   UNL     1      -1.950 -15.323   4.377  1.00  0.00     0.200 A 
ATOM     98  F   UNL     1      -0.993 -15.866   6.465  1.00  0.00    -0.200 F 
ATOM     99  F   UNL     1      -1.900 -16.609   4.003  1.00  0.00    -0.200 F 
ENDBRANCH  66  89
ENDBRANCH  40  41
ENDBRANCH  33  35
ENDBRANCH  32  33
ENDBRANCH  31  32
ENDBRANCH  30  31
ENDBRANCH  29  30
ENDBRANCH  28  29
ENDBRANCH   1  28
TORSDOF 21
