REMARK SMILES O=C(OCCOCCOCCOC(=O)c1cccc(S(=O)(=O)Nc2ccccc2N2CCOCC2)c1)c1ccc(-c2c3nc(c(-c4c(F)c(F)c(F)c(F)c4F)c4ccc([nH]4)c(-c4c(F)c(F)c(F)c(F)c4F)c4nc(c(-c5c(F)c(F)c(F)c(F)c5F)c5ccc2[nH]5)C=C4)C=C3)cc1
REMARK SMILES IDX 8 1 7 2 6 3 5 4 4 5 3 6 2 7 1 8 37 9 38 10 99 11 39 12 98 13
REMARK SMILES IDX 40 14 41 15 42 16 92 17 43 18 97 19 91 20 93 21 44 22 96 23
REMARK SMILES IDX 90 24 89 25 45 27 77 28 57 29 76 30 58 31 61 32 75 33 94 34
REMARK SMILES IDX 59 35 60 36 74 38 95 39 62 40 46 41 47 42 55 43 48 44 49 45
REMARK SMILES IDX 53 46 56 47 50 48 51 49 54 50 52 51 78 52 79 53 87 54 80 55
REMARK SMILES IDX 81 56 85 57 88 58 82 59 83 60 86 61 84 62 63 63 64 64 72 65
REMARK SMILES IDX 65 66 66 67 70 68 73 69 67 70 68 71 71 72 69 73 9 74 10 75
REMARK SMILES IDX 11 76 12 77 13 78 14 79 15 80 16 81 36 82 17 83 19 84 18 85
REMARK SMILES IDX 20 86 21 87 22 88 23 89 24 91 25 92 29 93 26 94 28 95 27 96
REMARK SMILES IDX 30 97 31 98 35 99 32 100 34 101 33 102
REMARK H PARENT 93 26 61 37 23 90
REMARK Flexibility Score: inf
ROOT
ATOM      1  C   UNL     1       2.097  -1.578   2.533  1.00  0.00     0.188 C 
ENDROOT
BRANCH   1   2
ATOM      2  C   UNL     1       2.646  -0.389   1.753  1.00  0.00     0.188 C 
BRANCH   2   3
ATOM      3  O   UNL     1       3.884  -0.687   1.102  1.00  0.00    -0.376 OA
BRANCH   3   4
ATOM      4  C   UNL     1       4.856   0.355   1.224  1.00  0.00     0.202 C 
BRANCH   4   5
ATOM      5  C   UNL     1       4.614   1.559   0.308  1.00  0.00     0.261 C 
BRANCH   5   6
ATOM      6  O   UNL     1       3.262   1.662  -0.165  1.00  0.00    -0.460 OA
BRANCH   6   7
ATOM      7  C   UNL     1       2.668   1.036  -1.208  1.00  0.00     0.338 C 
ATOM      8  O   UNL     1       1.466   1.231  -1.394  1.00  0.00    -0.246 OA
BRANCH   7   9
ATOM      9  C   UNL     1       3.375   0.142  -2.178  1.00  0.00     0.060 A 
ATOM     10  C   UNL     1       4.526  -0.600  -1.917  1.00  0.00     0.016 A 
ATOM     11  C   UNL     1       2.772  -0.017  -3.438  1.00  0.00     0.016 A 
ATOM     12  C   UNL     1       5.105  -1.419  -2.885  1.00  0.00     0.010 A 
ATOM     13  C   UNL     1       3.321  -0.873  -4.401  1.00  0.00     0.010 A 
ATOM     14  C   UNL     1       4.507  -1.567  -4.132  1.00  0.00    -0.014 A 
BRANCH  14  15
ATOM     15  C   UNL     1       5.171  -2.359  -5.188  1.00  0.00     0.031 A 
ATOM     16  C   UNL     1       5.900  -1.659  -6.273  1.00  0.00     0.074 A 
ATOM     17  C   UNL     1       5.302  -3.693  -5.119  1.00  0.00     0.049 A 
ATOM     18  N   UNL     1       6.541  -2.179  -7.282  1.00  0.00    -0.248 NA
ATOM     19  C   UNL     1       6.015  -0.200  -6.150  1.00  0.00     0.031 C 
ATOM     20  C   UNL     1       5.042  -4.463  -3.922  1.00  0.00     0.029 A 
ATOM     21  N   UNL     1       5.739  -4.630  -6.028  1.00  0.00    -0.354 N 
ATOM     22  C   UNL     1       7.161  -1.119  -7.904  1.00  0.00     0.074 A 
ATOM     23  C   UNL     1       6.803   0.081  -7.177  1.00  0.00     0.031 C 
ATOM     24  C   UNL     1       5.259  -5.751  -4.201  1.00  0.00     0.029 A 
ATOM     25  C   UNL     1       5.561  -5.920  -5.590  1.00  0.00     0.049 A 
ATOM     26  H   UNL     1       6.137  -4.401  -6.899  1.00  0.00     0.167 HD
ATOM     27  C   UNL     1       7.968  -1.166  -8.985  1.00  0.00     0.037 A 
ATOM     28  C   UNL     1       5.611  -7.109  -6.215  1.00  0.00     0.037 A 
ATOM     29  C   UNL     1       8.309  -2.372  -9.692  1.00  0.00     0.049 A 
ATOM     30  C   UNL     1       6.242  -7.112  -7.558  1.00  0.00     0.074 A 
ATOM     31  C   UNL     1       9.072  -2.505 -10.836  1.00  0.00     0.029 A 
ATOM     32  N   UNL     1       7.895  -3.650  -9.337  1.00  0.00    -0.354 N 
ATOM     33  N   UNL     1       6.771  -6.099  -8.189  1.00  0.00    -0.248 NA
ATOM     34  C   UNL     1       6.375  -8.405  -8.234  1.00  0.00     0.031 C 
ATOM     35  C   UNL     1       9.047  -3.848 -11.225  1.00  0.00     0.029 A 
ATOM     36  C   UNL     1       8.320  -4.566 -10.290  1.00  0.00     0.049 A 
ATOM     37  H   UNL     1       7.378  -3.874  -8.530  1.00  0.00     0.167 HD
ATOM     38  C   UNL     1       7.350  -6.631  -9.316  1.00  0.00     0.074 A 
ATOM     39  C   UNL     1       7.109  -8.062  -9.281  1.00  0.00     0.031 C 
ATOM     40  C   UNL     1       8.039  -5.978 -10.276  1.00  0.00     0.037 A 
BRANCH  27  41
ATOM     41  C   UNL     1       8.413   0.151  -9.523  1.00  0.00     0.064 A 
ATOM     42  C   UNL     1       9.396   0.929  -8.898  1.00  0.00     0.173 A 
ATOM     43  C   UNL     1       7.789   0.659 -10.671  1.00  0.00     0.173 A 
ATOM     44  F   UNL     1       9.982   0.503  -7.768  1.00  0.00    -0.203 F 
ATOM     45  C   UNL     1       9.728   2.185  -9.399  1.00  0.00     0.198 A 
ATOM     46  C   UNL     1       8.141   1.901 -11.182  1.00  0.00     0.198 A 
ATOM     47  F   UNL     1       6.823  -0.043 -11.281  1.00  0.00    -0.203 F 
ATOM     48  F   UNL     1      10.627   2.944  -8.758  1.00  0.00    -0.200 F 
ATOM     49  C   UNL     1       9.106   2.666 -10.543  1.00  0.00     0.200 A 
ATOM     50  F   UNL     1       7.534   2.365 -12.282  1.00  0.00    -0.200 F 
ATOM     51  F   UNL     1       9.422   3.877 -11.020  1.00  0.00    -0.200 F 
ENDBRANCH  27  41
BRANCH  28  52
ATOM     52  C   UNL     1       5.026  -8.361  -5.660  1.00  0.00     0.064 A 
ATOM     53  C   UNL     1       5.815  -9.418  -5.187  1.00  0.00     0.173 A 
ATOM     54  C   UNL     1       3.641  -8.581  -5.760  1.00  0.00     0.173 A 
ATOM     55  F   UNL     1       7.148  -9.285  -5.132  1.00  0.00    -0.203 F 
ATOM     56  C   UNL     1       5.244 -10.647  -4.842  1.00  0.00     0.198 A 
ATOM     57  C   UNL     1       3.074  -9.816  -5.436  1.00  0.00     0.198 A 
ATOM     58  F   UNL     1       2.838  -7.602  -6.206  1.00  0.00    -0.203 F 
ATOM     59  F   UNL     1       6.026 -11.653  -4.423  1.00  0.00    -0.200 F 
ATOM     60  C   UNL     1       3.877 -10.848  -4.974  1.00  0.00     0.200 A 
ATOM     61  F   UNL     1       1.751 -10.000  -5.558  1.00  0.00    -0.200 F 
ATOM     62  F   UNL     1       3.338 -12.035  -4.659  1.00  0.00    -0.200 F 
ENDBRANCH  28  52
BRANCH  40  63
ATOM     63  C   UNL     1       8.555  -6.826 -11.388  1.00  0.00     0.064 A 
ATOM     64  C   UNL     1       7.682  -7.403 -12.321  1.00  0.00     0.173 A 
ATOM     65  C   UNL     1       9.927  -7.077 -11.511  1.00  0.00     0.173 A 
ATOM     66  F   UNL     1       6.357  -7.220 -12.210  1.00  0.00    -0.203 F 
ATOM     67  C   UNL     1       8.166  -8.223 -13.331  1.00  0.00     0.198 A 
ATOM     68  C   UNL     1      10.411  -7.868 -12.544  1.00  0.00     0.198 A 
ATOM     69  F   UNL     1      10.793  -6.558 -10.628  1.00  0.00    -0.203 F 
ATOM     70  F   UNL     1       7.312  -8.817 -14.175  1.00  0.00    -0.200 F 
ATOM     71  C   UNL     1       9.530  -8.446 -13.448  1.00  0.00     0.200 A 
ATOM     72  F   UNL     1      11.729  -8.080 -12.662  1.00  0.00    -0.200 F 
ATOM     73  F   UNL     1       9.997  -9.230 -14.429  1.00  0.00    -0.200 F 
ENDBRANCH  40  63
ENDBRANCH  14  15
ENDBRANCH   7   9
ENDBRANCH   6   7
ENDBRANCH   5   6
ENDBRANCH   4   5
ENDBRANCH   3   4
ENDBRANCH   2   3
ENDBRANCH   1   2
BRANCH   1  74
ATOM     74  O   UNL     1       2.871  -2.100   3.610  1.00  0.00    -0.376 OA
BRANCH  74  75
ATOM     75  C   UNL     1       4.284  -2.189   3.492  1.00  0.00     0.202 C 
BRANCH  75  76
ATOM     76  C   UNL     1       4.913  -3.326   2.668  1.00  0.00     0.261 C 
BRANCH  76  77
ATOM     77  O   UNL     1       4.681  -3.374   1.249  1.00  0.00    -0.460 OA
BRANCH  77  78
ATOM     78  C   UNL     1       3.545  -4.033   0.946  1.00  0.00     0.338 C 
ATOM     79  O   UNL     1       2.679  -4.365   1.741  1.00  0.00    -0.246 OA
BRANCH  78  80
ATOM     80  C   UNL     1       3.456  -4.510  -0.440  1.00  0.00     0.061 A 
ATOM     81  C   UNL     1       2.440  -4.018  -1.266  1.00  0.00     0.016 A 
ATOM     82  C   UNL     1       4.062  -5.744  -0.706  1.00  0.00     0.038 A 
ATOM     83  C   UNL     1       2.002  -4.790  -2.342  1.00  0.00     0.002 A 
ATOM     84  C   UNL     1       3.501  -6.591  -1.662  1.00  0.00     0.088 A 
ATOM     85  C   UNL     1       2.494  -6.093  -2.509  1.00  0.00     0.022 A 
BRANCH  84  86
ATOM     86  S   UNL     1       4.075  -8.269  -1.878  1.00  0.00     0.261 S 
ATOM     87  O   UNL     1       3.129  -8.930  -2.755  1.00  0.00    -0.201 OA
ATOM     88  O   UNL     1       5.471  -8.232  -2.255  1.00  0.00    -0.201 OA
BRANCH  86  89
ATOM     89  N   UNL     1       4.079  -9.187  -0.482  1.00  0.00    -0.278 N 
ATOM     90  H   UNL     1       3.974 -10.165  -0.515  1.00  0.00     0.180 HD
BRANCH  89  91
ATOM     91  C   UNL     1       4.240  -8.505   0.756  1.00  0.00     0.072 A 
ATOM     92  C   UNL     1       5.558  -8.285   1.202  1.00  0.00     0.029 A 
ATOM     93  C   UNL     1       3.108  -7.913   1.369  1.00  0.00     0.061 A 
ATOM     94  C   UNL     1       5.785  -7.509   2.327  1.00  0.00     0.002 A 
ATOM     95  C   UNL     1       3.383  -7.181   2.532  1.00  0.00     0.028 A 
ATOM     96  C   UNL     1       4.693  -6.992   3.011  1.00  0.00     0.002 A 
BRANCH  93  97
ATOM     97  N   UNL     1       1.841  -7.945   0.781  1.00  0.00    -0.365 N 
ATOM     98  C   UNL     1       1.251  -9.213   0.303  1.00  0.00     0.145 C 
ATOM     99  C   UNL     1       0.817  -6.928   1.097  1.00  0.00     0.145 C 
ATOM    100  C   UNL     1       0.274  -8.932  -0.852  1.00  0.00     0.181 C 
ATOM    101  C   UNL     1      -0.204  -6.783  -0.045  1.00  0.00     0.181 C 
ATOM    102  O   UNL     1      -0.772  -8.040  -0.433  1.00  0.00    -0.378 OA
ENDBRANCH  93  97
ENDBRANCH  89  91
ENDBRANCH  86  89
ENDBRANCH  84  86
ENDBRANCH  78  80
ENDBRANCH  77  78
ENDBRANCH  76  77
ENDBRANCH  75  76
ENDBRANCH  74  75
ENDBRANCH   1  74
TORSDOF 21
