REMARK SMILES O=C(OCCOCCOCCOC(=O)c1ccc([C@@H]2CC(O)=Nc3c2ncn3-c2cccc(Cl)c2)cc1)c1ccc(-c2c3nc(c(-c4c(F)c(F)c(F)c(F)c4F)c4ccc([nH]4)c(-c4c(F)c(F)c(F)c(F)c4F)c4nc(c(-c5c(F)c(F)c(F)c(F)c5F)c5ccc2[nH]5)C=C4)C=C3)cc1
REMARK SMILES IDX 7 1 6 2 5 3 4 4 3 5 2 6 1 7 38 8 39 9 100 10 40 11 99 12
REMARK SMILES IDX 41 13 42 14 43 15 93 16 44 17 98 18 92 19 94 20 45 21 97 22
REMARK SMILES IDX 91 23 90 24 46 26 78 27 58 28 77 29 59 30 62 31 76 32 95 33
REMARK SMILES IDX 60 34 61 35 75 37 96 38 63 39 47 40 48 41 56 42 49 43 50 44
REMARK SMILES IDX 54 45 57 46 51 47 52 48 55 49 53 50 79 51 80 52 88 53 81 54
REMARK SMILES IDX 82 55 86 56 89 57 83 58 84 59 87 60 85 61 64 62 65 63 73 64
REMARK SMILES IDX 66 65 67 66 71 67 74 68 68 69 69 70 72 71 70 72 8 73 9 74
REMARK SMILES IDX 10 75 11 76 12 77 13 78 14 79 15 80 16 81 37 82 17 83 36 84
REMARK SMILES IDX 18 85 19 86 20 87 25 88 21 89 24 90 26 91 23 92 28 93 27 94
REMARK SMILES IDX 22 95 29 97 30 98 35 99 31 100 33 101 32 102 34 103
REMARK H PARENT 94 25 62 36 22 96
REMARK Flexibility Score: inf
ROOT
ATOM      1  C   UNL     1       3.585   1.669  -0.483  1.00  0.00     0.188 C 
ENDROOT
BRANCH   1   2
ATOM      2  O   UNL     1       4.906   1.240  -0.778  1.00  0.00    -0.376 OA
BRANCH   2   3
ATOM      3  C   UNL     1       5.294   0.003  -0.208  1.00  0.00     0.202 C 
BRANCH   3   4
ATOM      4  C   UNL     1       4.755  -1.220  -0.949  1.00  0.00     0.261 C 
BRANCH   4   5
ATOM      5  O   UNL     1       3.349  -1.193  -1.257  1.00  0.00    -0.460 OA
BRANCH   5   6
ATOM      6  C   UNL     1       2.295  -1.595  -0.524  1.00  0.00     0.338 C 
ATOM      7  O   UNL     1       1.257  -1.956  -1.073  1.00  0.00    -0.246 OA
BRANCH   6   8
ATOM      8  C   UNL     1       2.260  -1.394   0.942  1.00  0.00     0.060 A 
ATOM      9  C   UNL     1       3.283  -1.784   1.805  1.00  0.00     0.016 A 
ATOM     10  C   UNL     1       1.051  -0.903   1.472  1.00  0.00     0.016 A 
ATOM     11  C   UNL     1       3.076  -1.751   3.179  1.00  0.00     0.010 A 
ATOM     12  C   UNL     1       0.835  -0.885   2.845  1.00  0.00     0.010 A 
ATOM     13  C   UNL     1       1.828  -1.378   3.689  1.00  0.00    -0.014 A 
BRANCH  13  14
ATOM     14  C   UNL     1       1.556  -1.737   5.079  1.00  0.00     0.031 A 
ATOM     15  C   UNL     1       2.246  -0.996   6.167  1.00  0.00     0.074 A 
ATOM     16  C   UNL     1       0.705  -2.741   5.374  1.00  0.00     0.049 A 
ATOM     17  N   UNL     1       3.021  -1.472   7.091  1.00  0.00    -0.248 NA
ATOM     18  C   UNL     1       2.045   0.456   6.240  1.00  0.00     0.031 C 
ATOM     19  C   UNL     1      -0.240  -3.414   4.476  1.00  0.00     0.029 A 
ATOM     20  N   UNL     1       0.452  -3.317   6.585  1.00  0.00    -0.354 N 
ATOM     21  C   UNL     1       3.287  -0.414   7.958  1.00  0.00     0.074 A 
ATOM     22  C   UNL     1       2.721   0.764   7.348  1.00  0.00     0.031 C 
ATOM     23  C   UNL     1      -1.099  -4.153   5.210  1.00  0.00     0.029 A 
ATOM     24  C   UNL     1      -0.682  -4.109   6.600  1.00  0.00     0.049 A 
ATOM     25  H   UNL     1       1.024  -3.182   7.375  1.00  0.00     0.167 HD
ATOM     26  C   UNL     1       3.809  -0.603   9.202  1.00  0.00     0.037 A 
ATOM     27  C   UNL     1      -1.290  -4.638   7.686  1.00  0.00     0.037 A 
ATOM     28  C   UNL     1       4.490  -1.862   9.326  1.00  0.00     0.049 A 
ATOM     29  C   UNL     1      -0.304  -4.694   8.790  1.00  0.00     0.074 A 
ATOM     30  C   UNL     1       5.571  -2.452   8.699  1.00  0.00     0.029 A 
ATOM     31  N   UNL     1       3.915  -2.864  10.064  1.00  0.00    -0.354 N 
ATOM     32  N   UNL     1       0.717  -5.505   8.826  1.00  0.00    -0.248 NA
ATOM     33  C   UNL     1      -0.245  -3.574   9.716  1.00  0.00     0.031 C 
ATOM     34  C   UNL     1       5.294  -3.851   8.706  1.00  0.00     0.029 A 
ATOM     35  C   UNL     1       4.063  -4.017   9.338  1.00  0.00     0.049 A 
ATOM     36  H   UNL     1       3.480  -2.773  10.943  1.00  0.00     0.167 HD
ATOM     37  C   UNL     1       1.713  -4.789   9.472  1.00  0.00     0.074 A 
ATOM     38  C   UNL     1       1.029  -3.666  10.101  1.00  0.00     0.031 C 
ATOM     39  C   UNL     1       3.032  -5.016   9.205  1.00  0.00     0.037 A 
BRANCH  26  40
ATOM     40  C   UNL     1       3.464   0.242  10.402  1.00  0.00     0.064 A 
ATOM     41  C   UNL     1       4.225   0.133  11.584  1.00  0.00     0.173 A 
ATOM     42  C   UNL     1       2.241   0.934  10.525  1.00  0.00     0.173 A 
ATOM     43  F   UNL     1       5.388  -0.536  11.588  1.00  0.00    -0.203 F 
ATOM     44  C   UNL     1       3.766   0.631  12.807  1.00  0.00     0.198 A 
ATOM     45  C   UNL     1       1.810   1.476  11.737  1.00  0.00     0.198 A 
ATOM     46  F   UNL     1       1.373   1.017   9.508  1.00  0.00    -0.203 F 
ATOM     47  F   UNL     1       4.469   0.402  13.925  1.00  0.00    -0.200 F 
ATOM     48  C   UNL     1       2.558   1.300  12.883  1.00  0.00     0.200 A 
ATOM     49  F   UNL     1       0.627   2.102  11.796  1.00  0.00    -0.200 F 
ATOM     50  F   UNL     1       2.091   1.729  14.062  1.00  0.00    -0.200 F 
ENDBRANCH  26  40
BRANCH  27  51
ATOM     51  C   UNL     1      -2.742  -4.831   7.881  1.00  0.00     0.064 A 
ATOM     52  C   UNL     1      -3.242  -5.710   8.852  1.00  0.00     0.173 A 
ATOM     53  C   UNL     1      -3.677  -3.969   7.271  1.00  0.00     0.173 A 
ATOM     54  F   UNL     1      -2.409  -6.521   9.520  1.00  0.00    -0.203 F 
ATOM     55  C   UNL     1      -4.598  -5.724   9.193  1.00  0.00     0.198 A 
ATOM     56  C   UNL     1      -5.030  -3.995   7.600  1.00  0.00     0.198 A 
ATOM     57  F   UNL     1      -3.282  -3.022   6.407  1.00  0.00    -0.203 F 
ATOM     58  F   UNL     1      -5.034  -6.539  10.164  1.00  0.00    -0.200 F 
ATOM     59  C   UNL     1      -5.490  -4.866   8.569  1.00  0.00     0.200 A 
ATOM     60  F   UNL     1      -5.873  -3.133   7.014  1.00  0.00    -0.200 F 
ATOM     61  F   UNL     1      -6.780  -4.848   8.929  1.00  0.00    -0.200 F 
ENDBRANCH  27  51
BRANCH  39  62
ATOM     62  C   UNL     1       3.380  -6.254   8.433  1.00  0.00     0.064 A 
ATOM     63  C   UNL     1       2.989  -6.463   7.100  1.00  0.00     0.173 A 
ATOM     64  C   UNL     1       4.250  -7.190   9.009  1.00  0.00     0.173 A 
ATOM     65  F   UNL     1       2.252  -5.553   6.450  1.00  0.00    -0.203 F 
ATOM     66  C   UNL     1       3.406  -7.590   6.395  1.00  0.00     0.198 A 
ATOM     67  C   UNL     1       4.692  -8.297   8.290  1.00  0.00     0.198 A 
ATOM     68  F   UNL     1       4.710  -7.003  10.256  1.00  0.00    -0.203 F 
ATOM     69  F   UNL     1       3.010  -7.773   5.127  1.00  0.00    -0.200 F 
ATOM     70  C   UNL     1       4.261  -8.504   6.989  1.00  0.00     0.200 A 
ATOM     71  F   UNL     1       5.562  -9.151   8.848  1.00  0.00    -0.200 F 
ATOM     72  F   UNL     1       4.694  -9.567   6.297  1.00  0.00    -0.200 F 
ENDBRANCH  39  62
ENDBRANCH  13  14
ENDBRANCH   6   8
ENDBRANCH   5   6
ENDBRANCH   4   5
ENDBRANCH   3   4
ENDBRANCH   2   3
ENDBRANCH   1   2
BRANCH   1  73
ATOM     73  C   UNL     1       2.634   1.736  -1.696  1.00  0.00     0.188 C 
BRANCH  73  74
ATOM     74  O   UNL     1       3.127   1.763  -3.028  1.00  0.00    -0.376 OA
BRANCH  74  75
ATOM     75  C   UNL     1       4.384   2.351  -3.312  1.00  0.00     0.202 C 
BRANCH  75  76
ATOM     76  C   UNL     1       4.539   3.858  -3.079  1.00  0.00     0.261 C 
BRANCH  76  77
ATOM     77  O   UNL     1       4.132   4.319  -1.779  1.00  0.00    -0.460 OA
BRANCH  77  78
ATOM     78  C   UNL     1       2.998   5.053  -1.758  1.00  0.00     0.338 C 
ATOM     79  O   UNL     1       2.295   5.367  -2.713  1.00  0.00    -0.246 OA
BRANCH  78  80
ATOM     80  C   UNL     1       2.604   5.365  -0.376  1.00  0.00     0.060 A 
ATOM     81  C   UNL     1       1.394   4.850   0.095  1.00  0.00     0.016 A 
ATOM     82  C   UNL     1       3.334   6.268   0.398  1.00  0.00     0.016 A 
ATOM     83  C   UNL     1       0.898   5.255   1.331  1.00  0.00     0.005 A 
ATOM     84  C   UNL     1       2.812   6.706   1.623  1.00  0.00     0.005 A 
ATOM     85  C   UNL     1       1.577   6.220   2.096  1.00  0.00    -0.038 A 
BRANCH  85  86
ATOM     86  C   UNL     1       0.833   6.812   3.285  1.00  0.00     0.081 C 
ATOM     87  C   UNL     1       0.160   8.146   2.891  1.00  0.00     0.111 C 
ATOM     88  C   UNL     1       1.770   6.994   4.416  1.00  0.00     0.093 A 
ATOM     89  C   UNL     1       0.863   9.386   3.419  1.00  0.00     0.188 C 
ATOM     90  C   UNL     1       2.066   8.248   4.905  1.00  0.00     0.164 A 
ATOM     91  N   UNL     1       2.428   6.012   5.101  1.00  0.00    -0.238 NA
ATOM     92  N   UNL     1       1.702   9.453   4.403  1.00  0.00    -0.198 NA
ATOM     93  N   UNL     1       2.938   8.034   5.955  1.00  0.00    -0.283 N 
ATOM     94  C   UNL     1       3.154   6.668   5.985  1.00  0.00     0.206 A 
BRANCH  89  95
ATOM     95  O   UNL     1       0.500  10.531   2.811  1.00  0.00    -0.496 OA
ATOM     96  H   UNL     1      -0.106  10.510   2.096  1.00  0.00     0.294 HD
ENDBRANCH  89  95
BRANCH  93  97
ATOM     97  C   UNL     1       3.492   8.996   6.836  1.00  0.00     0.050 A 
ATOM     98  C   UNL     1       4.784   8.818   7.347  1.00  0.00     0.027 A 
ATOM     99  C   UNL     1       2.739  10.119   7.204  1.00  0.00     0.047 A 
ATOM    100  C   UNL     1       5.331   9.782   8.197  1.00  0.00     0.004 A 
ATOM    101  C   UNL     1       3.280  11.050   8.089  1.00  0.00     0.043 A 
ATOM    102  C   UNL     1       4.576  10.894   8.576  1.00  0.00     0.020 A 
ATOM    103  Cl  UNL     1       2.333  12.393   8.602  1.00  0.00    -0.084 Cl
ENDBRANCH  93  97
ENDBRANCH  85  86
ENDBRANCH  78  80
ENDBRANCH  77  78
ENDBRANCH  76  77
ENDBRANCH  75  76
ENDBRANCH  74  75
ENDBRANCH  73  74
ENDBRANCH   1  73
TORSDOF 20
