REMARK SMILES CCCc1n[nH]c(C(=O)N[C@H](C)CC(=O)OCCOCCOCCOC(=O)c2ccc(-c3c4nc(c(-c5c(F)c(F)c(F)c(F)c5F)c5ccc([nH]5)c(-c5c(F)c(F)c(F)c(F)c5F)c5nc(c(-c6c(F)c(F)c(F)c(F)c6F)c6ccc3[nH]6)C=C5)C=C4)cc2)n1
REMARK SMILES IDX 19 1 18 2 17 3 16 4 14 5 15 6 13 7 11 8 12 9 10 10 8 11 9 12
REMARK SMILES IDX 7 14 4 15 5 16 91 17 6 18 3 20 2 21 1 22 20 23 21 24 22 25
REMARK SMILES IDX 23 26 24 27 25 28 26 29 27 30 28 31 29 32 90 33 30 34 89 35
REMARK SMILES IDX 31 36 32 37 33 38 83 39 34 40 88 41 82 42 84 43 35 44 87 45
REMARK SMILES IDX 81 46 80 47 36 49 68 50 48 51 67 52 49 53 52 54 66 55 85 56
REMARK SMILES IDX 50 57 51 58 65 60 86 61 53 62 37 63 38 64 46 65 39 66 40 67
REMARK SMILES IDX 44 68 47 69 41 70 42 71 45 72 43 73 69 74 70 75 78 76 71 77
REMARK SMILES IDX 72 78 76 79 79 80 73 81 74 82 77 83 75 84 54 85 55 86 63 87
REMARK SMILES IDX 56 88 57 89 61 90 64 91 58 92 59 93 62 94 60 95
REMARK H PARENT 10 13 6 19 84 48 52 59
REMARK Flexibility Score: inf
ROOT
ATOM      1  O   UNL     1       3.254   1.426  -4.252  1.00  0.00    -0.376 OA
ENDROOT
BRANCH   1   2
ATOM      2  C   UNL     1       3.822   0.498  -5.153  1.00  0.00     0.202 C 
BRANCH   2   3
ATOM      3  C   UNL     1       2.857  -0.379  -5.962  1.00  0.00     0.261 C 
BRANCH   3   4
ATOM      4  O   UNL     1       1.770  -0.976  -5.230  1.00  0.00    -0.463 OA
BRANCH   4   5
ATOM      5  C   UNL     1       1.937  -2.216  -4.710  1.00  0.00     0.307 C 
ATOM      6  O   UNL     1       3.001  -2.823  -4.723  1.00  0.00    -0.252 OA
BRANCH   5   7
ATOM      7  C   UNL     1       0.629  -2.818  -4.214  1.00  0.00     0.147 C 
BRANCH   7   8
ATOM      8  C   UNL     1      -0.383  -1.848  -3.584  1.00  0.00     0.090 C 
ATOM      9  C   UNL     1      -1.096  -0.967  -4.624  1.00  0.00     0.031 C 
BRANCH   8  10
ATOM     10  N   UNL     1      -1.461  -2.557  -2.876  1.00  0.00    -0.346 N 
ATOM     11  C   UNL     1      -1.582  -2.927  -1.564  1.00  0.00     0.288 C 
ATOM     12  O   UNL     1      -2.702  -3.279  -1.182  1.00  0.00    -0.266 OA
ATOM     13  H   UNL     1      -2.225  -2.808  -3.443  1.00  0.00     0.164 HD
BRANCH  11  14
ATOM     14  C   UNL     1      -0.459  -2.920  -0.667  1.00  0.00     0.214 A 
ATOM     15  C   UNL     1       1.419  -2.992   0.288  1.00  0.00     0.151 A 
ATOM     16  N   UNL     1       0.567  -3.223   1.293  1.00  0.00    -0.158 NA
ATOM     17  N   UNL     1       0.826  -2.749  -0.927  1.00  0.00    -0.207 NA
ATOM     18  N   UNL     1      -0.609  -3.194   0.661  1.00  0.00    -0.255 N 
ATOM     19  H   UNL     1      -1.477  -3.352   1.099  1.00  0.00     0.192 HD
BRANCH  15  20
ATOM     20  C   UNL     1       2.873  -2.933   0.562  1.00  0.00     0.079 C 
BRANCH  20  21
ATOM     21  C   UNL     1       3.836  -2.965  -0.617  1.00  0.00     0.005 C 
ATOM     22  C   UNL     1       3.863  -1.647  -1.363  1.00  0.00     0.004 C 
ENDBRANCH  20  21
ENDBRANCH  15  20
ENDBRANCH  11  14
ENDBRANCH   8  10
ENDBRANCH   7   8
ENDBRANCH   5   7
ENDBRANCH   4   5
ENDBRANCH   3   4
ENDBRANCH   2   3
ENDBRANCH   1   2
BRANCH   1  23
ATOM     23  C   UNL     1       2.481   0.937  -3.177  1.00  0.00     0.188 C 
BRANCH  23  24
ATOM     24  C   UNL     1       1.082   1.570  -3.145  1.00  0.00     0.188 C 
BRANCH  24  25
ATOM     25  O   UNL     1       0.825   2.708  -3.954  1.00  0.00    -0.376 OA
BRANCH  25  26
ATOM     26  C   UNL     1       1.778   3.763  -3.948  1.00  0.00     0.202 C 
BRANCH  26  27
ATOM     27  C   UNL     1       2.098   4.414  -2.597  1.00  0.00     0.261 C 
BRANCH  27  28
ATOM     28  O   UNL     1       2.626   3.521  -1.587  1.00  0.00    -0.460 OA
BRANCH  28  29
ATOM     29  C   UNL     1       1.849   3.347  -0.494  1.00  0.00     0.338 C 
ATOM     30  O   UNL     1       0.741   3.854  -0.296  1.00  0.00    -0.246 OA
BRANCH  29  31
ATOM     31  C   UNL     1       2.405   2.350   0.448  1.00  0.00     0.060 A 
ATOM     32  C   UNL     1       1.571   1.310   0.880  1.00  0.00     0.016 A 
ATOM     33  C   UNL     1       3.668   2.507   1.028  1.00  0.00     0.016 A 
ATOM     34  C   UNL     1       1.976   0.465   1.921  1.00  0.00     0.010 A 
ATOM     35  C   UNL     1       4.067   1.664   2.083  1.00  0.00     0.010 A 
ATOM     36  C   UNL     1       3.214   0.655   2.561  1.00  0.00    -0.014 A 
BRANCH  36  37
ATOM     37  C   UNL     1       3.500  -0.095   3.823  1.00  0.00     0.031 A 
ATOM     38  C   UNL     1       2.904   0.401   5.111  1.00  0.00     0.074 A 
ATOM     39  C   UNL     1       4.231  -1.225   3.848  1.00  0.00     0.049 A 
ATOM     40  N   UNL     1       2.910  -0.147   6.301  1.00  0.00    -0.248 NA
ATOM     41  C   UNL     1       2.257   1.719   5.054  1.00  0.00     0.031 C 
ATOM     42  C   UNL     1       4.947  -1.783   2.712  1.00  0.00     0.029 A 
ATOM     43  N   UNL     1       4.439  -2.146   4.852  1.00  0.00    -0.354 N 
ATOM     44  C   UNL     1       2.299   0.772   7.143  1.00  0.00     0.074 A 
ATOM     45  C   UNL     1       1.934   1.911   6.324  1.00  0.00     0.031 C 
ATOM     46  C   UNL     1       5.365  -3.022   3.021  1.00  0.00     0.029 A 
ATOM     47  C   UNL     1       5.035  -3.308   4.415  1.00  0.00     0.049 A 
ATOM     48  H   UNL     1       4.185  -1.988   5.790  1.00  0.00     0.167 HD
ATOM     49  C   UNL     1       2.086   0.690   8.479  1.00  0.00     0.037 A 
ATOM     50  C   UNL     1       5.274  -4.470   5.060  1.00  0.00     0.037 A 
ATOM     51  C   UNL     1       2.490  -0.417   9.308  1.00  0.00     0.049 A 
ATOM     52  C   UNL     1       4.997  -4.554   6.542  1.00  0.00     0.074 A 
ATOM     53  C   UNL     1       2.354  -0.569  10.678  1.00  0.00     0.029 A 
ATOM     54  N   UNL     1       3.124  -1.562   8.845  1.00  0.00    -0.354 N 
ATOM     55  N   UNL     1       4.410  -3.688   7.331  1.00  0.00    -0.248 NA
ATOM     56  C   UNL     1       5.473  -5.763   7.234  1.00  0.00     0.031 C 
ATOM     57  C   UNL     1       2.953  -1.778  11.050  1.00  0.00     0.029 A 
ATOM     58  C   UNL     1       3.400  -2.415   9.905  1.00  0.00     0.049 A 
ATOM     59  H   UNL     1       3.347  -1.742   7.903  1.00  0.00     0.167 HD
ATOM     60  C   UNL     1       4.448  -4.242   8.605  1.00  0.00     0.074 A 
ATOM     61  C   UNL     1       5.074  -5.541   8.478  1.00  0.00     0.031 C 
ATOM     62  C   UNL     1       4.023  -3.709   9.777  1.00  0.00     0.037 A 
BRANCH  49  63
ATOM     63  C   UNL     1       1.448   1.884   9.132  1.00  0.00     0.064 A 
ATOM     64  C   UNL     1       0.112   2.235   8.887  1.00  0.00     0.173 A 
ATOM     65  C   UNL     1       2.197   2.711   9.983  1.00  0.00     0.173 A 
ATOM     66  F   UNL     1      -0.643   1.489   8.066  1.00  0.00    -0.203 F 
ATOM     67  C   UNL     1      -0.433   3.398   9.426  1.00  0.00     0.198 A 
ATOM     68  C   UNL     1       1.638   3.852  10.550  1.00  0.00     0.198 A 
ATOM     69  F   UNL     1       3.478   2.419  10.256  1.00  0.00    -0.203 F 
ATOM     70  F   UNL     1      -1.686   3.756   9.113  1.00  0.00    -0.200 F 
ATOM     71  C   UNL     1       0.329   4.203  10.259  1.00  0.00     0.200 A 
ATOM     72  F   UNL     1       2.372   4.622  11.365  1.00  0.00    -0.200 F 
ATOM     73  F   UNL     1      -0.193   5.328  10.767  1.00  0.00    -0.200 F 
ENDBRANCH  49  63
BRANCH  50  74
ATOM     74  C   UNL     1       5.805  -5.665   4.338  1.00  0.00     0.064 A 
ATOM     75  C   UNL     1       5.061  -6.857   4.285  1.00  0.00     0.173 A 
ATOM     76  C   UNL     1       7.069  -5.672   3.733  1.00  0.00     0.173 A 
ATOM     77  F   UNL     1       3.861  -6.926   4.881  1.00  0.00    -0.203 F 
ATOM     78  C   UNL     1       5.568  -8.004   3.674  1.00  0.00     0.198 A 
ATOM     79  C   UNL     1       7.557  -6.806   3.085  1.00  0.00     0.198 A 
ATOM     80  F   UNL     1       7.838  -4.574   3.769  1.00  0.00    -0.203 F 
ATOM     81  F   UNL     1       4.862  -9.143   3.700  1.00  0.00    -0.200 F 
ATOM     82  C   UNL     1       6.812  -7.974   3.065  1.00  0.00     0.200 A 
ATOM     83  F   UNL     1       8.756  -6.768   2.488  1.00  0.00    -0.200 F 
ATOM     84  F   UNL     1       7.299  -9.074   2.475  1.00  0.00    -0.200 F 
ENDBRANCH  50  74
BRANCH  62  85
ATOM     85  C   UNL     1       4.195  -4.541  11.019  1.00  0.00     0.064 A 
ATOM     86  C   UNL     1       5.461  -4.814  11.563  1.00  0.00     0.173 A 
ATOM     87  C   UNL     1       3.074  -5.056  11.689  1.00  0.00     0.173 A 
ATOM     88  F   UNL     1       6.568  -4.358  10.958  1.00  0.00    -0.203 F 
ATOM     89  C   UNL     1       5.598  -5.599  12.706  1.00  0.00     0.198 A 
ATOM     90  C   UNL     1       3.214  -5.812  12.851  1.00  0.00     0.198 A 
ATOM     91  F   UNL     1       1.839  -4.821  11.220  1.00  0.00    -0.203 F 
ATOM     92  F   UNL     1       6.820  -5.894  13.171  1.00  0.00    -0.200 F 
ATOM     93  C   UNL     1       4.475  -6.092  13.352  1.00  0.00     0.200 A 
ATOM     94  F   UNL     1       2.126  -6.275  13.482  1.00  0.00    -0.200 F 
ATOM     95  F   UNL     1       4.609  -6.845  14.452  1.00  0.00    -0.200 F 
ENDBRANCH  62  85
ENDBRANCH  36  37
ENDBRANCH  29  31
ENDBRANCH  28  29
ENDBRANCH  27  28
ENDBRANCH  26  27
ENDBRANCH  25  26
ENDBRANCH  24  25
ENDBRANCH  23  24
ENDBRANCH   1  23
TORSDOF 22
