REMARK SMILES CC(C)c1ccc(NC(=O)C(=O)N/N=C/c2ccccc2C(=O)OCCOCCOCCOC(=O)c2ccc(-c3c4nc(c(-c5c(F)c(F)c(F)c(F)c5F)c5ccc([nH]5)c(-c5c(F)c(F)c(F)c(F)c5F)c5nc(c(-c6c(F)c(F)c(F)c(F)c6F)c6ccc3[nH]6)C=C5)C=C4)cc2)cc1
REMARK SMILES IDX 27 1 26 2 25 3 24 4 22 5 23 6 21 7 16 8 17 9 18 10 20 11
REMARK SMILES IDX 19 12 15 13 14 14 13 15 11 16 12 17 9 19 8 20 10 22 7 23
REMARK SMILES IDX 4 24 5 25 100 26 6 27 99 28 2 29 1 30 3 31 28 32 29 33 30 34
REMARK SMILES IDX 31 35 32 36 33 37 34 38 35 39 36 40 37 41 98 42 38 43 97 44
REMARK SMILES IDX 39 45 40 46 41 47 91 48 42 49 96 50 90 51 92 52 43 53 95 54
REMARK SMILES IDX 89 55 88 56 44 58 76 59 56 60 75 61 57 62 60 63 74 64 93 65
REMARK SMILES IDX 58 66 59 67 73 69 94 70 61 71 45 72 46 73 54 74 47 75 48 76
REMARK SMILES IDX 52 77 55 78 49 79 50 80 53 81 51 82 77 83 78 84 86 85 79 86
REMARK SMILES IDX 80 87 84 88 87 89 81 90 82 91 85 92 83 93 62 94 63 95 71 96
REMARK SMILES IDX 64 97 65 98 69 99 72 100 66 101 67 102 70 103 68 104
REMARK H PARENT 13 18 8 21 92 57 60 68
REMARK Flexibility Score: inf
ROOT
ATOM      1  O   UNL     1      -9.025   5.391  -2.438  1.00  0.00    -0.376 OA
ENDROOT
BRANCH   1   2
ATOM      2  C   UNL     1      -7.859   5.708  -1.693  1.00  0.00     0.202 C 
BRANCH   2   3
ATOM      3  C   UNL     1      -7.994   5.813  -0.172  1.00  0.00     0.261 C 
BRANCH   3   4
ATOM      4  O   UNL     1      -8.582   4.648   0.425  1.00  0.00    -0.460 OA
BRANCH   4   5
ATOM      5  C   UNL     1      -9.738   4.830   1.105  1.00  0.00     0.338 C 
ATOM      6  O   UNL     1     -10.324   5.890   1.264  1.00  0.00    -0.246 OA
BRANCH   5   7
ATOM      7  C   UNL     1     -10.334   3.531   1.511  1.00  0.00     0.068 A 
ATOM      8  C   UNL     1      -9.604   2.406   1.914  1.00  0.00     0.009 A 
ATOM      9  C   UNL     1     -10.251   1.209   2.242  1.00  0.00     0.010 A 
ATOM     10  C   UNL     1     -11.641   1.127   2.155  1.00  0.00     0.001 A 
ATOM     11  C   UNL     1     -11.733   3.432   1.428  1.00  0.00     0.016 A 
ATOM     12  C   UNL     1     -12.380   2.232   1.734  1.00  0.00     0.001 A 
BRANCH   8  13
ATOM     13  C   UNL     1      -8.159   2.334   1.716  1.00  0.00     0.142 C 
ATOM     14  N   UNL     1      -7.266   2.630   2.606  1.00  0.00    -0.180 NA
BRANCH  14  15
ATOM     15  N   UNL     1      -5.978   2.573   2.115  1.00  0.00    -0.239 N 
ATOM     16  C   UNL     1      -5.482   1.632   1.220  1.00  0.00     0.329 C 
ATOM     17  O   UNL     1      -4.723   1.945   0.308  1.00  0.00    -0.262 OA
ATOM     18  H   UNL     1      -5.351   3.264   2.428  1.00  0.00     0.194 HD
BRANCH  16  19
ATOM     19  C   UNL     1      -5.865   0.157   1.451  1.00  0.00     0.315 C 
ATOM     20  N   UNL     1      -4.884  -0.810   1.540  1.00  0.00    -0.318 N 
ATOM     21  H   UNL     1      -5.237  -1.726   1.621  1.00  0.00     0.170 HD
ATOM     22  O   UNL     1      -7.045  -0.190   1.466  1.00  0.00    -0.263 OA
BRANCH  20  23
ATOM     23  C   UNL     1      -3.481  -0.742   1.537  1.00  0.00     0.041 A 
ATOM     24  C   UNL     1      -0.658  -0.784   1.345  1.00  0.00    -0.045 A 
ATOM     25  C   UNL     1      -1.343   0.395   1.658  1.00  0.00     0.006 A 
ATOM     26  C   UNL     1      -1.402  -1.955   1.167  1.00  0.00     0.006 A 
ATOM     27  C   UNL     1      -2.736   0.409   1.776  1.00  0.00     0.026 A 
ATOM     28  C   UNL     1      -2.797  -1.934   1.270  1.00  0.00     0.026 A 
BRANCH  24  29
ATOM     29  C   UNL     1       0.851  -0.804   1.190  1.00  0.00     0.013 C 
ATOM     30  C   UNL     1       1.286  -0.023  -0.053  1.00  0.00     0.012 C 
ATOM     31  C   UNL     1       1.554  -0.274   2.442  1.00  0.00     0.012 C 
ENDBRANCH  24  29
ENDBRANCH  20  23
ENDBRANCH  16  19
ENDBRANCH  14  15
ENDBRANCH   8  13
ENDBRANCH   5   7
ENDBRANCH   4   5
ENDBRANCH   3   4
ENDBRANCH   2   3
ENDBRANCH   1   2
BRANCH   1  32
ATOM     32  C   UNL     1      -9.678   4.142  -2.247  1.00  0.00     0.188 C 
BRANCH  32  33
ATOM     33  C   UNL     1      -8.884   2.858  -1.945  1.00  0.00     0.188 C 
BRANCH  33  34
ATOM     34  O   UNL     1      -7.490   2.934  -2.173  1.00  0.00    -0.376 OA
BRANCH  34  35
ATOM     35  C   UNL     1      -6.984   2.073  -3.188  1.00  0.00     0.202 C 
BRANCH  35  36
ATOM     36  C   UNL     1      -7.302   2.563  -4.606  1.00  0.00     0.261 C 
BRANCH  36  37
ATOM     37  O   UNL     1      -8.708   2.647  -4.906  1.00  0.00    -0.460 OA
BRANCH  37  38
ATOM     38  C   UNL     1      -9.403   1.488  -4.923  1.00  0.00     0.338 C 
ATOM     39  O   UNL     1      -8.969   0.363  -4.758  1.00  0.00    -0.246 OA
BRANCH  38  40
ATOM     40  C   UNL     1     -10.842   1.829  -4.968  1.00  0.00     0.060 A 
ATOM     41  C   UNL     1     -11.692   1.308  -3.983  1.00  0.00     0.016 A 
ATOM     42  C   UNL     1     -11.342   2.682  -5.954  1.00  0.00     0.016 A 
ATOM     43  C   UNL     1     -13.052   1.628  -3.995  1.00  0.00     0.010 A 
ATOM     44  C   UNL     1     -12.706   2.987  -5.975  1.00  0.00     0.010 A 
ATOM     45  C   UNL     1     -13.572   2.444  -5.009  1.00  0.00    -0.014 A 
BRANCH  45  46
ATOM     46  C   UNL     1     -15.039   2.606  -5.160  1.00  0.00     0.031 A 
ATOM     47  C   UNL     1     -15.769   1.700  -6.111  1.00  0.00     0.074 A 
ATOM     48  C   UNL     1     -15.715   3.546  -4.477  1.00  0.00     0.049 A 
ATOM     49  N   UNL     1     -17.039   1.673  -6.427  1.00  0.00    -0.248 NA
ATOM     50  C   UNL     1     -14.953   0.692  -6.805  1.00  0.00     0.031 C 
ATOM     51  C   UNL     1     -15.131   4.481  -3.519  1.00  0.00     0.029 A 
ATOM     52  N   UNL     1     -17.049   3.875  -4.502  1.00  0.00    -0.354 N 
ATOM     53  C   UNL     1     -17.174   0.648  -7.353  1.00  0.00     0.074 A 
ATOM     54  C   UNL     1     -15.853   0.097  -7.572  1.00  0.00     0.031 C 
ATOM     55  C   UNL     1     -16.101   5.292  -3.058  1.00  0.00     0.029 A 
ATOM     56  C   UNL     1     -17.367   4.946  -3.705  1.00  0.00     0.049 A 
ATOM     57  H   UNL     1     -17.713   3.388  -5.041  1.00  0.00     0.167 HD
ATOM     58  C   UNL     1     -18.297   0.198  -7.959  1.00  0.00     0.037 A 
ATOM     59  C   UNL     1     -18.541   5.585  -3.534  1.00  0.00     0.037 A 
ATOM     60  C   UNL     1     -19.611   0.747  -7.754  1.00  0.00     0.049 A 
ATOM     61  C   UNL     1     -19.769   5.104  -4.267  1.00  0.00     0.074 A 
ATOM     62  C   UNL     1     -20.814   0.331  -8.295  1.00  0.00     0.029 A 
ATOM     63  N   UNL     1     -19.890   1.845  -6.954  1.00  0.00    -0.354 N 
ATOM     64  N   UNL     1     -19.900   4.096  -5.094  1.00  0.00    -0.248 NA
ATOM     65  C   UNL     1     -21.015   5.852  -4.037  1.00  0.00     0.031 C 
ATOM     66  C   UNL     1     -21.815   1.208  -7.863  1.00  0.00     0.029 A 
ATOM     67  C   UNL     1     -21.243   2.139  -7.011  1.00  0.00     0.049 A 
ATOM     68  H   UNL     1     -19.226   2.341  -6.423  1.00  0.00     0.167 HD
ATOM     69  C   UNL     1     -21.240   4.073  -5.463  1.00  0.00     0.074 A 
ATOM     70  C   UNL     1     -21.885   5.161  -4.760  1.00  0.00     0.031 C 
ATOM     71  C   UNL     1     -21.877   3.224  -6.306  1.00  0.00     0.037 A 
BRANCH  58  72
ATOM     72  C   UNL     1     -18.146  -0.937  -8.927  1.00  0.00     0.064 A 
ATOM     73  C   UNL     1     -17.870  -2.241  -8.492  1.00  0.00     0.173 A 
ATOM     74  C   UNL     1     -18.298  -0.720 -10.305  1.00  0.00     0.173 A 
ATOM     75  F   UNL     1     -17.700  -2.496  -7.186  1.00  0.00    -0.203 F 
ATOM     76  C   UNL     1     -17.725  -3.283  -9.404  1.00  0.00     0.198 A 
ATOM     77  C   UNL     1     -18.179  -1.769 -11.211  1.00  0.00     0.198 A 
ATOM     78  F   UNL     1     -18.565   0.510 -10.770  1.00  0.00    -0.203 F 
ATOM     79  F   UNL     1     -17.413  -4.513  -8.971  1.00  0.00    -0.200 F 
ATOM     80  C   UNL     1     -17.885  -3.047 -10.762  1.00  0.00     0.200 A 
ATOM     81  F   UNL     1     -18.343  -1.542 -12.522  1.00  0.00    -0.200 F 
ATOM     82  F   UNL     1     -17.747  -4.052 -11.638  1.00  0.00    -0.200 F 
ENDBRANCH  58  72
BRANCH  59  83
ATOM     83  C   UNL     1     -18.618   6.761  -2.630  1.00  0.00     0.064 A 
ATOM     84  C   UNL     1     -19.303   6.691  -1.409  1.00  0.00     0.173 A 
ATOM     85  C   UNL     1     -18.026   7.984  -2.978  1.00  0.00     0.173 A 
ATOM     86  F   UNL     1     -19.913   5.552  -1.048  1.00  0.00    -0.203 F 
ATOM     87  C   UNL     1     -19.404   7.804  -0.576  1.00  0.00     0.198 A 
ATOM     88  C   UNL     1     -18.106   9.088  -2.133  1.00  0.00     0.198 A 
ATOM     89  F   UNL     1     -17.366   8.103  -4.139  1.00  0.00    -0.203 F 
ATOM     90  F   UNL     1     -20.103   7.723   0.564  1.00  0.00    -0.200 F 
ATOM     91  C   UNL     1     -18.800   8.999  -0.936  1.00  0.00     0.200 A 
ATOM     92  F   UNL     1     -17.517  10.240  -2.481  1.00  0.00    -0.200 F 
ATOM     93  F   UNL     1     -18.898  10.069  -0.134  1.00  0.00    -0.200 F 
ENDBRANCH  59  83
BRANCH  71  94
ATOM     94  C   UNL     1     -23.354   3.414  -6.499  1.00  0.00     0.064 A 
ATOM     95  C   UNL     1     -23.868   4.487  -7.242  1.00  0.00     0.173 A 
ATOM     96  C   UNL     1     -24.265   2.483  -5.976  1.00  0.00     0.173 A 
ATOM     97  F   UNL     1     -23.041   5.412  -7.751  1.00  0.00    -0.203 F 
ATOM     98  C   UNL     1     -25.240   4.632  -7.436  1.00  0.00     0.198 A 
ATOM     99  C   UNL     1     -25.633   2.616  -6.195  1.00  0.00     0.198 A 
ATOM    100  F   UNL     1     -23.826   1.434  -5.264  1.00  0.00    -0.203 F 
ATOM    101  F   UNL     1     -25.711   5.688  -8.114  1.00  0.00    -0.200 F 
ATOM    102  C   UNL     1     -26.120   3.693  -6.919  1.00  0.00     0.200 A 
ATOM    103  F   UNL     1     -26.481   1.700  -5.707  1.00  0.00    -0.200 F 
ATOM    104  F   UNL     1     -27.439   3.830  -7.115  1.00  0.00    -0.200 F 
ENDBRANCH  71  94
ENDBRANCH  45  46
ENDBRANCH  38  40
ENDBRANCH  37  38
ENDBRANCH  36  37
ENDBRANCH  35  36
ENDBRANCH  34  35
ENDBRANCH  33  34
ENDBRANCH  32  33
ENDBRANCH   1  32
TORSDOF 22
