REMARK SMILES Cc1nc(NC(=O)[C@@H]2CCC[C@@H](C(=O)OCCOCCOCCOC(=O)c3ccc(-c4c5nc(c(-c6c(F)c(F)c(F)c(F)c6F)c6ccc([nH]6)c(-c6c(F)c(F)c(F)c(F)c6F)c6nc(c(-c7c(F)c(F)c(F)c(F)c7F)c7ccc4[nH]7)C=C6)C=C5)cc3)C2)ccc1Br
REMARK SMILES IDX 19 1 18 2 17 3 16 4 15 5 13 6 14 7 12 8 8 9 9 10 90 11 10 12
REMARK SMILES IDX 11 13 6 14 5 15 7 17 4 18 1 19 2 20 3 21 93 22 92 23 94 24
REMARK SMILES IDX 91 25 20 26 21 27 22 28 23 29 24 30 25 31 26 32 27 33 28 34
REMARK SMILES IDX 89 35 29 36 88 37 30 38 31 39 32 40 82 41 33 42 87 43 81 44
REMARK SMILES IDX 83 45 34 46 86 47 80 48 79 49 35 51 67 52 47 53 66 54 48 55
REMARK SMILES IDX 51 56 65 57 84 58 49 59 50 60 64 62 85 63 52 64 36 65 37 66
REMARK SMILES IDX 45 67 38 68 39 69 43 70 46 71 40 72 41 73 44 74 42 75 68 76
REMARK SMILES IDX 69 77 77 78 70 79 71 80 75 81 78 82 72 83 73 84 76 85 74 86
REMARK SMILES IDX 53 87 54 88 62 89 55 90 56 91 60 92 63 93 57 94 58 95 61 96
REMARK SMILES IDX 59 97
REMARK H PARENT 5 16 83 50 51 61
REMARK Flexibility Score: inf
ROOT
ATOM      1  C   UNL     1      -4.257  -0.244   9.984  1.00  0.00     0.188 C 
ENDROOT
BRANCH   1   2
ATOM      2  O   UNL     1      -5.247   0.675  10.417  1.00  0.00    -0.376 OA
BRANCH   2   3
ATOM      3  C   UNL     1      -5.815   1.508   9.413  1.00  0.00     0.202 C 
BRANCH   3   4
ATOM      4  C   UNL     1      -4.867   2.472   8.691  1.00  0.00     0.261 C 
BRANCH   4   5
ATOM      5  O   UNL     1      -3.710   1.863   8.081  1.00  0.00    -0.463 OA
BRANCH   5   6
ATOM      6  C   UNL     1      -2.506   2.222   8.607  1.00  0.00     0.309 C 
ATOM      7  O   UNL     1      -2.359   2.840   9.656  1.00  0.00    -0.252 OA
BRANCH   6   8
ATOM      8  C   UNL     1      -1.335   1.917   7.681  1.00  0.00     0.100 C 
ATOM      9  C   UNL     1      -1.837   0.096   5.819  1.00  0.00     0.080 C 
ATOM     10  C   UNL     1      -2.071   1.292   4.942  1.00  0.00     0.013 C 
ATOM     11  C   UNL     1      -1.167   0.469   7.169  1.00  0.00     0.028 C 
ATOM     12  C   UNL     1      -2.390   2.636   5.538  1.00  0.00     0.002 C 
ATOM     13  C   UNL     1      -1.342   2.968   6.578  1.00  0.00     0.015 C 
BRANCH   9  14
ATOM     14  C   UNL     1      -1.087  -1.092   5.129  1.00  0.00     0.228 C 
ATOM     15  N   UNL     1      -0.592  -1.219   3.862  1.00  0.00    -0.310 N 
ATOM     16  H   UNL     1      -0.278  -2.142   3.727  1.00  0.00     0.171 HD
ATOM     17  O   UNL     1      -0.856  -2.078   5.855  1.00  0.00    -0.274 OA
BRANCH  15  18
ATOM     18  C   UNL     1      -0.378  -0.479   2.687  1.00  0.00     0.132 A 
ATOM     19  C   UNL     1       1.926  -0.799  -0.167  1.00  0.00     0.068 C 
ATOM     20  C   UNL     1       1.108  -0.151   0.912  1.00  0.00     0.054 A 
ATOM     21  N   UNL     1       0.596  -0.965   1.889  1.00  0.00    -0.235 NA
ATOM     22  C   UNL     1       0.787   1.196   0.829  1.00  0.00     0.039 A 
ATOM     23  C   UNL     1      -0.337   1.606   1.509  1.00  0.00     0.021 A 
ATOM     24  Br  UNL     1       1.733   2.449  -0.219  1.00  0.00    -0.049 Br
ATOM     25  C   UNL     1      -0.999   0.690   2.321  1.00  0.00     0.048 A 
ENDBRANCH  15  18
ENDBRANCH   9  14
ENDBRANCH   6   8
ENDBRANCH   5   6
ENDBRANCH   4   5
ENDBRANCH   3   4
ENDBRANCH   2   3
ENDBRANCH   1   2
BRANCH   1  26
ATOM     26  C   UNL     1      -4.655  -1.254   8.907  1.00  0.00     0.188 C 
BRANCH  26  27
ATOM     27  O   UNL     1      -5.348  -0.766   7.763  1.00  0.00    -0.376 OA
BRANCH  27  28
ATOM     28  C   UNL     1      -5.471  -1.710   6.686  1.00  0.00     0.202 C 
BRANCH  28  29
ATOM     29  C   UNL     1      -6.024  -3.104   7.051  1.00  0.00     0.261 C 
BRANCH  29  30
ATOM     30  O   UNL     1      -5.200  -3.841   7.981  1.00  0.00    -0.460 OA
BRANCH  30  31
ATOM     31  C   UNL     1      -3.920  -4.089   7.610  1.00  0.00     0.338 C 
ATOM     32  O   UNL     1      -3.470  -3.995   6.482  1.00  0.00    -0.246 OA
BRANCH  31  33
ATOM     33  C   UNL     1      -3.105  -4.225   8.850  1.00  0.00     0.060 A 
ATOM     34  C   UNL     1      -1.859  -3.584   8.908  1.00  0.00     0.016 A 
ATOM     35  C   UNL     1      -3.594  -4.885   9.982  1.00  0.00     0.016 A 
ATOM     36  C   UNL     1      -1.091  -3.625  10.076  1.00  0.00     0.010 A 
ATOM     37  C   UNL     1      -2.814  -4.952  11.143  1.00  0.00     0.010 A 
ATOM     38  C   UNL     1      -1.545  -4.350  11.185  1.00  0.00    -0.014 A 
BRANCH  38  39
ATOM     39  C   UNL     1      -0.599  -4.698  12.275  1.00  0.00     0.031 A 
ATOM     40  C   UNL     1       0.224  -5.947  12.113  1.00  0.00     0.074 A 
ATOM     41  C   UNL     1      -0.453  -3.948  13.381  1.00  0.00     0.049 A 
ATOM     42  N   UNL     1       1.099  -6.483  12.924  1.00  0.00    -0.248 NA
ATOM     43  C   UNL     1       0.030  -6.690  10.857  1.00  0.00     0.031 C 
ATOM     44  C   UNL     1      -1.147  -2.694  13.653  1.00  0.00     0.029 A 
ATOM     45  N   UNL     1       0.336  -4.147  14.490  1.00  0.00    -0.354 N 
ATOM     46  C   UNL     1       1.565  -7.617  12.274  1.00  0.00     0.074 A 
ATOM     47  C   UNL     1       0.855  -7.712  11.018  1.00  0.00     0.031 C 
ATOM     48  C   UNL     1      -0.761  -2.239  14.859  1.00  0.00     0.029 A 
ATOM     49  C   UNL     1       0.186  -3.184  15.455  1.00  0.00     0.049 A 
ATOM     50  H   UNL     1       0.952  -4.910  14.582  1.00  0.00     0.167 HD
ATOM     51  C   UNL     1       2.507  -8.499  12.680  1.00  0.00     0.037 A 
ATOM     52  C   UNL     1       0.735  -3.085  16.684  1.00  0.00     0.037 A 
ATOM     53  C   UNL     1       3.201  -8.430  13.936  1.00  0.00     0.049 A 
ATOM     54  C   UNL     1       1.704  -4.137  17.165  1.00  0.00     0.074 A 
ATOM     55  C   UNL     1       4.184  -9.273  14.423  1.00  0.00     0.029 A 
ATOM     56  N   UNL     1       2.970  -7.475  14.914  1.00  0.00    -0.354 N 
ATOM     57  N   UNL     1       2.166  -5.189  16.533  1.00  0.00    -0.248 NA
ATOM     58  C   UNL     1       2.227  -3.989  18.533  1.00  0.00     0.031 C 
ATOM     59  C   UNL     1       4.503  -8.865  15.721  1.00  0.00     0.029 A 
ATOM     60  C   UNL     1       3.763  -7.732  16.021  1.00  0.00     0.049 A 
ATOM     61  H   UNL     1       2.337  -6.725  14.834  1.00  0.00     0.167 HD
ATOM     62  C   UNL     1       3.042  -5.815  17.413  1.00  0.00     0.074 A 
ATOM     63  C   UNL     1       3.057  -5.020  18.623  1.00  0.00     0.031 C 
ATOM     64  C   UNL     1       3.769  -6.945  17.229  1.00  0.00     0.037 A 
BRANCH  51  65
ATOM     65  C   UNL     1       2.810  -9.643  11.759  1.00  0.00     0.064 A 
ATOM     66  C   UNL     1       3.501  -9.454  10.553  1.00  0.00     0.173 A 
ATOM     67  C   UNL     1       2.412 -10.945  12.094  1.00  0.00     0.173 A 
ATOM     68  F   UNL     1       3.885  -8.223  10.180  1.00  0.00    -0.203 F 
ATOM     69  C   UNL     1       3.757 -10.524   9.701  1.00  0.00     0.198 A 
ATOM     70  C   UNL     1       2.697 -12.017  11.255  1.00  0.00     0.198 A 
ATOM     71  F   UNL     1       1.749 -11.177  13.237  1.00  0.00    -0.203 F 
ATOM     72  F   UNL     1       4.372 -10.314   8.529  1.00  0.00    -0.200 F 
ATOM     73  C   UNL     1       3.361 -11.805  10.056  1.00  0.00     0.200 A 
ATOM     74  F   UNL     1       2.322 -13.256  11.603  1.00  0.00    -0.200 F 
ATOM     75  F   UNL     1       3.611 -12.836   9.236  1.00  0.00    -0.200 F 
ENDBRANCH  51  65
BRANCH  52  76
ATOM     76  C   UNL     1       0.372  -1.935  17.553  1.00  0.00     0.064 A 
ATOM     77  C   UNL     1       1.291  -0.912  17.818  1.00  0.00     0.173 A 
ATOM     78  C   UNL     1      -0.909  -1.826  18.115  1.00  0.00     0.173 A 
ATOM     79  F   UNL     1       2.538  -0.990  17.333  1.00  0.00    -0.203 F 
ATOM     80  C   UNL     1       0.940   0.183  18.606  1.00  0.00     0.198 A 
ATOM     81  C   UNL     1      -1.266  -0.720  18.884  1.00  0.00     0.198 A 
ATOM     82  F   UNL     1      -1.819  -2.788  17.903  1.00  0.00    -0.203 F 
ATOM     83  F   UNL     1       1.844   1.138  18.864  1.00  0.00    -0.200 F 
ATOM     84  C   UNL     1      -0.341   0.284  19.128  1.00  0.00     0.200 A 
ATOM     85  F   UNL     1      -2.505  -0.626  19.383  1.00  0.00    -0.200 F 
ATOM     86  F   UNL     1      -0.683   1.345  19.872  1.00  0.00    -0.200 F 
ENDBRANCH  52  76
BRANCH  64  87
ATOM     87  C   UNL     1       4.657  -7.408  18.349  1.00  0.00     0.064 A 
ATOM     88  C   UNL     1       4.130  -7.989  19.511  1.00  0.00     0.173 A 
ATOM     89  C   UNL     1       6.055  -7.362  18.216  1.00  0.00     0.173 A 
ATOM     90  F   UNL     1       2.802  -8.050  19.693  1.00  0.00    -0.203 F 
ATOM     91  C   UNL     1       4.967  -8.499  20.501  1.00  0.00     0.198 A 
ATOM     92  C   UNL     1       6.888  -7.899  19.195  1.00  0.00     0.198 A 
ATOM     93  F   UNL     1       6.612  -6.827  17.120  1.00  0.00    -0.203 F 
ATOM     94  F   UNL     1       4.440  -9.028  21.615  1.00  0.00    -0.200 F 
ATOM     95  C   UNL     1       6.344  -8.465  20.337  1.00  0.00     0.200 A 
ATOM     96  F   UNL     1       8.217  -7.881  19.025  1.00  0.00    -0.200 F 
ATOM     97  F   UNL     1       7.146  -8.978  21.280  1.00  0.00    -0.200 F 
ENDBRANCH  64  87
ENDBRANCH  38  39
ENDBRANCH  31  33
ENDBRANCH  30  31
ENDBRANCH  29  30
ENDBRANCH  28  29
ENDBRANCH  27  28
ENDBRANCH  26  27
ENDBRANCH   1  26
TORSDOF 19
