REMARK SMILES CC1CCN(C(=O)Nc2nccnc2C(=O)OCCOCCOCCOC(=O)c2ccc(-c3c4nc(c(-c5c(F)c(F)c(F)c(F)c5F)c5ccc([nH]5)c(-c5c(F)c(F)c(F)c(F)c5F)c5nc(c(-c6c(F)c(F)c(F)c(F)c6F)c6ccc3[nH]6)C=C5)C=C4)cc2)CC1
REMARK SMILES IDX 22 1 21 2 20 3 19 4 18 5 17 6 15 7 16 8 14 9 9 10 10 11
REMARK SMILES IDX 11 12 13 13 12 14 8 15 1 16 2 17 3 18 93 19 4 20 92 21 5 22
REMARK SMILES IDX 6 23 7 24 23 26 24 27 25 28 26 29 27 30 28 31 29 32 30 33
REMARK SMILES IDX 91 34 31 35 90 36 32 37 33 38 34 39 84 40 35 41 89 42 83 43
REMARK SMILES IDX 85 44 36 45 88 46 82 47 81 48 37 50 69 51 49 52 68 53 50 54
REMARK SMILES IDX 53 55 67 56 86 57 51 58 52 59 66 61 87 62 54 63 38 64 39 65
REMARK SMILES IDX 47 66 40 67 41 68 45 69 48 70 42 71 43 72 46 73 44 74 70 75
REMARK SMILES IDX 71 76 79 77 72 78 73 79 77 80 80 81 74 82 75 83 78 84 76 85
REMARK SMILES IDX 55 86 56 87 64 88 57 89 58 90 62 91 65 92 59 93 60 94 63 95
REMARK SMILES IDX 61 96
REMARK H PARENT 8 25 85 49 53 60
REMARK Flexibility Score: inf
ROOT
ATOM      1  C   UNL     1       5.509  -2.087   1.115  1.00  0.00     0.188 C 
ENDROOT
BRANCH   1   2
ATOM      2  C   UNL     1       6.385  -3.332   0.870  1.00  0.00     0.188 C 
BRANCH   2   3
ATOM      3  O   UNL     1       7.718  -3.192   0.396  1.00  0.00    -0.376 OA
BRANCH   3   4
ATOM      4  C   UNL     1       8.012  -2.247  -0.626  1.00  0.00     0.202 C 
BRANCH   4   5
ATOM      5  C   UNL     1       7.242  -2.332  -1.952  1.00  0.00     0.261 C 
BRANCH   5   6
ATOM      6  O   UNL     1       5.809  -2.396  -1.805  1.00  0.00    -0.458 OA
BRANCH   6   7
ATOM      7  C   UNL     1       5.226  -3.521  -2.297  1.00  0.00     0.360 C 
ATOM      8  O   UNL     1       5.801  -4.383  -2.946  1.00  0.00    -0.244 OA
BRANCH   7   9
ATOM      9  C   UNL     1       3.804  -3.672  -1.853  1.00  0.00     0.191 A 
ATOM     10  C   UNL     1       2.904  -2.621  -1.605  1.00  0.00     0.167 A 
ATOM     11  N   UNL     1       1.608  -2.915  -1.347  1.00  0.00    -0.235 NA
ATOM     12  C   UNL     1       1.263  -4.215  -1.202  1.00  0.00     0.133 A 
ATOM     13  N   UNL     1       3.450  -4.989  -1.684  1.00  0.00    -0.244 NA
ATOM     14  C   UNL     1       2.176  -5.233  -1.335  1.00  0.00     0.132 A 
BRANCH  10  15
ATOM     15  N   UNL     1       3.312  -1.279  -1.599  1.00  0.00    -0.290 N 
ATOM     16  C   UNL     1      -2.499   0.054  -0.063  1.00  0.00     0.008 C 
ATOM     17  C   UNL     1      -1.052   0.190   0.412  1.00  0.00    -0.011 C 
ATOM     18  C   UNL     1      -0.340   1.323  -0.353  1.00  0.00     0.025 C 
ATOM     19  C   UNL     1      -0.297  -1.143   0.255  1.00  0.00     0.025 C 
ATOM     20  C   UNL     1       1.169   1.358  -0.090  1.00  0.00     0.121 C 
ATOM     21  C   UNL     1       1.183  -0.959   0.601  1.00  0.00     0.121 C 
ATOM     22  N   UNL     1       1.760   0.033  -0.298  1.00  0.00    -0.324 N 
ATOM     23  C   UNL     1       2.767  -0.103  -1.214  1.00  0.00     0.323 C 
ATOM     24  O   UNL     1       3.309   0.896  -1.708  1.00  0.00    -0.248 OA
ATOM     25  H   UNL     1       4.219  -1.165  -1.964  1.00  0.00     0.173 HD
ENDBRANCH  10  15
ENDBRANCH   7   9
ENDBRANCH   6   7
ENDBRANCH   5   6
ENDBRANCH   4   5
ENDBRANCH   3   4
ENDBRANCH   2   3
ENDBRANCH   1   2
BRANCH   1  26
ATOM     26  O   UNL     1       6.149  -0.853   0.857  1.00  0.00    -0.376 OA
BRANCH  26  27
ATOM     27  C   UNL     1       6.348  -0.011   1.986  1.00  0.00     0.202 C 
BRANCH  27  28
ATOM     28  C   UNL     1       7.346  -0.527   3.036  1.00  0.00     0.261 C 
BRANCH  28  29
ATOM     29  O   UNL     1       7.086  -1.849   3.545  1.00  0.00    -0.460 OA
BRANCH  29  30
ATOM     30  C   UNL     1       6.027  -1.993   4.368  1.00  0.00     0.338 C 
ATOM     31  O   UNL     1       5.257  -1.117   4.739  1.00  0.00    -0.246 OA
BRANCH  30  32
ATOM     32  C   UNL     1       5.814  -3.436   4.605  1.00  0.00     0.060 A 
ATOM     33  C   UNL     1       4.586  -4.003   4.239  1.00  0.00     0.016 A 
ATOM     34  C   UNL     1       6.805  -4.222   5.198  1.00  0.00     0.016 A 
ATOM     35  C   UNL     1       4.331  -5.349   4.506  1.00  0.00     0.010 A 
ATOM     36  C   UNL     1       6.541  -5.568   5.482  1.00  0.00     0.010 A 
ATOM     37  C   UNL     1       5.288  -6.127   5.173  1.00  0.00    -0.014 A 
BRANCH  37  38
ATOM     38  C   UNL     1       4.890  -7.446   5.727  1.00  0.00     0.031 A 
ATOM     39  C   UNL     1       4.444  -7.514   7.163  1.00  0.00     0.074 A 
ATOM     40  C   UNL     1       4.872  -8.556   4.969  1.00  0.00     0.049 A 
ATOM     41  N   UNL     1       3.998  -8.533   7.854  1.00  0.00    -0.248 NA
ATOM     42  C   UNL     1       4.508  -6.255   7.922  1.00  0.00     0.031 C 
ATOM     43  C   UNL     1       5.251  -8.624   3.561  1.00  0.00     0.029 A 
ATOM     44  N   UNL     1       4.511  -9.843   5.286  1.00  0.00    -0.354 N 
ATOM     45  C   UNL     1       3.730  -8.039   9.124  1.00  0.00     0.074 A 
ATOM     46  C   UNL     1       4.099  -6.639   9.120  1.00  0.00     0.031 C 
ATOM     47  C   UNL     1       5.096  -9.890   3.131  1.00  0.00     0.029 A 
ATOM     48  C   UNL     1       4.627 -10.722   4.239  1.00  0.00     0.049 A 
ATOM     49  H   UNL     1       4.198 -10.110   6.181  1.00  0.00     0.167 HD
ATOM     50  C   UNL     1       3.212  -8.685  10.196  1.00  0.00     0.037 A 
ATOM     51  C   UNL     1       4.383 -12.046   4.184  1.00  0.00     0.037 A 
ATOM     52  C   UNL     1       2.856 -10.079  10.208  1.00  0.00     0.049 A 
ATOM     53  C   UNL     1       3.869 -12.761   5.409  1.00  0.00     0.074 A 
ATOM     54  C   UNL     1       2.307 -10.823  11.239  1.00  0.00     0.029 A 
ATOM     55  N   UNL     1       3.028 -10.946   9.139  1.00  0.00    -0.354 N 
ATOM     56  N   UNL     1       3.573 -12.277   6.591  1.00  0.00    -0.248 NA
ATOM     57  C   UNL     1       3.646 -14.209   5.283  1.00  0.00     0.031 C 
ATOM     58  C   UNL     1       2.197 -12.151  10.810  1.00  0.00     0.029 A 
ATOM     59  C   UNL     1       2.620 -12.223   9.493  1.00  0.00     0.049 A 
ATOM     60  H   UNL     1       3.387 -10.692   8.258  1.00  0.00     0.167 HD
ATOM     61  C   UNL     1       3.093 -13.349   7.335  1.00  0.00     0.074 A 
ATOM     62  C   UNL     1       3.132 -14.508   6.468  1.00  0.00     0.031 C 
ATOM     63  C   UNL     1       2.652 -13.368   8.618  1.00  0.00     0.037 A 
BRANCH  50  64
ATOM     64  C   UNL     1       3.037  -7.887  11.455  1.00  0.00     0.064 A 
ATOM     65  C   UNL     1       2.071  -6.874  11.560  1.00  0.00     0.173 A 
ATOM     66  C   UNL     1       3.855  -8.131  12.569  1.00  0.00     0.173 A 
ATOM     67  F   UNL     1       1.276  -6.589  10.518  1.00  0.00    -0.203 F 
ATOM     68  C   UNL     1       1.959  -6.108  12.718  1.00  0.00     0.198 A 
ATOM     69  C   UNL     1       3.718  -7.384  13.736  1.00  0.00     0.198 A 
ATOM     70  F   UNL     1       4.792  -9.089  12.524  1.00  0.00    -0.203 F 
ATOM     71  F   UNL     1       1.074  -5.102  12.771  1.00  0.00    -0.200 F 
ATOM     72  C   UNL     1       2.779  -6.366  13.806  1.00  0.00     0.200 A 
ATOM     73  F   UNL     1       4.504  -7.642  14.790  1.00  0.00    -0.200 F 
ATOM     74  F   UNL     1       2.674  -5.625  14.917  1.00  0.00    -0.200 F 
ENDBRANCH  50  64
BRANCH  51  75
ATOM     75  C   UNL     1       4.592 -12.786   2.912  1.00  0.00     0.064 A 
ATOM     76  C   UNL     1       3.504 -13.285   2.182  1.00  0.00     0.173 A 
ATOM     77  C   UNL     1       5.879 -13.022   2.409  1.00  0.00     0.173 A 
ATOM     78  F   UNL     1       2.255 -13.110   2.639  1.00  0.00    -0.203 F 
ATOM     79  C   UNL     1       3.696 -14.002   1.003  1.00  0.00     0.198 A 
ATOM     80  C   UNL     1       6.069 -13.717   1.216  1.00  0.00     0.198 A 
ATOM     81  F   UNL     1       6.953 -12.572   3.074  1.00  0.00    -0.203 F 
ATOM     82  F   UNL     1       2.641 -14.503   0.347  1.00  0.00    -0.200 F 
ATOM     83  C   UNL     1       4.978 -14.212   0.517  1.00  0.00     0.200 A 
ATOM     84  F   UNL     1       7.309 -13.913   0.747  1.00  0.00    -0.200 F 
ATOM     85  F   UNL     1       5.162 -14.898  -0.619  1.00  0.00    -0.200 F 
ENDBRANCH  51  75
BRANCH  63  86
ATOM     86  C   UNL     1       2.123 -14.672   9.149  1.00  0.00     0.064 A 
ATOM     87  C   UNL     1       2.964 -15.762   9.418  1.00  0.00     0.173 A 
ATOM     88  C   UNL     1       0.753 -14.820   9.418  1.00  0.00     0.173 A 
ATOM     89  F   UNL     1       4.279 -15.678   9.168  1.00  0.00    -0.203 F 
ATOM     90  C   UNL     1       2.449 -16.962   9.904  1.00  0.00     0.198 A 
ATOM     91  C   UNL     1       0.246 -16.010   9.934  1.00  0.00     0.198 A 
ATOM     92  F   UNL     1      -0.095 -13.807   9.188  1.00  0.00    -0.203 F 
ATOM     93  F   UNL     1       3.264 -18.008  10.100  1.00  0.00    -0.200 F 
ATOM     94  C   UNL     1       1.093 -17.083  10.167  1.00  0.00     0.200 A 
ATOM     95  F   UNL     1      -1.062 -16.119  10.201  1.00  0.00    -0.200 F 
ATOM     96  F   UNL     1       0.599 -18.237  10.636  1.00  0.00    -0.200 F 
ENDBRANCH  63  86
ENDBRANCH  37  38
ENDBRANCH  30  32
ENDBRANCH  29  30
ENDBRANCH  28  29
ENDBRANCH  27  28
ENDBRANCH  26  27
ENDBRANCH   1  26
TORSDOF 18
