REMARK SMILES Cc1cc(F)cc(N[C@H](C(=O)OCCOCCOCCOC(=O)c2ccc(-c3c4nc(c(-c5c(F)c(F)c(F)c(F)c5F)c5ccc([nH]5)c(-c5c(F)c(F)c(F)c(F)c5F)c5nc(c(-c6c(F)c(F)c(F)c(F)c6F)c6ccc3[nH]6)C=C5)C=C4)cc2)c2cc(Br)cs2)c1
REMARK SMILES IDX 16 1 15 2 14 3 13 4 12 5 10 6 11 7 9 8 8 9 7 11 1 12 2 13
REMARK SMILES IDX 3 14 93 15 4 16 5 17 6 18 87 19 88 20 92 21 89 22 91 23
REMARK SMILES IDX 90 24 17 25 18 26 19 27 20 28 21 29 22 30 23 31 24 32 25 33
REMARK SMILES IDX 86 34 26 35 85 36 27 37 28 38 29 39 79 40 30 41 84 42 78 43
REMARK SMILES IDX 80 44 31 45 83 46 77 47 76 48 32 50 64 51 44 52 63 53 45 54
REMARK SMILES IDX 48 55 62 56 81 57 46 58 47 59 61 61 82 62 49 63 33 64 34 65
REMARK SMILES IDX 42 66 35 67 36 68 40 69 43 70 37 71 38 72 41 73 39 74 65 75
REMARK SMILES IDX 66 76 74 77 67 78 68 79 72 80 75 81 69 82 70 83 73 84 71 85
REMARK SMILES IDX 50 86 51 87 59 88 52 89 53 90 57 91 60 92 54 93 55 94 58 95
REMARK SMILES IDX 56 96
REMARK H PARENT 8 10 80 49 48 60
REMARK Flexibility Score: inf
ROOT
ATOM      1  C   UNL     1       0.627  -1.516   0.063  1.00  0.00     0.188 C 
ENDROOT
BRANCH   1   2
ATOM      2  O   UNL     1       1.986  -1.275   0.393  1.00  0.00    -0.376 OA
BRANCH   2   3
ATOM      3  C   UNL     1       3.004  -1.991  -0.297  1.00  0.00     0.202 C 
BRANCH   3   4
ATOM      4  C   UNL     1       2.932  -3.527  -0.394  1.00  0.00     0.261 C 
BRANCH   4   5
ATOM      5  O   UNL     1       1.611  -4.070  -0.532  1.00  0.00    -0.461 OA
BRANCH   5   6
ATOM      6  C   UNL     1       1.046  -4.540   0.623  1.00  0.00     0.334 C 
ATOM      7  O   UNL     1       1.634  -4.560   1.700  1.00  0.00    -0.249 OA
BRANCH   6   8
ATOM      8  C   UNL     1      -0.465  -4.904   0.399  1.00  0.00     0.231 C 
BRANCH   8   9
ATOM      9  N   UNL     1      -0.645  -5.713  -0.814  1.00  0.00    -0.368 N 
ATOM     10  H   UNL     1      -1.256  -5.375  -1.508  1.00  0.00     0.161 HD
BRANCH   9  11
ATOM     11  C   UNL     1      -0.009  -6.921  -1.040  1.00  0.00     0.038 A 
ATOM     12  C   UNL     1      -0.026  -9.602  -3.762  1.00  0.00     0.044 C 
ATOM     13  C   UNL     1       0.286  -8.868  -2.495  1.00  0.00    -0.046 A 
ATOM     14  C   UNL     1       1.097  -9.466  -1.528  1.00  0.00     0.042 A 
ATOM     15  C   UNL     1      -0.266  -7.603  -2.238  1.00  0.00     0.029 A 
ATOM     16  C   UNL     1       1.348  -8.803  -0.340  1.00  0.00     0.125 A 
ATOM     17  F   UNL     1       2.114  -9.377   0.596  1.00  0.00    -0.207 F 
ATOM     18  C   UNL     1       0.802  -7.553  -0.092  1.00  0.00     0.065 A 
ENDBRANCH   9  11
ENDBRANCH   8   9
BRANCH   8  19
ATOM     19  C   UNL     1      -1.069  -5.401   1.707  1.00  0.00     0.039 A 
ATOM     20  C   UNL     1      -0.966  -4.807   2.958  1.00  0.00     0.033 A 
ATOM     21  S   UNL     1      -2.019  -6.832   1.805  1.00  0.00    -0.145 S 
ATOM     22  C   UNL     1      -1.386  -5.682   3.985  1.00  0.00     0.029 A 
ATOM     23  C   UNL     1      -1.944  -6.840   3.512  1.00  0.00     0.080 A 
ATOM     24  Br  UNL     1      -1.115  -5.278   5.805  1.00  0.00    -0.050 Br
ENDBRANCH   8  19
ENDBRANCH   6   8
ENDBRANCH   5   6
ENDBRANCH   4   5
ENDBRANCH   3   4
ENDBRANCH   2   3
ENDBRANCH   1   2
BRANCH   1  25
ATOM     25  C   UNL     1       0.166  -1.644  -1.415  1.00  0.00     0.188 C 
BRANCH  25  26
ATOM     26  O   UNL     1       1.216  -1.937  -2.325  1.00  0.00    -0.376 OA
BRANCH  26  27
ATOM     27  C   UNL     1       1.403  -1.046  -3.420  1.00  0.00     0.202 C 
BRANCH  27  28
ATOM     28  C   UNL     1       1.916   0.372  -3.120  1.00  0.00     0.261 C 
BRANCH  28  29
ATOM     29  O   UNL     1       1.625   0.814  -1.800  1.00  0.00    -0.460 OA
BRANCH  29  30
ATOM     30  C   UNL     1       0.433   1.391  -1.688  1.00  0.00     0.338 C 
ATOM     31  O   UNL     1      -0.370   1.666  -2.596  1.00  0.00    -0.246 OA
BRANCH  30  32
ATOM     32  C   UNL     1       0.119   1.626  -0.285  1.00  0.00     0.060 A 
ATOM     33  C   UNL     1      -1.234   1.400   0.043  1.00  0.00     0.016 A 
ATOM     34  C   UNL     1       0.888   2.637   0.277  1.00  0.00     0.016 A 
ATOM     35  C   UNL     1      -1.941   2.435   0.580  1.00  0.00     0.010 A 
ATOM     36  C   UNL     1       0.177   3.693   0.760  1.00  0.00     0.010 A 
ATOM     37  C   UNL     1      -1.227   3.607   0.757  1.00  0.00    -0.014 A 
BRANCH  37  38
ATOM     38  C   UNL     1      -1.892   4.876   0.715  1.00  0.00     0.031 A 
ATOM     39  C   UNL     1      -2.196   5.499   1.989  1.00  0.00     0.074 A 
ATOM     40  C   UNL     1      -2.049   5.445  -0.497  1.00  0.00     0.049 A 
ATOM     41  N   UNL     1      -3.059   6.431   2.139  1.00  0.00    -0.248 NA
ATOM     42  C   UNL     1      -1.602   5.037   3.238  1.00  0.00     0.031 C 
ATOM     43  C   UNL     1      -2.302   6.843  -0.803  1.00  0.00     0.029 A 
ATOM     44  N   UNL     1      -2.181   4.780  -1.727  1.00  0.00    -0.354 N 
ATOM     45  C   UNL     1      -2.850   6.949   3.392  1.00  0.00     0.074 A 
ATOM     46  C   UNL     1      -2.073   5.952   4.085  1.00  0.00     0.031 C 
ATOM     47  C   UNL     1      -2.791   6.929  -2.051  1.00  0.00     0.029 A 
ATOM     48  C   UNL     1      -3.042   5.572  -2.509  1.00  0.00     0.049 A 
ATOM     49  H   UNL     1      -1.757   3.931  -1.989  1.00  0.00     0.167 HD
ATOM     50  C   UNL     1      -3.183   8.256   3.586  1.00  0.00     0.037 A 
ATOM     51  C   UNL     1      -4.279   5.101  -2.842  1.00  0.00     0.037 A 
ATOM     52  C   UNL     1      -3.849   8.788   2.388  1.00  0.00     0.049 A 
ATOM     53  C   UNL     1      -5.409   5.911  -2.242  1.00  0.00     0.074 A 
ATOM     54  C   UNL     1      -3.426   9.595   1.342  1.00  0.00     0.029 A 
ATOM     55  N   UNL     1      -5.023   8.182   1.943  1.00  0.00    -0.354 N 
ATOM     56  N   UNL     1      -5.311   6.669  -1.182  1.00  0.00    -0.248 NA
ATOM     57  C   UNL     1      -6.742   5.939  -2.821  1.00  0.00     0.031 C 
ATOM     58  C   UNL     1      -4.374   9.497   0.286  1.00  0.00     0.029 A 
ATOM     59  C   UNL     1      -5.377   8.632   0.686  1.00  0.00     0.049 A 
ATOM     60  H   UNL     1      -5.534   7.518   2.459  1.00  0.00     0.167 HD
ATOM     61  C   UNL     1      -6.505   7.319  -0.950  1.00  0.00     0.074 A 
ATOM     62  C   UNL     1      -7.365   6.806  -2.004  1.00  0.00     0.031 C 
ATOM     63  C   UNL     1      -6.644   8.217   0.084  1.00  0.00     0.037 A 
BRANCH  50  64
ATOM     64  C   UNL     1      -2.597   9.111   4.690  1.00  0.00     0.064 A 
ATOM     65  C   UNL     1      -2.501  10.510   4.534  1.00  0.00     0.173 A 
ATOM     66  C   UNL     1      -2.048   8.624   5.894  1.00  0.00     0.173 A 
ATOM     67  F   UNL     1      -3.074  11.141   3.502  1.00  0.00    -0.203 F 
ATOM     68  C   UNL     1      -1.812  11.324   5.438  1.00  0.00     0.198 A 
ATOM     69  C   UNL     1      -1.316   9.428   6.773  1.00  0.00     0.198 A 
ATOM     70  F   UNL     1      -2.253   7.370   6.306  1.00  0.00    -0.203 F 
ATOM     71  F   UNL     1      -1.748  12.646   5.223  1.00  0.00    -0.200 F 
ATOM     72  C   UNL     1      -1.189  10.779   6.540  1.00  0.00     0.200 A 
ATOM     73  F   UNL     1      -0.745   8.878   7.855  1.00  0.00    -0.200 F 
ATOM     74  F   UNL     1      -0.502  11.553   7.389  1.00  0.00    -0.200 F 
ENDBRANCH  50  64
BRANCH  51  75
ATOM     75  C   UNL     1      -4.301   3.636  -3.117  1.00  0.00     0.064 A 
ATOM     76  C   UNL     1      -3.588   3.152  -4.235  1.00  0.00     0.173 A 
ATOM     77  C   UNL     1      -4.671   2.703  -2.142  1.00  0.00     0.173 A 
ATOM     78  F   UNL     1      -3.216   4.000  -5.208  1.00  0.00    -0.203 F 
ATOM     79  C   UNL     1      -3.177   1.822  -4.322  1.00  0.00     0.198 A 
ATOM     80  C   UNL     1      -4.256   1.370  -2.232  1.00  0.00     0.198 A 
ATOM     81  F   UNL     1      -5.349   3.091  -1.053  1.00  0.00    -0.203 F 
ATOM     82  F   UNL     1      -2.434   1.413  -5.361  1.00  0.00    -0.200 F 
ATOM     83  C   UNL     1      -3.486   0.938  -3.303  1.00  0.00     0.200 A 
ATOM     84  F   UNL     1      -4.537   0.514  -1.238  1.00  0.00    -0.200 F 
ATOM     85  F   UNL     1      -3.020  -0.321  -3.333  1.00  0.00    -0.200 F 
ENDBRANCH  51  75
BRANCH  63  86
ATOM     86  C   UNL     1      -7.910   8.888   0.644  1.00  0.00     0.064 A 
ATOM     87  C   UNL     1      -9.206   8.785   0.121  1.00  0.00     0.173 A 
ATOM     88  C   UNL     1      -7.841   9.677   1.834  1.00  0.00     0.173 A 
ATOM     89  F   UNL     1      -9.478   8.095  -0.984  1.00  0.00    -0.203 F 
ATOM     90  C   UNL     1     -10.319   9.397   0.720  1.00  0.00     0.198 A 
ATOM     91  C   UNL     1      -8.952  10.262   2.443  1.00  0.00     0.198 A 
ATOM     92  F   UNL     1      -6.694   9.916   2.481  1.00  0.00    -0.203 F 
ATOM     93  F   UNL     1     -11.525   9.262   0.152  1.00  0.00    -0.200 F 
ATOM     94  C   UNL     1     -10.195  10.126   1.883  1.00  0.00     0.200 A 
ATOM     95  F   UNL     1      -8.797  10.948   3.585  1.00  0.00    -0.200 F 
ATOM     96  F   UNL     1     -11.265  10.687   2.459  1.00  0.00    -0.200 F 
ENDBRANCH  63  86
ENDBRANCH  37  38
ENDBRANCH  30  32
ENDBRANCH  29  30
ENDBRANCH  28  29
ENDBRANCH  27  28
ENDBRANCH  26  27
ENDBRANCH  25  26
ENDBRANCH   1  25
TORSDOF 20
