REMARK SMILES O=C(OCCOCCOCCOC(=O)[C@@H]1Cc2[nH]cnc2CN1C(=O)c1csc(-c2cccs2)n1)c1ccc(-c2c3nc(c(-c4c(F)c(F)c(F)c(F)c4F)c4ccc([nH]4)c(-c4c(F)c(F)c(F)c(F)c4F)c4nc(c(-c5c(F)c(F)c(F)c(F)c5F)c5ccc2[nH]5)C=C4)C=C3)cc1
REMARK SMILES IDX 8 1 7 2 6 3 5 4 4 5 3 6 2 7 1 8 36 9 37 10 98 11 38 12 97 13
REMARK SMILES IDX 39 14 40 15 41 16 91 17 42 18 96 19 90 20 92 21 43 22 95 23
REMARK SMILES IDX 89 24 88 25 44 27 76 28 56 29 75 30 57 31 60 32 74 33 93 34
REMARK SMILES IDX 58 35 59 36 73 38 94 39 61 40 45 41 46 42 54 43 47 44 48 45
REMARK SMILES IDX 52 46 55 47 49 48 50 49 53 50 51 51 77 52 78 53 86 54 79 55
REMARK SMILES IDX 80 56 84 57 87 58 81 59 82 60 85 61 83 62 62 63 63 64 71 65
REMARK SMILES IDX 64 66 65 67 69 68 72 69 66 70 67 71 70 72 68 73 9 74 10 75
REMARK SMILES IDX 11 76 12 77 13 78 14 79 15 80 16 81 23 82 17 83 22 84 18 85
REMARK SMILES IDX 21 86 19 87 20 89 24 90 25 91 26 92 27 93 35 94 28 95 29 96
REMARK SMILES IDX 30 97 31 98 34 99 32 100 33 101
REMARK H PARENT 92 26 60 37 18 88
REMARK Flexibility Score: inf
ROOT
ATOM      1  C   UNL     1      -0.615  -3.155  -1.558  1.00  0.00     0.188 C 
ENDROOT
BRANCH   1   2
ATOM      2  C   UNL     1       0.126  -4.459  -1.916  1.00  0.00     0.188 C 
BRANCH   2   3
ATOM      3  O   UNL     1      -0.696  -5.370  -2.627  1.00  0.00    -0.376 OA
BRANCH   3   4
ATOM      4  C   UNL     1      -1.114  -6.566  -1.997  1.00  0.00     0.202 C 
BRANCH   4   5
ATOM      5  C   UNL     1      -1.916  -6.492  -0.691  1.00  0.00     0.261 C 
BRANCH   5   6
ATOM      6  O   UNL     1      -1.650  -5.379   0.177  1.00  0.00    -0.460 OA
BRANCH   6   7
ATOM      7  C   UNL     1      -0.753  -5.098   1.136  1.00  0.00     0.338 C 
ATOM      8  O   UNL     1      -0.875  -4.035   1.744  1.00  0.00    -0.246 OA
BRANCH   7   9
ATOM      9  C   UNL     1       0.435  -5.933   1.453  1.00  0.00     0.060 A 
ATOM     10  C   UNL     1       0.651  -7.243   1.033  1.00  0.00     0.016 A 
ATOM     11  C   UNL     1       1.392  -5.329   2.297  1.00  0.00     0.016 A 
ATOM     12  C   UNL     1       1.718  -7.973   1.551  1.00  0.00     0.010 A 
ATOM     13  C   UNL     1       2.466  -6.050   2.804  1.00  0.00     0.010 A 
ATOM     14  C   UNL     1       2.585  -7.396   2.485  1.00  0.00    -0.014 A 
BRANCH  14  15
ATOM     15  C   UNL     1       3.576  -8.262   3.115  1.00  0.00     0.031 A 
ATOM     16  C   UNL     1       4.592  -8.889   2.229  1.00  0.00     0.074 A 
ATOM     17  C   UNL     1       3.649  -8.465   4.444  1.00  0.00     0.049 A 
ATOM     18  N   UNL     1       4.781 -10.145   1.972  1.00  0.00    -0.248 NA
ATOM     19  C   UNL     1       5.487  -7.986   1.503  1.00  0.00     0.031 C 
ATOM     20  C   UNL     1       2.954  -7.757   5.520  1.00  0.00     0.029 A 
ATOM     21  N   UNL     1       4.454  -9.340   5.112  1.00  0.00    -0.354 N 
ATOM     22  C   UNL     1       5.912 -10.201   1.160  1.00  0.00     0.074 A 
ATOM     23  C   UNL     1       6.230  -8.845   0.807  1.00  0.00     0.031 C 
ATOM     24  C   UNL     1       3.509  -8.098   6.705  1.00  0.00     0.029 A 
ATOM     25  C   UNL     1       4.497  -9.140   6.481  1.00  0.00     0.049 A 
ATOM     26  H   UNL     1       4.961 -10.052   4.660  1.00  0.00     0.167 HD
ATOM     27  C   UNL     1       6.631 -11.342   0.971  1.00  0.00     0.037 A 
ATOM     28  C   UNL     1       5.323  -9.755   7.360  1.00  0.00     0.037 A 
ATOM     29  C   UNL     1       5.874 -12.515   1.297  1.00  0.00     0.049 A 
ATOM     30  C   UNL     1       5.821 -11.002   6.728  1.00  0.00     0.074 A 
ATOM     31  C   UNL     1       4.681 -13.048   0.848  1.00  0.00     0.029 A 
ATOM     32  N   UNL     1       6.159 -13.190   2.457  1.00  0.00    -0.354 N 
ATOM     33  N   UNL     1       5.093 -12.063   6.519  1.00  0.00    -0.248 NA
ATOM     34  C   UNL     1       7.063 -10.940   5.973  1.00  0.00     0.031 C 
ATOM     35  C   UNL     1       4.072 -13.607   2.009  1.00  0.00     0.029 A 
ATOM     36  C   UNL     1       4.954 -13.410   3.072  1.00  0.00     0.049 A 
ATOM     37  H   UNL     1       7.048 -13.460   2.782  1.00  0.00     0.167 HD
ATOM     38  C   UNL     1       5.564 -12.584   5.324  1.00  0.00     0.074 A 
ATOM     39  C   UNL     1       6.843 -11.922   5.096  1.00  0.00     0.031 C 
ATOM     40  C   UNL     1       4.750 -13.299   4.495  1.00  0.00     0.037 A 
BRANCH  27  41
ATOM     41  C   UNL     1       8.125 -11.376   0.769  1.00  0.00     0.064 A 
ATOM     42  C   UNL     1       8.745 -12.565   0.336  1.00  0.00     0.173 A 
ATOM     43  C   UNL     1       8.992 -10.380   1.267  1.00  0.00     0.173 A 
ATOM     44  F   UNL     1       8.010 -13.590  -0.122  1.00  0.00    -0.203 F 
ATOM     45  C   UNL     1      10.124 -12.762   0.451  1.00  0.00     0.198 A 
ATOM     46  C   UNL     1      10.374 -10.559   1.329  1.00  0.00     0.198 A 
ATOM     47  F   UNL     1       8.528  -9.250   1.816  1.00  0.00    -0.203 F 
ATOM     48  F   UNL     1      10.654 -13.953   0.141  1.00  0.00    -0.200 F 
ATOM     49  C   UNL     1      10.936 -11.760   0.950  1.00  0.00     0.200 A 
ATOM     50  F   UNL     1      11.143  -9.586   1.839  1.00  0.00    -0.200 F 
ATOM     51  F   UNL     1      12.248 -11.970   1.119  1.00  0.00    -0.200 F 
ENDBRANCH  27  41
BRANCH  28  52
ATOM     52  C   UNL     1       5.876  -9.234   8.627  1.00  0.00     0.064 A 
ATOM     53  C   UNL     1       6.414 -10.097   9.594  1.00  0.00     0.173 A 
ATOM     54  C   UNL     1       6.127  -7.859   8.802  1.00  0.00     0.173 A 
ATOM     55  F   UNL     1       6.258 -11.424   9.477  1.00  0.00    -0.203 F 
ATOM     56  C   UNL     1       7.179  -9.615  10.660  1.00  0.00     0.198 A 
ATOM     57  C   UNL     1       6.879  -7.378   9.873  1.00  0.00     0.198 A 
ATOM     58  F   UNL     1       5.726  -6.964   7.887  1.00  0.00    -0.203 F 
ATOM     59  F   UNL     1       7.731 -10.474  11.528  1.00  0.00    -0.200 F 
ATOM     60  C   UNL     1       7.418  -8.257  10.793  1.00  0.00     0.200 A 
ATOM     61  F   UNL     1       7.130  -6.065   9.971  1.00  0.00    -0.200 F 
ATOM     62  F   UNL     1       8.198  -7.800  11.782  1.00  0.00    -0.200 F 
ENDBRANCH  28  52
BRANCH  40  63
ATOM     63  C   UNL     1       3.421 -13.757   5.023  1.00  0.00     0.064 A 
ATOM     64  C   UNL     1       2.418 -12.884   5.477  1.00  0.00     0.173 A 
ATOM     65  C   UNL     1       3.097 -15.117   4.919  1.00  0.00     0.173 A 
ATOM     66  F   UNL     1       2.608 -11.558   5.491  1.00  0.00    -0.203 F 
ATOM     67  C   UNL     1       1.167 -13.363   5.862  1.00  0.00     0.198 A 
ATOM     68  C   UNL     1       1.833 -15.586   5.264  1.00  0.00     0.198 A 
ATOM     69  F   UNL     1       3.994 -15.989   4.430  1.00  0.00    -0.203 F 
ATOM     70  F   UNL     1       0.230 -12.512   6.306  1.00  0.00    -0.200 F 
ATOM     71  C   UNL     1       0.874 -14.712   5.748  1.00  0.00     0.200 A 
ATOM     72  F   UNL     1       1.534 -16.882   5.097  1.00  0.00    -0.200 F 
ATOM     73  F   UNL     1      -0.345 -15.165   6.074  1.00  0.00    -0.200 F 
ENDBRANCH  40  63
ENDBRANCH  14  15
ENDBRANCH   7   9
ENDBRANCH   6   7
ENDBRANCH   5   6
ENDBRANCH   4   5
ENDBRANCH   3   4
ENDBRANCH   2   3
ENDBRANCH   1   2
BRANCH   1  74
ATOM     74  O   UNL     1      -1.141  -2.363  -2.621  1.00  0.00    -0.376 OA
BRANCH  74  75
ATOM     75  C   UNL     1      -1.798  -3.037  -3.684  1.00  0.00     0.202 C 
BRANCH  75  76
ATOM     76  C   UNL     1      -0.926  -3.053  -4.948  1.00  0.00     0.261 C 
BRANCH  76  77
ATOM     77  O   UNL     1       0.475  -3.305  -4.708  1.00  0.00    -0.462 OA
BRANCH  77  78
ATOM     78  C   UNL     1       1.206  -2.223  -4.303  1.00  0.00     0.329 C 
ATOM     79  O   UNL     1       0.739  -1.111  -4.074  1.00  0.00    -0.250 OA
BRANCH  78  80
ATOM     80  C   UNL     1       2.704  -2.565  -4.058  1.00  0.00     0.201 C 
ATOM     81  C   UNL     1       3.515  -1.275  -4.362  1.00  0.00     0.093 C 
ATOM     82  N   UNL     1       3.266  -3.686  -4.889  1.00  0.00    -0.317 N 
ATOM     83  C   UNL     1       3.410  -1.086  -5.832  1.00  0.00     0.042 A 
ATOM     84  C   UNL     1       3.071  -3.559  -6.358  1.00  0.00     0.179 C 
ATOM     85  N   UNL     1       3.238   0.074  -6.521  1.00  0.00    -0.348 N 
ATOM     86  C   UNL     1       3.192  -2.108  -6.735  1.00  0.00     0.081 A 
ATOM     87  C   UNL     1       2.925  -0.283  -7.807  1.00  0.00     0.197 A 
ATOM     88  H   UNL     1       3.322   0.989  -6.167  1.00  0.00     0.167 HD
ATOM     89  N   UNL     1       2.898  -1.591  -7.967  1.00  0.00    -0.240 NA
BRANCH  82  90
ATOM     90  C   UNL     1       4.224  -4.614  -4.467  1.00  0.00     0.274 C 
ATOM     91  O   UNL     1       4.710  -5.440  -5.234  1.00  0.00    -0.267 OA
BRANCH  90  92
ATOM     92  C   UNL     1       4.655  -4.601  -3.062  1.00  0.00     0.140 A 
ATOM     93  C   UNL     1       3.873  -5.053  -2.016  1.00  0.00     0.101 A 
ATOM     94  N   UNL     1       5.970  -4.279  -2.694  1.00  0.00    -0.230 NA
ATOM     95  S   UNL     1       4.745  -4.988  -0.550  1.00  0.00    -0.121 S 
ATOM     96  C   UNL     1       6.164  -4.548  -1.419  1.00  0.00     0.134 A 
BRANCH  96  97
ATOM     97  C   UNL     1       7.450  -4.491  -0.772  1.00  0.00     0.063 A 
ATOM     98  C   UNL     1       8.278  -3.397  -0.602  1.00  0.00     0.023 A 
ATOM     99  S   UNL     1       8.166  -5.902  -0.106  1.00  0.00    -0.141 S 
ATOM    100  C   UNL     1       9.449  -3.709   0.160  1.00  0.00     0.012 A 
ATOM    101  C   UNL     1       9.503  -5.040   0.506  1.00  0.00     0.065 A 
ENDBRANCH  96  97
ENDBRANCH  90  92
ENDBRANCH  82  90
ENDBRANCH  78  80
ENDBRANCH  77  78
ENDBRANCH  76  77
ENDBRANCH  75  76
ENDBRANCH  74  75
ENDBRANCH   1  74
TORSDOF 20
