REMARK SMILES Cc1ccccc1[C@@H]1[NH2+][C@@H](C(=O)OCCOCCOCCOC(=O)c2ccc(-c3c4nc(c(-c5c(F)c(F)c(F)c(F)c5F)c5ccc([nH]5)c(-c5c(F)c(F)c(F)c(F)c5F)c5nc(c(-c6c(F)c(F)c(F)c(F)c6F)c6ccc3[nH]6)C=C5)C=C4)cc2)CC2=c3ccccc3=N[C@H]21
REMARK SMILES IDX 18 1 17 2 16 3 15 4 14 5 13 6 11 7 12 8 10 9 8 10 9 11 97 12
REMARK SMILES IDX 89 15 96 16 88 17 90 18 95 19 91 20 94 21 92 22 93 23 7 24
REMARK SMILES IDX 1 25 2 26 3 27 4 28 6 29 5 30 19 31 20 32 21 33 22 34 23 35
REMARK SMILES IDX 24 36 25 37 26 38 87 39 27 40 86 41 28 42 29 43 30 44 80 45
REMARK SMILES IDX 31 46 85 47 79 48 81 49 32 50 84 51 78 52 77 53 33 55 65 56
REMARK SMILES IDX 45 57 64 58 46 59 49 60 63 61 82 62 47 63 48 64 62 66 83 67
REMARK SMILES IDX 50 68 34 69 35 70 43 71 36 72 37 73 41 74 44 75 38 76 39 77
REMARK SMILES IDX 42 78 40 79 66 80 67 81 75 82 68 83 69 84 73 85 76 86 70 87
REMARK SMILES IDX 71 88 74 89 72 90 51 91 52 92 60 93 53 94 54 95 58 96 61 97
REMARK SMILES IDX 55 98 56 99 59 100 57 101
REMARK H PARENT 9 13 9 14 81 54 49 65
REMARK Flexibility Score: inf
ROOT
ATOM      1  C   UNL     1      -2.331   7.732  -4.916  1.00  0.00     0.188 C 
ENDROOT
BRANCH   1   2
ATOM      2  C   UNL     1      -3.414   6.667  -4.660  1.00  0.00     0.188 C 
BRANCH   2   3
ATOM      3  O   UNL     1      -4.306   6.652  -3.518  1.00  0.00    -0.376 OA
BRANCH   3   4
ATOM      4  C   UNL     1      -4.245   7.563  -2.394  1.00  0.00     0.202 C 
BRANCH   4   5
ATOM      5  C   UNL     1      -4.014   7.037  -0.800  1.00  0.00     0.261 C 
BRANCH   5   6
ATOM      6  O   UNL     1      -2.643   6.483  -0.123  1.00  0.00    -0.459 OA
BRANCH   6   7
ATOM      7  C   UNL     1      -2.150   5.208   0.248  1.00  0.00     0.365 C 
ATOM      8  O   UNL     1      -2.702   4.106   0.183  1.00  0.00    -0.245 OA
BRANCH   7   9
ATOM      9  C   UNL     1      -0.726   5.057   0.756  1.00  0.00     0.298 C 
ATOM     10  C   UNL     1       0.597   2.810   1.121  1.00  0.00     0.243 C 
ATOM     11  N   UNL     1      -0.190   3.718   0.229  1.00  0.00    -0.326 N 
ATOM     12  C   UNL     1       0.712   3.228   2.620  1.00  0.00     0.196 C 
ATOM     13  H   UNL     1      -0.998   3.184  -0.090  1.00  0.00     0.347 HD
ATOM     14  H   UNL     1       0.497   4.004  -0.469  1.00  0.00     0.347 HD
ATOM     15  C   UNL     1      -0.574   3.912   2.977  1.00  0.00    -0.024 C 
ATOM     16  N   UNL     1       0.769   2.044   3.534  1.00  0.00    -0.270 NA
ATOM     17  C   UNL     1      -0.841   5.192   2.274  1.00  0.00     0.111 C 
ATOM     18  C   UNL     1      -1.321   3.147   3.764  1.00  0.00     0.002 A 
ATOM     19  C   UNL     1      -0.385   2.071   4.131  1.00  0.00     0.066 A 
ATOM     20  C   UNL     1      -2.676   3.148   4.208  1.00  0.00     0.010 A 
ATOM     21  C   UNL     1      -0.851   1.138   5.181  1.00  0.00     0.028 A 
ATOM     22  C   UNL     1      -3.066   2.196   5.072  1.00  0.00     0.001 A 
ATOM     23  C   UNL     1      -2.120   1.232   5.613  1.00  0.00     0.002 A 
BRANCH  10  24
ATOM     24  C   UNL     1       1.957   2.432   0.510  1.00  0.00     0.015 A 
ATOM     25  C   UNL     1       2.754   4.859   0.230  1.00  0.00     0.045 C 
ATOM     26  C   UNL     1       2.940   3.375   0.141  1.00  0.00    -0.042 A 
ATOM     27  C   UNL     1       4.205   2.933  -0.291  1.00  0.00     0.004 A 
ATOM     28  C   UNL     1       4.501   1.580  -0.410  1.00  0.00     0.000 A 
ATOM     29  C   UNL     1       2.272   1.060   0.351  1.00  0.00     0.010 A 
ATOM     30  C   UNL     1       3.527   0.640  -0.106  1.00  0.00     0.001 A 
ENDBRANCH  10  24
ENDBRANCH   7   9
ENDBRANCH   6   7
ENDBRANCH   5   6
ENDBRANCH   4   5
ENDBRANCH   3   4
ENDBRANCH   2   3
ENDBRANCH   1   2
BRANCH   1  31
ATOM     31  O   UNL     1      -1.751   8.183  -3.708  1.00  0.00    -0.376 OA
BRANCH  31  32
ATOM     32  C   UNL     1      -0.634   9.057  -3.824  1.00  0.00     0.202 C 
BRANCH  32  33
ATOM     33  C   UNL     1       0.697   8.365  -4.216  1.00  0.00     0.261 C 
BRANCH  33  34
ATOM     34  O   UNL     1       1.067   7.324  -3.269  1.00  0.00    -0.460 OA
BRANCH  34  35
ATOM     35  C   UNL     1       1.183   6.023  -3.741  1.00  0.00     0.338 C 
ATOM     36  O   UNL     1       1.945   5.680  -4.598  1.00  0.00    -0.246 OA
BRANCH  35  37
ATOM     37  C   UNL     1       0.090   5.161  -3.133  1.00  0.00     0.060 A 
ATOM     38  C   UNL     1      -0.237   3.809  -3.339  1.00  0.00     0.016 A 
ATOM     39  C   UNL     1      -0.854   5.851  -2.463  1.00  0.00     0.016 A 
ATOM     40  C   UNL     1      -1.537   3.235  -2.905  1.00  0.00     0.010 A 
ATOM     41  C   UNL     1      -2.123   5.301  -2.338  1.00  0.00     0.010 A 
ATOM     42  C   UNL     1      -2.582   4.008  -2.391  1.00  0.00    -0.014 A 
BRANCH  42  43
ATOM     43  C   UNL     1      -4.128   3.790  -2.095  1.00  0.00     0.031 A 
ATOM     44  C   UNL     1      -5.122   3.909  -0.766  1.00  0.00     0.074 A 
ATOM     45  C   UNL     1      -4.831   3.698  -3.249  1.00  0.00     0.049 A 
ATOM     46  N   UNL     1      -6.358   3.429  -0.762  1.00  0.00    -0.248 NA
ATOM     47  C   UNL     1      -4.939   4.476   0.611  1.00  0.00     0.031 C 
ATOM     48  C   UNL     1      -6.262   3.893  -3.468  1.00  0.00     0.029 A 
ATOM     49  N   UNL     1      -4.361   3.255  -4.496  1.00  0.00    -0.354 N 
ATOM     50  C   UNL     1      -7.041   3.844   0.393  1.00  0.00     0.074 A 
ATOM     51  C   UNL     1      -6.049   4.252   1.291  1.00  0.00     0.031 C 
ATOM     52  C   UNL     1      -6.612   3.266  -4.599  1.00  0.00     0.029 A 
ATOM     53  C   UNL     1      -5.441   2.556  -5.067  1.00  0.00     0.049 A 
ATOM     54  H   UNL     1      -3.469   3.401  -4.886  1.00  0.00     0.167 HD
ATOM     55  C   UNL     1      -8.397   3.963   0.476  1.00  0.00     0.037 A 
ATOM     56  C   UNL     1      -5.351   1.223  -5.327  1.00  0.00     0.037 A 
ATOM     57  C   UNL     1      -8.991   3.276  -0.643  1.00  0.00     0.049 A 
ATOM     58  C   UNL     1      -6.438   0.399  -4.687  1.00  0.00     0.074 A 
ATOM     59  C   UNL     1      -9.663   3.664  -1.783  1.00  0.00     0.029 A 
ATOM     60  N   UNL     1      -8.690   1.933  -0.786  1.00  0.00    -0.354 N 
ATOM     61  N   UNL     1      -7.264   0.854  -3.787  1.00  0.00    -0.248 NA
ATOM     62  C   UNL     1      -6.679  -1.005  -4.991  1.00  0.00     0.031 C 
ATOM     63  C   UNL     1      -9.744   2.528  -2.634  1.00  0.00     0.029 A 
ATOM     64  C   UNL     1      -9.149   1.457  -1.987  1.00  0.00     0.049 A 
ATOM     65  H   UNL     1      -8.210   1.393  -0.117  1.00  0.00     0.167 HD
ATOM     66  C   UNL     1      -8.078  -0.157  -3.340  1.00  0.00     0.074 A 
ATOM     67  C   UNL     1      -7.701  -1.288  -4.162  1.00  0.00     0.031 C 
ATOM     68  C   UNL     1      -8.948   0.052  -2.304  1.00  0.00     0.037 A 
BRANCH  55  69
ATOM     69  C   UNL     1      -9.220   4.788   1.494  1.00  0.00     0.064 A 
ATOM     70  C   UNL     1     -10.630   4.863   1.357  1.00  0.00     0.173 A 
ATOM     71  C   UNL     1      -8.727   5.603   2.546  1.00  0.00     0.173 A 
ATOM     72  F   UNL     1     -11.276   4.147   0.429  1.00  0.00    -0.203 F 
ATOM     73  C   UNL     1     -11.443   5.691   2.151  1.00  0.00     0.198 A 
ATOM     74  C   UNL     1      -9.546   6.395   3.369  1.00  0.00     0.198 A 
ATOM     75  F   UNL     1      -7.430   5.734   2.824  1.00  0.00    -0.203 F 
ATOM     76  F   UNL     1     -12.761   5.755   1.915  1.00  0.00    -0.200 F 
ATOM     77  C   UNL     1     -10.901   6.456   3.160  1.00  0.00     0.200 A 
ATOM     78  F   UNL     1      -8.989   7.124   4.350  1.00  0.00    -0.200 F 
ATOM     79  F   UNL     1     -11.671   7.256   3.912  1.00  0.00    -0.200 F 
ENDBRANCH  55  69
BRANCH  56  80
ATOM     80  C   UNL     1      -3.954   0.804  -5.636  1.00  0.00     0.064 A 
ATOM     81  C   UNL     1      -3.336   1.397  -6.760  1.00  0.00     0.173 A 
ATOM     82  C   UNL     1      -3.115   0.229  -4.674  1.00  0.00     0.173 A 
ATOM     83  F   UNL     1      -4.092   1.979  -7.706  1.00  0.00    -0.203 F 
ATOM     84  C   UNL     1      -1.952   1.531  -6.848  1.00  0.00     0.198 A 
ATOM     85  C   UNL     1      -1.722   0.327  -4.790  1.00  0.00     0.198 A 
ATOM     86  F   UNL     1      -3.629  -0.308  -3.559  1.00  0.00    -0.203 F 
ATOM     87  F   UNL     1      -1.412   2.235  -7.854  1.00  0.00    -0.200 F 
ATOM     88  C   UNL     1      -1.147   1.018  -5.849  1.00  0.00     0.200 A 
ATOM     89  F   UNL     1      -0.937  -0.127  -3.802  1.00  0.00    -0.200 F 
ATOM     90  F   UNL     1       0.175   1.244  -5.871  1.00  0.00    -0.200 F 
ENDBRANCH  56  80
BRANCH  68  91
ATOM     91  C   UNL     1      -9.685  -0.980  -1.457  1.00  0.00     0.064 A 
ATOM     92  C   UNL     1      -9.413  -2.356  -1.446  1.00  0.00     0.173 A 
ATOM     93  C   UNL     1     -10.633  -0.561  -0.478  1.00  0.00     0.173 A 
ATOM     94  F   UNL     1      -8.474  -2.897  -2.228  1.00  0.00    -0.203 F 
ATOM     95  C   UNL     1     -10.058  -3.241  -0.572  1.00  0.00     0.198 A 
ATOM     96  C   UNL     1     -11.218  -1.434   0.440  1.00  0.00     0.198 A 
ATOM     97  F   UNL     1     -11.006   0.720  -0.350  1.00  0.00    -0.203 F 
ATOM     98  F   UNL     1      -9.784  -4.551  -0.641  1.00  0.00    -0.200 F 
ATOM     99  C   UNL     1     -10.943  -2.780   0.382  1.00  0.00     0.200 A 
ATOM    100  F   UNL     1     -12.029  -0.953   1.394  1.00  0.00    -0.200 F 
ATOM    101  F   UNL     1     -11.512  -3.625   1.251  1.00  0.00    -0.200 F 
ENDBRANCH  68  91
ENDBRANCH  42  43
ENDBRANCH  35  37
ENDBRANCH  34  35
ENDBRANCH  33  34
ENDBRANCH  32  33
ENDBRANCH  31  32
ENDBRANCH   1  31
TORSDOF 18
