REMARK SMILES C=CCN(CC(=O)OCCOCCOCCOC(=O)c1ccc(-c2c3nc(c(-c4c(F)c(F)c(F)c(F)c4F)c4ccc([nH]4)c(-c4c(F)c(F)c(F)c(F)c4F)c4nc(c(-c5c(F)c(F)c(F)c(F)c5F)c5ccc2[nH]5)C=C4)C=C3)cc1)c1ccc([N+](=O)[O-])cc1Br
REMARK SMILES IDX 12 1 11 2 10 3 9 4 8 5 6 6 7 7 5 8 4 9 3 10 2 11 1 12 83 13
REMARK SMILES IDX 84 14 91 15 85 16 90 17 92 18 86 19 87 20 88 21 89 22 13 23
REMARK SMILES IDX 14 24 15 25 16 26 17 27 18 28 19 29 20 30 21 31 82 32 22 33
REMARK SMILES IDX 81 34 23 35 24 36 25 37 75 38 26 39 80 40 74 41 76 42 27 43
REMARK SMILES IDX 79 44 73 45 72 46 28 48 60 49 40 50 59 51 41 52 44 53 58 54
REMARK SMILES IDX 77 55 42 56 43 57 57 59 78 60 45 61 29 62 30 63 38 64 31 65
REMARK SMILES IDX 32 66 36 67 39 68 33 69 34 70 37 71 35 72 61 73 62 74 70 75
REMARK SMILES IDX 63 76 64 77 68 78 71 79 65 80 66 81 69 82 67 83 46 84 47 85
REMARK SMILES IDX 55 86 48 87 49 88 53 89 56 90 50 91 51 92 54 93 52 94
REMARK H PARENT 76 47 44 58
REMARK Flexibility Score: inf
ROOT
ATOM      1  C   UNL     1      -4.986  -0.210   4.084  1.00  0.00     0.188 C 
ENDROOT
BRANCH   1   2
ATOM      2  O   UNL     1      -6.175   0.381   3.570  1.00  0.00    -0.376 OA
BRANCH   2   3
ATOM      3  C   UNL     1      -6.218   0.614   2.167  1.00  0.00     0.202 C 
BRANCH   3   4
ATOM      4  C   UNL     1      -5.328   1.764   1.686  1.00  0.00     0.261 C 
BRANCH   4   5
ATOM      5  O   UNL     1      -3.910   1.506   1.846  1.00  0.00    -0.462 OA
BRANCH   5   6
ATOM      6  C   UNL     1      -3.180   2.519   2.395  1.00  0.00     0.325 C 
ATOM      7  O   UNL     1      -3.685   3.518   2.903  1.00  0.00    -0.250 OA
BRANCH   6   8
ATOM      8  C   UNL     1      -1.653   2.373   2.310  1.00  0.00     0.239 C 
BRANCH   8   9
ATOM      9  N   UNL     1      -1.071   1.152   1.720  1.00  0.00    -0.356 N 
BRANCH   9  10
ATOM     10  C   UNL     1      -1.454   0.737   0.369  1.00  0.00     0.144 C 
BRANCH  10  11
ATOM     11  C   UNL     1      -0.418   1.142  -0.629  1.00  0.00    -0.014 C 
ATOM     12  C   UNL     1       0.209   0.295  -1.459  1.00  0.00     0.006 C 
ENDBRANCH  10  11
ENDBRANCH   9  10
BRANCH   9  13
ATOM     13  C   UNL     1      -0.349   0.265   2.516  1.00  0.00     0.052 A 
ATOM     14  C   UNL     1      -1.025  -0.407   3.542  1.00  0.00     0.034 A 
ATOM     15  C   UNL     1       1.013  -0.072   2.339  1.00  0.00     0.048 A 
ATOM     16  C   UNL     1      -0.444  -1.464   4.251  1.00  0.00     0.088 A 
ATOM     17  C   UNL     1       1.609  -1.141   3.030  1.00  0.00     0.103 A 
ATOM     18  Br  UNL     1       2.218   1.012   1.340  1.00  0.00    -0.048 Br
ATOM     19  C   UNL     1       0.863  -1.842   3.972  1.00  0.00     0.270 A 
BRANCH  19  20
ATOM     20  N   UNL     1       1.463  -2.949   4.711  1.00  0.00     0.062 N 
ATOM     21  O   UNL     1       1.068  -3.141   5.871  1.00  0.00    -0.258 OA
ATOM     22  O   UNL     1       2.328  -3.618   4.132  1.00  0.00    -0.258 OA
ENDBRANCH  19  20
ENDBRANCH   9  13
ENDBRANCH   8   9
ENDBRANCH   6   8
ENDBRANCH   5   6
ENDBRANCH   4   5
ENDBRANCH   3   4
ENDBRANCH   2   3
ENDBRANCH   1   2
BRANCH   1  23
ATOM     23  C   UNL     1      -4.387  -1.371   3.278  1.00  0.00     0.188 C 
BRANCH  23  24
ATOM     24  O   UNL     1      -5.332  -2.416   3.068  1.00  0.00    -0.376 OA
BRANCH  24  25
ATOM     25  C   UNL     1      -4.897  -3.679   3.579  1.00  0.00     0.202 C 
BRANCH  25  26
ATOM     26  C   UNL     1      -5.314  -3.848   5.041  1.00  0.00     0.261 C 
BRANCH  26  27
ATOM     27  O   UNL     1      -4.636  -2.931   5.926  1.00  0.00    -0.460 OA
BRANCH  27  28
ATOM     28  C   UNL     1      -3.427  -3.348   6.355  1.00  0.00     0.338 C 
ATOM     29  O   UNL     1      -2.830  -4.348   5.993  1.00  0.00    -0.246 OA
BRANCH  28  30
ATOM     30  C   UNL     1      -2.869  -2.403   7.342  1.00  0.00     0.060 A 
ATOM     31  C   UNL     1      -2.527  -1.104   6.963  1.00  0.00     0.016 A 
ATOM     32  C   UNL     1      -2.488  -2.884   8.593  1.00  0.00     0.016 A 
ATOM     33  C   UNL     1      -1.668  -0.347   7.766  1.00  0.00     0.010 A 
ATOM     34  C   UNL     1      -1.724  -2.078   9.443  1.00  0.00     0.010 A 
ATOM     35  C   UNL     1      -1.240  -0.827   9.014  1.00  0.00    -0.014 A 
BRANCH  35  36
ATOM     36  C   UNL     1      -0.212  -0.109   9.832  1.00  0.00     0.031 A 
ATOM     37  C   UNL     1       1.029  -0.846  10.281  1.00  0.00     0.074 A 
ATOM     38  C   UNL     1      -0.340   1.187  10.182  1.00  0.00     0.049 A 
ATOM     39  N   UNL     1       1.873  -0.551  11.239  1.00  0.00    -0.248 NA
ATOM     40  C   UNL     1       1.349  -2.091   9.565  1.00  0.00     0.031 C 
ATOM     41  C   UNL     1      -1.416   2.084   9.767  1.00  0.00     0.029 A 
ATOM     42  N   UNL     1       0.458   1.976  10.979  1.00  0.00    -0.354 N 
ATOM     43  C   UNL     1       2.763  -1.618  11.302  1.00  0.00     0.074 A 
ATOM     44  C   UNL     1       2.374  -2.553  10.268  1.00  0.00     0.031 C 
ATOM     45  C   UNL     1      -1.194   3.305  10.279  1.00  0.00     0.029 A 
ATOM     46  C   UNL     1      -0.022   3.252  11.149  1.00  0.00     0.049 A 
ATOM     47  H   UNL     1       1.294   1.656  11.390  1.00  0.00     0.167 HD
ATOM     48  C   UNL     1       3.799  -1.805  12.154  1.00  0.00     0.037 A 
ATOM     49  C   UNL     1       0.387   4.250  11.957  1.00  0.00     0.037 A 
ATOM     50  C   UNL     1       4.252  -0.835  13.117  1.00  0.00     0.049 A 
ATOM     51  C   UNL     1       1.536   4.024  12.901  1.00  0.00     0.074 A 
ATOM     52  C   UNL     1       5.290  -0.937  14.028  1.00  0.00     0.029 A 
ATOM     53  N   UNL     1       3.718   0.435  13.264  1.00  0.00    -0.354 N 
ATOM     54  N   UNL     1       2.279   2.958  13.062  1.00  0.00    -0.248 NA
ATOM     55  C   UNL     1       1.878   5.134  13.804  1.00  0.00     0.031 C 
ATOM     56  C   UNL     1       5.374   0.267  14.737  1.00  0.00     0.029 A 
ATOM     57  C   UNL     1       4.409   1.128  14.245  1.00  0.00     0.049 A 
ATOM     58  H   UNL     1       2.959   0.792  12.748  1.00  0.00     0.167 HD
ATOM     59  C   UNL     1       3.175   3.267  14.077  1.00  0.00     0.074 A 
ATOM     60  C   UNL     1       2.900   4.629  14.481  1.00  0.00     0.031 C 
ATOM     61  C   UNL     1       4.131   2.485  14.634  1.00  0.00     0.037 A 
BRANCH  48  62
ATOM     62  C   UNL     1       4.496  -3.133  12.122  1.00  0.00     0.064 A 
ATOM     63  C   UNL     1       5.393  -3.482  11.104  1.00  0.00     0.173 A 
ATOM     64  C   UNL     1       4.294  -4.051  13.165  1.00  0.00     0.173 A 
ATOM     65  F   UNL     1       5.612  -2.644  10.081  1.00  0.00    -0.203 F 
ATOM     66  C   UNL     1       6.050  -4.711  11.123  1.00  0.00     0.198 A 
ATOM     67  C   UNL     1       4.971  -5.267  13.194  1.00  0.00     0.198 A 
ATOM     68  F   UNL     1       3.451  -3.760  14.168  1.00  0.00    -0.203 F 
ATOM     69  F   UNL     1       6.880  -5.040  10.123  1.00  0.00    -0.200 F 
ATOM     70  C   UNL     1       5.844  -5.598  12.170  1.00  0.00     0.200 A 
ATOM     71  F   UNL     1       4.781  -6.115  14.214  1.00  0.00    -0.200 F 
ATOM     72  F   UNL     1       6.487  -6.774  12.192  1.00  0.00    -0.200 F 
ENDBRANCH  48  62
BRANCH  49  73
ATOM     73  C   UNL     1      -0.345   5.543  11.958  1.00  0.00     0.064 A 
ATOM     74  C   UNL     1       0.250   6.708  11.456  1.00  0.00     0.173 A 
ATOM     75  C   UNL     1      -1.651   5.640  12.461  1.00  0.00     0.173 A 
ATOM     76  F   UNL     1       1.509   6.672  10.996  1.00  0.00    -0.203 F 
ATOM     77  C   UNL     1      -0.434   7.922  11.460  1.00  0.00     0.198 A 
ATOM     78  C   UNL     1      -2.344   6.846  12.436  1.00  0.00     0.198 A 
ATOM     79  F   UNL     1      -2.260   4.554  12.960  1.00  0.00    -0.203 F 
ATOM     80  F   UNL     1       0.170   9.030  11.009  1.00  0.00    -0.200 F 
ATOM     81  C   UNL     1      -1.734   7.988  11.940  1.00  0.00     0.200 A 
ATOM     82  F   UNL     1      -3.604   6.902  12.889  1.00  0.00    -0.200 F 
ATOM     83  F   UNL     1      -2.395   9.153  11.931  1.00  0.00    -0.200 F 
ENDBRANCH  49  73
BRANCH  61  84
ATOM     84  C   UNL     1       4.969   3.094  15.718  1.00  0.00     0.064 A 
ATOM     85  C   UNL     1       4.465   3.283  17.013  1.00  0.00     0.173 A 
ATOM     86  C   UNL     1       6.295   3.472  15.464  1.00  0.00     0.173 A 
ATOM     87  F   UNL     1       3.197   2.952  17.299  1.00  0.00    -0.203 F 
ATOM     88  C   UNL     1       5.253   3.852  18.010  1.00  0.00     0.198 A 
ATOM     89  C   UNL     1       7.087   4.021  16.469  1.00  0.00     0.198 A 
ATOM     90  F   UNL     1       6.823   3.308  14.242  1.00  0.00    -0.203 F 
ATOM     91  F   UNL     1       4.739   4.063  19.230  1.00  0.00    -0.200 F 
ATOM     92  C   UNL     1       6.564   4.216  17.738  1.00  0.00     0.200 A 
ATOM     93  F   UNL     1       8.355   4.368  16.207  1.00  0.00    -0.200 F 
ATOM     94  F   UNL     1       7.320   4.766  18.699  1.00  0.00    -0.200 F 
ENDBRANCH  61  84
ENDBRANCH  35  36
ENDBRANCH  28  30
ENDBRANCH  27  28
ENDBRANCH  26  27
ENDBRANCH  25  26
ENDBRANCH  24  25
ENDBRANCH  23  24
ENDBRANCH   1  23
TORSDOF 22
