REMARK SMILES O=C(OCCOCCOCCOC(=O)[C@H]1[C@@H](C(=O)Nc2cc(F)ccc2F)[C@@H]2C=C[C@H]1O2)c1ccc(-c2c3nc(c(-c4c(F)c(F)c(F)c(F)c4F)c4ccc([nH]4)c(-c4c(F)c(F)c(F)c(F)c4F)c4nc(c(-c5c(F)c(F)c(F)c(F)c5F)c5ccc2[nH]5)C=C4)C=C3)cc1
REMARK SMILES IDX 7 1 6 2 5 3 4 4 3 5 2 6 1 7 33 8 34 9 95 10 35 11 94 12
REMARK SMILES IDX 36 13 37 14 38 15 88 16 39 17 93 18 87 19 89 20 40 21 92 22
REMARK SMILES IDX 86 23 85 24 41 26 73 27 53 28 72 29 54 30 57 31 71 32 90 33
REMARK SMILES IDX 55 34 56 35 70 37 91 38 58 39 42 40 43 41 51 42 44 43 45 44
REMARK SMILES IDX 49 45 52 46 46 47 47 48 50 49 48 50 74 51 75 52 83 53 76 54
REMARK SMILES IDX 77 55 81 56 84 57 78 58 79 59 82 60 80 61 59 62 60 63 68 64
REMARK SMILES IDX 61 65 62 66 66 67 69 68 63 69 64 70 67 71 65 72 8 73 9 74
REMARK SMILES IDX 10 75 11 76 12 77 13 78 14 79 15 80 16 81 31 82 28 83 30 84
REMARK SMILES IDX 32 85 29 86 17 87 18 88 19 89 20 91 21 92 26 93 22 94 25 95
REMARK SMILES IDX 27 96 23 97 24 98
REMARK H PARENT 89 25 57 36 19 90
REMARK Flexibility Score: inf
ROOT
ATOM      1  C   UNL     1       0.737   1.804   1.213  1.00  0.00     0.188 C 
ENDROOT
BRANCH   1   2
ATOM      2  O   UNL     1       1.315   0.524   1.495  1.00  0.00    -0.376 OA
BRANCH   2   3
ATOM      3  C   UNL     1       1.375   0.202   2.880  1.00  0.00     0.202 C 
BRANCH   3   4
ATOM      4  C   UNL     1       2.648   0.711   3.569  1.00  0.00     0.261 C 
BRANCH   4   5
ATOM      5  O   UNL     1       2.688   2.153   3.571  1.00  0.00    -0.460 OA
BRANCH   5   6
ATOM      6  C   UNL     1       3.545   2.997   2.948  1.00  0.00     0.338 C 
ATOM      7  O   UNL     1       3.567   4.174   3.303  1.00  0.00    -0.246 OA
BRANCH   6   8
ATOM      8  C   UNL     1       4.460   2.590   1.834  1.00  0.00     0.060 A 
ATOM      9  C   UNL     1       4.307   1.454   1.037  1.00  0.00     0.016 A 
ATOM     10  C   UNL     1       5.533   3.452   1.540  1.00  0.00     0.016 A 
ATOM     11  C   UNL     1       5.245   1.113   0.065  1.00  0.00     0.010 A 
ATOM     12  C   UNL     1       6.466   3.135   0.545  1.00  0.00     0.010 A 
ATOM     13  C   UNL     1       6.352   1.929  -0.156  1.00  0.00    -0.014 A 
BRANCH  13  14
ATOM     14  C   UNL     1       7.482   1.380  -0.937  1.00  0.00     0.031 A 
ATOM     15  C   UNL     1       8.641   0.818  -0.166  1.00  0.00     0.074 A 
ATOM     16  C   UNL     1       7.417   1.258  -2.276  1.00  0.00     0.049 A 
ATOM     17  N   UNL     1       9.739   0.264  -0.605  1.00  0.00    -0.248 NA
ATOM     18  C   UNL     1       8.527   0.839   1.305  1.00  0.00     0.031 C 
ATOM     19  C   UNL     1       6.259   1.609  -3.093  1.00  0.00     0.029 A 
ATOM     20  N   UNL     1       8.331   0.798  -3.187  1.00  0.00    -0.354 N 
ATOM     21  C   UNL     1      10.434  -0.134   0.529  1.00  0.00     0.074 A 
ATOM     22  C   UNL     1       9.659   0.264   1.679  1.00  0.00     0.031 C 
ATOM     23  C   UNL     1       6.551   1.421  -4.389  1.00  0.00     0.029 A 
ATOM     24  C   UNL     1       7.912   0.910  -4.492  1.00  0.00     0.049 A 
ATOM     25  H   UNL     1       9.204   0.422  -2.931  1.00  0.00     0.167 HD
ATOM     26  C   UNL     1      11.612  -0.792   0.595  1.00  0.00     0.037 A 
ATOM     27  C   UNL     1       8.562   0.629  -5.638  1.00  0.00     0.037 A 
ATOM     28  C   UNL     1      12.364  -1.181  -0.564  1.00  0.00     0.049 A 
ATOM     29  C   UNL     1       9.936   0.021  -5.535  1.00  0.00     0.074 A 
ATOM     30  C   UNL     1      13.591  -1.810  -0.623  1.00  0.00     0.029 A 
ATOM     31  N   UNL     1      11.950  -0.970  -1.873  1.00  0.00    -0.354 N 
ATOM     32  N   UNL     1      10.599  -0.332  -4.458  1.00  0.00    -0.248 NA
ATOM     33  C   UNL     1      10.649  -0.239  -6.791  1.00  0.00     0.031 C 
ATOM     34  C   UNL     1      13.946  -1.933  -1.969  1.00  0.00     0.029 A 
ATOM     35  C   UNL     1      12.916  -1.427  -2.749  1.00  0.00     0.049 A 
ATOM     36  H   UNL     1      11.096  -0.556  -2.136  1.00  0.00     0.167 HD
ATOM     37  C   UNL     1      11.795  -0.872  -4.905  1.00  0.00     0.074 A 
ATOM     38  C   UNL     1      11.758  -0.820  -6.353  1.00  0.00     0.031 C 
ATOM     39  C   UNL     1      12.835  -1.361  -4.186  1.00  0.00     0.037 A 
BRANCH  26  40
ATOM     40  C   UNL     1      12.168  -1.092   1.953  1.00  0.00     0.064 A 
ATOM     41  C   UNL     1      13.278  -0.382   2.433  1.00  0.00     0.173 A 
ATOM     42  C   UNL     1      11.625  -2.095   2.769  1.00  0.00     0.173 A 
ATOM     43  F   UNL     1      13.826   0.594   1.693  1.00  0.00    -0.203 F 
ATOM     44  C   UNL     1      13.835  -0.676   3.673  1.00  0.00     0.198 A 
ATOM     45  C   UNL     1      12.171  -2.371   4.020  1.00  0.00     0.198 A 
ATOM     46  F   UNL     1      10.545  -2.782   2.368  1.00  0.00    -0.203 F 
ATOM     47  F   UNL     1      14.909   0.002   4.101  1.00  0.00    -0.200 F 
ATOM     48  C   UNL     1      13.280  -1.669   4.467  1.00  0.00     0.200 A 
ATOM     49  F   UNL     1      11.615  -3.310   4.800  1.00  0.00    -0.200 F 
ATOM     50  F   UNL     1      13.810  -1.942   5.667  1.00  0.00    -0.200 F 
ENDBRANCH  26  40
BRANCH  27  51
ATOM     51  C   UNL     1       7.934   0.921  -6.956  1.00  0.00     0.064 A 
ATOM     52  C   UNL     1       7.670   2.242  -7.355  1.00  0.00     0.173 A 
ATOM     53  C   UNL     1       7.595  -0.102  -7.851  1.00  0.00     0.173 A 
ATOM     54  F   UNL     1       7.971   3.264  -6.540  1.00  0.00    -0.203 F 
ATOM     55  C   UNL     1       7.088   2.524  -8.590  1.00  0.00     0.198 A 
ATOM     56  C   UNL     1       7.038   0.182  -9.098  1.00  0.00     0.198 A 
ATOM     57  F   UNL     1       7.838  -1.381  -7.528  1.00  0.00    -0.203 F 
ATOM     58  F   UNL     1       6.829   3.794  -8.932  1.00  0.00    -0.200 F 
ATOM     59  C   UNL     1       6.780   1.495  -9.465  1.00  0.00     0.200 A 
ATOM     60  F   UNL     1       6.766  -0.815  -9.951  1.00  0.00    -0.200 F 
ATOM     61  F   UNL     1       6.245   1.766 -10.663  1.00  0.00    -0.200 F 
ENDBRANCH  27  51
BRANCH  39  62
ATOM     62  C   UNL     1      14.017  -1.875  -4.948  1.00  0.00     0.064 A 
ATOM     63  C   UNL     1      14.314  -3.245  -4.960  1.00  0.00     0.173 A 
ATOM     64  C   UNL     1      14.916  -0.995  -5.565  1.00  0.00     0.173 A 
ATOM     65  F   UNL     1      13.487  -4.122  -4.371  1.00  0.00    -0.203 F 
ATOM     66  C   UNL     1      15.488  -3.714  -5.540  1.00  0.00     0.198 A 
ATOM     67  C   UNL     1      16.073  -1.470  -6.171  1.00  0.00     0.198 A 
ATOM     68  F   UNL     1      14.664   0.323  -5.587  1.00  0.00    -0.203 F 
ATOM     69  F   UNL     1      15.779  -5.021  -5.496  1.00  0.00    -0.200 F 
ATOM     70  C   UNL     1      16.365  -2.827  -6.146  1.00  0.00     0.200 A 
ATOM     71  F   UNL     1      16.910  -0.616  -6.776  1.00  0.00    -0.200 F 
ATOM     72  F   UNL     1      17.496  -3.279  -6.704  1.00  0.00    -0.200 F 
ENDBRANCH  39  62
ENDBRANCH  13  14
ENDBRANCH   6   8
ENDBRANCH   5   6
ENDBRANCH   4   5
ENDBRANCH   3   4
ENDBRANCH   2   3
ENDBRANCH   1   2
BRANCH   1  73
ATOM     73  C   UNL     1       0.718   1.964  -0.295  1.00  0.00     0.188 C 
BRANCH  73  74
ATOM     74  O   UNL     1      -0.308   1.158  -0.873  1.00  0.00    -0.376 OA
BRANCH  74  75
ATOM     75  C   UNL     1       0.209  -0.024  -1.486  1.00  0.00     0.202 C 
BRANCH  75  76
ATOM     76  C   UNL     1       0.651   0.246  -2.926  1.00  0.00     0.261 C 
BRANCH  76  77
ATOM     77  O   UNL     1       1.649   1.298  -2.991  1.00  0.00    -0.463 OA
BRANCH  77  78
ATOM     78  C   UNL     1       1.216   2.476  -3.538  1.00  0.00     0.312 C 
ATOM     79  O   UNL     1       0.118   2.613  -4.047  1.00  0.00    -0.252 OA
BRANCH  78  80
ATOM     80  C   UNL     1       2.333   3.500  -3.628  1.00  0.00     0.147 C 
ATOM     81  C   UNL     1       1.919   4.931  -4.096  1.00  0.00     0.129 C 
ATOM     82  C   UNL     1       3.104   3.829  -2.333  1.00  0.00     0.157 C 
ATOM     83  C   UNL     1       2.609   5.819  -3.078  1.00  0.00     0.155 C 
ATOM     84  C   UNL     1       4.409   4.504  -2.664  1.00  0.00     0.004 C 
ATOM     85  O   UNL     1       2.415   5.013  -1.884  1.00  0.00    -0.365 OA
ATOM     86  C   UNL     1       4.100   5.704  -3.173  1.00  0.00     0.004 C 
BRANCH  81  87
ATOM     87  C   UNL     1       0.450   5.283  -4.342  1.00  0.00     0.231 C 
ATOM     88  O   UNL     1       0.135   5.554  -5.513  1.00  0.00    -0.274 OA
ATOM     89  N   UNL     1      -0.582   5.222  -3.460  1.00  0.00    -0.323 N 
ATOM     90  H   UNL     1      -1.450   5.215  -3.924  1.00  0.00     0.170 HD
BRANCH  89  91
ATOM     91  C   UNL     1      -0.745   5.167  -2.066  1.00  0.00     0.080 A 
ATOM     92  C   UNL     1      -0.017   5.918  -1.151  1.00  0.00     0.068 A 
ATOM     93  C   UNL     1      -1.798   4.378  -1.570  1.00  0.00     0.146 A 
ATOM     94  C   UNL     1      -0.235   5.760   0.220  1.00  0.00     0.125 A 
ATOM     95  C   UNL     1      -2.026   4.226  -0.201  1.00  0.00     0.044 A 
ATOM     96  F   UNL     1      -2.585   3.711  -2.427  1.00  0.00    -0.205 F 
ATOM     97  F   UNL     1       0.524   6.442   1.088  1.00  0.00    -0.207 F 
ATOM     98  C   UNL     1      -1.219   4.907   0.706  1.00  0.00     0.042 A 
ENDBRANCH  89  91
ENDBRANCH  81  87
ENDBRANCH  78  80
ENDBRANCH  77  78
ENDBRANCH  76  77
ENDBRANCH  75  76
ENDBRANCH  74  75
ENDBRANCH  73  74
ENDBRANCH   1  73
TORSDOF 19
