REMARK SMILES Cc1ccc(Cl)c(Nc2ccccc2C(=O)NCC(=O)OCCOCCOCCOC(=O)c2ccc(-c3c4nc(c(-c5c(F)c(F)c(F)c(F)c5F)c5ccc([nH]5)c(-c5c(F)c(F)c(F)c(F)c5F)c5nc(c(-c6c(F)c(F)c(F)c(F)c6F)c6ccc3[nH]6)C=C5)C=C4)cc2)c1Cl
REMARK SMILES IDX 25 1 24 2 23 3 22 4 21 5 19 6 20 7 18 8 17 9 15 10 16 11
REMARK SMILES IDX 14 13 9 14 10 15 11 16 13 17 12 18 8 19 7 21 1 22 2 23 3 24
REMARK SMILES IDX 96 25 4 26 97 27 5 28 6 29 26 30 27 31 28 32 29 33 30 34
REMARK SMILES IDX 31 35 32 36 33 37 34 38 95 39 35 40 94 41 36 42 37 43 38 44
REMARK SMILES IDX 88 45 39 46 93 47 87 48 89 49 40 50 92 51 86 52 85 53 41 55
REMARK SMILES IDX 73 56 53 57 72 58 54 59 57 60 71 61 90 62 55 63 56 64 70 66
REMARK SMILES IDX 91 67 58 68 42 69 43 70 51 71 44 72 45 73 49 74 52 75 46 76
REMARK SMILES IDX 47 77 50 78 48 79 74 80 75 81 83 82 76 83 77 84 81 85 84 86
REMARK SMILES IDX 78 87 79 88 82 89 80 90 59 91 60 92 68 93 61 94 62 95 66 96
REMARK SMILES IDX 69 97 63 98 64 99 67 100 65 101
REMARK H PARENT 17 12 8 20 89 54 57 65
REMARK Flexibility Score: inf
ROOT
ATOM      1  C   UNL     1      -3.301   0.161   2.658  1.00  0.00     0.188 C 
ENDROOT
BRANCH   1   2
ATOM      2  O   UNL     1      -4.417  -0.141   3.469  1.00  0.00    -0.376 OA
BRANCH   2   3
ATOM      3  C   UNL     1      -5.053  -1.409   3.341  1.00  0.00     0.202 C 
BRANCH   3   4
ATOM      4  C   UNL     1      -4.405  -2.602   2.618  1.00  0.00     0.261 C 
BRANCH   4   5
ATOM      5  O   UNL     1      -2.971  -2.599   2.580  1.00  0.00    -0.462 OA
BRANCH   5   6
ATOM      6  C   UNL     1      -2.488  -2.923   1.355  1.00  0.00     0.325 C 
ATOM      7  O   UNL     1      -3.180  -3.359   0.434  1.00  0.00    -0.250 OA
BRANCH   6   8
ATOM      8  C   UNL     1      -1.089  -2.426   1.065  1.00  0.00     0.239 C 
BRANCH   8   9
ATOM      9  N   UNL     1       0.056  -2.293   1.934  1.00  0.00    -0.341 N 
ATOM     10  C   UNL     1       1.373  -2.407   1.516  1.00  0.00     0.253 C 
ATOM     11  O   UNL     1       2.274  -1.938   2.208  1.00  0.00    -0.269 OA
ATOM     12  H   UNL     1      -0.109  -2.109   2.887  1.00  0.00     0.164 HD
BRANCH  10  13
ATOM     13  C   UNL     1       1.715  -3.294   0.357  1.00  0.00     0.063 A 
ATOM     14  C   UNL     1       1.206  -3.222  -0.961  1.00  0.00     0.051 A 
ATOM     15  C   UNL     1       1.381  -4.353  -1.787  1.00  0.00     0.027 A 
ATOM     16  C   UNL     1       2.098  -5.474  -1.365  1.00  0.00     0.002 A 
ATOM     17  C   UNL     1       2.501  -4.399   0.744  1.00  0.00     0.016 A 
ATOM     18  C   UNL     1       2.695  -5.479  -0.113  1.00  0.00     0.001 A 
BRANCH  14  19
ATOM     19  N   UNL     1       0.542  -2.126  -1.562  1.00  0.00    -0.352 N 
ATOM     20  H   UNL     1      -0.069  -2.395  -2.287  1.00  0.00     0.167 HD
BRANCH  19  21
ATOM     21  C   UNL     1       0.566  -0.726  -1.348  1.00  0.00     0.077 A 
ATOM     22  C   UNL     1       2.796   2.113  -0.038  1.00  0.00     0.046 C 
ATOM     23  C   UNL     1       1.603   1.354  -0.554  1.00  0.00    -0.030 A 
ATOM     24  C   UNL     1       0.372   2.015  -0.662  1.00  0.00     0.006 A 
ATOM     25  C   UNL     1       1.701  -0.007  -0.923  1.00  0.00     0.069 A 
ATOM     26  C   UNL     1      -0.744   1.347  -1.151  1.00  0.00     0.023 A 
ATOM     27  Cl  UNL     1       3.282  -0.730  -1.005  1.00  0.00    -0.082 Cl
ATOM     28  C   UNL     1      -0.643  -0.001  -1.496  1.00  0.00     0.066 A 
ATOM     29  Cl  UNL     1      -2.080  -0.778  -2.084  1.00  0.00    -0.082 Cl
ENDBRANCH  19  21
ENDBRANCH  14  19
ENDBRANCH  10  13
ENDBRANCH   8   9
ENDBRANCH   6   8
ENDBRANCH   5   6
ENDBRANCH   4   5
ENDBRANCH   3   4
ENDBRANCH   2   3
ENDBRANCH   1   2
BRANCH   1  30
ATOM     30  C   UNL     1      -1.947   0.099   3.388  1.00  0.00     0.188 C 
BRANCH  30  31
ATOM     31  O   UNL     1      -1.706  -0.831   4.431  1.00  0.00    -0.376 OA
BRANCH  31  32
ATOM     32  C   UNL     1      -2.568  -0.817   5.568  1.00  0.00     0.202 C 
BRANCH  32  33
ATOM     33  C   UNL     1      -2.906   0.487   6.327  1.00  0.00     0.261 C 
BRANCH  33  34
ATOM     34  O   UNL     1      -3.046   1.671   5.528  1.00  0.00    -0.460 OA
BRANCH  34  35
ATOM     35  C   UNL     1      -2.015   2.552   5.620  1.00  0.00     0.338 C 
ATOM     36  O   UNL     1      -1.047   2.490   6.354  1.00  0.00    -0.246 OA
BRANCH  35  37
ATOM     37  C   UNL     1      -2.111   3.525   4.511  1.00  0.00     0.060 A 
ATOM     38  C   UNL     1      -1.111   3.506   3.526  1.00  0.00     0.016 A 
ATOM     39  C   UNL     1      -3.135   4.469   4.462  1.00  0.00     0.016 A 
ATOM     40  C   UNL     1      -1.127   4.432   2.486  1.00  0.00     0.010 A 
ATOM     41  C   UNL     1      -3.125   5.427   3.443  1.00  0.00     0.010 A 
ATOM     42  C   UNL     1      -2.109   5.426   2.468  1.00  0.00    -0.014 A 
BRANCH  42  43
ATOM     43  C   UNL     1      -1.947   6.595   1.572  1.00  0.00     0.031 A 
ATOM     44  C   UNL     1      -1.280   7.821   2.126  1.00  0.00     0.074 A 
ATOM     45  C   UNL     1      -2.378   6.576   0.300  1.00  0.00     0.049 A 
ATOM     46  N   UNL     1      -1.138   9.007   1.593  1.00  0.00    -0.248 NA
ATOM     47  C   UNL     1      -0.699   7.688   3.471  1.00  0.00     0.031 C 
ATOM     48  C   UNL     1      -2.977   5.427  -0.373  1.00  0.00     0.029 A 
ATOM     49  N   UNL     1      -2.395   7.573  -0.643  1.00  0.00    -0.354 N 
ATOM     50  C   UNL     1      -0.474   9.767   2.546  1.00  0.00     0.074 A 
ATOM     51  C   UNL     1      -0.253   8.913   3.693  1.00  0.00     0.031 C 
ATOM     52  C   UNL     1      -3.337   5.795  -1.616  1.00  0.00     0.029 A 
ATOM     53  C   UNL     1      -3.033   7.214  -1.804  1.00  0.00     0.049 A 
ATOM     54  H   UNL     1      -1.989   8.458  -0.501  1.00  0.00     0.167 HD
ATOM     55  C   UNL     1      -0.089  11.063   2.473  1.00  0.00     0.037 A 
ATOM     56  C   UNL     1      -3.372   7.961  -2.874  1.00  0.00     0.037 A 
ATOM     57  C   UNL     1      -0.320  11.909   1.332  1.00  0.00     0.049 A 
ATOM     58  C   UNL     1      -3.011   9.425  -2.903  1.00  0.00     0.074 A 
ATOM     59  C   UNL     1       0.046  13.231   1.151  1.00  0.00     0.029 A 
ATOM     60  N   UNL     1      -0.993  11.519   0.183  1.00  0.00    -0.354 N 
ATOM     61  N   UNL     1      -2.378  10.142  -2.006  1.00  0.00    -0.248 NA
ATOM     62  C   UNL     1      -3.415  10.185  -4.096  1.00  0.00     0.031 C 
ATOM     63  C   UNL     1      -0.463  13.659  -0.080  1.00  0.00     0.029 A 
ATOM     64  C   UNL     1      -1.084  12.585  -0.698  1.00  0.00     0.049 A 
ATOM     65  H   UNL     1      -1.353  10.617   0.018  1.00  0.00     0.167 HD
ATOM     66  C   UNL     1      -2.282  11.425  -2.535  1.00  0.00     0.074 A 
ATOM     67  C   UNL     1      -2.916  11.386  -3.836  1.00  0.00     0.031 C 
ATOM     68  C   UNL     1      -1.716  12.532  -1.993  1.00  0.00     0.037 A 
BRANCH  55  69
ATOM     69  C   UNL     1       0.565  11.654   3.688  1.00  0.00     0.064 A 
ATOM     70  C   UNL     1       1.845  11.264   4.111  1.00  0.00     0.173 A 
ATOM     71  C   UNL     1      -0.109  12.622   4.448  1.00  0.00     0.173 A 
ATOM     72  F   UNL     1       2.525  10.329   3.430  1.00  0.00    -0.203 F 
ATOM     73  C   UNL     1       2.408  11.791   5.270  1.00  0.00     0.198 A 
ATOM     74  C   UNL     1       0.471  13.173   5.587  1.00  0.00     0.198 A 
ATOM     75  F   UNL     1      -1.335  13.032   4.088  1.00  0.00    -0.203 F 
ATOM     76  F   UNL     1       3.603  11.355   5.691  1.00  0.00    -0.200 F 
ATOM     77  C   UNL     1       1.723  12.749   6.004  1.00  0.00     0.200 A 
ATOM     78  F   UNL     1      -0.187  14.108   6.286  1.00  0.00    -0.200 F 
ATOM     79  F   UNL     1       2.265  13.254   7.120  1.00  0.00    -0.200 F 
ENDBRANCH  55  69
BRANCH  56  80
ATOM     80  C   UNL     1      -4.127   7.341  -3.994  1.00  0.00     0.064 A 
ATOM     81  C   UNL     1      -3.537   7.154  -5.251  1.00  0.00     0.173 A 
ATOM     82  C   UNL     1      -5.456   6.920  -3.829  1.00  0.00     0.173 A 
ATOM     83  F   UNL     1      -2.279   7.565  -5.467  1.00  0.00    -0.203 F 
ATOM     84  C   UNL     1      -4.249   6.578  -6.302  1.00  0.00     0.198 A 
ATOM     85  C   UNL     1      -6.157   6.319  -4.871  1.00  0.00     0.198 A 
ATOM     86  F   UNL     1      -6.069   7.080  -2.646  1.00  0.00    -0.203 F 
ATOM     87  F   UNL     1      -3.673   6.446  -7.504  1.00  0.00    -0.200 F 
ATOM     88  C   UNL     1      -5.555   6.153  -6.109  1.00  0.00     0.200 A 
ATOM     89  F   UNL     1      -7.414   5.897  -4.675  1.00  0.00    -0.200 F 
ATOM     90  F   UNL     1      -6.234   5.588  -7.116  1.00  0.00    -0.200 F 
ENDBRANCH  56  80
BRANCH  68  91
ATOM     91  C   UNL     1      -1.712  13.789  -2.819  1.00  0.00     0.064 A 
ATOM     92  C   UNL     1      -2.884  14.519  -3.066  1.00  0.00     0.173 A 
ATOM     93  C   UNL     1      -0.505  14.299  -3.325  1.00  0.00     0.173 A 
ATOM     94  F   UNL     1      -4.066  14.070  -2.616  1.00  0.00    -0.203 F 
ATOM     95  C   UNL     1      -2.852  15.698  -3.807  1.00  0.00     0.198 A 
ATOM     96  C   UNL     1      -0.472  15.495  -4.037  1.00  0.00     0.198 A 
ATOM     97  F   UNL     1       0.647  13.646  -3.111  1.00  0.00    -0.203 F 
ATOM     98  F   UNL     1      -3.990  16.354  -4.070  1.00  0.00    -0.200 F 
ATOM     99  C   UNL     1      -1.645  16.189  -4.284  1.00  0.00     0.200 A 
ATOM    100  F   UNL     1       0.698  15.976  -4.481  1.00  0.00    -0.200 F 
ATOM    101  F   UNL     1      -1.615  17.330  -4.987  1.00  0.00    -0.200 F 
ENDBRANCH  68  91
ENDBRANCH  42  43
ENDBRANCH  35  37
ENDBRANCH  34  35
ENDBRANCH  33  34
ENDBRANCH  32  33
ENDBRANCH  31  32
ENDBRANCH  30  31
ENDBRANCH   1  30
TORSDOF 21
