REMARK SMILES [NH3+][C@@H](CCC1=c2ccccc2=[NH+]C1)C(=O)OCCOCCOCCOC(=O)c1ccc(-c2c3nc(c(-c4c(F)c(F)c(F)c(F)c4F)c4ccc([nH]4)c(-c4c(F)c(F)c(F)c(F)c4F)c4nc(c(-c5c(F)c(F)c(F)c(F)c5F)c5ccc2[nH]5)C=C4)C=C3)cc1
REMARK SMILES IDX 20 1 19 2 18 3 17 4 16 5 14 6 15 7 2 8 1 9 3 13 4 14 5 15
REMARK SMILES IDX 6 16 13 17 7 18 11 19 12 20 8 21 10 22 9 24 21 25 22 26
REMARK SMILES IDX 23 27 24 28 25 29 26 30 27 31 28 32 29 33 90 34 30 35 89 36
REMARK SMILES IDX 31 37 32 38 33 39 83 40 34 41 88 42 82 43 84 44 35 45 87 46
REMARK SMILES IDX 81 47 80 48 36 50 68 51 48 52 67 53 49 54 52 55 66 56 85 57
REMARK SMILES IDX 50 58 51 59 65 61 86 62 53 63 37 64 38 65 46 66 39 67 40 68
REMARK SMILES IDX 44 69 47 70 41 71 42 72 45 73 43 74 69 75 70 76 78 77 71 78
REMARK SMILES IDX 72 79 76 80 79 81 73 82 74 83 77 84 75 85 54 86 55 87 63 88
REMARK SMILES IDX 56 89 57 90 61 91 64 92 58 93 59 94 62 95 60 96
REMARK H PARENT 1 10 1 11 1 12 12 23 84 49 52 60
REMARK Flexibility Score: inf
ROOT
ATOM      1  C   UNL     1      -2.324   1.923   1.062  1.00  0.00     0.188 C 
ENDROOT
BRANCH   1   2
ATOM      2  O   UNL     1      -3.701   1.750   0.762  1.00  0.00    -0.376 OA
BRANCH   2   3
ATOM      3  C   UNL     1      -4.023   0.933  -0.366  1.00  0.00     0.202 C 
BRANCH   3   4
ATOM      4  C   UNL     1      -3.214   1.161  -1.647  1.00  0.00     0.261 C 
BRANCH   4   5
ATOM      5  O   UNL     1      -1.860   0.668  -1.528  1.00  0.00    -0.459 OA
BRANCH   5   6
ATOM      6  C   UNL     1      -0.893   1.432  -2.108  1.00  0.00     0.364 C 
ATOM      7  O   UNL     1      -1.108   2.480  -2.710  1.00  0.00    -0.245 OA
BRANCH   6   8
ATOM      8  C   UNL     1       0.524   0.837  -1.998  1.00  0.00     0.292 C 
BRANCH   8   9
ATOM      9  N   UNL     1       0.732  -0.061  -0.850  1.00  0.00    -0.346 N 
ATOM     10  H   UNL     1       1.692  -0.405  -0.857  1.00  0.00     0.345 HD
ATOM     11  H   UNL     1       0.088  -0.849  -0.914  1.00  0.00     0.345 HD
ATOM     12  H   UNL     1       0.560   0.449   0.016  1.00  0.00     0.345 HD
ENDBRANCH   8   9
BRANCH   8  13
ATOM     13  C   UNL     1       0.983   0.221  -3.325  1.00  0.00     0.082 C 
BRANCH  13  14
ATOM     14  C   UNL     1       0.567  -1.233  -3.598  1.00  0.00     0.045 C 
BRANCH  14  15
ATOM     15  C   UNL     1      -0.903  -1.495  -3.629  1.00  0.00     0.008 C 
ATOM     16  C   UNL     1      -1.611  -2.323  -2.863  1.00  0.00     0.051 A 
ATOM     17  C   UNL     1      -1.792  -0.818  -4.631  1.00  0.00     0.381 C 
ATOM     18  C   UNL     1      -1.322  -3.223  -1.792  1.00  0.00     0.015 A 
ATOM     19  C   UNL     1      -2.983  -2.140  -3.365  1.00  0.00     0.206 A 
ATOM     20  N   UNL     1      -3.160  -1.319  -4.356  1.00  0.00    -0.237 N 
ATOM     21  C   UNL     1      -2.335  -3.898  -1.224  1.00  0.00     0.001 A 
ATOM     22  C   UNL     1      -4.046  -2.906  -2.680  1.00  0.00     0.079 A 
ATOM     23  H   UNL     1      -4.000  -1.086  -4.813  1.00  0.00     0.446 HD
ATOM     24  C   UNL     1      -3.707  -3.726  -1.671  1.00  0.00     0.007 A 
ENDBRANCH  14  15
ENDBRANCH  13  14
ENDBRANCH   8  13
ENDBRANCH   6   8
ENDBRANCH   5   6
ENDBRANCH   4   5
ENDBRANCH   3   4
ENDBRANCH   2   3
ENDBRANCH   1   2
BRANCH   1  25
ATOM     25  C   UNL     1      -1.513   0.682   1.473  1.00  0.00     0.188 C 
BRANCH  25  26
ATOM     26  O   UNL     1      -2.109  -0.573   1.252  1.00  0.00    -0.376 OA
BRANCH  26  27
ATOM     27  C   UNL     1      -2.903  -1.183   2.258  1.00  0.00     0.202 C 
BRANCH  27  28
ATOM     28  C   UNL     1      -3.318  -0.558   3.609  1.00  0.00     0.261 C 
BRANCH  28  29
ATOM     29  O   UNL     1      -3.002   0.814   3.837  1.00  0.00    -0.460 OA
BRANCH  29  30
ATOM     30  C   UNL     1      -1.933   1.056   4.645  1.00  0.00     0.338 C 
ATOM     31  O   UNL     1      -1.232   0.248   5.207  1.00  0.00    -0.246 OA
BRANCH  30  32
ATOM     32  C   UNL     1      -1.609   2.495   4.506  1.00  0.00     0.060 A 
ATOM     33  C   UNL     1      -2.590   3.469   4.701  1.00  0.00     0.016 A 
ATOM     34  C   UNL     1      -0.323   2.853   4.076  1.00  0.00     0.016 A 
ATOM     35  C   UNL     1      -2.274   4.810   4.487  1.00  0.00     0.010 A 
ATOM     36  C   UNL     1      -0.014   4.194   3.843  1.00  0.00     0.010 A 
ATOM     37  C   UNL     1      -0.982   5.182   4.071  1.00  0.00    -0.014 A 
BRANCH  37  38
ATOM     38  C   UNL     1      -0.598   6.611   4.109  1.00  0.00     0.031 A 
ATOM     39  C   UNL     1      -0.632   7.491   2.902  1.00  0.00     0.074 A 
ATOM     40  C   UNL     1      -0.231   7.108   5.304  1.00  0.00     0.049 A 
ATOM     41  N   UNL     1      -0.473   8.790   2.835  1.00  0.00    -0.248 NA
ATOM     42  C   UNL     1      -0.863   6.842   1.606  1.00  0.00     0.031 C 
ATOM     43  C   UNL     1      -0.129   6.324   6.536  1.00  0.00     0.029 A 
ATOM     44  N   UNL     1       0.102   8.381   5.685  1.00  0.00    -0.354 N 
ATOM     45  C   UNL     1      -0.617   9.123   1.497  1.00  0.00     0.074 A 
ATOM     46  C   UNL     1      -0.823   7.880   0.777  1.00  0.00     0.031 C 
ATOM     47  C   UNL     1       0.210   7.138   7.544  1.00  0.00     0.029 A 
ATOM     48  C   UNL     1       0.358   8.495   7.028  1.00  0.00     0.049 A 
ATOM     49  H   UNL     1       0.154   9.138   5.058  1.00  0.00     0.167 HD
ATOM     50  C   UNL     1      -0.597  10.356   0.935  1.00  0.00     0.037 A 
ATOM     51  C   UNL     1       0.658   9.576   7.769  1.00  0.00     0.037 A 
ATOM     52  C   UNL     1      -0.370  11.582   1.663  1.00  0.00     0.049 A 
ATOM     53  C   UNL     1       0.706  10.924   7.114  1.00  0.00     0.074 A 
ATOM     54  C   UNL     1      -0.392  12.883   1.189  1.00  0.00     0.029 A 
ATOM     55  N   UNL     1      -0.060  11.658   3.014  1.00  0.00    -0.354 N 
ATOM     56  N   UNL     1       0.466  11.243   5.866  1.00  0.00    -0.248 NA
ATOM     57  C   UNL     1       1.057  12.064   7.971  1.00  0.00     0.031 C 
ATOM     58  C   UNL     1      -0.042  13.740   2.238  1.00  0.00     0.029 A 
ATOM     59  C   UNL     1       0.150  12.980   3.380  1.00  0.00     0.049 A 
ATOM     60  H   UNL     1       0.002  10.887   3.623  1.00  0.00     0.167 HD
ATOM     61  C   UNL     1       0.624  12.619   5.787  1.00  0.00     0.074 A 
ATOM     62  C   UNL     1       0.960  13.077   7.121  1.00  0.00     0.031 C 
ATOM     63  C   UNL     1       0.503  13.425   4.705  1.00  0.00     0.037 A 
BRANCH  50  64
ATOM     64  C   UNL     1      -0.845  10.460  -0.542  1.00  0.00     0.064 A 
ATOM     65  C   UNL     1      -2.123  10.254  -1.081  1.00  0.00     0.173 A 
ATOM     66  C   UNL     1       0.176  10.870  -1.415  1.00  0.00     0.173 A 
ATOM     67  F   UNL     1      -3.135   9.866  -0.289  1.00  0.00    -0.203 F 
ATOM     68  C   UNL     1      -2.369  10.440  -2.439  1.00  0.00     0.198 A 
ATOM     69  C   UNL     1      -0.079  11.078  -2.768  1.00  0.00     0.198 A 
ATOM     70  F   UNL     1       1.413  11.098  -0.949  1.00  0.00    -0.203 F 
ATOM     71  F   UNL     1      -3.594  10.218  -2.934  1.00  0.00    -0.200 F 
ATOM     72  C   UNL     1      -1.349  10.860  -3.280  1.00  0.00     0.200 A 
ATOM     73  F   UNL     1       0.903  11.504  -3.575  1.00  0.00    -0.200 F 
ATOM     74  F   UNL     1      -1.592  11.060  -4.583  1.00  0.00    -0.200 F 
ENDBRANCH  50  64
BRANCH  51  75
ATOM     75  C   UNL     1       0.871   9.412   9.227  1.00  0.00     0.064 A 
ATOM     76  C   UNL     1      -0.088   9.857  10.145  1.00  0.00     0.173 A 
ATOM     77  C   UNL     1       2.004   8.752   9.725  1.00  0.00     0.173 A 
ATOM     78  F   UNL     1      -1.181  10.502   9.712  1.00  0.00    -0.203 F 
ATOM     79  C   UNL     1       0.080   9.651  11.512  1.00  0.00     0.198 A 
ATOM     80  C   UNL     1       2.158   8.525  11.090  1.00  0.00     0.198 A 
ATOM     81  F   UNL     1       2.942   8.298   8.882  1.00  0.00    -0.203 F 
ATOM     82  F   UNL     1      -0.842  10.103  12.373  1.00  0.00    -0.200 F 
ATOM     83  C   UNL     1       1.197   8.977  11.982  1.00  0.00     0.200 A 
ATOM     84  F   UNL     1       3.229   7.857  11.539  1.00  0.00    -0.200 F 
ATOM     85  F   UNL     1       1.348   8.762  13.296  1.00  0.00    -0.200 F 
ENDBRANCH  51  75
BRANCH  63  86
ATOM     86  C   UNL     1       0.749  14.892   4.910  1.00  0.00     0.064 A 
ATOM     87  C   UNL     1       2.043  15.391   5.120  1.00  0.00     0.173 A 
ATOM     88  C   UNL     1      -0.307  15.812   4.842  1.00  0.00     0.173 A 
ATOM     89  F   UNL     1       3.085  14.550   5.210  1.00  0.00    -0.203 F 
ATOM     90  C   UNL     1       2.268  16.757   5.268  1.00  0.00     0.198 A 
ATOM     91  C   UNL     1      -0.075  17.180   4.964  1.00  0.00     0.198 A 
ATOM     92  F   UNL     1      -1.563  15.387   4.641  1.00  0.00    -0.203 F 
ATOM     93  F   UNL     1       3.508  17.208   5.504  1.00  0.00    -0.200 F 
ATOM     94  C   UNL     1       1.212  17.651   5.180  1.00  0.00     0.200 A 
ATOM     95  F   UNL     1      -1.095  18.043   4.867  1.00  0.00    -0.200 F 
ATOM     96  F   UNL     1       1.432  18.966   5.310  1.00  0.00    -0.200 F 
ENDBRANCH  63  86
ENDBRANCH  37  38
ENDBRANCH  30  32
ENDBRANCH  29  30
ENDBRANCH  28  29
ENDBRANCH  27  28
ENDBRANCH  26  27
ENDBRANCH  25  26
ENDBRANCH   1  25
TORSDOF 21
