REMARK SMILES C[C@H]1Oc2ccccc2C=C1/C=C/C(=O)N[C@H](C(=O)OCCOCCOCCOC(=O)c1ccc(-c2c3nc(c(-c4c(F)c(F)c(F)c(F)c4F)c4ccc([nH]4)c(-c4c(F)c(F)c(F)c(F)c4F)c4nc(c(-c5c(F)c(F)c(F)c(F)c5F)c5ccc2[nH]5)C=C4)C=C3)cc1)c1ccccc1
REMARK SMILES IDX 24 1 23 2 22 3 21 4 20 5 18 6 19 7 17 8 16 9 14 10 15 11
REMARK SMILES IDX 13 13 12 14 11 15 1 16 2 17 3 18 4 19 10 20 5 21 9 22 6 23
REMARK SMILES IDX 8 24 7 25 95 26 96 27 100 28 97 29 99 30 98 31 25 32 26 33
REMARK SMILES IDX 27 34 28 35 29 36 30 37 31 38 32 39 33 40 94 41 34 42 93 43
REMARK SMILES IDX 35 44 36 45 37 46 87 47 38 48 92 49 86 50 88 51 39 52 91 53
REMARK SMILES IDX 85 54 84 55 40 57 72 58 52 59 71 60 53 61 56 62 70 63 89 64
REMARK SMILES IDX 54 65 55 66 69 68 90 69 57 70 41 71 42 72 50 73 43 74 44 75
REMARK SMILES IDX 48 76 51 77 45 78 46 79 49 80 47 81 73 82 74 83 82 84 75 85
REMARK SMILES IDX 76 86 80 87 83 88 77 89 78 90 81 91 79 92 58 93 59 94 67 95
REMARK SMILES IDX 60 96 61 97 65 98 68 99 62 100 63 101 66 102 64 103
REMARK H PARENT 16 12 88 56 56 67
REMARK Flexibility Score: inf
ROOT
ATOM      1  C   UNL     1       1.338  -1.782  -5.310  1.00  0.00     0.188 C 
ENDROOT
BRANCH   1   2
ATOM      2  O   UNL     1       1.490  -2.136  -6.662  1.00  0.00    -0.376 OA
BRANCH   2   3
ATOM      3  C   UNL     1       0.834  -1.404  -7.686  1.00  0.00     0.202 C 
BRANCH   3   4
ATOM      4  C   UNL     1       0.112  -0.049  -7.524  1.00  0.00     0.261 C 
BRANCH   4   5
ATOM      5  O   UNL     1       0.313   0.696  -6.319  1.00  0.00    -0.461 OA
BRANCH   5   6
ATOM      6  C   UNL     1      -0.726   0.635  -5.440  1.00  0.00     0.333 C 
ATOM      7  O   UNL     1      -1.714  -0.076  -5.612  1.00  0.00    -0.249 OA
BRANCH   6   8
ATOM      8  C   UNL     1      -0.499   1.480  -4.151  1.00  0.00     0.223 C 
BRANCH   8   9
ATOM      9  N   UNL     1       0.799   2.162  -4.065  1.00  0.00    -0.335 N 
ATOM     10  C   UNL     1       1.434   2.737  -3.003  1.00  0.00     0.244 C 
ATOM     11  O   UNL     1       2.648   2.922  -3.042  1.00  0.00    -0.270 OA
ATOM     12  H   UNL     1       1.294   2.213  -4.915  1.00  0.00     0.165 HD
BRANCH  10  13
ATOM     13  C   UNL     1       0.662   3.316  -1.878  1.00  0.00     0.071 C 
ATOM     14  C   UNL     1      -0.221   2.675  -1.099  1.00  0.00     0.013 C 
BRANCH  14  15
ATOM     15  C   UNL     1      -1.100   3.333  -0.131  1.00  0.00    -0.007 C 
ATOM     16  C   UNL     1      -2.618   1.439   0.665  1.00  0.00     0.058 C 
ATOM     17  C   UNL     1      -2.520   2.786  -0.058  1.00  0.00     0.200 C 
ATOM     18  O   UNL     1      -3.516   3.666   0.491  1.00  0.00    -0.485 OA
ATOM     19  C   UNL     1      -3.078   4.590   1.395  1.00  0.00     0.127 A 
ATOM     20  C   UNL     1      -0.734   4.372   0.634  1.00  0.00     0.019 C 
ATOM     21  C   UNL     1      -4.061   5.177   2.193  1.00  0.00     0.047 A 
ATOM     22  C   UNL     1      -1.739   4.974   1.508  1.00  0.00     0.017 A 
ATOM     23  C   UNL     1      -3.709   6.147   3.128  1.00  0.00     0.004 A 
ATOM     24  C   UNL     1      -1.396   5.965   2.434  1.00  0.00     0.012 A 
ATOM     25  C   UNL     1      -2.378   6.543   3.246  1.00  0.00     0.001 A 
ENDBRANCH  14  15
ENDBRANCH  10  13
ENDBRANCH   8   9
BRANCH   8  26
ATOM     26  C   UNL     1      -1.725   2.345  -3.944  1.00  0.00    -0.014 A 
ATOM     27  C   UNL     1      -2.938   1.708  -3.611  1.00  0.00     0.006 A 
ATOM     28  C   UNL     1      -1.724   3.730  -4.140  1.00  0.00     0.006 A 
ATOM     29  C   UNL     1      -4.118   2.432  -3.489  1.00  0.00     0.000 A 
ATOM     30  C   UNL     1      -2.901   4.460  -3.975  1.00  0.00     0.000 A 
ATOM     31  C   UNL     1      -4.096   3.812  -3.660  1.00  0.00     0.000 A 
ENDBRANCH   8  26
ENDBRANCH   6   8
ENDBRANCH   5   6
ENDBRANCH   4   5
ENDBRANCH   3   4
ENDBRANCH   2   3
ENDBRANCH   1   2
BRANCH   1  32
ATOM     32  C   UNL     1       2.333  -0.731  -4.788  1.00  0.00     0.188 C 
BRANCH  32  33
ATOM     33  O   UNL     1       2.989   0.121  -5.702  1.00  0.00    -0.376 OA
BRANCH  33  34
ATOM     34  C   UNL     1       3.899  -0.437  -6.646  1.00  0.00     0.202 C 
BRANCH  34  35
ATOM     35  C   UNL     1       4.747  -1.708  -6.400  1.00  0.00     0.261 C 
BRANCH  35  36
ATOM     36  O   UNL     1       4.216  -2.695  -5.508  1.00  0.00    -0.460 OA
BRANCH  36  37
ATOM     37  C   UNL     1       4.793  -2.757  -4.281  1.00  0.00     0.338 C 
ATOM     38  O   UNL     1       5.731  -2.098  -3.866  1.00  0.00    -0.246 OA
BRANCH  37  39
ATOM     39  C   UNL     1       3.940  -3.601  -3.419  1.00  0.00     0.060 A 
ATOM     40  C   UNL     1       3.730  -4.944  -3.727  1.00  0.00     0.016 A 
ATOM     41  C   UNL     1       3.321  -3.022  -2.299  1.00  0.00     0.016 A 
ATOM     42  C   UNL     1       2.918  -5.715  -2.893  1.00  0.00     0.010 A 
ATOM     43  C   UNL     1       2.486  -3.787  -1.484  1.00  0.00     0.010 A 
ATOM     44  C   UNL     1       2.303  -5.147  -1.760  1.00  0.00    -0.014 A 
BRANCH  44  45
ATOM     45  C   UNL     1       1.657  -6.033  -0.763  1.00  0.00     0.031 A 
ATOM     46  C   UNL     1       0.174  -6.215  -0.687  1.00  0.00     0.074 A 
ATOM     47  C   UNL     1       2.464  -6.695   0.086  1.00  0.00     0.049 A 
ATOM     48  N   UNL     1      -0.510  -7.062   0.041  1.00  0.00    -0.248 NA
ATOM     49  C   UNL     1      -0.652  -5.333  -1.523  1.00  0.00     0.031 C 
ATOM     50  C   UNL     1       3.921  -6.554   0.131  1.00  0.00     0.029 A 
ATOM     51  N   UNL     1       2.187  -7.625   1.054  1.00  0.00    -0.354 N 
ATOM     52  C   UNL     1      -1.844  -6.843  -0.271  1.00  0.00     0.074 A 
ATOM     53  C   UNL     1      -1.877  -5.742  -1.213  1.00  0.00     0.031 C 
ATOM     54  C   UNL     1       4.413  -7.399   1.047  1.00  0.00     0.029 A 
ATOM     55  C   UNL     1       3.309  -8.124   1.668  1.00  0.00     0.049 A 
ATOM     56  H   UNL     1       1.272  -7.907   1.287  1.00  0.00     0.167 HD
ATOM     57  C   UNL     1      -2.930  -7.520   0.176  1.00  0.00     0.037 A 
ATOM     58  C   UNL     1       3.438  -9.073   2.613  1.00  0.00     0.037 A 
ATOM     59  C   UNL     1      -2.882  -8.602   1.130  1.00  0.00     0.049 A 
ATOM     60  C   UNL     1       2.212  -9.781   3.114  1.00  0.00     0.074 A 
ATOM     61  C   UNL     1      -3.927  -9.375   1.609  1.00  0.00     0.029 A 
ATOM     62  N   UNL     1      -1.733  -9.055   1.764  1.00  0.00    -0.354 N 
ATOM     63  N   UNL     1       0.964  -9.636   2.741  1.00  0.00    -0.248 NA
ATOM     64  C   UNL     1       2.412 -10.793   4.160  1.00  0.00     0.031 C 
ATOM     65  C   UNL     1      -3.421 -10.253   2.572  1.00  0.00     0.029 A 
ATOM     66  C   UNL     1      -2.051 -10.072   2.652  1.00  0.00     0.049 A 
ATOM     67  H   UNL     1      -0.827  -8.705   1.607  1.00  0.00     0.167 HD
ATOM     68  C   UNL     1       0.234 -10.549   3.488  1.00  0.00     0.074 A 
ATOM     69  C   UNL     1       1.181 -11.259   4.323  1.00  0.00     0.031 C 
ATOM     70  C   UNL     1      -1.103 -10.775   3.481  1.00  0.00     0.037 A 
BRANCH  57  71
ATOM     71  C   UNL     1      -4.276  -7.137  -0.370  1.00  0.00     0.064 A 
ATOM     72  C   UNL     1      -4.636  -7.438  -1.692  1.00  0.00     0.173 A 
ATOM     73  C   UNL     1      -5.255  -6.570   0.461  1.00  0.00     0.173 A 
ATOM     74  F   UNL     1      -3.738  -7.981  -2.529  1.00  0.00    -0.203 F 
ATOM     75  C   UNL     1      -5.919  -7.176  -2.165  1.00  0.00     0.198 A 
ATOM     76  C   UNL     1      -6.546  -6.335  -0.007  1.00  0.00     0.198 A 
ATOM     77  F   UNL     1      -4.970  -6.275   1.738  1.00  0.00    -0.203 F 
ATOM     78  F   UNL     1      -6.232  -7.453  -3.439  1.00  0.00    -0.200 F 
ATOM     79  C   UNL     1      -6.876  -6.636  -1.319  1.00  0.00     0.200 A 
ATOM     80  F   UNL     1      -7.475  -5.831   0.818  1.00  0.00    -0.200 F 
ATOM     81  F   UNL     1      -8.118  -6.407  -1.769  1.00  0.00    -0.200 F 
ENDBRANCH  57  71
BRANCH  58  82
ATOM     82  C   UNL     1       4.793  -9.438   3.097  1.00  0.00     0.064 A 
ATOM     83  C   UNL     1       5.359 -10.680   2.779  1.00  0.00     0.173 A 
ATOM     84  C   UNL     1       5.562  -8.542   3.854  1.00  0.00     0.173 A 
ATOM     85  F   UNL     1       4.657 -11.575   2.070  1.00  0.00    -0.203 F 
ATOM     86  C   UNL     1       6.641 -11.015   3.209  1.00  0.00     0.198 A 
ATOM     87  C   UNL     1       6.854  -8.867   4.257  1.00  0.00     0.198 A 
ATOM     88  F   UNL     1       5.066  -7.338   4.176  1.00  0.00    -0.203 F 
ATOM     89  F   UNL     1       7.147 -12.222   2.920  1.00  0.00    -0.200 F 
ATOM     90  C   UNL     1       7.391 -10.105   3.939  1.00  0.00     0.200 A 
ATOM     91  F   UNL     1       7.582  -7.978   4.946  1.00  0.00    -0.200 F 
ATOM     92  F   UNL     1       8.629 -10.424   4.340  1.00  0.00    -0.200 F 
ENDBRANCH  58  82
BRANCH  70  93
ATOM     93  C   UNL     1      -1.633 -11.843   4.395  1.00  0.00     0.064 A 
ATOM     94  C   UNL     1      -1.677 -11.663   5.785  1.00  0.00     0.173 A 
ATOM     95  C   UNL     1      -2.169 -13.030   3.870  1.00  0.00     0.173 A 
ATOM     96  F   UNL     1      -1.165 -10.553   6.339  1.00  0.00    -0.203 F 
ATOM     97  C   UNL     1      -2.226 -12.636   6.617  1.00  0.00     0.198 A 
ATOM     98  C   UNL     1      -2.745 -13.986   4.702  1.00  0.00     0.198 A 
ATOM     99  F   UNL     1      -2.157 -13.250   2.547  1.00  0.00    -0.203 F 
ATOM    100  F   UNL     1      -2.225 -12.457   7.945  1.00  0.00    -0.200 F 
ATOM    101  C   UNL     1      -2.769 -13.791   6.074  1.00  0.00     0.200 A 
ATOM    102  F   UNL     1      -3.284 -15.094   4.174  1.00  0.00    -0.200 F 
ATOM    103  F   UNL     1      -3.315 -14.717   6.875  1.00  0.00    -0.200 F 
ENDBRANCH  70  93
ENDBRANCH  44  45
ENDBRANCH  37  39
ENDBRANCH  36  37
ENDBRANCH  35  36
ENDBRANCH  34  35
ENDBRANCH  33  34
ENDBRANCH  32  33
ENDBRANCH   1  32
TORSDOF 21
