REMARK SMILES [N-]=[N+]=NC[C@@H](Nc1ccccc1Br)C(=O)OCCOCCOCCOC(=O)c1ccc(-c2c3nc(c(-c4c(F)c(F)c(F)c(F)c4F)c4ccc([nH]4)c(-c4c(F)c(F)c(F)c(F)c4F)c4nc(c(-c5c(F)c(F)c(F)c(F)c5F)c5ccc2[nH]5)C=C4)C=C3)cc1
REMARK SMILES IDX 20 1 19 2 18 3 17 4 16 5 14 6 15 7 5 8 4 9 3 10 1 11 2 12
REMARK SMILES IDX 6 13 7 15 8 16 12 17 9 18 11 19 13 20 10 21 21 22 22 23
REMARK SMILES IDX 23 24 24 25 25 26 26 27 27 28 28 29 29 30 90 31 30 32 89 33
REMARK SMILES IDX 31 34 32 35 33 36 83 37 34 38 88 39 82 40 84 41 35 42 87 43
REMARK SMILES IDX 81 44 80 45 36 47 68 48 48 49 67 50 49 51 52 52 66 53 85 54
REMARK SMILES IDX 50 55 51 56 65 58 86 59 53 60 37 61 38 62 46 63 39 64 40 65
REMARK SMILES IDX 44 66 47 67 41 68 42 69 45 70 43 71 69 72 70 73 78 74 71 75
REMARK SMILES IDX 72 76 76 77 79 78 73 79 74 80 77 81 75 82 54 83 55 84 63 85
REMARK SMILES IDX 56 86 57 87 61 88 64 89 58 90 59 91 62 92 60 93
REMARK H PARENT 6 14 84 46 52 57
REMARK Flexibility Score: inf
ROOT
ATOM      1  C   UNL     1       7.125   0.876   3.723  1.00  0.00     0.188 C 
ENDROOT
BRANCH   1   2
ATOM      2  O   UNL     1       7.344   0.379   5.016  1.00  0.00    -0.376 OA
BRANCH   2   3
ATOM      3  C   UNL     1       6.262  -0.011   5.839  1.00  0.00     0.202 C 
BRANCH   3   4
ATOM      4  C   UNL     1       4.753   0.095   5.525  1.00  0.00     0.261 C 
BRANCH   4   5
ATOM      5  O   UNL     1       4.258   0.022   4.178  1.00  0.00    -0.462 OA
BRANCH   5   6
ATOM      6  C   UNL     1       3.943   1.232   3.627  1.00  0.00     0.328 C 
ATOM      7  O   UNL     1       4.316   2.298   4.110  1.00  0.00    -0.250 OA
BRANCH   6   8
ATOM      8  C   UNL     1       3.046   1.159   2.366  1.00  0.00     0.195 C 
BRANCH   8   9
ATOM      9  C   UNL     1       3.157  -0.137   1.533  1.00  0.00     0.127 C 
BRANCH   9  10
ATOM     10  N   UNL     1       2.707   0.117   0.144  1.00  0.00    -0.091 NA
ATOM     11  N   UNL     1       0.485  -0.557  -0.372  1.00  0.00    -0.003 NA
ATOM     12  N   UNL     1       1.550  -0.245  -0.137  1.00  0.00     0.001 N 
ENDBRANCH   9  10
ENDBRANCH   8   9
BRANCH   8  13
ATOM     13  N   UNL     1       1.610   1.475   2.635  1.00  0.00    -0.371 N 
ATOM     14  H   UNL     1       1.028   1.855   1.939  1.00  0.00     0.161 HD
BRANCH  13  15
ATOM     15  C   UNL     1       1.133   1.206   3.921  1.00  0.00     0.049 A 
ATOM     16  C   UNL     1       0.647  -0.074   4.211  1.00  0.00     0.027 A 
ATOM     17  C   UNL     1       1.285   2.121   4.981  1.00  0.00     0.041 A 
ATOM     18  C   UNL     1       0.417  -0.465   5.531  1.00  0.00     0.002 A 
ATOM     19  C   UNL     1       1.105   1.714   6.304  1.00  0.00     0.018 A 
ATOM     20  Br  UNL     1       1.688   3.955   4.664  1.00  0.00    -0.049 Br
ATOM     21  C   UNL     1       0.686   0.414   6.577  1.00  0.00     0.001 A 
ENDBRANCH  13  15
ENDBRANCH   8  13
ENDBRANCH   6   8
ENDBRANCH   5   6
ENDBRANCH   4   5
ENDBRANCH   3   4
ENDBRANCH   2   3
ENDBRANCH   1   2
BRANCH   1  22
ATOM     22  C   UNL     1       6.698  -0.146   2.665  1.00  0.00     0.188 C 
BRANCH  22  23
ATOM     23  O   UNL     1       6.523  -1.503   3.007  1.00  0.00    -0.376 OA
BRANCH  23  24
ATOM     24  C   UNL     1       7.619  -2.206   3.577  1.00  0.00     0.202 C 
BRANCH  24  25
ATOM     25  C   UNL     1       9.092  -1.953   3.179  1.00  0.00     0.261 C 
BRANCH  25  26
ATOM     26  O   UNL     1       9.451  -0.629   2.755  1.00  0.00    -0.460 OA
BRANCH  26  27
ATOM     27  C   UNL     1       9.575  -0.441   1.415  1.00  0.00     0.338 C 
ATOM     28  O   UNL     1       9.448  -1.278   0.539  1.00  0.00    -0.246 OA
BRANCH  27  29
ATOM     29  C   UNL     1       9.665   1.014   1.144  1.00  0.00     0.060 A 
ATOM     30  C   UNL     1       8.632   1.651   0.432  1.00  0.00     0.016 A 
ATOM     31  C   UNL     1      10.768   1.743   1.580  1.00  0.00     0.016 A 
ATOM     32  C   UNL     1       8.704   3.016   0.143  1.00  0.00     0.010 A 
ATOM     33  C   UNL     1      10.862   3.098   1.250  1.00  0.00     0.010 A 
ATOM     34  C   UNL     1       9.848   3.733   0.505  1.00  0.00    -0.014 A 
BRANCH  34  35
ATOM     35  C   UNL     1      10.133   5.059  -0.097  1.00  0.00     0.031 A 
ATOM     36  C   UNL     1      11.062   5.095  -1.280  1.00  0.00     0.074 A 
ATOM     37  C   UNL     1       9.629   6.202   0.401  1.00  0.00     0.049 A 
ATOM     38  N   UNL     1      11.654   6.113  -1.849  1.00  0.00    -0.248 NA
ATOM     39  C   UNL     1      11.378   3.794  -1.895  1.00  0.00     0.031 C 
ATOM     40  C   UNL     1       8.659   6.302   1.486  1.00  0.00     0.029 A 
ATOM     41  N   UNL     1       9.899   7.507   0.065  1.00  0.00    -0.354 N 
ATOM     42  C   UNL     1      12.426   5.574  -2.870  1.00  0.00     0.074 A 
ATOM     43  C   UNL     1      12.251   4.140  -2.828  1.00  0.00     0.031 C 
ATOM     44  C   UNL     1       8.439   7.603   1.753  1.00  0.00     0.029 A 
ATOM     45  C   UNL     1       9.292   8.422   0.892  1.00  0.00     0.049 A 
ATOM     46  H   UNL     1      10.471   7.763  -0.694  1.00  0.00     0.167 HD
ATOM     47  C   UNL     1      13.209   6.220  -3.764  1.00  0.00     0.037 A 
ATOM     48  C   UNL     1       9.449   9.760   0.970  1.00  0.00     0.037 A 
ATOM     49  C   UNL     1      13.384   7.647  -3.798  1.00  0.00     0.049 A 
ATOM     50  C   UNL     1      10.418  10.447   0.033  1.00  0.00     0.074 A 
ATOM     51  C   UNL     1      14.168   8.399  -4.654  1.00  0.00     0.029 A 
ATOM     52  N   UNL     1      12.763   8.537  -2.935  1.00  0.00    -0.354 N 
ATOM     53  N   UNL     1      11.158   9.937  -0.923  1.00  0.00    -0.248 NA
ATOM     54  C   UNL     1      10.576  11.902   0.189  1.00  0.00     0.031 C 
ATOM     55  C   UNL     1      14.066   9.740  -4.274  1.00  0.00     0.029 A 
ATOM     56  C   UNL     1      13.159   9.830  -3.230  1.00  0.00     0.049 A 
ATOM     57  H   UNL     1      12.136   8.286  -2.219  1.00  0.00     0.167 HD
ATOM     58  C   UNL     1      11.817  11.010  -1.514  1.00  0.00     0.074 A 
ATOM     59  C   UNL     1      11.394  12.200  -0.810  1.00  0.00     0.031 C 
ATOM     60  C   UNL     1      12.690  11.011  -2.551  1.00  0.00     0.037 A 
BRANCH  47  61
ATOM     61  C   UNL     1      13.956   5.390  -4.767  1.00  0.00     0.064 A 
ATOM     62  C   UNL     1      13.294   4.721  -5.807  1.00  0.00     0.173 A 
ATOM     63  C   UNL     1      15.356   5.306  -4.717  1.00  0.00     0.173 A 
ATOM     64  F   UNL     1      11.956   4.756  -5.889  1.00  0.00    -0.203 F 
ATOM     65  C   UNL     1      14.005   3.982  -6.749  1.00  0.00     0.198 A 
ATOM     66  C   UNL     1      16.066   4.596  -5.681  1.00  0.00     0.198 A 
ATOM     67  F   UNL     1      16.038   5.929  -3.744  1.00  0.00    -0.203 F 
ATOM     68  F   UNL     1      13.349   3.315  -7.709  1.00  0.00    -0.200 F 
ATOM     69  C   UNL     1      15.390   3.930  -6.692  1.00  0.00     0.200 A 
ATOM     70  F   UNL     1      17.404   4.560  -5.634  1.00  0.00    -0.200 F 
ATOM     71  F   UNL     1      16.074   3.233  -7.610  1.00  0.00    -0.200 F 
ENDBRANCH  47  61
BRANCH  48  72
ATOM     72  C   UNL     1       8.706  10.556   1.986  1.00  0.00     0.064 A 
ATOM     73  C   UNL     1       7.779  11.535   1.597  1.00  0.00     0.173 A 
ATOM     74  C   UNL     1       8.959  10.415   3.359  1.00  0.00     0.173 A 
ATOM     75  F   UNL     1       7.522  11.733   0.295  1.00  0.00    -0.203 F 
ATOM     76  C   UNL     1       7.168  12.366   2.534  1.00  0.00     0.198 A 
ATOM     77  C   UNL     1       8.318  11.220   4.298  1.00  0.00     0.198 A 
ATOM     78  F   UNL     1       9.841   9.501   3.790  1.00  0.00    -0.203 F 
ATOM     79  F   UNL     1       6.350  13.346   2.124  1.00  0.00    -0.200 F 
ATOM     80  C   UNL     1       7.435  12.206   3.885  1.00  0.00     0.200 A 
ATOM     81  F   UNL     1       8.572  11.056   5.604  1.00  0.00    -0.200 F 
ATOM     82  F   UNL     1       6.858  13.014   4.784  1.00  0.00    -0.200 F 
ENDBRANCH  48  72
BRANCH  60  83
ATOM     83  C   UNL     1      13.176  12.337  -3.065  1.00  0.00     0.064 A 
ATOM     84  C   UNL     1      14.071  13.138  -2.343  1.00  0.00     0.173 A 
ATOM     85  C   UNL     1      12.791  12.773  -4.344  1.00  0.00     0.173 A 
ATOM     86  F   UNL     1      14.464  12.774  -1.113  1.00  0.00    -0.203 F 
ATOM     87  C   UNL     1      14.546  14.337  -2.872  1.00  0.00     0.198 A 
ATOM     88  C   UNL     1      13.295  13.952  -4.884  1.00  0.00     0.198 A 
ATOM     89  F   UNL     1      11.945  12.039  -5.083  1.00  0.00    -0.203 F 
ATOM     90  F   UNL     1      15.367  15.108  -2.147  1.00  0.00    -0.200 F 
ATOM     91  C   UNL     1      14.167  14.737  -4.146  1.00  0.00     0.200 A 
ATOM     92  F   UNL     1      12.944  14.324  -6.123  1.00  0.00    -0.200 F 
ATOM     93  F   UNL     1      14.640  15.880  -4.660  1.00  0.00    -0.200 F 
ENDBRANCH  60  83
ENDBRANCH  34  35
ENDBRANCH  27  29
ENDBRANCH  26  27
ENDBRANCH  25  26
ENDBRANCH  24  25
ENDBRANCH  23  24
ENDBRANCH  22  23
ENDBRANCH   1  22
TORSDOF 21
