REMARK SMILES CN1C(=O)C[C@@H](C(=O)OCCOCCOCCOC(=O)c2ccc(-c3c4nc(c(-c5c(F)c(F)c(F)c(F)c5F)c5ccc([nH]5)c(-c5c(F)c(F)c(F)c(F)c5F)c5nc(c(-c6c(F)c(F)c(F)c(F)c6F)c6ccc3[nH]6)C=C5)C=C4)cc2)C12CCN(c1ccc(Cl)cn1)CC2
REMARK SMILES IDX 14 1 13 2 12 3 11 4 10 5 9 6 7 7 8 8 6 9 1 10 2 11 3 12
REMARK SMILES IDX 84 13 4 14 5 15 85 16 96 17 86 18 95 19 87 20 88 21 89 22
REMARK SMILES IDX 94 23 90 24 93 25 91 26 92 27 15 28 16 29 17 30 18 31 19 32
REMARK SMILES IDX 20 33 21 34 22 35 83 36 23 37 82 38 24 39 25 40 26 41 76 42
REMARK SMILES IDX 27 43 81 44 75 45 77 46 28 47 80 48 74 49 73 50 29 52 61 53
REMARK SMILES IDX 41 54 60 55 42 56 45 57 59 58 78 59 43 60 44 61 58 63 79 64
REMARK SMILES IDX 46 65 30 66 31 67 39 68 32 69 33 70 37 71 40 72 34 73 35 74
REMARK SMILES IDX 38 75 36 76 62 77 63 78 71 79 64 80 65 81 69 82 72 83 66 84
REMARK SMILES IDX 67 85 70 86 68 87 47 88 48 89 56 90 49 91 50 92 54 93 57 94
REMARK SMILES IDX 51 95 52 96 55 97 53 98
REMARK H PARENT 77 51 45 62
REMARK Flexibility Score: inf
ROOT
ATOM      1  C   UNL     1      -2.527  -0.056  -4.608  1.00  0.00     0.188 C 
ENDROOT
BRANCH   1   2
ATOM      2  C   UNL     1      -3.089   1.136  -5.371  1.00  0.00     0.188 C 
BRANCH   2   3
ATOM      3  O   UNL     1      -2.286   1.759  -6.363  1.00  0.00    -0.376 OA
BRANCH   3   4
ATOM      4  C   UNL     1      -0.897   1.468  -6.417  1.00  0.00     0.202 C 
BRANCH   4   5
ATOM      5  C   UNL     1      -0.006   2.220  -5.414  1.00  0.00     0.261 C 
BRANCH   5   6
ATOM      6  O   UNL     1      -0.115   1.848  -4.008  1.00  0.00    -0.463 OA
BRANCH   6   7
ATOM      7  C   UNL     1      -0.921   2.644  -3.268  1.00  0.00     0.311 C 
ATOM      8  O   UNL     1      -1.654   3.502  -3.758  1.00  0.00    -0.252 OA
BRANCH   7   9
ATOM      9  C   UNL     1      -0.783   2.571  -1.751  1.00  0.00     0.134 C 
ATOM     10  C   UNL     1       1.779   0.440   0.013  1.00  0.00     0.147 C 
ATOM     11  N   UNL     1       0.964   1.468  -0.616  1.00  0.00    -0.339 N 
ATOM     12  C   UNL     1       1.473   2.716  -0.938  1.00  0.00     0.223 C 
ATOM     13  C   UNL     1      -0.487   1.347  -0.828  1.00  0.00     0.060 C 
ATOM     14  O   UNL     1       2.618   3.086  -0.824  1.00  0.00    -0.275 OA
ATOM     15  C   UNL     1       0.328   3.577  -1.399  1.00  0.00     0.118 C 
ATOM     16  C   UNL     1      -0.822  -0.067  -1.327  1.00  0.00     0.051 C 
ATOM     17  C   UNL     1      -1.226   1.582   0.544  1.00  0.00     0.051 C 
ATOM     18  C   UNL     1      -2.303  -0.364  -1.298  1.00  0.00     0.120 C 
ATOM     19  C   UNL     1      -2.711   1.172   0.559  1.00  0.00     0.120 C 
ATOM     20  N   UNL     1      -2.821  -0.190   0.051  1.00  0.00    -0.356 N 
BRANCH  20  21
ATOM     21  C   UNL     1      -3.959  -0.925   0.382  1.00  0.00     0.128 A 
ATOM     22  C   UNL     1      -3.952  -2.319   0.246  1.00  0.00     0.048 A 
ATOM     23  N   UNL     1      -5.076  -0.286   0.794  1.00  0.00    -0.238 NA
ATOM     24  C   UNL     1      -5.113  -3.063   0.468  1.00  0.00     0.026 A 
ATOM     25  C   UNL     1      -6.197  -1.031   1.014  1.00  0.00     0.134 A 
ATOM     26  C   UNL     1      -6.266  -2.403   0.847  1.00  0.00     0.059 A 
ATOM     27  Cl  UNL     1      -7.728  -3.268   1.088  1.00  0.00    -0.083 Cl
ENDBRANCH  20  21
ENDBRANCH   7   9
ENDBRANCH   6   7
ENDBRANCH   5   6
ENDBRANCH   4   5
ENDBRANCH   3   4
ENDBRANCH   2   3
ENDBRANCH   1   2
BRANCH   1  28
ATOM     28  O   UNL     1      -2.059  -1.095  -5.452  1.00  0.00    -0.376 OA
BRANCH  28  29
ATOM     29  C   UNL     1      -2.348  -2.396  -4.950  1.00  0.00     0.202 C 
BRANCH  29  30
ATOM     30  C   UNL     1      -3.705  -2.841  -5.502  1.00  0.00     0.261 C 
BRANCH  30  31
ATOM     31  O   UNL     1      -4.810  -2.023  -5.053  1.00  0.00    -0.460 OA
BRANCH  31  32
ATOM     32  C   UNL     1      -5.151  -2.172  -3.753  1.00  0.00     0.338 C 
ATOM     33  O   UNL     1      -4.628  -2.921  -2.947  1.00  0.00    -0.246 OA
BRANCH  32  34
ATOM     34  C   UNL     1      -6.145  -1.143  -3.384  1.00  0.00     0.060 A 
ATOM     35  C   UNL     1      -5.745  -0.112  -2.537  1.00  0.00     0.016 A 
ATOM     36  C   UNL     1      -7.478  -1.240  -3.764  1.00  0.00     0.016 A 
ATOM     37  C   UNL     1      -6.662   0.786  -2.005  1.00  0.00     0.010 A 
ATOM     38  C   UNL     1      -8.406  -0.319  -3.252  1.00  0.00     0.010 A 
ATOM     39  C   UNL     1      -8.012   0.677  -2.335  1.00  0.00    -0.014 A 
BRANCH  39  40
ATOM     40  C   UNL     1      -9.008   1.513  -1.613  1.00  0.00     0.031 A 
ATOM     41  C   UNL     1      -9.987   0.856  -0.679  1.00  0.00     0.074 A 
ATOM     42  C   UNL     1      -9.003   2.854  -1.725  1.00  0.00     0.049 A 
ATOM     43  N   UNL     1     -10.993   1.375  -0.020  1.00  0.00    -0.248 NA
ATOM     44  C   UNL     1      -9.799  -0.583  -0.445  1.00  0.00     0.031 C 
ATOM     45  C   UNL     1      -8.050   3.636  -2.511  1.00  0.00     0.029 A 
ATOM     46  N   UNL     1      -9.840   3.798  -1.179  1.00  0.00    -0.354 N 
ATOM     47  C   UNL     1     -11.566   0.325   0.685  1.00  0.00     0.074 A 
ATOM     48  C   UNL     1     -10.804  -0.863   0.369  1.00  0.00     0.031 C 
ATOM     49  C   UNL     1      -8.365   4.937  -2.413  1.00  0.00     0.029 A 
ATOM     50  C   UNL     1      -9.584   5.073  -1.620  1.00  0.00     0.049 A 
ATOM     51  H   UNL     1     -10.553   3.581  -0.536  1.00  0.00     0.167 HD
ATOM     52  C   UNL     1     -12.638   0.346   1.513  1.00  0.00     0.037 A 
ATOM     53  C   UNL     1     -10.286   6.212  -1.459  1.00  0.00     0.037 A 
ATOM     54  C   UNL     1     -13.411   1.522   1.808  1.00  0.00     0.049 A 
ATOM     55  C   UNL     1     -11.553   6.191  -0.648  1.00  0.00     0.074 A 
ATOM     56  C   UNL     1     -14.524   1.644   2.621  1.00  0.00     0.029 A 
ATOM     57  N   UNL     1     -13.161   2.781   1.282  1.00  0.00    -0.354 N 
ATOM     58  N   UNL     1     -12.105   5.193  -0.001  1.00  0.00    -0.248 NA
ATOM     59  C   UNL     1     -12.302   7.452  -0.556  1.00  0.00     0.031 C 
ATOM     60  C   UNL     1     -14.990   2.961   2.529  1.00  0.00     0.029 A 
ATOM     61  C   UNL     1     -14.129   3.676   1.712  1.00  0.00     0.049 A 
ATOM     62  H   UNL     1     -12.407   3.006   0.690  1.00  0.00     0.167 HD
ATOM     63  C   UNL     1     -13.257   5.705   0.583  1.00  0.00     0.074 A 
ATOM     64  C   UNL     1     -13.313   7.108   0.230  1.00  0.00     0.031 C 
ATOM     65  C   UNL     1     -14.184   5.068   1.341  1.00  0.00     0.037 A 
BRANCH  52  66
ATOM     66  C   UNL     1     -13.079  -0.968   2.089  1.00  0.00     0.064 A 
ATOM     67  C   UNL     1     -12.341  -1.635   3.079  1.00  0.00     0.173 A 
ATOM     68  C   UNL     1     -14.256  -1.576   1.625  1.00  0.00     0.173 A 
ATOM     69  F   UNL     1     -11.198  -1.106   3.540  1.00  0.00    -0.203 F 
ATOM     70  C   UNL     1     -12.749  -2.878   3.558  1.00  0.00     0.198 A 
ATOM     71  C   UNL     1     -14.675  -2.805   2.127  1.00  0.00     0.198 A 
ATOM     72  F   UNL     1     -14.996  -0.981   0.678  1.00  0.00    -0.203 F 
ATOM     73  F   UNL     1     -11.999  -3.525   4.462  1.00  0.00    -0.200 F 
ATOM     74  C   UNL     1     -13.916  -3.460   3.085  1.00  0.00     0.200 A 
ATOM     75  F   UNL     1     -15.806  -3.361   1.673  1.00  0.00    -0.200 F 
ATOM     76  F   UNL     1     -14.303  -4.658   3.543  1.00  0.00    -0.200 F 
ENDBRANCH  52  66
BRANCH  53  77
ATOM     77  C   UNL     1      -9.839   7.448  -2.154  1.00  0.00     0.064 A 
ATOM     78  C   UNL     1      -9.361   8.556  -1.444  1.00  0.00     0.173 A 
ATOM     79  C   UNL     1      -9.872   7.536  -3.556  1.00  0.00     0.173 A 
ATOM     80  F   UNL     1      -9.340   8.534  -0.103  1.00  0.00    -0.203 F 
ATOM     81  C   UNL     1      -8.934   9.705  -2.108  1.00  0.00     0.198 A 
ATOM     82  C   UNL     1      -9.415   8.672  -4.219  1.00  0.00     0.198 A 
ATOM     83  F   UNL     1     -10.330   6.506  -4.283  1.00  0.00    -0.203 F 
ATOM     84  F   UNL     1      -8.515  10.766  -1.405  1.00  0.00    -0.200 F 
ATOM     85  C   UNL     1      -8.951   9.758  -3.495  1.00  0.00     0.200 A 
ATOM     86  F   UNL     1      -9.423   8.711  -5.558  1.00  0.00    -0.200 F 
ATOM     87  F   UNL     1      -8.526  10.857  -4.132  1.00  0.00    -0.200 F 
ENDBRANCH  53  77
BRANCH  65  88
ATOM     88  C   UNL     1     -15.333   5.887   1.855  1.00  0.00     0.064 A 
ATOM     89  C   UNL     1     -16.347   6.349   1.002  1.00  0.00     0.173 A 
ATOM     90  C   UNL     1     -15.441   6.183   3.222  1.00  0.00     0.173 A 
ATOM     91  F   UNL     1     -16.284   6.106  -0.316  1.00  0.00    -0.203 F 
ATOM     92  C   UNL     1     -17.411   7.100   1.496  1.00  0.00     0.198 A 
ATOM     93  C   UNL     1     -16.523   6.907   3.717  1.00  0.00     0.198 A 
ATOM     94  F   UNL     1     -14.503   5.760   4.082  1.00  0.00    -0.203 F 
ATOM     95  F   UNL     1     -18.341   7.574   0.655  1.00  0.00    -0.200 F 
ATOM     96  C   UNL     1     -17.502   7.372   2.853  1.00  0.00     0.200 A 
ATOM     97  F   UNL     1     -16.616   7.156   5.030  1.00  0.00    -0.200 F 
ATOM     98  F   UNL     1     -18.530   8.089   3.326  1.00  0.00    -0.200 F 
ENDBRANCH  65  88
ENDBRANCH  39  40
ENDBRANCH  32  34
ENDBRANCH  31  32
ENDBRANCH  30  31
ENDBRANCH  29  30
ENDBRANCH  28  29
ENDBRANCH   1  28
TORSDOF 18
