REMARK SMILES [NH3+][C@H]1CCCCC[C@H]1C(=O)N1CCO[C@H](C(=O)OCCOCCOCCOC(=O)c2ccc(-c3c4nc(c(-c5c(F)c(F)c(F)c(F)c5F)c5ccc([nH]5)c(-c5c(F)c(F)c(F)c(F)c5F)c5nc(c(-c6c(F)c(F)c(F)c(F)c6F)c6ccc3[nH]6)C=C5)C=C4)cc2)C1
REMARK SMILES IDX 21 1 20 2 19 3 18 4 16 5 17 6 15 7 11 8 12 9 93 10 13 11
REMARK SMILES IDX 14 12 9 13 10 14 8 15 2 16 1 17 3 21 4 22 7 24 6 25 5 26
REMARK SMILES IDX 22 28 23 29 24 30 25 31 26 32 27 33 28 34 29 35 30 36 31 37
REMARK SMILES IDX 92 38 32 39 91 40 33 41 34 42 35 43 85 44 36 45 90 46 84 47
REMARK SMILES IDX 86 48 37 49 89 50 83 51 82 52 38 54 70 55 50 56 69 57 51 58
REMARK SMILES IDX 54 59 68 60 87 61 52 62 53 63 67 65 88 66 55 67 39 68 40 69
REMARK SMILES IDX 48 70 41 71 42 72 46 73 49 74 43 75 44 76 47 77 45 78 71 79
REMARK SMILES IDX 72 80 80 81 73 82 74 83 78 84 81 85 75 86 76 87 79 88 77 89
REMARK SMILES IDX 56 90 57 91 65 92 58 93 59 94 63 95 66 96 60 97 61 98 64 99
REMARK SMILES IDX 62 100
REMARK H PARENT 1 18 1 19 1 20 86 53 54 64
REMARK Flexibility Score: 90.00
ROOT
ATOM      1  O   UNL     1      -0.422   0.265   6.588  1.00  0.00    -0.376 OA
ENDROOT
BRANCH   1   2
ATOM      2  C   UNL     1      -1.324   1.365   6.463  1.00  0.00     0.202 C 
BRANCH   2   3
ATOM      3  C   UNL     1      -0.838   2.774   6.049  1.00  0.00     0.261 C 
BRANCH   3   4
ATOM      4  O   UNL     1       0.053   2.852   4.916  1.00  0.00    -0.461 OA
BRANCH   4   5
ATOM      5  C   UNL     1       1.313   3.332   5.155  1.00  0.00     0.337 C 
ATOM      6  O   UNL     1       1.748   3.562   6.282  1.00  0.00    -0.249 OA
BRANCH   5   7
ATOM      7  C   UNL     1       2.132   3.648   3.880  1.00  0.00     0.247 C 
ATOM      8  N   UNL     1       1.389   2.398   1.817  1.00  0.00    -0.337 N 
ATOM      9  C   UNL     1       2.798   2.053   1.586  1.00  0.00     0.148 C 
ATOM     10  C   UNL     1       1.331   3.655   2.570  1.00  0.00     0.163 C 
ATOM     11  C   UNL     1       3.610   1.991   2.889  1.00  0.00     0.183 C 
ATOM     12  O   UNL     1       3.461   3.131   3.744  1.00  0.00    -0.363 OA
BRANCH   8  13
ATOM     13  C   UNL     1       0.508   2.337   0.725  1.00  0.00     0.231 C 
ATOM     14  O   UNL     1       0.406   3.315  -0.025  1.00  0.00    -0.274 OA
BRANCH  13  15
ATOM     15  C   UNL     1      -0.535   1.170   0.601  1.00  0.00     0.136 C 
BRANCH  15  16
ATOM     16  C   UNL     1       0.008  -0.230   0.203  1.00  0.00     0.193 C 
BRANCH  16  17
ATOM     17  N   UNL     1       1.256  -0.694   0.779  1.00  0.00    -0.354 N 
ATOM     18  H   UNL     1       1.471  -1.624   0.419  1.00  0.00     0.344 HD
ATOM     19  H   UNL     1       1.167  -0.735   1.795  1.00  0.00     0.344 HD
ATOM     20  H   UNL     1       2.006  -0.050   0.530  1.00  0.00     0.344 HD
ENDBRANCH  16  17
BRANCH  16  21
ATOM     21  C   UNL     1      -1.040  -1.356   0.035  1.00  0.00     0.066 C 
BRANCH  21  22
ATOM     22  C   UNL     1      -1.822  -1.969   1.192  1.00  0.00     0.006 CG0
ATOM     23  G   UNL     1      -2.590  -1.063   2.147  1.00  0.00     0.000 G0
ENDBRANCH  21  22
ENDBRANCH  16  21
ENDBRANCH  15  16
BRANCH  15  24
ATOM     24  C   UNL     1      -1.644   1.347   1.661  1.00  0.00     0.020 C 
BRANCH  24  25
ATOM     25  C   UNL     1      -2.827   0.376   1.729  1.00  0.00     0.001 C 
BRANCH  25  26
ATOM     26  C   UNL     1      -2.590  -1.063   2.147  1.00  0.00     0.000 CG0
ATOM     27  G   UNL     1      -1.822  -1.969   1.192  1.00  0.00     0.000 G0
ENDBRANCH  25  26
ENDBRANCH  24  25
ENDBRANCH  15  24
ENDBRANCH  13  15
ENDBRANCH   8  13
ENDBRANCH   5   7
ENDBRANCH   4   5
ENDBRANCH   3   4
ENDBRANCH   2   3
ENDBRANCH   1   2
BRANCH   1  28
ATOM     28  C   UNL     1       0.914   0.550   6.951  1.00  0.00     0.188 C 
BRANCH  28  29
ATOM     29  C   UNL     1       1.910   0.273   5.822  1.00  0.00     0.188 C 
BRANCH  29  30
ATOM     30  O   UNL     1       1.506   0.494   4.481  1.00  0.00    -0.376 OA
BRANCH  30  31
ATOM     31  C   UNL     1       0.319  -0.093   3.999  1.00  0.00     0.202 C 
BRANCH  31  32
ATOM     32  C   UNL     1       0.117  -1.593   4.054  1.00  0.00     0.261 C 
BRANCH  32  33
ATOM     33  O   UNL     1       1.227  -2.300   4.527  1.00  0.00    -0.460 OA
BRANCH  33  34
ATOM     34  C   UNL     1       2.087  -2.722   3.583  1.00  0.00     0.338 C 
ATOM     35  O   UNL     1       2.015  -2.733   2.371  1.00  0.00    -0.246 OA
BRANCH  34  36
ATOM     36  C   UNL     1       3.230  -3.056   4.390  1.00  0.00     0.060 A 
ATOM     37  C   UNL     1       4.237  -2.096   4.511  1.00  0.00     0.016 A 
ATOM     38  C   UNL     1       3.112  -4.177   5.214  1.00  0.00     0.016 A 
ATOM     39  C   UNL     1       5.182  -2.276   5.491  1.00  0.00     0.010 A 
ATOM     40  C   UNL     1       4.053  -4.352   6.197  1.00  0.00     0.010 A 
ATOM     41  C   UNL     1       5.092  -3.415   6.303  1.00  0.00    -0.014 A 
BRANCH  41  42
ATOM     42  C   UNL     1       6.236  -3.760   7.133  1.00  0.00     0.031 A 
ATOM     43  C   UNL     1       7.163  -4.784   6.573  1.00  0.00     0.074 A 
ATOM     44  C   UNL     1       6.390  -3.139   8.308  1.00  0.00     0.049 A 
ATOM     45  N   UNL     1       8.172  -5.377   7.138  1.00  0.00    -0.248 NA
ATOM     46  C   UNL     1       6.905  -5.218   5.184  1.00  0.00     0.031 C 
ATOM     47  C   UNL     1       5.513  -2.089   8.833  1.00  0.00     0.029 A 
ATOM     48  N   UNL     1       7.337  -3.306   9.270  1.00  0.00    -0.354 N 
ATOM     49  C   UNL     1       8.659  -6.256   6.183  1.00  0.00     0.074 A 
ATOM     50  C   UNL     1       7.819  -6.157   5.016  1.00  0.00     0.031 C 
ATOM     51  C   UNL     1       5.971  -1.703  10.035  1.00  0.00     0.029 A 
ATOM     52  C   UNL     1       7.126  -2.524  10.376  1.00  0.00     0.049 A 
ATOM     53  H   UNL     1       8.098  -3.925   9.181  1.00  0.00     0.167 HD
ATOM     54  C   UNL     1       9.734  -7.064   6.295  1.00  0.00     0.037 A 
ATOM     55  C   UNL     1       7.793  -2.530  11.541  1.00  0.00     0.037 A 
ATOM     56  C   UNL     1      10.523  -7.114   7.493  1.00  0.00     0.049 A 
ATOM     57  C   UNL     1       8.937  -3.503  11.662  1.00  0.00     0.074 A 
ATOM     58  C   UNL     1      11.618  -7.902   7.779  1.00  0.00     0.029 A 
ATOM     59  N   UNL     1      10.283  -6.324   8.614  1.00  0.00    -0.354 N 
ATOM     60  N   UNL     1       9.395  -4.359  10.775  1.00  0.00    -0.248 NA
ATOM     61  C   UNL     1       9.654  -3.518  12.939  1.00  0.00     0.031 C 
ATOM     62  C   UNL     1      12.012  -7.620   9.091  1.00  0.00     0.029 A 
ATOM     63  C   UNL     1      11.205  -6.610   9.600  1.00  0.00     0.049 A 
ATOM     64  H   UNL     1       9.562  -5.658   8.691  1.00  0.00     0.167 HD
ATOM     65  C   UNL     1      10.476  -4.989  11.370  1.00  0.00     0.074 A 
ATOM     66  C   UNL     1      10.611  -4.400  12.691  1.00  0.00     0.031 C 
ATOM     67  C   UNL     1      11.288  -5.964  10.887  1.00  0.00     0.037 A 
BRANCH  54  68
ATOM     68  C   UNL     1      10.067  -7.945   5.131  1.00  0.00     0.064 A 
ATOM     69  C   UNL     1      10.538  -7.422   3.916  1.00  0.00     0.173 A 
ATOM     70  C   UNL     1       9.910  -9.335   5.226  1.00  0.00     0.173 A 
ATOM     71  F   UNL     1      10.670  -6.096   3.757  1.00  0.00    -0.203 F 
ATOM     72  C   UNL     1      10.826  -8.256   2.838  1.00  0.00     0.198 A 
ATOM     73  C   UNL     1      10.228 -10.169   4.158  1.00  0.00     0.198 A 
ATOM     74  F   UNL     1       9.443  -9.887   6.356  1.00  0.00    -0.203 F 
ATOM     75  F   UNL     1      11.226  -7.729   1.672  1.00  0.00    -0.200 F 
ATOM     76  C   UNL     1      10.681  -9.629   2.963  1.00  0.00     0.200 A 
ATOM     77  F   UNL     1      10.090 -11.496   4.282  1.00  0.00    -0.200 F 
ATOM     78  F   UNL     1      10.969 -10.432   1.930  1.00  0.00    -0.200 F 
ENDBRANCH  54  68
BRANCH  55  79
ATOM     79  C   UNL     1       7.389  -1.633  12.652  1.00  0.00     0.064 A 
ATOM     80  C   UNL     1       8.250  -0.634  13.125  1.00  0.00     0.173 A 
ATOM     81  C   UNL     1       6.139  -1.760  13.279  1.00  0.00     0.173 A 
ATOM     82  F   UNL     1       9.458  -0.472  12.564  1.00  0.00    -0.203 F 
ATOM     83  C   UNL     1       7.896   0.173  14.205  1.00  0.00     0.198 A 
ATOM     84  C   UNL     1       5.771  -0.929  14.334  1.00  0.00     0.198 A 
ATOM     85  F   UNL     1       5.266  -2.689  12.860  1.00  0.00    -0.203 F 
ATOM     86  F   UNL     1       8.766   1.077  14.674  1.00  0.00    -0.200 F 
ATOM     87  C   UNL     1       6.656   0.027  14.807  1.00  0.00     0.200 A 
ATOM     88  F   UNL     1       4.561  -1.059  14.897  1.00  0.00    -0.200 F 
ATOM     89  F   UNL     1       6.318   0.800  15.848  1.00  0.00    -0.200 F 
ENDBRANCH  55  79
BRANCH  67  90
ATOM     90  C   UNL     1      12.416  -6.388  11.776  1.00  0.00     0.064 A 
ATOM     91  C   UNL     1      12.197  -7.130  12.944  1.00  0.00     0.173 A 
ATOM     92  C   UNL     1      13.738  -6.075  11.424  1.00  0.00     0.173 A 
ATOM     93  F   UNL     1      10.947  -7.438  13.325  1.00  0.00    -0.203 F 
ATOM     94  C   UNL     1      13.262  -7.513  13.751  1.00  0.00     0.198 A 
ATOM     95  C   UNL     1      14.802  -6.497  12.210  1.00  0.00     0.198 A 
ATOM     96  F   UNL     1      13.995  -5.378  10.307  1.00  0.00    -0.203 F 
ATOM     97  F   UNL     1      13.028  -8.164  14.898  1.00  0.00    -0.200 F 
ATOM     98  C   UNL     1      14.562  -7.204  13.379  1.00  0.00     0.200 A 
ATOM     99  F   UNL     1      16.058  -6.218  11.838  1.00  0.00    -0.200 F 
ATOM    100  F   UNL     1      15.588  -7.582  14.154  1.00  0.00    -0.200 F 
ENDBRANCH  67  90
ENDBRANCH  41  42
ENDBRANCH  34  36
ENDBRANCH  33  34
ENDBRANCH  32  33
ENDBRANCH  31  32
ENDBRANCH  30  31
ENDBRANCH  29  30
ENDBRANCH  28  29
ENDBRANCH   1  28
TORSDOF 20
