REMARK SMILES CC[C@](C)(NC(=O)Cc1cccc(F)c1)C(=O)OCCOCCOCCOC(=O)c1ccc(-c2c3nc(c(-c4c(F)c(F)c(F)c(F)c4F)c4ccc([nH]4)c(-c4c(F)c(F)c(F)c(F)c4F)c4nc(c(-c5c(F)c(F)c(F)c(F)c5F)c5ccc2[nH]5)C=C4)C=C3)cc1
REMARK SMILES IDX 22 1 21 2 20 3 19 4 18 5 16 6 17 7 3 8 4 9 2 10 1 11 5 12
REMARK SMILES IDX 6 13 7 15 8 16 9 17 10 18 15 19 11 20 13 21 12 22 14 23
REMARK SMILES IDX 23 24 24 25 25 26 26 27 27 28 28 29 29 30 30 31 31 32 92 33
REMARK SMILES IDX 32 34 91 35 33 36 34 37 35 38 85 39 36 40 90 41 84 42 86 43
REMARK SMILES IDX 37 44 89 45 83 46 82 47 38 49 70 50 50 51 69 52 51 53 54 54
REMARK SMILES IDX 68 55 87 56 52 57 53 58 67 60 88 61 55 62 39 63 40 64 48 65
REMARK SMILES IDX 41 66 42 67 46 68 49 69 43 70 44 71 47 72 45 73 71 74 72 75
REMARK SMILES IDX 80 76 73 77 74 78 78 79 81 80 75 81 76 82 79 83 77 84 56 85
REMARK SMILES IDX 57 86 65 87 58 88 59 89 63 90 66 91 60 92 61 93 64 94 62 95
REMARK H PARENT 5 14 86 48 54 59
REMARK Flexibility Score: inf
ROOT
ATOM      1  C   UNL     1       3.787   1.793  -2.900  1.00  0.00     0.188 C 
ENDROOT
BRANCH   1   2
ATOM      2  O   UNL     1       5.037   0.463  -2.080  1.00  0.00    -0.376 OA
BRANCH   2   3
ATOM      3  C   UNL     1       5.526  -1.022  -1.996  1.00  0.00     0.202 C 
BRANCH   3   4
ATOM      4  C   UNL     1       4.699  -2.227  -1.343  1.00  0.00     0.261 C 
BRANCH   4   5
ATOM      5  O   UNL     1       3.444  -2.598  -2.003  1.00  0.00    -0.462 OA
BRANCH   5   6
ATOM      6  C   UNL     1       2.293  -2.705  -1.277  1.00  0.00     0.331 C 
ATOM      7  O   UNL     1       2.305  -2.892  -0.066  1.00  0.00    -0.249 OA
BRANCH   6   8
ATOM      8  C   UNL     1       0.970  -2.331  -2.107  1.00  0.00     0.135 C 
ATOM      9  C   UNL     1       0.360  -0.944  -1.753  1.00  0.00     0.047 C 
BRANCH   8  10
ATOM     10  C   UNL     1      -0.118  -3.378  -1.691  1.00  0.00     0.037 C 
ATOM     11  C   UNL     1      -0.755  -3.152  -0.314  1.00  0.00     0.007 C 
ENDBRANCH   8  10
BRANCH   8  12
ATOM     12  N   UNL     1       1.076  -2.370  -3.591  1.00  0.00    -0.340 N 
ATOM     13  C   UNL     1       1.838  -1.678  -4.481  1.00  0.00     0.225 C 
ATOM     14  H   UNL     1       0.476  -3.028  -4.012  1.00  0.00     0.164 HD
ATOM     15  O   UNL     1       1.293  -1.450  -5.569  1.00  0.00    -0.275 OA
BRANCH  13  16
ATOM     16  C   UNL     1       3.310  -1.401  -4.288  1.00  0.00     0.135 C 
BRANCH  16  17
ATOM     17  C   UNL     1       3.783  -0.275  -3.374  1.00  0.00    -0.036 A 
ATOM     18  C   UNL     1       5.246   0.646  -3.994  1.00  0.00     0.004 A 
ATOM     19  C   UNL     1       3.199   0.110  -1.684  1.00  0.00     0.043 A 
ATOM     20  C   UNL     1       6.055   1.872  -2.960  1.00  0.00     0.003 A 
ATOM     21  C   UNL     1       4.056   1.320  -0.668  1.00  0.00     0.123 A 
ATOM     22  C   UNL     1       5.440   2.215  -1.313  1.00  0.00     0.039 A 
ATOM     23  F   UNL     1       3.634   1.533   0.587  1.00  0.00    -0.207 F 
ENDBRANCH  16  17
ENDBRANCH  13  16
ENDBRANCH   8  12
ENDBRANCH   6   8
ENDBRANCH   5   6
ENDBRANCH   4   5
ENDBRANCH   3   4
ENDBRANCH   2   3
ENDBRANCH   1   2
BRANCH   1  24
ATOM     24  C   UNL     1       2.755   1.748  -4.235  1.00  0.00     0.188 C 
BRANCH  24  25
ATOM     25  O   UNL     1       3.040   1.053  -5.427  1.00  0.00    -0.376 OA
BRANCH  25  26
ATOM     26  C   UNL     1       3.615   1.523  -6.626  1.00  0.00     0.202 C 
BRANCH  26  27
ATOM     27  C   UNL     1       4.501   2.764  -6.724  1.00  0.00     0.261 C 
BRANCH  27  28
ATOM     28  O   UNL     1       4.099   3.848  -5.901  1.00  0.00    -0.460 OA
BRANCH  28  29
ATOM     29  C   UNL     1       2.926   4.443  -6.253  1.00  0.00     0.338 C 
ATOM     30  O   UNL     1       2.285   4.285  -7.249  1.00  0.00    -0.246 OA
BRANCH  29  31
ATOM     31  C   UNL     1       2.458   5.098  -5.005  1.00  0.00     0.060 A 
ATOM     32  C   UNL     1       1.138   4.846  -4.611  1.00  0.00     0.016 A 
ATOM     33  C   UNL     1       3.352   5.761  -4.154  1.00  0.00     0.016 A 
ATOM     34  C   UNL     1       0.701   5.285  -3.368  1.00  0.00     0.010 A 
ATOM     35  C   UNL     1       2.906   6.231  -2.923  1.00  0.00     0.010 A 
ATOM     36  C   UNL     1       1.567   6.033  -2.555  1.00  0.00    -0.014 A 
BRANCH  36  37
ATOM     37  C   UNL     1       0.948   6.909  -1.542  1.00  0.00     0.031 A 
ATOM     38  C   UNL     1       0.451   8.239  -2.040  1.00  0.00     0.074 A 
ATOM     39  C   UNL     1       0.748   6.516  -0.275  1.00  0.00     0.049 A 
ATOM     40  N   UNL     1      -0.237   9.156  -1.417  1.00  0.00    -0.248 NA
ATOM     41  C   UNL     1       0.757   8.569  -3.446  1.00  0.00     0.031 C 
ATOM     42  C   UNL     1       1.156   5.236   0.298  1.00  0.00     0.029 A 
ATOM     43  N   UNL     1       0.123   7.168   0.757  1.00  0.00    -0.354 N 
ATOM     44  C   UNL     1      -0.474  10.143  -2.362  1.00  0.00     0.074 A 
ATOM     45  C   UNL     1       0.179   9.749  -3.586  1.00  0.00     0.031 C 
ATOM     46  C   UNL     1       0.761   5.192   1.584  1.00  0.00     0.029 A 
ATOM     47  C   UNL     1       0.084   6.445   1.922  1.00  0.00     0.049 A 
ATOM     48  H   UNL     1      -0.262   8.070   0.670  1.00  0.00     0.167 HD
ATOM     49  C   UNL     1      -1.196  11.275  -2.228  1.00  0.00     0.037 A 
ATOM     50  C   UNL     1      -0.446   6.771   3.117  1.00  0.00     0.037 A 
ATOM     51  C   UNL     1      -1.821  11.682  -1.005  1.00  0.00     0.049 A 
ATOM     52  C   UNL     1      -1.156   8.097   3.268  1.00  0.00     0.074 A 
ATOM     53  C   UNL     1      -2.555  12.824  -0.753  1.00  0.00     0.029 A 
ATOM     54  N   UNL     1      -1.772  10.958   0.177  1.00  0.00    -0.354 N 
ATOM     55  N   UNL     1      -1.406   9.014   2.363  1.00  0.00    -0.248 NA
ATOM     56  C   UNL     1      -1.662   8.429   4.607  1.00  0.00     0.031 C 
ATOM     57  C   UNL     1      -2.909  12.818   0.598  1.00  0.00     0.029 A 
ATOM     58  C   UNL     1      -2.443  11.645   1.172  1.00  0.00     0.049 A 
ATOM     59  H   UNL     1      -1.328  10.087   0.290  1.00  0.00     0.167 HD
ATOM     60  C   UNL     1      -2.118  10.014   3.015  1.00  0.00     0.074 A 
ATOM     61  C   UNL     1      -2.279   9.582   4.388  1.00  0.00     0.031 C 
ATOM     62  C   UNL     1      -2.593  11.187   2.529  1.00  0.00     0.037 A 
BRANCH  49  63
ATOM     63  C   UNL     1      -1.332  12.154  -3.430  1.00  0.00     0.064 A 
ATOM     64  C   UNL     1      -0.653  13.378  -3.495  1.00  0.00     0.173 A 
ATOM     65  C   UNL     1      -2.167  11.800  -4.501  1.00  0.00     0.173 A 
ATOM     66  F   UNL     1       0.168  13.749  -2.502  1.00  0.00    -0.203 F 
ATOM     67  C   UNL     1      -0.827  14.232  -4.580  1.00  0.00     0.198 A 
ATOM     68  C   UNL     1      -2.319  12.646  -5.595  1.00  0.00     0.198 A 
ATOM     69  F   UNL     1      -2.809  10.622  -4.497  1.00  0.00    -0.203 F 
ATOM     70  F   UNL     1      -0.191  15.411  -4.609  1.00  0.00    -0.200 F 
ATOM     71  C   UNL     1      -1.659  13.866  -5.628  1.00  0.00     0.200 A 
ATOM     72  F   UNL     1      -3.099  12.279  -6.621  1.00  0.00    -0.200 F 
ATOM     73  F   UNL     1      -1.821  14.688  -6.673  1.00  0.00    -0.200 F 
ENDBRANCH  49  63
BRANCH  50  74
ATOM     74  C   UNL     1      -0.338   5.837   4.269  1.00  0.00     0.064 A 
ATOM     75  C   UNL     1       0.899   5.569   4.873  1.00  0.00     0.173 A 
ATOM     76  C   UNL     1      -1.475   5.231   4.821  1.00  0.00     0.173 A 
ATOM     77  F   UNL     1       2.018   6.131   4.392  1.00  0.00    -0.203 F 
ATOM     78  C   UNL     1       0.995   4.727   5.980  1.00  0.00     0.198 A 
ATOM     79  C   UNL     1      -1.383   4.412   5.945  1.00  0.00     0.198 A 
ATOM     80  F   UNL     1      -2.686   5.479   4.298  1.00  0.00    -0.203 F 
ATOM     81  F   UNL     1       2.191   4.481   6.532  1.00  0.00    -0.200 F 
ATOM     82  C   UNL     1      -0.148   4.157   6.521  1.00  0.00     0.200 A 
ATOM     83  F   UNL     1      -2.493   3.891   6.485  1.00  0.00    -0.200 F 
ATOM     84  F   UNL     1      -0.060   3.376   7.606  1.00  0.00    -0.200 F 
ENDBRANCH  50  74
BRANCH  62  85
ATOM     85  C   UNL     1      -3.343  12.082   3.471  1.00  0.00     0.064 A 
ATOM     86  C   UNL     1      -4.718  12.307   3.296  1.00  0.00     0.173 A 
ATOM     87  C   UNL     1      -2.687  12.784   4.492  1.00  0.00     0.173 A 
ATOM     88  F   UNL     1      -5.389  11.673   2.323  1.00  0.00    -0.203 F 
ATOM     89  C   UNL     1      -5.404  13.211   4.102  1.00  0.00     0.198 A 
ATOM     90  C   UNL     1      -3.383  13.661   5.318  1.00  0.00     0.198 A 
ATOM     91  F   UNL     1      -1.375  12.599   4.702  1.00  0.00    -0.203 F 
ATOM     92  F   UNL     1      -6.707  13.439   3.890  1.00  0.00    -0.200 F 
ATOM     93  C   UNL     1      -4.737  13.882   5.116  1.00  0.00     0.200 A 
ATOM     94  F   UNL     1      -2.743  14.291   6.313  1.00  0.00    -0.200 F 
ATOM     95  F   UNL     1      -5.402  14.741   5.900  1.00  0.00    -0.200 F 
ENDBRANCH  62  85
ENDBRANCH  36  37
ENDBRANCH  29  31
ENDBRANCH  28  29
ENDBRANCH  27  28
ENDBRANCH  26  27
ENDBRANCH  25  26
ENDBRANCH  24  25
ENDBRANCH   1  24
TORSDOF 21
