REMARK SMILES COc1ccc(-c2nc3ccc(C)cc3[nH]2)c(C(=O)OCCOCCOCCOC(=O)c2ccc(-c3c4nc(c(-c5c(F)c(F)c(F)c(F)c5F)c5ccc([nH]5)c(-c5c(F)c(F)c(F)c(F)c5F)c5nc(c(-c6c(F)c(F)c(F)c(F)c6F)c6ccc3[nH]6)C=C5)C=C4)cc2)c1OC
REMARK SMILES IDX 25 1 24 2 23 3 22 4 21 5 20 6 18 7 19 8 17 9 3 10 4 11 95 12
REMARK SMILES IDX 5 13 6 14 2 15 1 16 96 17 97 18 7 19 8 20 16 21 9 22 15 23
REMARK SMILES IDX 10 25 14 26 11 27 12 28 13 29 26 30 27 31 28 32 29 33 30 34
REMARK SMILES IDX 31 35 32 36 33 37 94 38 34 39 93 40 35 41 36 42 37 43 87 44
REMARK SMILES IDX 38 45 92 46 86 47 88 48 39 49 91 50 85 51 84 52 40 54 72 55
REMARK SMILES IDX 52 56 71 57 53 58 56 59 70 60 89 61 54 62 55 63 69 65 90 66
REMARK SMILES IDX 57 67 41 68 42 69 50 70 43 71 44 72 48 73 51 74 45 75 46 76
REMARK SMILES IDX 49 77 47 78 73 79 74 80 82 81 75 82 76 83 80 84 83 85 77 86
REMARK SMILES IDX 78 87 81 88 79 89 58 90 59 91 67 92 60 93 61 94 65 95 68 96
REMARK SMILES IDX 62 97 63 98 66 99 64 100
REMARK H PARENT 16 24 88 53 56 64
REMARK Flexibility Score: inf
ROOT
ATOM      1  C   UNL     1       4.918   1.500  -4.130  1.00  0.00     0.188 C 
ENDROOT
BRANCH   1   2
ATOM      2  C   UNL     1       5.760   2.772  -3.967  1.00  0.00     0.188 C 
BRANCH   2   3
ATOM      3  O   UNL     1       6.856   2.621  -3.062  1.00  0.00    -0.376 OA
BRANCH   3   4
ATOM      4  C   UNL     1       6.880   3.625  -2.044  1.00  0.00     0.202 C 
BRANCH   4   5
ATOM      5  C   UNL     1       6.128   3.136  -0.809  1.00  0.00     0.261 C 
BRANCH   5   6
ATOM      6  O   UNL     1       4.769   2.793  -1.130  1.00  0.00    -0.460 OA
BRANCH   6   7
ATOM      7  C   UNL     1       3.825   3.740  -0.948  1.00  0.00     0.342 C 
ATOM      8  O   UNL     1       3.990   4.868  -0.510  1.00  0.00    -0.246 OA
BRANCH   7   9
ATOM      9  C   UNL     1       2.532   3.236  -1.471  1.00  0.00     0.116 A 
ATOM     10  C   UNL     1       0.802   1.545  -1.566  1.00  0.00     0.161 A 
ATOM     11  C   UNL     1       0.111   2.305  -2.513  1.00  0.00     0.051 A 
ATOM     12  C   UNL     1       2.022   1.997  -1.043  1.00  0.00     0.176 A 
ATOM     13  C   UNL     1       0.625   3.529  -2.948  1.00  0.00     0.017 A 
ATOM     14  C   UNL     1       1.846   3.996  -2.446  1.00  0.00     0.036 A 
BRANCH  10  15
ATOM     15  O   UNL     1       0.279   0.313  -1.281  1.00  0.00    -0.493 OA
ATOM     16  C   UNL     1      -0.244   0.229   0.042  1.00  0.00     0.278 C 
ENDBRANCH  10  15
BRANCH  12  17
ATOM     17  O   UNL     1       2.697   1.303  -0.071  1.00  0.00    -0.492 OA
ATOM     18  C   UNL     1       3.102  -0.008  -0.475  1.00  0.00     0.278 C 
ENDBRANCH  12  17
BRANCH  14  19
ATOM     19  C   UNL     1       2.501   5.123  -3.101  1.00  0.00     0.139 A 
ATOM     20  N   UNL     1       3.424   4.979  -4.028  1.00  0.00    -0.228 NA
ATOM     21  N   UNL     1       2.367   6.448  -2.757  1.00  0.00    -0.338 N 
ATOM     22  C   UNL     1       4.046   6.190  -4.124  1.00  0.00     0.089 A 
ATOM     23  C   UNL     1       3.375   7.151  -3.381  1.00  0.00     0.066 A 
ATOM     24  H   UNL     1       1.675   6.827  -2.169  1.00  0.00     0.168 HD
ATOM     25  C   UNL     1       5.200   6.533  -4.838  1.00  0.00     0.031 A 
ATOM     26  C   UNL     1       3.769   8.492  -3.350  1.00  0.00     0.031 A 
ATOM     27  C   UNL     1       5.618   7.865  -4.823  1.00  0.00     0.006 A 
ATOM     28  C   UNL     1       4.902   8.841  -4.113  1.00  0.00    -0.049 A 
ATOM     29  C   UNL     1       5.354  10.271  -4.213  1.00  0.00     0.044 C 
ENDBRANCH  14  19
ENDBRANCH   7   9
ENDBRANCH   6   7
ENDBRANCH   5   6
ENDBRANCH   4   5
ENDBRANCH   3   4
ENDBRANCH   2   3
ENDBRANCH   1   2
BRANCH   1  30
ATOM     30  O   UNL     1       5.561   0.258  -4.404  1.00  0.00    -0.376 OA
BRANCH  30  31
ATOM     31  C   UNL     1       6.841   0.284  -5.016  1.00  0.00     0.202 C 
BRANCH  31  32
ATOM     32  C   UNL     1       6.850   0.532  -6.527  1.00  0.00     0.261 C 
BRANCH  32  33
ATOM     33  O   UNL     1       6.226   1.768  -6.923  1.00  0.00    -0.460 OA
BRANCH  33  34
ATOM     34  C   UNL     1       5.020   1.639  -7.527  1.00  0.00     0.338 C 
ATOM     35  O   UNL     1       4.423   0.604  -7.773  1.00  0.00    -0.246 OA
BRANCH  34  36
ATOM     36  C   UNL     1       4.437   2.965  -7.822  1.00  0.00     0.060 A 
ATOM     37  C   UNL     1       3.147   3.239  -7.356  1.00  0.00     0.016 A 
ATOM     38  C   UNL     1       5.085   3.875  -8.661  1.00  0.00     0.016 A 
ATOM     39  C   UNL     1       2.486   4.406  -7.754  1.00  0.00     0.010 A 
ATOM     40  C   UNL     1       4.416   5.040  -9.067  1.00  0.00     0.010 A 
ATOM     41  C   UNL     1       3.100   5.302  -8.640  1.00  0.00    -0.014 A 
BRANCH  41  42
ATOM     42  C   UNL     1       2.346   6.468  -9.180  1.00  0.00     0.031 A 
ATOM     43  C   UNL     1       1.748   6.410 -10.554  1.00  0.00     0.074 A 
ATOM     44  C   UNL     1       2.181   7.590  -8.457  1.00  0.00     0.049 A 
ATOM     45  N   UNL     1       1.137   7.355 -11.226  1.00  0.00    -0.248 NA
ATOM     46  C   UNL     1       1.837   5.125 -11.260  1.00  0.00     0.031 C 
ATOM     47  C   UNL     1       2.651   7.772  -7.095  1.00  0.00     0.029 A 
ATOM     48  N   UNL     1       1.590   8.792  -8.768  1.00  0.00    -0.354 N 
ATOM     49  C   UNL     1       0.770   6.782 -12.434  1.00  0.00     0.074 A 
ATOM     50  C   UNL     1       1.242   5.412 -12.411  1.00  0.00     0.031 C 
ATOM     51  C   UNL     1       2.375   9.023  -6.693  1.00  0.00     0.029 A 
ATOM     52  C   UNL     1       1.725   9.738  -7.781  1.00  0.00     0.049 A 
ATOM     53  H   UNL     1       1.116   8.959  -9.614  1.00  0.00     0.167 HD
ATOM     54  C   UNL     1       0.095   7.348 -13.462  1.00  0.00     0.037 A 
ATOM     55  C   UNL     1       1.400  11.043  -7.754  1.00  0.00     0.037 A 
ATOM     56  C   UNL     1      -0.391   8.704 -13.491  1.00  0.00     0.049 A 
ATOM     57  C   UNL     1       0.743  11.669  -8.944  1.00  0.00     0.074 A 
ATOM     58  C   UNL     1      -1.144   9.327 -14.472  1.00  0.00     0.029 A 
ATOM     59  N   UNL     1      -0.161   9.652 -12.507  1.00  0.00    -0.354 N 
ATOM     60  N   UNL     1       0.403  11.119 -10.080  1.00  0.00    -0.248 NA
ATOM     61  C   UNL     1       0.429  13.103  -8.847  1.00  0.00     0.031 C 
ATOM     62  C   UNL     1      -1.326  10.666 -14.107  1.00  0.00     0.029 A 
ATOM     63  C   UNL     1      -0.725  10.865 -12.877  1.00  0.00     0.049 A 
ATOM     64  H   UNL     1       0.329   9.489 -11.669  1.00  0.00     0.167 HD
ATOM     65  C   UNL     1      -0.163  12.133 -10.835  1.00  0.00     0.074 A 
ATOM     66  C   UNL     1      -0.140  13.331 -10.021  1.00  0.00     0.031 C 
ATOM     67  C   UNL     1      -0.659  12.068 -12.092  1.00  0.00     0.037 A 
BRANCH  54  68
ATOM     68  C   UNL     1      -0.151   6.503 -14.672  1.00  0.00     0.064 A 
ATOM     69  C   UNL     1      -1.145   5.514 -14.688  1.00  0.00     0.173 A 
ATOM     70  C   UNL     1       0.564   6.742 -15.854  1.00  0.00     0.173 A 
ATOM     71  F   UNL     1      -1.847   5.245 -13.577  1.00  0.00    -0.203 F 
ATOM     72  C   UNL     1      -1.410   4.790 -15.846  1.00  0.00     0.198 A 
ATOM     73  C   UNL     1       0.283   6.031 -17.015  1.00  0.00     0.198 A 
ATOM     74  F   UNL     1       1.522   7.682 -15.885  1.00  0.00    -0.203 F 
ATOM     75  F   UNL     1      -2.351   3.836 -15.838  1.00  0.00    -0.200 F 
ATOM     76  C   UNL     1      -0.703   5.055 -17.011  1.00  0.00     0.200 A 
ATOM     77  F   UNL     1       0.959   6.295 -18.142  1.00  0.00    -0.200 F 
ATOM     78  F   UNL     1      -0.972   4.369 -18.130  1.00  0.00    -0.200 F 
ENDBRANCH  54  68
BRANCH  55  79
ATOM     79  C   UNL     1       1.752  11.880  -6.582  1.00  0.00     0.064 A 
ATOM     80  C   UNL     1       0.784  12.264  -5.647  1.00  0.00     0.173 A 
ATOM     81  C   UNL     1       3.056  12.365  -6.420  1.00  0.00     0.173 A 
ATOM     82  F   UNL     1      -0.483  11.849  -5.784  1.00  0.00    -0.203 F 
ATOM     83  C   UNL     1       1.107  13.118  -4.595  1.00  0.00     0.198 A 
ATOM     84  C   UNL     1       3.381  13.208  -5.362  1.00  0.00     0.198 A 
ATOM     85  F   UNL     1       4.012  12.028  -7.299  1.00  0.00    -0.203 F 
ATOM     86  F   UNL     1       0.158  13.505  -3.732  1.00  0.00    -0.200 F 
ATOM     87  C   UNL     1       2.405  13.589  -4.453  1.00  0.00     0.200 A 
ATOM     88  F   UNL     1       4.637  13.654  -5.223  1.00  0.00    -0.200 F 
ATOM     89  F   UNL     1       2.713  14.417  -3.446  1.00  0.00    -0.200 F 
ENDBRANCH  55  79
BRANCH  67  90
ATOM     90  C   UNL     1      -1.203  13.339 -12.668  1.00  0.00     0.064 A 
ATOM     91  C   UNL     1      -0.351  14.373 -13.082  1.00  0.00     0.173 A 
ATOM     92  C   UNL     1      -2.586  13.533 -12.793  1.00  0.00     0.173 A 
ATOM     93  F   UNL     1       0.978  14.245 -12.955  1.00  0.00    -0.203 F 
ATOM     94  C   UNL     1      -0.866  15.567 -13.580  1.00  0.00     0.198 A 
ATOM     95  C   UNL     1      -3.097  14.718 -13.314  1.00  0.00     0.198 A 
ATOM     96  F   UNL     1      -3.441  12.576 -12.404  1.00  0.00    -0.203 F 
ATOM     97  F   UNL     1      -0.036  16.562 -13.921  1.00  0.00    -0.200 F 
ATOM     98  C   UNL     1      -2.238  15.737 -13.700  1.00  0.00     0.200 A 
ATOM     99  F   UNL     1      -4.422  14.881 -13.431  1.00  0.00    -0.200 F 
ATOM    100  F   UNL     1      -2.732  16.889 -14.173  1.00  0.00    -0.200 F 
ENDBRANCH  67  90
ENDBRANCH  41  42
ENDBRANCH  34  36
ENDBRANCH  33  34
ENDBRANCH  32  33
ENDBRANCH  31  32
ENDBRANCH  30  31
ENDBRANCH   1  30
TORSDOF 20
