REMARK SMILES O=C(COc1ccc(N2C[C@@H](C(=O)OCCOCCOCCOC(=O)c3ccc(-c4c5nc(c(-c6c(F)c(F)c(F)c(F)c6F)c6ccc([nH]6)c(-c6c(F)c(F)c(F)c(F)c6F)c6nc(c(-c7c(F)c(F)c(F)c(F)c7F)c7ccc4[nH]7)C=C6)C=C5)cc3)CC2=O)cc1)Nc1ccc(Cl)cc1Cl
REMARK SMILES IDX 17 1 16 2 15 3 14 4 12 5 13 6 11 7 9 8 10 9 90 10 89 11
REMARK SMILES IDX 91 12 8 13 5 14 6 15 93 16 7 17 92 18 4 19 3 20 2 21 1 22
REMARK SMILES IDX 94 23 95 25 96 26 101 27 97 28 100 29 102 30 98 31 99 32
REMARK SMILES IDX 18 33 19 34 20 35 21 36 22 37 23 38 24 39 25 40 26 41 27 42
REMARK SMILES IDX 88 43 28 44 87 45 29 46 30 47 31 48 81 49 32 50 86 51 80 52
REMARK SMILES IDX 82 53 33 54 85 55 79 56 78 57 34 59 66 60 46 61 65 62 47 63
REMARK SMILES IDX 50 64 64 65 83 66 48 67 49 68 63 70 84 71 51 72 35 73 36 74
REMARK SMILES IDX 44 75 37 76 38 77 42 78 45 79 39 80 40 81 43 82 41 83 67 84
REMARK SMILES IDX 68 85 76 86 69 87 70 88 74 89 77 90 71 91 72 92 75 93 73 94
REMARK SMILES IDX 52 95 53 96 61 97 54 98 55 99 59 100 62 101 56 102 57 103
REMARK SMILES IDX 60 104 58 105
REMARK H PARENT 94 24 82 58 50 69
REMARK Flexibility Score: inf
ROOT
ATOM      1  O   UNL     1      -2.192  -6.918   9.489  1.00  0.00    -0.376 OA
ENDROOT
BRANCH   1   2
ATOM      2  C   UNL     1      -3.127  -6.077   8.820  1.00  0.00     0.202 C 
BRANCH   2   3
ATOM      3  C   UNL     1      -2.611  -4.809   8.119  1.00  0.00     0.261 C 
BRANCH   3   4
ATOM      4  O   UNL     1      -1.515  -5.026   7.207  1.00  0.00    -0.463 OA
BRANCH   4   5
ATOM      5  C   UNL     1      -0.358  -4.380   7.483  1.00  0.00     0.311 C 
ATOM      6  O   UNL     1      -0.219  -3.559   8.383  1.00  0.00    -0.252 OA
BRANCH   5   7
ATOM      7  C   UNL     1       0.817  -4.804   6.626  1.00  0.00     0.128 C 
ATOM      8  N   UNL     1       1.998  -3.912   4.813  1.00  0.00    -0.312 N 
ATOM      9  C   UNL     1       1.419  -3.530   6.069  1.00  0.00     0.141 C 
ATOM     10  C   UNL     1       1.540  -5.144   4.366  1.00  0.00     0.227 C 
ATOM     11  C   UNL     1       0.604  -5.684   5.397  1.00  0.00     0.117 C 
ATOM     12  O   UNL     1       1.806  -5.725   3.324  1.00  0.00    -0.274 OA
BRANCH   8  13
ATOM     13  C   UNL     1       2.544  -2.938   3.970  1.00  0.00     0.044 A 
ATOM     14  C   UNL     1       3.445  -0.915   2.273  1.00  0.00     0.120 A 
ATOM     15  C   UNL     1       3.948  -1.010   3.570  1.00  0.00     0.048 A 
ATOM     16  C   UNL     1       2.504  -1.841   1.834  1.00  0.00     0.048 A 
ATOM     17  C   UNL     1       3.472  -2.003   4.433  1.00  0.00     0.030 A 
ATOM     18  C   UNL     1       2.070  -2.855   2.666  1.00  0.00     0.030 A 
BRANCH  14  19
ATOM     19  O   UNL     1       3.996   0.017   1.434  1.00  0.00    -0.484 OA
BRANCH  19  20
ATOM     20  C   UNL     1       3.049   0.926   0.871  1.00  0.00     0.329 C 
BRANCH  20  21
ATOM     21  C   UNL     1       2.126   0.370  -0.222  1.00  0.00     0.262 C 
ATOM     22  O   UNL     1       0.925   0.624  -0.215  1.00  0.00    -0.271 OA
ATOM     23  N   UNL     1       2.773  -0.517  -1.078  1.00  0.00    -0.322 N 
ATOM     24  H   UNL     1       3.755  -0.577  -1.028  1.00  0.00     0.170 HD
BRANCH  23  25
ATOM     25  C   UNL     1       2.103  -1.339  -2.018  1.00  0.00     0.060 A 
ATOM     26  C   UNL     1       2.514  -2.683  -2.065  1.00  0.00     0.029 A 
ATOM     27  C   UNL     1       1.053  -0.925  -2.858  1.00  0.00     0.066 A 
ATOM     28  C   UNL     1       1.837  -3.610  -2.863  1.00  0.00     0.023 A 
ATOM     29  C   UNL     1       0.373  -1.858  -3.650  1.00  0.00     0.043 A 
ATOM     30  Cl  UNL     1       0.659   0.739  -3.127  1.00  0.00    -0.082 Cl
ATOM     31  C   UNL     1       0.758  -3.195  -3.638  1.00  0.00     0.042 A 
ATOM     32  Cl  UNL     1      -0.084  -4.336  -4.612  1.00  0.00    -0.084 Cl
ENDBRANCH  23  25
ENDBRANCH  20  21
ENDBRANCH  19  20
ENDBRANCH  14  19
ENDBRANCH   8  13
ENDBRANCH   5   7
ENDBRANCH   4   5
ENDBRANCH   3   4
ENDBRANCH   2   3
ENDBRANCH   1   2
BRANCH   1  33
ATOM     33  C   UNL     1      -1.065  -7.420   8.780  1.00  0.00     0.188 C 
BRANCH  33  34
ATOM     34  C   UNL     1      -1.213  -7.827   7.306  1.00  0.00     0.188 C 
BRANCH  34  35
ATOM     35  O   UNL     1      -2.518  -7.746   6.792  1.00  0.00    -0.376 OA
BRANCH  35  36
ATOM     36  C   UNL     1      -3.131  -8.942   6.356  1.00  0.00     0.202 C 
BRANCH  36  37
ATOM     37  C   UNL     1      -3.179 -10.138   7.324  1.00  0.00     0.261 C 
BRANCH  37  38
ATOM     38  O   UNL     1      -1.990 -10.403   8.095  1.00  0.00    -0.460 OA
BRANCH  38  39
ATOM     39  C   UNL     1      -0.968 -11.030   7.472  1.00  0.00     0.338 C 
ATOM     40  O   UNL     1      -0.941 -11.411   6.309  1.00  0.00    -0.246 OA
BRANCH  39  41
ATOM     41  C   UNL     1       0.220 -10.971   8.357  1.00  0.00     0.060 A 
ATOM     42  C   UNL     1       1.369 -10.294   7.920  1.00  0.00     0.016 A 
ATOM     43  C   UNL     1       0.202 -11.575   9.616  1.00  0.00     0.016 A 
ATOM     44  C   UNL     1       2.510 -10.244   8.727  1.00  0.00     0.010 A 
ATOM     45  C   UNL     1       1.353 -11.545  10.412  1.00  0.00     0.010 A 
ATOM     46  C   UNL     1       2.523 -10.906   9.962  1.00  0.00    -0.014 A 
BRANCH  46  47
ATOM     47  C   UNL     1       3.802 -11.098  10.695  1.00  0.00     0.031 A 
ATOM     48  C   UNL     1       4.516 -12.416  10.556  1.00  0.00     0.074 A 
ATOM     49  C   UNL     1       4.331 -10.131  11.466  1.00  0.00     0.049 A 
ATOM     50  N   UNL     1       5.591 -12.853  11.162  1.00  0.00    -0.248 NA
ATOM     51  C   UNL     1       3.930 -13.373   9.605  1.00  0.00     0.031 C 
ATOM     52  C   UNL     1       3.770  -8.797  11.654  1.00  0.00     0.029 A 
ATOM     53  N   UNL     1       5.460 -10.137  12.252  1.00  0.00    -0.354 N 
ATOM     54  C   UNL     1       5.805 -14.135  10.671  1.00  0.00     0.074 A 
ATOM     55  C   UNL     1       4.730 -14.419   9.745  1.00  0.00     0.031 C 
ATOM     56  C   UNL     1       4.543  -8.117  12.520  1.00  0.00     0.029 A 
ATOM     57  C   UNL     1       5.632  -8.982  12.975  1.00  0.00     0.049 A 
ATOM     58  H   UNL     1       6.085 -10.896  12.292  1.00  0.00     0.167 HD
ATOM     59  C   UNL     1       6.812 -14.995  10.957  1.00  0.00     0.037 A 
ATOM     60  C   UNL     1       6.545  -8.672  13.919  1.00  0.00     0.037 A 
ATOM     61  C   UNL     1       7.877 -14.718  11.885  1.00  0.00     0.049 A 
ATOM     62  C   UNL     1       7.608  -9.679  14.285  1.00  0.00     0.074 A 
ATOM     63  C   UNL     1       8.945 -15.525  12.239  1.00  0.00     0.029 A 
ATOM     64  N   UNL     1       8.004 -13.546  12.615  1.00  0.00    -0.354 N 
ATOM     65  N   UNL     1       7.816 -10.881  13.805  1.00  0.00    -0.248 NA
ATOM     66  C   UNL     1       8.569  -9.281  15.325  1.00  0.00     0.031 C 
ATOM     67  C   UNL     1       9.684 -14.865  13.226  1.00  0.00     0.029 A 
ATOM     68  C   UNL     1       9.118 -13.618  13.437  1.00  0.00     0.049 A 
ATOM     69  H   UNL     1       7.393 -12.776  12.558  1.00  0.00     0.167 HD
ATOM     70  C   UNL     1       8.944 -11.367  14.457  1.00  0.00     0.074 A 
ATOM     71  C   UNL     1       9.387 -10.324  15.356  1.00  0.00     0.031 C 
ATOM     72  C   UNL     1       9.557 -12.569  14.322  1.00  0.00     0.037 A 
BRANCH  59  73
ATOM     73  C   UNL     1       6.794 -16.333  10.274  1.00  0.00     0.064 A 
ATOM     74  C   UNL     1       7.035 -16.463   8.898  1.00  0.00     0.173 A 
ATOM     75  C   UNL     1       6.563 -17.504  11.012  1.00  0.00     0.173 A 
ATOM     76  F   UNL     1       7.247 -15.374   8.143  1.00  0.00    -0.203 F 
ATOM     77  C   UNL     1       7.016 -17.712   8.281  1.00  0.00     0.198 A 
ATOM     78  C   UNL     1       6.579 -18.754  10.398  1.00  0.00     0.198 A 
ATOM     79  F   UNL     1       6.331 -17.438  12.331  1.00  0.00    -0.203 F 
ATOM     80  F   UNL     1       7.197 -17.806   6.957  1.00  0.00    -0.200 F 
ATOM     81  C   UNL     1       6.797 -18.856   9.033  1.00  0.00     0.200 A 
ATOM     82  F   UNL     1       6.382 -19.860  11.129  1.00  0.00    -0.200 F 
ATOM     83  F   UNL     1       6.788 -20.058   8.440  1.00  0.00    -0.200 F 
ENDBRANCH  59  73
BRANCH  60  84
ATOM     84  C   UNL     1       6.485  -7.355  14.611  1.00  0.00     0.064 A 
ATOM     85  C   UNL     1       7.499  -6.401  14.448  1.00  0.00     0.173 A 
ATOM     86  C   UNL     1       5.429  -7.039  15.479  1.00  0.00     0.173 A 
ATOM     87  F   UNL     1       8.546  -6.667  13.653  1.00  0.00    -0.203 F 
ATOM     88  C   UNL     1       7.472  -5.194  15.144  1.00  0.00     0.198 A 
ATOM     89  C   UNL     1       5.385  -5.817  16.148  1.00  0.00     0.198 A 
ATOM     90  F   UNL     1       4.435  -7.917  15.677  1.00  0.00    -0.203 F 
ATOM     91  F   UNL     1       8.485  -4.325  15.014  1.00  0.00    -0.200 F 
ATOM     92  C   UNL     1       6.412  -4.899  15.988  1.00  0.00     0.200 A 
ATOM     93  F   UNL     1       4.352  -5.533  16.953  1.00  0.00    -0.200 F 
ATOM     94  F   UNL     1       6.385  -3.738  16.655  1.00  0.00    -0.200 F 
ENDBRANCH  60  84
BRANCH  72  95
ATOM     95  C   UNL     1      10.805 -12.810  15.128  1.00  0.00     0.064 A 
ATOM     96  C   UNL     1      10.770 -12.966  16.522  1.00  0.00     0.173 A 
ATOM     97  C   UNL     1      12.050 -12.924  14.489  1.00  0.00     0.173 A 
ATOM     98  F   UNL     1       9.609 -12.856  17.185  1.00  0.00    -0.203 F 
ATOM     99  C   UNL     1      11.938 -13.196  17.247  1.00  0.00     0.198 A 
ATOM    100  C   UNL     1      13.209 -13.189  15.213  1.00  0.00     0.198 A 
ATOM    101  F   UNL     1      12.141 -12.793  13.157  1.00  0.00    -0.203 F 
ATOM    102  F   UNL     1      11.886 -13.286  18.584  1.00  0.00    -0.200 F 
ATOM    103  C   UNL     1      13.154 -13.315  16.592  1.00  0.00     0.200 A 
ATOM    104  F   UNL     1      14.381 -13.322  14.575  1.00  0.00    -0.200 F 
ATOM    105  F   UNL     1      14.274 -13.543  17.291  1.00  0.00    -0.200 F 
ENDBRANCH  72  95
ENDBRANCH  46  47
ENDBRANCH  39  41
ENDBRANCH  38  39
ENDBRANCH  37  38
ENDBRANCH  36  37
ENDBRANCH  35  36
ENDBRANCH  34  35
ENDBRANCH  33  34
ENDBRANCH   1  33
TORSDOF 22
