REMARK SMILES C/C(=N/[NH+]=C1\NC(=O)[C@H](CC(=O)OCCOCCOCCOC(=O)c2ccc(-c3c4nc(c(-c5c(F)c(F)c(F)c(F)c5F)c5ccc([nH]5)c(-c5c(F)c(F)c(F)c(F)c5F)c5nc(c(-c6c(F)c(F)c(F)c(F)c6F)c6ccc3[nH]6)C=C5)C=C4)cc2)S1)c1ccc(OC(C)C)cc1
REMARK SMILES IDX 16 1 15 2 14 3 13 4 11 5 12 6 10 7 9 8 4 9 5 10 6 12 88 13
REMARK SMILES IDX 7 14 8 16 3 17 1 18 2 19 89 20 90 21 98 22 91 23 97 24 92 25
REMARK SMILES IDX 93 26 94 27 95 28 96 29 17 30 18 31 19 32 20 33 21 34 22 35
REMARK SMILES IDX 23 36 24 37 25 38 26 39 87 40 27 41 86 42 28 43 29 44 30 45
REMARK SMILES IDX 80 46 31 47 85 48 79 49 81 50 32 51 84 52 78 53 77 54 33 56
REMARK SMILES IDX 65 57 45 58 64 59 46 60 49 61 63 62 82 63 47 64 48 65 62 67
REMARK SMILES IDX 83 68 50 69 34 70 35 71 43 72 36 73 37 74 41 75 44 76 38 77
REMARK SMILES IDX 39 78 42 79 40 80 66 81 67 82 75 83 68 84 69 85 73 86 76 87
REMARK SMILES IDX 70 88 71 89 74 90 72 91 51 92 52 93 60 94 53 95 54 96 58 97
REMARK SMILES IDX 61 98 55 99 56 100 59 101 57 102
REMARK H PARENT 4 11 6 15 81 55 49 66
REMARK Flexibility Score: inf
ROOT
ATOM      1  O   UNL     1       5.087  -9.126  -3.163  1.00  0.00    -0.376 OA
ENDROOT
BRANCH   1   2
ATOM      2  C   UNL     1       5.710  -7.882  -3.478  1.00  0.00     0.202 C 
BRANCH   2   3
ATOM      3  C   UNL     1       4.785  -6.806  -4.057  1.00  0.00     0.261 C 
BRANCH   3   4
ATOM      4  O   UNL     1       3.642  -6.455  -3.237  1.00  0.00    -0.463 OA
BRANCH   4   5
ATOM      5  C   UNL     1       2.419  -6.595  -3.796  1.00  0.00     0.307 C 
ATOM      6  O   UNL     1       2.226  -6.998  -4.940  1.00  0.00    -0.252 OA
BRANCH   5   7
ATOM      7  C   UNL     1       1.247  -6.263  -2.899  1.00  0.00     0.150 C 
BRANCH   7   8
ATOM      8  C   UNL     1       1.430  -6.044  -1.406  1.00  0.00     0.184 C 
ATOM      9  N   UNL     1      -0.669  -3.250   0.191  1.00  0.00    -0.142 N 
ATOM     10  C   UNL     1       0.185  -4.173  -0.102  1.00  0.00     0.337 C 
ATOM     11  H   UNL     1      -1.639  -3.414   0.143  1.00  0.00     0.343 HD
ATOM     12  N   UNL     1       1.524  -4.032  -0.102  1.00  0.00    -0.202 N 
ATOM     13  S   UNL     1      -0.259  -5.742  -0.691  1.00  0.00    -0.020 SA
ATOM     14  C   UNL     1       2.228  -4.827  -0.955  1.00  0.00     0.322 C 
ATOM     15  H   UNL     1       1.973  -3.383   0.486  1.00  0.00     0.316 HD
ATOM     16  O   UNL     1       3.356  -4.523  -1.320  1.00  0.00    -0.246 OA
BRANCH   9  17
ATOM     17  N   UNL     1      -0.154  -1.997   0.582  1.00  0.00    -0.090 NA
ATOM     18  C   UNL     1       0.833   0.156   0.126  1.00  0.00     0.071 C 
ATOM     19  C   UNL     1       0.351  -1.206  -0.327  1.00  0.00     0.088 C 
BRANCH  19  20
ATOM     20  C   UNL     1       0.641  -1.565  -1.742  1.00  0.00    -0.000 A 
ATOM     21  C   UNL     1      -0.318  -2.145  -2.568  1.00  0.00     0.014 A 
ATOM     22  C   UNL     1       1.973  -1.493  -2.165  1.00  0.00     0.014 A 
ATOM     23  C   UNL     1       0.074  -2.683  -3.798  1.00  0.00     0.047 A 
ATOM     24  C   UNL     1       2.356  -2.049  -3.389  1.00  0.00     0.047 A 
ATOM     25  C   UNL     1       1.413  -2.646  -4.216  1.00  0.00     0.119 A 
BRANCH  25  26
ATOM     26  O   UNL     1       1.649  -3.266  -5.405  1.00  0.00    -0.491 OA
BRANCH  26  27
ATOM     27  C   UNL     1       2.880  -3.147  -6.128  1.00  0.00     0.167 C 
ATOM     28  C   UNL     1       3.309  -1.720  -6.443  1.00  0.00     0.052 C 
ATOM     29  C   UNL     1       4.000  -4.004  -5.562  1.00  0.00     0.052 C 
ENDBRANCH  26  27
ENDBRANCH  25  26
ENDBRANCH  19  20
ENDBRANCH   9  17
ENDBRANCH   7   8
ENDBRANCH   5   7
ENDBRANCH   4   5
ENDBRANCH   3   4
ENDBRANCH   2   3
ENDBRANCH   1   2
BRANCH   1  30
ATOM     30  C   UNL     1       4.035  -9.061  -2.206  1.00  0.00     0.188 C 
BRANCH  30  31
ATOM     31  C   UNL     1       4.420  -8.424  -0.871  1.00  0.00     0.188 C 
BRANCH  31  32
ATOM     32  O   UNL     1       5.047  -7.156  -0.939  1.00  0.00    -0.376 OA
BRANCH  32  33
ATOM     33  C   UNL     1       5.599  -6.622   0.266  1.00  0.00     0.202 C 
BRANCH  33  34
ATOM     34  C   UNL     1       6.498  -7.544   1.121  1.00  0.00     0.261 C 
BRANCH  34  35
ATOM     35  O   UNL     1       5.928  -8.799   1.559  1.00  0.00    -0.460 OA
BRANCH  35  36
ATOM     36  C   UNL     1       4.692  -8.800   2.112  1.00  0.00     0.338 C 
ATOM     37  O   UNL     1       4.091  -7.828   2.541  1.00  0.00    -0.246 OA
BRANCH  36  38
ATOM     38  C   UNL     1       4.051 -10.120   1.819  1.00  0.00     0.060 A 
ATOM     39  C   UNL     1       2.690 -10.134   1.467  1.00  0.00     0.016 A 
ATOM     40  C   UNL     1       4.789 -11.306   1.746  1.00  0.00     0.016 A 
ATOM     41  C   UNL     1       2.066 -11.320   1.062  1.00  0.00     0.010 A 
ATOM     42  C   UNL     1       4.157 -12.499   1.371  1.00  0.00     0.010 A 
ATOM     43  C   UNL     1       2.787 -12.520   1.051  1.00  0.00    -0.014 A 
BRANCH  43  44
ATOM     44  C   UNL     1       2.083 -13.827   0.959  1.00  0.00     0.031 A 
ATOM     45  C   UNL     1       1.755 -14.527   2.250  1.00  0.00     0.074 A 
ATOM     46  C   UNL     1       1.756 -14.403  -0.212  1.00  0.00     0.049 A 
ATOM     47  N   UNL     1       1.299 -15.735   2.457  1.00  0.00    -0.248 NA
ATOM     48  C   UNL     1       1.987 -13.751   3.480  1.00  0.00     0.031 C 
ATOM     49  C   UNL     1       1.947 -13.814  -1.534  1.00  0.00     0.029 A 
ATOM     50  N   UNL     1       1.208 -15.639  -0.471  1.00  0.00    -0.354 N 
ATOM     51  C   UNL     1       1.210 -15.870   3.836  1.00  0.00     0.074 A 
ATOM     52  C   UNL     1       1.677 -14.631   4.418  1.00  0.00     0.031 C 
ATOM     53  C   UNL     1       1.548 -14.698  -2.467  1.00  0.00     0.029 A 
ATOM     54  C   UNL     1       1.120 -15.935  -1.810  1.00  0.00     0.049 A 
ATOM     55  H   UNL     1       0.908 -16.254   0.237  1.00  0.00     0.167 HD
ATOM     56  C   UNL     1       0.779 -16.932   4.556  1.00  0.00     0.037 A 
ATOM     57  C   UNL     1       0.773 -17.083  -2.430  1.00  0.00     0.037 A 
ATOM     58  C   UNL     1       0.316 -18.165   3.981  1.00  0.00     0.049 A 
ATOM     59  C   UNL     1       0.390 -18.292  -1.606  1.00  0.00     0.074 A 
ATOM     60  C   UNL     1      -0.148 -19.296   4.628  1.00  0.00     0.029 A 
ATOM     61  N   UNL     1       0.269 -18.431   2.621  1.00  0.00    -0.354 N 
ATOM     62  N   UNL     1       0.306 -18.416  -0.303  1.00  0.00    -0.248 NA
ATOM     63  C   UNL     1       0.061 -19.526  -2.339  1.00  0.00     0.031 C 
ATOM     64  C   UNL     1      -0.416 -20.271   3.663  1.00  0.00     0.029 A 
ATOM     65  C   UNL     1      -0.190 -19.721   2.411  1.00  0.00     0.049 A 
ATOM     66  H   UNL     1       0.523 -17.799   1.911  1.00  0.00     0.167 HD
ATOM     67  C   UNL     1      -0.126 -19.717  -0.066  1.00  0.00     0.074 A 
ATOM     68  C   UNL     1      -0.284 -20.347  -1.357  1.00  0.00     0.031 C 
ATOM     69  C   UNL     1      -0.374 -20.330   1.118  1.00  0.00     0.037 A 
BRANCH  56  70
ATOM     70  C   UNL     1       0.829 -16.821   6.052  1.00  0.00     0.064 A 
ATOM     71  C   UNL     1      -0.031 -15.970   6.762  1.00  0.00     0.173 A 
ATOM     72  C   UNL     1       1.736 -17.600   6.787  1.00  0.00     0.173 A 
ATOM     73  F   UNL     1      -0.903 -15.190   6.106  1.00  0.00    -0.203 F 
ATOM     74  C   UNL     1       0.035 -15.883   8.150  1.00  0.00     0.198 A 
ATOM     75  C   UNL     1       1.775 -17.537   8.176  1.00  0.00     0.198 A 
ATOM     76  F   UNL     1       2.580 -18.431   6.156  1.00  0.00    -0.203 F 
ATOM     77  F   UNL     1      -0.759 -15.024   8.804  1.00  0.00    -0.200 F 
ATOM     78  C   UNL     1       0.931 -16.673   8.856  1.00  0.00     0.200 A 
ATOM     79  F   UNL     1       2.631 -18.311   8.856  1.00  0.00    -0.200 F 
ATOM     80  F   UNL     1       0.986 -16.595  10.193  1.00  0.00    -0.200 F 
ENDBRANCH  56  70
BRANCH  57  81
ATOM     81  C   UNL     1       0.801 -17.172  -3.917  1.00  0.00     0.064 A 
ATOM     82  C   UNL     1      -0.377 -17.357  -4.655  1.00  0.00     0.173 A 
ATOM     83  C   UNL     1       2.009 -17.116  -4.628  1.00  0.00     0.173 A 
ATOM     84  F   UNL     1      -1.555 -17.455  -4.022  1.00  0.00    -0.203 F 
ATOM     85  C   UNL     1      -0.346 -17.501  -6.042  1.00  0.00     0.198 A 
ATOM     86  C   UNL     1       2.036 -17.227  -6.018  1.00  0.00     0.198 A 
ATOM     87  F   UNL     1       3.168 -16.954  -3.973  1.00  0.00    -0.203 F 
ATOM     88  F   UNL     1      -1.481 -17.735  -6.715  1.00  0.00    -0.200 F 
ATOM     89  C   UNL     1       0.860 -17.429  -6.723  1.00  0.00     0.200 A 
ATOM     90  F   UNL     1       3.204 -17.150  -6.671  1.00  0.00    -0.200 F 
ATOM     91  F   UNL     1       0.890 -17.567  -8.055  1.00  0.00    -0.200 F 
ENDBRANCH  57  81
BRANCH  69  92
ATOM     92  C   UNL     1      -0.913 -21.733   1.092  1.00  0.00     0.064 A 
ATOM     93  C   UNL     1      -0.113 -22.832   0.751  1.00  0.00     0.173 A 
ATOM     94  C   UNL     1      -2.230 -21.985   1.512  1.00  0.00     0.173 A 
ATOM     95  F   UNL     1       1.148 -22.645   0.333  1.00  0.00    -0.203 F 
ATOM     96  C   UNL     1      -0.613 -24.130   0.820  1.00  0.00     0.198 A 
ATOM     97  C   UNL     1      -2.716 -23.286   1.611  1.00  0.00     0.198 A 
ATOM     98  F   UNL     1      -3.035 -20.970   1.860  1.00  0.00    -0.203 F 
ATOM     99  F   UNL     1       0.160 -25.164   0.461  1.00  0.00    -0.200 F 
ATOM    100  C   UNL     1      -1.909 -24.357   1.262  1.00  0.00     0.200 A 
ATOM    101  F   UNL     1      -3.961 -23.502   2.057  1.00  0.00    -0.200 F 
ATOM    102  F   UNL     1      -2.380 -25.608   1.351  1.00  0.00    -0.200 F 
ENDBRANCH  69  92
ENDBRANCH  43  44
ENDBRANCH  36  38
ENDBRANCH  35  36
ENDBRANCH  34  35
ENDBRANCH  33  34
ENDBRANCH  32  33
ENDBRANCH  31  32
ENDBRANCH  30  31
ENDBRANCH   1  30
TORSDOF 22
