REMARK SMILES CCCCCCNC(=O)Oc1cccc(-c2ccc([C@@H](C)C(=O)OCCOCCOCCOC(=O)c3ccc(-c4c5nc(c(-c6c(F)c(F)c(F)c(F)c6F)c6ccc([nH]6)c(-c6c(F)c(F)c(F)c(F)c6F)c6nc(c(-c7c(F)c(F)c(F)c(F)c7F)c7ccc4[nH]7)C=C6)C=C5)cc3)cc2F)c1
REMARK SMILES IDX 25 1 24 2 22 3 23 4 20 5 21 6 19 7 16 8 17 9 100 10 18 11
REMARK SMILES IDX 99 12 101 13 15 14 11 15 12 16 102 17 13 18 14 19 10 20 8 21
REMARK SMILES IDX 7 22 9 24 6 25 5 26 4 27 3 28 2 29 1 30 26 31 27 32 28 33
REMARK SMILES IDX 29 34 30 35 31 36 32 37 33 38 34 39 35 40 36 41 37 42 98 43
REMARK SMILES IDX 38 44 97 45 39 46 40 47 41 48 91 49 42 50 96 51 90 52 92 53
REMARK SMILES IDX 43 54 95 55 89 56 88 57 44 59 76 60 56 61 75 62 57 63 60 64
REMARK SMILES IDX 74 65 93 66 58 67 59 68 73 70 94 71 61 72 45 73 46 74 54 75
REMARK SMILES IDX 47 76 48 77 52 78 55 79 49 80 50 81 53 82 51 83 77 84 78 85
REMARK SMILES IDX 86 86 79 87 80 88 84 89 87 90 81 91 82 92 85 93 83 94 62 95
REMARK SMILES IDX 63 96 71 97 64 98 65 99 69 100 72 101 66 102 67 103 70 104
REMARK SMILES IDX 68 105
REMARK H PARENT 7 23 92 58 60 69
REMARK Flexibility Score: inf
ROOT
ATOM      1  C   UNL     1      -3.016  11.143  11.814  1.00  0.00     0.261 C 
ENDROOT
BRANCH   1   2
ATOM      2  O   UNL     1      -3.886  10.529  10.835  1.00  0.00    -0.463 OA
BRANCH   2   3
ATOM      3  C   UNL     1      -4.620  11.372  10.066  1.00  0.00     0.313 C 
ATOM      4  O   UNL     1      -4.604  12.595  10.201  1.00  0.00    -0.252 OA
BRANCH   3   5
ATOM      5  C   UNL     1      -5.480  10.727   8.975  1.00  0.00     0.126 C 
ATOM      6  C   UNL     1      -6.942  11.102   9.217  1.00  0.00     0.025 C 
BRANCH   5   7
ATOM      7  C   UNL     1      -5.365   9.242   8.634  1.00  0.00    -0.031 A 
ATOM      8  C   UNL     1      -5.192   6.479   7.855  1.00  0.00     0.018 A 
ATOM      9  C   UNL     1      -5.423   6.862   9.191  1.00  0.00     0.012 A 
ATOM     10  C   UNL     1      -5.042   7.514   6.925  1.00  0.00     0.131 A 
ATOM     11  C   UNL     1      -5.518   8.216   9.575  1.00  0.00     0.005 A 
ATOM     12  C   UNL     1      -5.134   8.861   7.297  1.00  0.00     0.044 A 
ATOM     13  F   UNL     1      -4.834   7.237   5.628  1.00  0.00    -0.206 F 
BRANCH   8  14
ATOM     14  C   UNL     1      -5.191   5.055   7.451  1.00  0.00    -0.012 A 
ATOM     15  C   UNL     1      -4.223   3.138   6.303  1.00  0.00     0.133 A 
ATOM     16  C   UNL     1      -5.323   2.347   6.631  1.00  0.00     0.047 A 
ATOM     17  C   UNL     1      -4.148   4.480   6.698  1.00  0.00     0.056 A 
ATOM     18  C   UNL     1      -6.357   2.897   7.378  1.00  0.00     0.004 A 
ATOM     19  C   UNL     1      -6.291   4.236   7.779  1.00  0.00     0.009 A 
BRANCH  15  20
ATOM     20  O   UNL     1      -3.279   2.556   5.436  1.00  0.00    -0.410 OA
BRANCH  20  21
ATOM     21  C   UNL     1      -1.958   2.476   5.843  1.00  0.00     0.412 C 
ATOM     22  N   UNL     1      -1.152   1.823   4.947  1.00  0.00    -0.321 N 
ATOM     23  H   UNL     1      -0.189   1.815   5.148  1.00  0.00     0.167 HD
ATOM     24  O   UNL     1      -1.503   2.904   6.901  1.00  0.00    -0.224 OA
BRANCH  22  25
ATOM     25  C   UNL     1      -1.565   1.143   3.733  1.00  0.00     0.119 C 
BRANCH  25  26
ATOM     26  C   UNL     1      -0.944   1.750   2.475  1.00  0.00     0.021 C 
BRANCH  26  27
ATOM     27  C   UNL     1       0.585   1.649   2.390  1.00  0.00     0.002 C 
BRANCH  27  28
ATOM     28  C   UNL     1       1.161   0.228   2.392  1.00  0.00    -0.000 C 
BRANCH  28  29
ATOM     29  C   UNL     1       0.692  -0.680   1.252  1.00  0.00    -0.003 C 
ATOM     30  C   UNL     1       1.097  -0.179  -0.127  1.00  0.00     0.004 C 
ENDBRANCH  28  29
ENDBRANCH  27  28
ENDBRANCH  26  27
ENDBRANCH  25  26
ENDBRANCH  22  25
ENDBRANCH  20  21
ENDBRANCH  15  20
ENDBRANCH   8  14
ENDBRANCH   5   7
ENDBRANCH   3   5
ENDBRANCH   2   3
ENDBRANCH   1   2
BRANCH   1  31
ATOM     31  C   UNL     1      -1.523  10.814  11.668  1.00  0.00     0.202 C 
BRANCH  31  32
ATOM     32  O   UNL     1      -0.892  11.133  10.434  1.00  0.00    -0.376 OA
BRANCH  32  33
ATOM     33  C   UNL     1      -1.387  10.562   9.228  1.00  0.00     0.188 C 
BRANCH  33  34
ATOM     34  C   UNL     1      -1.955   9.136   9.241  1.00  0.00     0.188 C 
BRANCH  34  35
ATOM     35  O   UNL     1      -1.629   8.396  10.398  1.00  0.00    -0.376 OA
BRANCH  35  36
ATOM     36  C   UNL     1      -1.106   7.098  10.187  1.00  0.00     0.202 C 
BRANCH  36  37
ATOM     37  C   UNL     1       0.347   7.108   9.701  1.00  0.00     0.261 C 
BRANCH  37  38
ATOM     38  O   UNL     1       0.605   7.919   8.540  1.00  0.00    -0.460 OA
BRANCH  38  39
ATOM     39  C   UNL     1       0.104   7.497   7.360  1.00  0.00     0.338 C 
ATOM     40  O   UNL     1      -0.548   6.482   7.151  1.00  0.00    -0.246 OA
BRANCH  39  41
ATOM     41  C   UNL     1       0.289   8.586   6.381  1.00  0.00     0.060 A 
ATOM     42  C   UNL     1      -0.827   9.130   5.726  1.00  0.00     0.016 A 
ATOM     43  C   UNL     1       1.568   9.083   6.129  1.00  0.00     0.016 A 
ATOM     44  C   UNL     1      -0.662  10.168   4.804  1.00  0.00     0.010 A 
ATOM     45  C   UNL     1       1.734  10.099   5.189  1.00  0.00     0.010 A 
ATOM     46  C   UNL     1       0.626  10.632   4.505  1.00  0.00    -0.014 A 
BRANCH  46  47
ATOM     47  C   UNL     1       0.881  11.515   3.341  1.00  0.00     0.031 A 
ATOM     48  C   UNL     1       1.343  10.871   2.066  1.00  0.00     0.074 A 
ATOM     49  C   UNL     1       0.784  12.853   3.429  1.00  0.00     0.049 A 
ATOM     50  N   UNL     1       1.872  11.413   1.000  1.00  0.00    -0.248 NA
ATOM     51  C   UNL     1       1.200   9.407   1.992  1.00  0.00     0.031 C 
ATOM     52  C   UNL     1       0.292  13.595   4.586  1.00  0.00     0.029 A 
ATOM     53  N   UNL     1       1.139  13.828   2.527  1.00  0.00    -0.354 N 
ATOM     54  C   UNL     1       2.138  10.357   0.138  1.00  0.00     0.074 A 
ATOM     55  C   UNL     1       1.736   9.142   0.811  1.00  0.00     0.031 C 
ATOM     56  C   UNL     1       0.415  14.913   4.341  1.00  0.00     0.029 A 
ATOM     57  C   UNL     1       1.044  15.102   3.034  1.00  0.00     0.049 A 
ATOM     58  H   UNL     1       1.433  13.633   1.607  1.00  0.00     0.167 HD
ATOM     59  C   UNL     1       2.670  10.400  -1.105  1.00  0.00     0.037 A 
ATOM     60  C   UNL     1       1.469  16.275   2.521  1.00  0.00     0.037 A 
ATOM     61  C   UNL     1       3.082  11.611  -1.763  1.00  0.00     0.049 A 
ATOM     62  C   UNL     1       2.157  16.289   1.175  1.00  0.00     0.074 A 
ATOM     63  C   UNL     1       3.656  11.762  -3.012  1.00  0.00     0.029 A 
ATOM     64  N   UNL     1       2.963  12.880  -1.218  1.00  0.00    -0.354 N 
ATOM     65  N   UNL     1       2.418  15.291   0.365  1.00  0.00    -0.248 NA
ATOM     66  C   UNL     1       2.615  17.595   0.672  1.00  0.00     0.031 C 
ATOM     67  C   UNL     1       3.926  13.119  -3.206  1.00  0.00     0.029 A 
ATOM     68  C   UNL     1       3.462  13.819  -2.104  1.00  0.00     0.049 A 
ATOM     69  H   UNL     1       2.580  13.083  -0.334  1.00  0.00     0.167 HD
ATOM     70  C   UNL     1       3.025  15.852  -0.754  1.00  0.00     0.074 A 
ATOM     71  C   UNL     1       3.095  17.277  -0.522  1.00  0.00     0.031 C 
ATOM     72  C   UNL     1       3.481  15.241  -1.874  1.00  0.00     0.037 A 
BRANCH  59  73
ATOM     73  C   UNL     1       2.856   9.100  -1.828  1.00  0.00     0.064 A 
ATOM     74  C   UNL     1       1.762   8.371  -2.317  1.00  0.00     0.173 A 
ATOM     75  C   UNL     1       4.143   8.598  -2.073  1.00  0.00     0.173 A 
ATOM     76  F   UNL     1       0.510   8.800  -2.094  1.00  0.00    -0.203 F 
ATOM     77  C   UNL     1       1.950   7.178  -3.010  1.00  0.00     0.198 A 
ATOM     78  C   UNL     1       4.328   7.422  -2.793  1.00  0.00     0.198 A 
ATOM     79  F   UNL     1       5.223   9.258  -1.627  1.00  0.00    -0.203 F 
ATOM     80  F   UNL     1       0.888   6.477  -3.432  1.00  0.00    -0.200 F 
ATOM     81  C   UNL     1       3.232   6.710  -3.256  1.00  0.00     0.200 A 
ATOM     82  F   UNL     1       5.568   6.978  -3.041  1.00  0.00    -0.200 F 
ATOM     83  F   UNL     1       3.410   5.569  -3.935  1.00  0.00    -0.200 F 
ENDBRANCH  59  73
BRANCH  60  84
ATOM     84  C   UNL     1       1.311  17.538   3.293  1.00  0.00     0.064 A 
ATOM     85  C   UNL     1       0.489  18.574   2.827  1.00  0.00     0.173 A 
ATOM     86  C   UNL     1       2.025  17.762   4.480  1.00  0.00     0.173 A 
ATOM     87  F   UNL     1      -0.192  18.424   1.681  1.00  0.00    -0.203 F 
ATOM     88  C   UNL     1       0.414  19.794   3.497  1.00  0.00     0.198 A 
ATOM     89  C   UNL     1       1.922  18.970   5.169  1.00  0.00     0.198 A 
ATOM     90  F   UNL     1       2.832  16.809   4.969  1.00  0.00    -0.203 F 
ATOM     91  F   UNL     1      -0.324  20.791   2.988  1.00  0.00    -0.200 F 
ATOM     92  C   UNL     1       1.127  19.990   4.669  1.00  0.00     0.200 A 
ATOM     93  F   UNL     1       2.607  19.151   6.306  1.00  0.00    -0.200 F 
ATOM     94  F   UNL     1       1.063  21.166   5.308  1.00  0.00    -0.200 F 
ENDBRANCH  60  84
BRANCH  72  95
ATOM     95  C   UNL     1       4.021  16.103  -2.979  1.00  0.00     0.064 A 
ATOM     96  C   UNL     1       5.271  16.730  -2.889  1.00  0.00     0.173 A 
ATOM     97  C   UNL     1       3.310  16.221  -4.184  1.00  0.00     0.173 A 
ATOM     98  F   UNL     1       5.983  16.657  -1.755  1.00  0.00    -0.203 F 
ATOM     99  C   UNL     1       5.786  17.452  -3.963  1.00  0.00     0.198 A 
ATOM    100  C   UNL     1       3.841  16.918  -5.265  1.00  0.00     0.198 A 
ATOM    101  F   UNL     1       2.113  15.631  -4.324  1.00  0.00    -0.203 F 
ATOM    102  F   UNL     1       6.970  18.068  -3.847  1.00  0.00    -0.200 F 
ATOM    103  C   UNL     1       5.077  17.535  -5.153  1.00  0.00     0.200 A 
ATOM    104  F   UNL     1       3.163  16.980  -6.420  1.00  0.00    -0.200 F 
ATOM    105  F   UNL     1       5.586  18.210  -6.193  1.00  0.00    -0.200 F 
ENDBRANCH  72  95
ENDBRANCH  46  47
ENDBRANCH  39  41
ENDBRANCH  38  39
ENDBRANCH  37  38
ENDBRANCH  36  37
ENDBRANCH  35  36
ENDBRANCH  34  35
ENDBRANCH  33  34
ENDBRANCH  32  33
ENDBRANCH  31  32
ENDBRANCH   1  31
TORSDOF 26
