REMARK SMILES CC(C)Cc1ccc(-c2cc(Cl)cc3c2O[C@H](C(F)(F)F)C(C(=O)OCCOCCOCCOC(=O)c2ccc(-c4c5nc(c(-c6c(F)c(F)c(F)c(F)c6F)c6ccc([nH]6)c(-c6c(F)c(F)c(F)c(F)c6F)c6nc(c(-c7c(F)c(F)c(F)c(F)c7F)c7ccc4[nH]7)C=C6)C=C5)cc2)=C3)cc1
REMARK SMILES IDX 29 1 28 2 27 3 26 4 25 5 23 6 24 7 22 8 9 9 10 10 15 11
REMARK SMILES IDX 11 12 14 13 16 14 12 15 13 16 100 17 17 18 8 19 5 20 6 21
REMARK SMILES IDX 102 22 7 23 101 24 4 25 2 26 1 27 3 28 18 29 19 30 20 31
REMARK SMILES IDX 21 32 30 33 31 34 32 35 33 36 34 37 35 38 36 39 37 40 38 41
REMARK SMILES IDX 99 42 39 43 98 44 40 45 41 46 42 47 92 48 43 49 97 50 91 51
REMARK SMILES IDX 93 52 44 53 96 54 90 55 89 56 45 58 77 59 57 60 76 61 58 62
REMARK SMILES IDX 61 63 75 64 94 65 59 66 60 67 74 69 95 70 62 71 46 72 47 73
REMARK SMILES IDX 55 74 48 75 49 76 53 77 56 78 50 79 51 80 54 81 52 82 78 83
REMARK SMILES IDX 79 84 87 85 80 86 81 87 85 88 88 89 82 90 83 91 86 92 84 93
REMARK SMILES IDX 63 94 64 95 72 96 65 97 66 98 70 99 73 100 67 101 68 102
REMARK SMILES IDX 71 103 69 104
REMARK H PARENT 93 57 61 68
REMARK Flexibility Score: inf
ROOT
ATOM      1  C   UNL     1      -2.083  -3.047   9.526  1.00  0.00     0.188 C 
ENDROOT
BRANCH   1   2
ATOM      2  O   UNL     1      -3.166  -3.369  10.380  1.00  0.00    -0.376 OA
BRANCH   2   3
ATOM      3  C   UNL     1      -3.689  -4.691  10.270  1.00  0.00     0.202 C 
BRANCH   3   4
ATOM      4  C   UNL     1      -2.664  -5.821  10.442  1.00  0.00     0.261 C 
BRANCH   4   5
ATOM      5  O   UNL     1      -1.803  -5.933   9.279  1.00  0.00    -0.460 OA
BRANCH   5   6
ATOM      6  C   UNL     1      -2.306  -6.695   8.283  1.00  0.00     0.338 C 
ATOM      7  O   UNL     1      -3.338  -7.348   8.365  1.00  0.00    -0.246 OA
BRANCH   6   8
ATOM      8  C   UNL     1      -1.544  -6.546   7.012  1.00  0.00     0.087 C 
ATOM      9  C   UNL     1      -1.762  -3.144   4.692  1.00  0.00     0.026 A 
ATOM     10  C   UNL     1      -3.013  -2.563   5.002  1.00  0.00     0.033 A 
ATOM     11  C   UNL     1      -1.545  -4.415   5.221  1.00  0.00     0.135 A 
ATOM     12  C   UNL     1      -4.040  -3.260   5.634  1.00  0.00     0.042 A 
ATOM     13  C   UNL     1      -2.654  -5.184   5.633  1.00  0.00     0.019 A 
ATOM     14  O   UNL     1      -0.295  -4.942   5.520  1.00  0.00    -0.475 OA
ATOM     15  Cl  UNL     1      -5.506  -2.473   6.050  1.00  0.00    -0.084 Cl
ATOM     16  C   UNL     1      -3.893  -4.608   5.878  1.00  0.00     0.032 A 
ATOM     17  C   UNL     1      -2.398  -6.599   5.976  1.00  0.00     0.027 C 
ATOM     18  C   UNL     1      -0.330  -5.627   6.863  1.00  0.00     0.316 C 
BRANCH   9  19
ATOM     19  C   UNL     1      -1.015  -2.430   3.625  1.00  0.00    -0.015 A 
ATOM     20  C   UNL     1      -0.692  -0.560   1.482  1.00  0.00    -0.048 A 
ATOM     21  C   UNL     1      -0.338  -0.223   2.792  1.00  0.00     0.004 A 
ATOM     22  C   UNL     1      -1.115  -1.871   1.234  1.00  0.00     0.004 A 
ATOM     23  C   UNL     1      -0.481  -1.152   3.838  1.00  0.00     0.009 A 
ATOM     24  C   UNL     1      -1.265  -2.791   2.287  1.00  0.00     0.009 A 
BRANCH  20  25
ATOM     25  C   UNL     1      -0.673   0.476   0.373  1.00  0.00     0.038 C 
BRANCH  25  26
ATOM     26  C   UNL     1       0.725   1.034   0.044  1.00  0.00    -0.013 C 
ATOM     27  C   UNL     1       1.660  -0.067  -0.458  1.00  0.00     0.008 C 
ATOM     28  C   UNL     1       0.634   2.149  -1.004  1.00  0.00     0.008 C 
ENDBRANCH  25  26
ENDBRANCH  20  25
ENDBRANCH   9  19
BRANCH  18  29
ATOM     29  C   UNL     1       0.947  -6.429   7.128  1.00  0.00     0.430 C 
ATOM     30  F   UNL     1       1.124  -7.419   6.226  1.00  0.00    -0.167 F 
ATOM     31  F   UNL     1       2.045  -5.640   7.103  1.00  0.00    -0.167 F 
ATOM     32  F   UNL     1       0.907  -7.006   8.356  1.00  0.00    -0.167 F 
ENDBRANCH  18  29
ENDBRANCH   6   8
ENDBRANCH   5   6
ENDBRANCH   4   5
ENDBRANCH   3   4
ENDBRANCH   2   3
ENDBRANCH   1   2
BRANCH   1  33
ATOM     33  C   UNL     1      -0.683  -3.165  10.168  1.00  0.00     0.188 C 
BRANCH  33  34
ATOM     34  O   UNL     1      -0.560  -3.534  11.534  1.00  0.00    -0.376 OA
BRANCH  34  35
ATOM     35  C   UNL     1      -1.334  -2.847  12.512  1.00  0.00     0.202 C 
BRANCH  35  36
ATOM     36  C   UNL     1      -1.213  -1.321  12.585  1.00  0.00     0.261 C 
BRANCH  36  37
ATOM     37  O   UNL     1      -1.639  -0.647  11.383  1.00  0.00    -0.460 OA
BRANCH  37  38
ATOM     38  C   UNL     1      -0.714   0.163  10.816  1.00  0.00     0.338 C 
ATOM     39  O   UNL     1       0.418   0.390  11.217  1.00  0.00    -0.246 OA
BRANCH  38  40
ATOM     40  C   UNL     1      -1.175   0.632   9.495  1.00  0.00     0.060 A 
ATOM     41  C   UNL     1      -0.408   0.281   8.382  1.00  0.00     0.016 A 
ATOM     42  C   UNL     1      -2.270   1.488   9.348  1.00  0.00     0.016 A 
ATOM     43  C   UNL     1      -0.730   0.795   7.127  1.00  0.00     0.010 A 
ATOM     44  C   UNL     1      -2.586   2.006   8.079  1.00  0.00     0.010 A 
ATOM     45  C   UNL     1      -1.817   1.667   6.954  1.00  0.00    -0.014 A 
BRANCH  45  46
ATOM     46  C   UNL     1      -2.047   2.286   5.616  1.00  0.00     0.031 A 
ATOM     47  C   UNL     1      -1.120   3.362   5.130  1.00  0.00     0.074 A 
ATOM     48  C   UNL     1      -3.029   1.863   4.797  1.00  0.00     0.049 A 
ATOM     49  N   UNL     1      -1.119   3.998   3.986  1.00  0.00    -0.248 NA
ATOM     50  C   UNL     1      -0.067   3.788   6.062  1.00  0.00     0.031 C 
ATOM     51  C   UNL     1      -3.986   0.817   5.122  1.00  0.00     0.029 A 
ATOM     52  N   UNL     1      -3.346   2.212   3.502  1.00  0.00    -0.354 N 
ATOM     53  C   UNL     1      -0.117   4.952   4.090  1.00  0.00     0.074 A 
ATOM     54  C   UNL     1       0.519   4.758   5.376  1.00  0.00     0.031 C 
ATOM     55  C   UNL     1      -4.697   0.518   4.020  1.00  0.00     0.029 A 
ATOM     56  C   UNL     1      -4.299   1.399   2.929  1.00  0.00     0.049 A 
ATOM     57  H   UNL     1      -2.931   2.970   3.031  1.00  0.00     0.167 HD
ATOM     58  C   UNL     1       0.198   5.941   3.221  1.00  0.00     0.037 A 
ATOM     59  C   UNL     1      -4.788   1.364   1.671  1.00  0.00     0.037 A 
ATOM     60  C   UNL     1      -0.441   6.157   1.951  1.00  0.00     0.049 A 
ATOM     61  C   UNL     1      -4.393   2.453   0.705  1.00  0.00     0.074 A 
ATOM     62  C   UNL     1      -0.208   7.165   1.032  1.00  0.00     0.029 A 
ATOM     63  N   UNL     1      -1.446   5.362   1.424  1.00  0.00    -0.354 N 
ATOM     64  N   UNL     1      -3.469   3.373   0.825  1.00  0.00    -0.248 NA
ATOM     65  C   UNL     1      -5.162   2.538  -0.548  1.00  0.00     0.031 C 
ATOM     66  C   UNL     1      -1.108   7.012  -0.027  1.00  0.00     0.029 A 
ATOM     67  C   UNL     1      -1.864   5.875   0.205  1.00  0.00     0.049 A 
ATOM     68  H   UNL     1      -1.810   4.553   1.851  1.00  0.00     0.167 HD
ATOM     69  C   UNL     1      -3.567   4.161  -0.315  1.00  0.00     0.074 A 
ATOM     70  C   UNL     1      -4.592   3.573  -1.149  1.00  0.00     0.031 C 
ATOM     71  C   UNL     1      -2.893   5.296  -0.618  1.00  0.00     0.037 A 
BRANCH  58  72
ATOM     72  C   UNL     1       1.209   6.946   3.682  1.00  0.00     0.064 A 
ATOM     73  C   UNL     1       2.578   6.658   3.740  1.00  0.00     0.173 A 
ATOM     74  C   UNL     1       0.785   8.227   4.071  1.00  0.00     0.173 A 
ATOM     75  F   UNL     1       3.026   5.439   3.402  1.00  0.00    -0.203 F 
ATOM     76  C   UNL     1       3.486   7.610   4.195  1.00  0.00     0.198 A 
ATOM     77  C   UNL     1       1.697   9.184   4.499  1.00  0.00     0.198 A 
ATOM     78  F   UNL     1      -0.518   8.547   4.036  1.00  0.00    -0.203 F 
ATOM     79  F   UNL     1       4.787   7.301   4.292  1.00  0.00    -0.200 F 
ATOM     80  C   UNL     1       3.046   8.873   4.568  1.00  0.00     0.200 A 
ATOM     81  F   UNL     1       1.270  10.404   4.851  1.00  0.00    -0.200 F 
ATOM     82  F   UNL     1       3.923   9.788   5.005  1.00  0.00    -0.200 F 
ENDBRANCH  58  72
BRANCH  59  83
ATOM     83  C   UNL     1      -5.715   0.282   1.223  1.00  0.00     0.064 A 
ATOM     84  C   UNL     1      -5.346  -0.570   0.168  1.00  0.00     0.173 A 
ATOM     85  C   UNL     1      -6.988   0.099   1.781  1.00  0.00     0.173 A 
ATOM     86  F   UNL     1      -4.157  -0.415  -0.435  1.00  0.00    -0.203 F 
ATOM     87  C   UNL     1      -6.216  -1.547  -0.315  1.00  0.00     0.198 A 
ATOM     88  C   UNL     1      -7.841  -0.906   1.326  1.00  0.00     0.198 A 
ATOM     89  F   UNL     1      -7.411   0.899   2.771  1.00  0.00    -0.203 F 
ATOM     90  F   UNL     1      -5.859  -2.300  -1.364  1.00  0.00    -0.200 F 
ATOM     91  C   UNL     1      -7.459  -1.722   0.272  1.00  0.00     0.200 A 
ATOM     92  F   UNL     1      -9.040  -1.075   1.901  1.00  0.00    -0.200 F 
ATOM     93  F   UNL     1      -8.295  -2.662  -0.190  1.00  0.00    -0.200 F 
ENDBRANCH  59  83
BRANCH  71  94
ATOM     94  C   UNL     1      -3.260   6.009  -1.888  1.00  0.00     0.064 A 
ATOM     95  C   UNL     1      -4.473   6.705  -2.006  1.00  0.00     0.173 A 
ATOM     96  C   UNL     1      -2.365   6.064  -2.966  1.00  0.00     0.173 A 
ATOM     97  F   UNL     1      -5.370   6.673  -1.009  1.00  0.00    -0.203 F 
ATOM     98  C   UNL     1      -4.780   7.421  -3.161  1.00  0.00     0.198 A 
ATOM     99  C   UNL     1      -2.663   6.803  -4.109  1.00  0.00     0.198 A 
ATOM    100  F   UNL     1      -1.190   5.420  -2.902  1.00  0.00    -0.203 F 
ATOM    101  F   UNL     1      -5.958   8.053  -3.263  1.00  0.00    -0.200 F 
ATOM    102  C   UNL     1      -3.871   7.478  -4.206  1.00  0.00     0.200 A 
ATOM    103  F   UNL     1      -1.778   6.869  -5.113  1.00  0.00    -0.200 F 
ATOM    104  F   UNL     1      -4.160   8.181  -5.310  1.00  0.00    -0.200 F 
ENDBRANCH  71  94
ENDBRANCH  45  46
ENDBRANCH  38  40
ENDBRANCH  37  38
ENDBRANCH  36  37
ENDBRANCH  35  36
ENDBRANCH  34  35
ENDBRANCH  33  34
ENDBRANCH   1  33
TORSDOF 21
