REMARK SMILES O=C(OCCOCCOCCOC(=O)[C@@H]1CCC[N@@H+](Cc2nccn2C(F)F)C1)c1ccc(-c2c3nc(c(-c4c(F)c(F)c(F)c(F)c4F)c4ccc([nH]4)c(-c4c(F)c(F)c(F)c(F)c4F)c4nc(c(-c5c(F)c(F)c(F)c(F)c5F)c5ccc2[nH]5)C=C4)C=C3)cc1
REMARK SMILES IDX 8 1 7 2 6 3 5 4 4 5 3 6 2 7 1 8 30 9 31 10 92 11 32 12 91 13
REMARK SMILES IDX 33 14 34 15 35 16 85 17 36 18 90 19 84 20 86 21 37 22 89 23
REMARK SMILES IDX 83 24 82 25 38 27 70 28 50 29 69 30 51 31 54 32 68 33 87 34
REMARK SMILES IDX 52 35 53 36 67 38 88 39 55 40 39 41 40 42 48 43 41 44 42 45
REMARK SMILES IDX 46 46 49 47 43 48 44 49 47 50 45 51 71 52 72 53 80 54 73 55
REMARK SMILES IDX 74 56 78 57 81 58 75 59 76 60 79 61 77 62 56 63 57 64 65 65
REMARK SMILES IDX 58 66 59 67 63 68 66 69 60 70 61 71 64 72 62 73 9 74 10 75
REMARK SMILES IDX 11 76 12 77 13 78 14 79 15 80 16 81 29 82 17 83 19 84 18 85
REMARK SMILES IDX 20 87 21 88 22 89 25 90 23 91 24 92 26 93 27 94 28 95
REMARK H PARENT 86 26 54 37 19 86
REMARK Flexibility Score: inf
ROOT
ATOM      1  C   UNL     1       2.102   2.488  -1.661  1.00  0.00     0.188 C 
ENDROOT
BRANCH   1   2
ATOM      2  C   UNL     1       2.716   1.284  -0.952  1.00  0.00     0.188 C 
BRANCH   2   3
ATOM      3  O   UNL     1       3.992   1.408  -0.345  1.00  0.00    -0.376 OA
BRANCH   3   4
ATOM      4  C   UNL     1       5.041   0.503  -0.682  1.00  0.00     0.202 C 
BRANCH   4   5
ATOM      5  C   UNL     1       4.854  -0.975  -1.087  1.00  0.00     0.261 C 
BRANCH   5   6
ATOM      6  O   UNL     1       3.567  -1.500  -1.429  1.00  0.00    -0.460 OA
BRANCH   6   7
ATOM      7  C   UNL     1       2.454  -1.634  -0.683  1.00  0.00     0.338 C 
ATOM      8  O   UNL     1       1.387  -1.907  -1.224  1.00  0.00    -0.246 OA
BRANCH   7   9
ATOM      9  C   UNL     1       2.448  -1.410   0.777  1.00  0.00     0.060 A 
ATOM     10  C   UNL     1       3.521  -1.753   1.595  1.00  0.00     0.016 A 
ATOM     11  C   UNL     1       1.202  -1.061   1.338  1.00  0.00     0.016 A 
ATOM     12  C   UNL     1       3.292  -1.973   2.932  1.00  0.00     0.010 A 
ATOM     13  C   UNL     1       0.969  -1.274   2.679  1.00  0.00     0.010 A 
ATOM     14  C   UNL     1       1.989  -1.863   3.414  1.00  0.00    -0.014 A 
BRANCH  14  15
ATOM     15  C   UNL     1       1.710  -2.585   4.638  1.00  0.00     0.031 A 
ATOM     16  C   UNL     1       2.343  -2.024   5.849  1.00  0.00     0.074 A 
ATOM     17  C   UNL     1       0.960  -3.704   4.589  1.00  0.00     0.049 A 
ATOM     18  N   UNL     1       3.195  -2.588   6.642  1.00  0.00    -0.248 NA
ATOM     19  C   UNL     1       2.094  -0.603   6.134  1.00  0.00     0.031 C 
ATOM     20  C   UNL     1       0.155  -4.216   3.471  1.00  0.00     0.029 A 
ATOM     21  N   UNL     1       0.686  -4.587   5.583  1.00  0.00    -0.354 N 
ATOM     22  C   UNL     1       3.450  -1.651   7.638  1.00  0.00     0.074 A 
ATOM     23  C   UNL     1       2.865  -0.409   7.203  1.00  0.00     0.031 C 
ATOM     24  C   UNL     1      -0.696  -5.160   3.928  1.00  0.00     0.029 A 
ATOM     25  C   UNL     1      -0.403  -5.407   5.326  1.00  0.00     0.049 A 
ATOM     26  H   UNL     1       1.213  -4.641   6.413  1.00  0.00     0.167 HD
ATOM     27  C   UNL     1       3.908  -2.025   8.861  1.00  0.00     0.037 A 
ATOM     28  C   UNL     1      -1.078  -6.128   6.253  1.00  0.00     0.037 A 
ATOM     29  C   UNL     1       4.591  -3.289   8.816  1.00  0.00     0.049 A 
ATOM     30  C   UNL     1      -0.176  -6.291   7.425  1.00  0.00     0.074 A 
ATOM     31  C   UNL     1       5.727  -3.748   8.178  1.00  0.00     0.029 A 
ATOM     32  N   UNL     1       3.924  -4.415   9.232  1.00  0.00    -0.354 N 
ATOM     33  N   UNL     1       0.918  -7.003   7.400  1.00  0.00    -0.248 NA
ATOM     34  C   UNL     1      -0.236  -5.277   8.469  1.00  0.00     0.031 C 
ATOM     35  C   UNL     1       5.435  -5.097   7.819  1.00  0.00     0.029 A 
ATOM     36  C   UNL     1       4.157  -5.390   8.296  1.00  0.00     0.049 A 
ATOM     37  H   UNL     1       3.381  -4.505  10.048  1.00  0.00     0.167 HD
ATOM     38  C   UNL     1       1.837  -6.275   8.144  1.00  0.00     0.074 A 
ATOM     39  C   UNL     1       1.049  -5.258   8.835  1.00  0.00     0.031 C 
ATOM     40  C   UNL     1       3.178  -6.378   7.910  1.00  0.00     0.037 A 
BRANCH  27  41
ATOM     41  C   UNL     1       3.399  -1.411  10.138  1.00  0.00     0.064 A 
ATOM     42  C   UNL     1       4.038  -1.711  11.354  1.00  0.00     0.173 A 
ATOM     43  C   UNL     1       2.135  -0.788  10.246  1.00  0.00     0.173 A 
ATOM     44  F   UNL     1       5.229  -2.327  11.366  1.00  0.00    -0.203 F 
ATOM     45  C   UNL     1       3.423  -1.466  12.585  1.00  0.00     0.198 A 
ATOM     46  C   UNL     1       1.550  -0.496  11.474  1.00  0.00     0.198 A 
ATOM     47  F   UNL     1       1.367  -0.542   9.177  1.00  0.00    -0.203 F 
ATOM     48  F   UNL     1       4.012  -1.878  13.716  1.00  0.00    -0.200 F 
ATOM     49  C   UNL     1       2.178  -0.864  12.643  1.00  0.00     0.200 A 
ATOM     50  F   UNL     1       0.335   0.069  11.507  1.00  0.00    -0.200 F 
ATOM     51  F   UNL     1       1.561  -0.686  13.818  1.00  0.00    -0.200 F 
ENDBRANCH  27  41
BRANCH  28  52
ATOM     52  C   UNL     1      -2.551  -6.285   6.323  1.00  0.00     0.064 A 
ATOM     53  C   UNL     1      -3.140  -7.282   7.113  1.00  0.00     0.173 A 
ATOM     54  C   UNL     1      -3.421  -5.301   5.806  1.00  0.00     0.173 A 
ATOM     55  F   UNL     1      -2.377  -8.221   7.691  1.00  0.00    -0.203 F 
ATOM     56  C   UNL     1      -4.516  -7.293   7.372  1.00  0.00     0.198 A 
ATOM     57  C   UNL     1      -4.793  -5.320   6.053  1.00  0.00     0.198 A 
ATOM     58  F   UNL     1      -2.948  -4.248   5.124  1.00  0.00    -0.203 F 
ATOM     59  F   UNL     1      -5.038  -8.231   8.174  1.00  0.00    -0.200 F 
ATOM     60  C   UNL     1      -5.340  -6.310   6.845  1.00  0.00     0.200 A 
ATOM     61  F   UNL     1      -5.569  -4.340   5.568  1.00  0.00    -0.200 F 
ATOM     62  F   UNL     1      -6.648  -6.293   7.133  1.00  0.00    -0.200 F 
ENDBRANCH  28  52
BRANCH  40  63
ATOM     63  C   UNL     1       3.635  -7.450   6.961  1.00  0.00     0.064 A 
ATOM     64  C   UNL     1       3.319  -7.451   5.590  1.00  0.00     0.173 A 
ATOM     65  C   UNL     1       4.543  -8.415   7.412  1.00  0.00     0.173 A 
ATOM     66  F   UNL     1       2.550  -6.490   5.064  1.00  0.00    -0.203 F 
ATOM     67  C   UNL     1       3.849  -8.405   4.724  1.00  0.00     0.198 A 
ATOM     68  C   UNL     1       5.098  -9.347   6.538  1.00  0.00     0.198 A 
ATOM     69  F   UNL     1       4.935  -8.420   8.695  1.00  0.00    -0.203 F 
ATOM     70  F   UNL     1       3.526  -8.386   3.422  1.00  0.00    -0.200 F 
ATOM     71  C   UNL     1       4.743  -9.349   5.198  1.00  0.00     0.200 A 
ATOM     72  F   UNL     1       6.007 -10.223   6.989  1.00  0.00    -0.200 F 
ATOM     73  F   UNL     1       5.290 -10.240   4.358  1.00  0.00    -0.200 F 
ENDBRANCH  40  63
ENDBRANCH  14  15
ENDBRANCH   7   9
ENDBRANCH   6   7
ENDBRANCH   5   6
ENDBRANCH   4   5
ENDBRANCH   3   4
ENDBRANCH   2   3
ENDBRANCH   1   2
BRANCH   1  74
ATOM     74  O   UNL     1       2.662   2.848  -2.918  1.00  0.00    -0.376 OA
BRANCH  74  75
ATOM     75  C   UNL     1       4.075   2.968  -2.988  1.00  0.00     0.202 C 
BRANCH  75  76
ATOM     76  C   UNL     1       4.701   4.147  -2.238  1.00  0.00     0.261 C 
BRANCH  76  77
ATOM     77  O   UNL     1       4.289   4.251  -0.866  1.00  0.00    -0.463 OA
BRANCH  77  78
ATOM     78  C   UNL     1       3.364   5.211  -0.606  1.00  0.00     0.314 C 
ATOM     79  O   UNL     1       2.904   5.972  -1.451  1.00  0.00    -0.252 OA
BRANCH  78  80
ATOM     80  C   UNL     1       2.871   5.231   0.837  1.00  0.00     0.154 C 
ATOM     81  C   UNL     1       2.972   6.664   1.356  1.00  0.00     0.027 C 
ATOM     82  C   UNL     1       3.538   4.273   1.832  1.00  0.00     0.278 C 
ATOM     83  C   UNL     1       4.439   7.009   1.589  1.00  0.00     0.062 C 
ATOM     84  N   UNL     1       4.923   4.632   2.181  1.00  0.00    -0.328 N 
ATOM     85  C   UNL     1       5.072   6.034   2.583  1.00  0.00     0.262 C 
ATOM     86  H   UNL     1       5.479   4.555   1.329  1.00  0.00     0.348 HD
BRANCH  84  87
ATOM     87  C   UNL     1       5.493   3.672   3.150  1.00  0.00     0.339 C 
BRANCH  87  88
ATOM     88  C   UNL     1       5.037   3.852   4.578  1.00  0.00     0.168 A 
ATOM     89  N   UNL     1       3.838   3.536   5.042  1.00  0.00    -0.236 NA
ATOM     90  N   UNL     1       5.795   4.418   5.583  1.00  0.00    -0.273 N 
ATOM     91  C   UNL     1       3.798   3.967   6.340  1.00  0.00     0.131 A 
ATOM     92  C   UNL     1       5.000   4.518   6.699  1.00  0.00     0.113 A 
BRANCH  90  93
ATOM     93  C   UNL     1       7.168   4.874   5.524  1.00  0.00     0.450 C 
ATOM     94  F   UNL     1       7.249   6.201   5.805  1.00  0.00    -0.185 F 
ATOM     95  F   UNL     1       7.924   4.232   6.454  1.00  0.00    -0.185 F 
ENDBRANCH  90  93
ENDBRANCH  87  88
ENDBRANCH  84  87
ENDBRANCH  78  80
ENDBRANCH  77  78
ENDBRANCH  76  77
ENDBRANCH  75  76
ENDBRANCH  74  75
ENDBRANCH   1  74
TORSDOF 20
