REMARK SMILES O=C(OCCOCCOCCOC(=O)[C@@H]1[C@H](C(=O)Nc2ccccc2OC(F)F)[C@@H]2C=C[C@H]1C2)c1ccc(-c2c3nc(c(-c4c(F)c(F)c(F)c(F)c4F)c4ccc([nH]4)c(-c4c(F)c(F)c(F)c(F)c4F)c4nc(c(-c5c(F)c(F)c(F)c(F)c5F)c5ccc2[nH]5)C=C4)C=C3)cc1
REMARK SMILES IDX 8 1 7 2 6 3 5 4 4 5 3 6 2 7 1 8 35 9 36 10 97 11 37 12 96 13
REMARK SMILES IDX 38 14 39 15 40 16 90 17 41 18 95 19 89 20 91 21 42 22 94 23
REMARK SMILES IDX 88 24 87 25 43 27 75 28 55 29 74 30 56 31 59 32 73 33 92 34
REMARK SMILES IDX 57 35 58 36 72 38 93 39 60 40 44 41 45 42 53 43 46 44 47 45
REMARK SMILES IDX 51 46 54 47 48 48 49 49 52 50 50 51 76 52 77 53 85 54 78 55
REMARK SMILES IDX 79 56 83 57 86 58 80 59 81 60 84 61 82 62 61 63 62 64 70 65
REMARK SMILES IDX 63 66 64 67 68 68 71 69 65 70 66 71 69 72 67 73 9 74 10 75
REMARK SMILES IDX 11 76 12 77 13 78 14 79 15 80 16 81 33 82 30 83 32 84 34 85
REMARK SMILES IDX 31 86 17 87 18 88 19 89 20 91 21 92 25 93 22 94 24 95 23 96
REMARK SMILES IDX 26 97 27 98 28 99 29 100
REMARK H PARENT 91 26 59 37 19 90
REMARK Flexibility Score: inf
ROOT
ATOM      1  C   UNL     1       3.991  -3.611  -1.722  1.00  0.00     0.188 C 
ENDROOT
BRANCH   1   2
ATOM      2  C   UNL     1       4.649  -3.050  -0.448  1.00  0.00     0.188 C 
BRANCH   2   3
ATOM      3  O   UNL     1       5.436  -1.886  -0.695  1.00  0.00    -0.376 OA
BRANCH   3   4
ATOM      4  C   UNL     1       6.219  -1.488   0.441  1.00  0.00     0.202 C 
BRANCH   4   5
ATOM      5  C   UNL     1       5.419  -0.976   1.657  1.00  0.00     0.261 C 
BRANCH   5   6
ATOM      6  O   UNL     1       4.244  -0.289   1.205  1.00  0.00    -0.460 OA
BRANCH   6   7
ATOM      7  C   UNL     1       3.907   0.831   1.882  1.00  0.00     0.338 C 
ATOM      8  O   UNL     1       3.205   0.868   2.881  1.00  0.00    -0.246 OA
BRANCH   7   9
ATOM      9  C   UNL     1       4.268   2.012   1.071  1.00  0.00     0.060 A 
ATOM     10  C   UNL     1       5.514   2.077   0.431  1.00  0.00     0.016 A 
ATOM     11  C   UNL     1       3.325   3.025   0.884  1.00  0.00     0.016 A 
ATOM     12  C   UNL     1       5.795   3.104  -0.458  1.00  0.00     0.010 A 
ATOM     13  C   UNL     1       3.606   4.064  -0.005  1.00  0.00     0.010 A 
ATOM     14  C   UNL     1       4.847   4.108  -0.668  1.00  0.00    -0.014 A 
BRANCH  14  15
ATOM     15  C   UNL     1       5.330   5.362  -1.275  1.00  0.00     0.031 A 
ATOM     16  C   UNL     1       5.871   6.371  -0.308  1.00  0.00     0.074 A 
ATOM     17  C   UNL     1       5.404   5.548  -2.604  1.00  0.00     0.049 A 
ATOM     18  N   UNL     1       6.487   7.498  -0.534  1.00  0.00    -0.248 NA
ATOM     19  C   UNL     1       5.729   6.038   1.123  1.00  0.00     0.031 C 
ATOM     20  C   UNL     1       4.984   4.590  -3.622  1.00  0.00     0.029 A 
ATOM     21  N   UNL     1       5.863   6.619  -3.326  1.00  0.00    -0.354 N 
ATOM     22  C   UNL     1       6.838   7.977   0.719  1.00  0.00     0.074 A 
ATOM     23  C   UNL     1       6.312   7.067   1.705  1.00  0.00     0.031 C 
ATOM     24  C   UNL     1       5.147   5.138  -4.839  1.00  0.00     0.029 A 
ATOM     25  C   UNL     1       5.710   6.474  -4.683  1.00  0.00     0.049 A 
ATOM     26  H   UNL     1       6.265   7.416  -2.910  1.00  0.00     0.167 HD
ATOM     27  C   UNL     1       7.566   9.072   1.022  1.00  0.00     0.037 A 
ATOM     28  C   UNL     1       6.000   7.338  -5.675  1.00  0.00     0.037 A 
ATOM     29  C   UNL     1       8.014  10.007   0.036  1.00  0.00     0.049 A 
ATOM     30  C   UNL     1       6.683   8.631  -5.309  1.00  0.00     0.074 A 
ATOM     31  C   UNL     1       8.680  11.202   0.210  1.00  0.00     0.029 A 
ATOM     32  N   UNL     1       7.801   9.851  -1.329  1.00  0.00    -0.354 N 
ATOM     33  N   UNL     1       7.049   9.066  -4.125  1.00  0.00    -0.248 NA
ATOM     34  C   UNL     1       7.022   9.540  -6.411  1.00  0.00     0.031 C 
ATOM     35  C   UNL     1       8.828  11.794  -1.049  1.00  0.00     0.029 A 
ATOM     36  C   UNL     1       8.301  10.942  -2.011  1.00  0.00     0.049 A 
ATOM     37  H   UNL     1       7.359   9.076  -1.747  1.00  0.00     0.167 HD
ATOM     38  C   UNL     1       7.694  10.275  -4.340  1.00  0.00     0.074 A 
ATOM     39  C   UNL     1       7.669  10.505  -5.772  1.00  0.00     0.031 C 
ATOM     40  C   UNL     1       8.264  11.117  -3.442  1.00  0.00     0.037 A 
BRANCH  27  41
ATOM     41  C   UNL     1       7.831   9.295   2.478  1.00  0.00     0.064 A 
ATOM     42  C   UNL     1       8.699   8.455   3.197  1.00  0.00     0.173 A 
ATOM     43  C   UNL     1       7.101  10.255   3.191  1.00  0.00     0.173 A 
ATOM     44  F   UNL     1       9.382   7.488   2.565  1.00  0.00    -0.203 F 
ATOM     45  C   UNL     1       8.785   8.536   4.585  1.00  0.00     0.198 A 
ATOM     46  C   UNL     1       7.211  10.350   4.576  1.00  0.00     0.198 A 
ATOM     47  F   UNL     1       6.242  11.063   2.553  1.00  0.00    -0.203 F 
ATOM     48  F   UNL     1       9.545   7.662   5.260  1.00  0.00    -0.200 F 
ATOM     49  C   UNL     1       8.039   9.481   5.272  1.00  0.00     0.200 A 
ATOM     50  F   UNL     1       6.482  11.255   5.242  1.00  0.00    -0.200 F 
ATOM     51  F   UNL     1       8.094   9.535   6.610  1.00  0.00    -0.200 F 
ENDBRANCH  27  41
BRANCH  28  52
ATOM     52  C   UNL     1       5.680   6.996  -7.087  1.00  0.00     0.064 A 
ATOM     53  C   UNL     1       6.689   6.717  -8.018  1.00  0.00     0.173 A 
ATOM     54  C   UNL     1       4.351   6.945  -7.538  1.00  0.00     0.173 A 
ATOM     55  F   UNL     1       7.976   6.773  -7.646  1.00  0.00    -0.203 F 
ATOM     56  C   UNL     1       6.385   6.414  -9.346  1.00  0.00     0.198 A 
ATOM     57  C   UNL     1       4.047   6.621  -8.860  1.00  0.00     0.198 A 
ATOM     58  F   UNL     1       3.344   7.210  -6.693  1.00  0.00    -0.203 F 
ATOM     59  F   UNL     1       7.373   6.187 -10.223  1.00  0.00    -0.200 F 
ATOM     60  C   UNL     1       5.064   6.361  -9.764  1.00  0.00     0.200 A 
ATOM     61  F   UNL     1       2.768   6.565  -9.259  1.00  0.00    -0.200 F 
ATOM     62  F   UNL     1       4.773   6.067 -11.039  1.00  0.00    -0.200 F 
ENDBRANCH  28  52
BRANCH  40  63
ATOM     63  C   UNL     1       8.939  12.339  -3.982  1.00  0.00     0.064 A 
ATOM     64  C   UNL     1       8.204  13.438  -4.445  1.00  0.00     0.173 A 
ATOM     65  C   UNL     1      10.338  12.440  -3.947  1.00  0.00     0.173 A 
ATOM     66  F   UNL     1       6.865  13.379  -4.505  1.00  0.00    -0.203 F 
ATOM     67  C   UNL     1       8.849  14.596  -4.865  1.00  0.00     0.198 A 
ATOM     68  C   UNL     1      10.977  13.609  -4.342  1.00  0.00     0.198 A 
ATOM     69  F   UNL     1      11.079  11.414  -3.502  1.00  0.00    -0.203 F 
ATOM     70  F   UNL     1       8.132  15.628  -5.330  1.00  0.00    -0.200 F 
ATOM     71  C   UNL     1      10.233  14.685  -4.803  1.00  0.00     0.200 A 
ATOM     72  F   UNL     1      12.312  13.699  -4.266  1.00  0.00    -0.200 F 
ATOM     73  F   UNL     1      10.851  15.809  -5.189  1.00  0.00    -0.200 F 
ENDBRANCH  40  63
ENDBRANCH  14  15
ENDBRANCH   7   9
ENDBRANCH   6   7
ENDBRANCH   5   6
ENDBRANCH   4   5
ENDBRANCH   3   4
ENDBRANCH   2   3
ENDBRANCH   1   2
BRANCH   1  74
ATOM     74  O   UNL     1       4.822  -3.916  -2.843  1.00  0.00    -0.376 OA
BRANCH  74  75
ATOM     75  C   UNL     1       5.023  -2.852  -3.803  1.00  0.00     0.202 C 
BRANCH  75  76
ATOM     76  C   UNL     1       3.874  -2.586  -4.839  1.00  0.00     0.261 C 
BRANCH  76  77
ATOM     77  O   UNL     1       3.425  -1.177  -4.959  1.00  0.00    -0.463 OA
BRANCH  77  78
ATOM     78  C   UNL     1       2.070  -0.982  -5.135  1.00  0.00     0.310 C 
ATOM     79  O   UNL     1       1.331  -1.931  -5.397  1.00  0.00    -0.252 OA
BRANCH  78  80
ATOM     80  C   UNL     1       1.546   0.492  -5.186  1.00  0.00     0.119 C 
ATOM     81  C   UNL     1       1.544   1.797  -4.258  1.00  0.00     0.100 C 
ATOM     82  C   UNL     1       0.014   0.430  -5.559  1.00  0.00     0.027 C 
ATOM     83  C   UNL     1       0.058   2.302  -4.368  1.00  0.00     0.025 C 
ATOM     84  C   UNL     1      -0.819   0.196  -4.315  1.00  0.00    -0.027 C 
ATOM     85  C   UNL     1      -0.318   1.907  -5.784  1.00  0.00     0.017 C 
ATOM     86  C   UNL     1      -0.824   1.338  -3.617  1.00  0.00    -0.027 C 
BRANCH  81  87
ATOM     87  C   UNL     1       1.927   2.294  -2.846  1.00  0.00     0.229 C 
ATOM     88  O   UNL     1       2.276   3.483  -2.744  1.00  0.00    -0.274 OA
ATOM     89  N   UNL     1       1.668   1.689  -1.663  1.00  0.00    -0.323 N 
ATOM     90  H   UNL     1       1.694   2.283  -0.878  1.00  0.00     0.170 HD
BRANCH  89  91
ATOM     91  C   UNL     1       1.373   0.368  -1.385  1.00  0.00     0.084 A 
ATOM     92  C   UNL     1       0.401   0.095  -0.419  1.00  0.00     0.030 A 
ATOM     93  C   UNL     1       1.924  -0.662  -2.099  1.00  0.00     0.149 A 
ATOM     94  C   UNL     1      -0.226  -1.153  -0.399  1.00  0.00     0.002 A 
ATOM     95  C   UNL     1       1.182  -1.845  -2.196  1.00  0.00     0.049 A 
ATOM     96  C   UNL     1       0.107  -2.097  -1.356  1.00  0.00     0.004 A 
BRANCH  93  97
ATOM     97  O   UNL     1       3.150  -0.683  -2.675  1.00  0.00    -0.433 OA
BRANCH  97  98
ATOM     98  C   UNL     1       4.176   0.297  -2.576  1.00  0.00     0.542 C 
ATOM     99  F   UNL     1       4.081   1.141  -3.635  1.00  0.00    -0.167 F 
ATOM    100  F   UNL     1       4.071   1.006  -1.451  1.00  0.00    -0.167 F 
ENDBRANCH  97  98
ENDBRANCH  93  97
ENDBRANCH  89  91
ENDBRANCH  81  87
ENDBRANCH  78  80
ENDBRANCH  77  78
ENDBRANCH  76  77
ENDBRANCH  75  76
ENDBRANCH  74  75
ENDBRANCH   1  74
TORSDOF 21
