REMARK SMILES COc1c(C)cccc1C(=O)NCc1ccc(C(=O)OCCOCCOCCOC(=O)c2ccc(-c3c4nc(c(-c5c(F)c(F)c(F)c(F)c5F)c5ccc([nH]5)c(-c5c(F)c(F)c(F)c(F)c5F)c5nc(c(-c6c(F)c(F)c(F)c(F)c6F)c6ccc3[nH]6)C=C5)C=C4)cc2)cc1
REMARK SMILES IDX 24 1 23 2 22 3 21 4 20 5 18 6 19 7 17 8 14 9 15 10 96 11
REMARK SMILES IDX 16 12 95 13 13 14 12 15 10 16 11 17 9 19 3 20 4 21 5 22 6 23
REMARK SMILES IDX 8 24 7 25 2 26 1 27 25 28 26 29 27 30 28 31 29 32 30 33
REMARK SMILES IDX 31 34 32 35 33 36 94 37 34 38 93 39 35 40 36 41 37 42 87 43
REMARK SMILES IDX 38 44 92 45 86 46 88 47 39 48 91 49 85 50 84 51 40 53 72 54
REMARK SMILES IDX 52 55 71 56 53 57 56 58 70 59 89 60 54 61 55 62 69 64 90 65
REMARK SMILES IDX 57 66 41 67 42 68 50 69 43 70 44 71 48 72 51 73 45 74 46 75
REMARK SMILES IDX 49 76 47 77 73 78 74 79 82 80 75 81 76 82 80 83 83 84 77 85
REMARK SMILES IDX 78 86 81 87 79 88 58 89 59 90 67 91 60 92 61 93 65 94 68 95
REMARK SMILES IDX 62 96 63 97 66 98 64 99
REMARK H PARENT 12 18 88 52 56 63
REMARK Flexibility Score: inf
ROOT
ATOM      1  C   UNL     1      -3.509  -8.935  -4.582  1.00  0.00     0.188 C 
ENDROOT
BRANCH   1   2
ATOM      2  O   UNL     1      -3.880  -9.787  -3.501  1.00  0.00    -0.376 OA
BRANCH   2   3
ATOM      3  C   UNL     1      -5.056  -9.441  -2.704  1.00  0.00     0.202 C 
BRANCH   3   4
ATOM      4  C   UNL     1      -5.268  -8.016  -1.905  1.00  0.00     0.261 C 
BRANCH   4   5
ATOM      5  O   UNL     1      -4.371  -7.324  -0.538  1.00  0.00    -0.460 OA
BRANCH   5   6
ATOM      6  C   UNL     1      -3.608  -6.201   0.078  1.00  0.00     0.338 C 
ATOM      7  O   UNL     1      -3.124  -6.288   1.214  1.00  0.00    -0.246 OA
BRANCH   6   8
ATOM      8  C   UNL     1      -3.110  -4.777  -0.273  1.00  0.00     0.060 A 
ATOM      9  C   UNL     1      -1.912  -2.264  -0.955  1.00  0.00    -0.029 A 
ATOM     10  C   UNL     1      -1.133  -3.367  -0.578  1.00  0.00     0.006 A 
ATOM     11  C   UNL     1      -3.294  -2.376  -0.819  1.00  0.00     0.006 A 
ATOM     12  C   UNL     1      -1.721  -4.588  -0.243  1.00  0.00     0.016 A 
ATOM     13  C   UNL     1      -3.873  -3.599  -0.412  1.00  0.00     0.016 A 
BRANCH   9  14
ATOM     14  C   UNL     1      -1.154  -1.012  -1.315  1.00  0.00     0.152 C 
BRANCH  14  15
ATOM     15  N   UNL     1      -1.829   0.048  -2.007  1.00  0.00    -0.348 N 
ATOM     16  C   UNL     1      -1.340   1.246  -2.474  1.00  0.00     0.255 C 
ATOM     17  O   UNL     1      -2.203   2.010  -2.925  1.00  0.00    -0.269 OA
ATOM     18  H   UNL     1      -2.788  -0.106  -2.171  1.00  0.00     0.164 HD
BRANCH  16  19
ATOM     19  C   UNL     1       0.110   1.685  -2.547  1.00  0.00     0.082 A 
ATOM     20  C   UNL     1       1.257   1.171  -1.908  1.00  0.00     0.134 A 
ATOM     21  C   UNL     1       2.556   1.647  -2.230  1.00  0.00    -0.008 A 
ATOM     22  C   UNL     1       3.804   1.012  -1.675  1.00  0.00     0.048 C 
ATOM     23  C   UNL     1       2.698   2.756  -3.070  1.00  0.00     0.007 A 
ATOM     24  C   UNL     1       0.314   2.797  -3.401  1.00  0.00     0.018 A 
ATOM     25  C   UNL     1       1.579   3.340  -3.642  1.00  0.00     0.001 A 
BRANCH  20  26
ATOM     26  O   UNL     1       1.202   0.167  -0.980  1.00  0.00    -0.496 OA
ATOM     27  C   UNL     1       1.282   0.680   0.354  1.00  0.00     0.278 C 
ENDBRANCH  20  26
ENDBRANCH  16  19
ENDBRANCH  14  15
ENDBRANCH   9  14
ENDBRANCH   6   8
ENDBRANCH   5   6
ENDBRANCH   4   5
ENDBRANCH   3   4
ENDBRANCH   2   3
ENDBRANCH   1   2
BRANCH   1  28
ATOM     28  C   UNL     1      -2.330  -9.444  -5.464  1.00  0.00     0.188 C 
BRANCH  28  29
ATOM     29  O   UNL     1      -2.207  -8.562  -6.596  1.00  0.00    -0.376 OA
BRANCH  29  30
ATOM     30  C   UNL     1      -1.365  -9.004  -7.671  1.00  0.00     0.202 C 
BRANCH  30  31
ATOM     31  C   UNL     1       0.122  -8.615  -7.540  1.00  0.00     0.261 C 
BRANCH  31  32
ATOM     32  O   UNL     1       0.281  -7.187  -7.672  1.00  0.00    -0.460 OA
BRANCH  32  33
ATOM     33  C   UNL     1       1.074  -6.620  -6.719  1.00  0.00     0.338 C 
ATOM     34  O   UNL     1       2.263  -6.820  -6.587  1.00  0.00    -0.246 OA
BRANCH  33  35
ATOM     35  C   UNL     1       0.210  -5.934  -5.721  1.00  0.00     0.060 A 
ATOM     36  C   UNL     1       0.675  -5.752  -4.414  1.00  0.00     0.016 A 
ATOM     37  C   UNL     1      -1.139  -5.766  -6.007  1.00  0.00     0.016 A 
ATOM     38  C   UNL     1      -0.246  -5.613  -3.371  1.00  0.00     0.010 A 
ATOM     39  C   UNL     1      -2.041  -5.753  -4.962  1.00  0.00     0.010 A 
ATOM     40  C   UNL     1      -1.614  -5.772  -3.629  1.00  0.00    -0.014 A 
BRANCH  40  41
ATOM     41  C   UNL     1      -2.597  -6.329  -2.644  1.00  0.00     0.031 A 
ATOM     42  C   UNL     1      -4.146  -5.586  -2.721  1.00  0.00     0.074 A 
ATOM     43  C   UNL     1      -2.095  -7.480  -1.964  1.00  0.00     0.049 A 
ATOM     44  N   UNL     1      -5.009  -5.594  -1.728  1.00  0.00    -0.248 NA
ATOM     45  C   UNL     1      -4.788  -4.766  -3.760  1.00  0.00     0.031 C 
ATOM     46  C   UNL     1      -2.712  -8.710  -1.431  1.00  0.00     0.029 A 
ATOM     47  N   UNL     1      -0.768  -7.779  -1.495  1.00  0.00    -0.354 N 
ATOM     48  C   UNL     1      -6.256  -5.112  -1.948  1.00  0.00     0.074 A 
ATOM     49  C   UNL     1      -6.042  -4.544  -3.275  1.00  0.00     0.031 C 
ATOM     50  C   UNL     1      -1.966  -9.557  -0.750  1.00  0.00     0.029 A 
ATOM     51  C   UNL     1      -0.843  -8.792  -0.465  1.00  0.00     0.049 A 
ATOM     52  H   UNL     1       0.060  -7.361  -1.823  1.00  0.00     0.167 HD
ATOM     53  C   UNL     1      -7.259  -5.324  -1.000  1.00  0.00     0.037 A 
ATOM     54  C   UNL     1      -0.517  -8.679   0.850  1.00  0.00     0.037 A 
ATOM     55  C   UNL     1      -6.950  -6.274   0.173  1.00  0.00     0.049 A 
ATOM     56  C   UNL     1      -1.639  -8.609   1.945  1.00  0.00     0.074 A 
ATOM     57  C   UNL     1      -7.392  -7.577   0.442  1.00  0.00     0.029 A 
ATOM     58  N   UNL     1      -6.077  -6.026   1.256  1.00  0.00    -0.354 N 
ATOM     59  N   UNL     1      -2.962  -8.671   1.812  1.00  0.00    -0.248 NA
ATOM     60  C   UNL     1      -1.261  -8.384   3.342  1.00  0.00     0.031 C 
ATOM     61  C   UNL     1      -6.600  -8.175   1.470  1.00  0.00     0.029 A 
ATOM     62  C   UNL     1      -5.721  -7.228   1.954  1.00  0.00     0.049 A 
ATOM     63  H   UNL     1      -5.750  -5.131   1.504  1.00  0.00     0.167 HD
ATOM     64  C   UNL     1      -3.538  -8.065   2.961  1.00  0.00     0.074 A 
ATOM     65  C   UNL     1      -2.447  -8.158   3.928  1.00  0.00     0.031 C 
ATOM     66  C   UNL     1      -4.695  -7.269   3.048  1.00  0.00     0.037 A 
BRANCH  53  67
ATOM     67  C   UNL     1      -8.725  -4.918  -1.251  1.00  0.00     0.064 A 
ATOM     68  C   UNL     1      -9.806  -5.520  -0.553  1.00  0.00     0.173 A 
ATOM     69  C   UNL     1      -9.130  -3.937  -2.174  1.00  0.00     0.173 A 
ATOM     70  F   UNL     1      -9.613  -6.340   0.486  1.00  0.00    -0.203 F 
ATOM     71  C   UNL     1     -11.149  -5.283  -0.865  1.00  0.00     0.198 A 
ATOM     72  C   UNL     1     -10.476  -3.716  -2.508  1.00  0.00     0.198 A 
ATOM     73  F   UNL     1      -8.245  -3.104  -2.731  1.00  0.00    -0.203 F 
ATOM     74  F   UNL     1     -12.113  -5.915  -0.180  1.00  0.00    -0.200 F 
ATOM     75  C   UNL     1     -11.485  -4.406  -1.870  1.00  0.00     0.200 A 
ATOM     76  F   UNL     1     -10.785  -2.815  -3.451  1.00  0.00    -0.200 F 
ATOM     77  F   UNL     1     -12.769  -4.196  -2.190  1.00  0.00    -0.200 F 
ENDBRANCH  53  67
BRANCH  54  78
ATOM     78  C   UNL     1       0.960  -8.460   0.884  1.00  0.00     0.064 A 
ATOM     79  C   UNL     1       1.679  -9.506   0.236  1.00  0.00     0.173 A 
ATOM     80  C   UNL     1       1.394  -7.151   0.659  1.00  0.00     0.173 A 
ATOM     81  F   UNL     1       1.307 -10.784   0.426  1.00  0.00    -0.203 F 
ATOM     82  C   UNL     1       2.511  -9.223  -0.847  1.00  0.00     0.198 A 
ATOM     83  C   UNL     1       2.252  -6.876  -0.408  1.00  0.00     0.198 A 
ATOM     84  F   UNL     1       0.802  -6.135   1.300  1.00  0.00    -0.203 F 
ATOM     85  F   UNL     1       2.930 -10.216  -1.647  1.00  0.00    -0.200 F 
ATOM     86  C   UNL     1       2.752  -7.905  -1.199  1.00  0.00     0.200 A 
ATOM     87  F   UNL     1       2.470  -5.603  -0.769  1.00  0.00    -0.200 F 
ATOM     88  F   UNL     1       3.388  -7.624  -2.345  1.00  0.00    -0.200 F 
ENDBRANCH  54  78
BRANCH  66  89
ATOM     89  C   UNL     1      -4.941  -6.303   4.224  1.00  0.00     0.064 A 
ATOM     90  C   UNL     1      -3.934  -5.617   4.936  1.00  0.00     0.173 A 
ATOM     91  C   UNL     1      -6.263  -5.925   4.569  1.00  0.00     0.173 A 
ATOM     92  F   UNL     1      -2.640  -5.718   4.605  1.00  0.00    -0.203 F 
ATOM     93  C   UNL     1      -4.220  -4.744   5.993  1.00  0.00     0.198 A 
ATOM     94  C   UNL     1      -6.545  -4.984   5.566  1.00  0.00     0.198 A 
ATOM     95  F   UNL     1      -7.323  -6.435   3.926  1.00  0.00    -0.203 F 
ATOM     96  F   UNL     1      -3.217  -4.195   6.694  1.00  0.00    -0.200 F 
ATOM     97  C   UNL     1      -5.525  -4.422   6.304  1.00  0.00     0.200 A 
ATOM     98  F   UNL     1      -7.813  -4.614   5.796  1.00  0.00    -0.200 F 
ATOM     99  F   UNL     1      -5.795  -3.553   7.288  1.00  0.00    -0.200 F 
ENDBRANCH  66  89
ENDBRANCH  40  41
ENDBRANCH  33  35
ENDBRANCH  32  33
ENDBRANCH  31  32
ENDBRANCH  30  31
ENDBRANCH  29  30
ENDBRANCH  28  29
ENDBRANCH   1  28
TORSDOF 21
