REMARK SMILES COc1ccc(COc2cncc(C(=O)OCCOCCOCCOC(=O)c3ccc(-c4c5nc(c(-c6c(F)c(F)c(F)c(F)c6F)c6ccc([nH]6)c(-c6c(F)c(F)c(F)c(F)c6F)c6nc(c(-c7c(F)c(F)c(F)c(F)c7F)c7ccc4[nH]7)C=C6)C=C5)cc3)n2)cc1
REMARK SMILES IDX 20 1 19 2 18 3 17 4 16 5 14 6 15 7 13 8 9 9 10 10 91 11
REMARK SMILES IDX 11 12 12 13 8 14 7 15 6 16 3 17 4 18 93 19 5 20 92 21 2 22
REMARK SMILES IDX 1 23 21 24 22 25 23 26 24 27 25 28 26 29 27 30 28 31 29 32
REMARK SMILES IDX 90 33 30 34 89 35 31 36 32 37 33 38 83 39 34 40 88 41 82 42
REMARK SMILES IDX 84 43 35 44 87 45 81 46 80 47 36 49 68 50 48 51 67 52 49 53
REMARK SMILES IDX 52 54 66 55 85 56 50 57 51 58 65 60 86 61 53 62 37 63 38 64
REMARK SMILES IDX 46 65 39 66 40 67 44 68 47 69 41 70 42 71 45 72 43 73 69 74
REMARK SMILES IDX 70 75 78 76 71 77 72 78 76 79 79 80 73 81 74 82 77 83 75 84
REMARK SMILES IDX 54 85 55 86 63 87 56 88 57 89 61 90 64 91 58 92 59 93 62 94
REMARK SMILES IDX 60 95
REMARK H PARENT 84 48 52 59
REMARK Flexibility Score: inf
ROOT
ATOM      1  C   UNL     1       6.457  -6.750   7.432  1.00  0.00     0.188 C 
ENDROOT
BRANCH   1   2
ATOM      2  O   UNL     1       6.754  -7.596   8.526  1.00  0.00    -0.376 OA
BRANCH   2   3
ATOM      3  C   UNL     1       5.981  -8.762   8.758  1.00  0.00     0.202 C 
BRANCH   3   4
ATOM      4  C   UNL     1       4.449  -8.698   8.801  1.00  0.00     0.261 C 
BRANCH   4   5
ATOM      5  O   UNL     1       3.855  -8.010   7.692  1.00  0.00    -0.458 OA
BRANCH   5   6
ATOM      6  C   UNL     1       3.102  -6.929   8.020  1.00  0.00     0.358 C 
ATOM      7  O   UNL     1       2.849  -6.530   9.146  1.00  0.00    -0.244 OA
BRANCH   6   8
ATOM      8  C   UNL     1       2.833  -6.114   6.820  1.00  0.00     0.170 A 
ATOM      9  C   UNL     1       2.149  -5.840   4.650  1.00  0.00     0.233 A 
ATOM     10  C   UNL     1       2.522  -4.497   4.735  1.00  0.00     0.179 A 
ATOM     11  N   UNL     1       2.318  -6.683   5.697  1.00  0.00    -0.203 NA
ATOM     12  N   UNL     1       3.080  -3.942   5.841  1.00  0.00    -0.257 NA
ATOM     13  C   UNL     1       3.198  -4.777   6.893  1.00  0.00     0.147 A 
BRANCH   9  14
ATOM     14  O   UNL     1       1.469  -6.386   3.595  1.00  0.00    -0.472 OA
BRANCH  14  15
ATOM     15  C   UNL     1       1.957  -6.066   2.285  1.00  0.00     0.267 C 
BRANCH  15  16
ATOM     16  C   UNL     1       1.478  -4.721   1.783  1.00  0.00    -0.010 A 
ATOM     17  C   UNL     1       0.679  -2.110   1.103  1.00  0.00     0.118 A 
ATOM     18  C   UNL     1      -0.230  -3.004   1.671  1.00  0.00     0.047 A 
ATOM     19  C   UNL     1       1.981  -2.534   0.840  1.00  0.00     0.047 A 
ATOM     20  C   UNL     1       0.157  -4.306   1.994  1.00  0.00     0.011 A 
ATOM     21  C   UNL     1       2.376  -3.836   1.167  1.00  0.00     0.011 A 
BRANCH  17  22
ATOM     22  O   UNL     1       0.192  -0.849   0.896  1.00  0.00    -0.497 OA
ATOM     23  C   UNL     1       0.895  -0.044  -0.042  1.00  0.00     0.278 C 
ENDBRANCH  17  22
ENDBRANCH  15  16
ENDBRANCH  14  15
ENDBRANCH   9  14
ENDBRANCH   6   8
ENDBRANCH   5   6
ENDBRANCH   4   5
ENDBRANCH   3   4
ENDBRANCH   2   3
ENDBRANCH   1   2
BRANCH   1  24
ATOM     24  C   UNL     1       6.279  -7.309   6.005  1.00  0.00     0.188 C 
BRANCH  24  25
ATOM     25  O   UNL     1       6.419  -8.688   5.767  1.00  0.00    -0.376 OA
BRANCH  25  26
ATOM     26  C   UNL     1       7.677  -9.336   5.813  1.00  0.00     0.202 C 
BRANCH  26  27
ATOM     27  C   UNL     1       9.047  -8.647   5.728  1.00  0.00     0.261 C 
BRANCH  27  28
ATOM     28  O   UNL     1       9.123  -7.275   6.112  1.00  0.00    -0.460 OA
BRANCH  28  29
ATOM     29  C   UNL     1       9.322  -6.409   5.094  1.00  0.00     0.338 C 
ATOM     30  O   UNL     1       9.388  -6.662   3.897  1.00  0.00    -0.246 OA
BRANCH  29  31
ATOM     31  C   UNL     1       9.300  -5.037   5.616  1.00  0.00     0.060 A 
ATOM     32  C   UNL     1       8.285  -4.175   5.182  1.00  0.00     0.016 A 
ATOM     33  C   UNL     1      10.308  -4.585   6.470  1.00  0.00     0.016 A 
ATOM     34  C   UNL     1       8.295  -2.839   5.577  1.00  0.00     0.010 A 
ATOM     35  C   UNL     1      10.326  -3.242   6.850  1.00  0.00     0.010 A 
ATOM     36  C   UNL     1       9.340  -2.357   6.377  1.00  0.00    -0.014 A 
BRANCH  36  37
ATOM     37  C   UNL     1       9.505  -0.897   6.563  1.00  0.00     0.031 A 
ATOM     38  C   UNL     1      10.464  -0.163   5.668  1.00  0.00     0.074 A 
ATOM     39  C   UNL     1       8.805  -0.231   7.497  1.00  0.00     0.049 A 
ATOM     40  N   UNL     1      10.805   1.101   5.669  1.00  0.00    -0.248 NA
ATOM     41  C   UNL     1      11.130  -0.966   4.629  1.00  0.00     0.031 C 
ATOM     42  C   UNL     1       7.819  -0.824   8.396  1.00  0.00     0.029 A 
ATOM     43  N   UNL     1       8.828   1.096   7.846  1.00  0.00    -0.354 N 
ATOM     44  C   UNL     1      11.726   1.242   4.640  1.00  0.00     0.074 A 
ATOM     45  C   UNL     1      11.915  -0.067   4.054  1.00  0.00     0.031 C 
ATOM     46  C   UNL     1       7.339   0.136   9.207  1.00  0.00     0.029 A 
ATOM     47  C   UNL     1       8.006   1.401   8.902  1.00  0.00     0.049 A 
ATOM     48  H   UNL     1       9.382   1.766   7.383  1.00  0.00     0.167 HD
ATOM     49  C   UNL     1      12.350   2.366   4.215  1.00  0.00     0.037 A 
ATOM     50  C   UNL     1       7.833   2.565   9.558  1.00  0.00     0.037 A 
ATOM     51  C   UNL     1      12.165   3.666   4.801  1.00  0.00     0.049 A 
ATOM     52  C   UNL     1       8.599   3.786   9.114  1.00  0.00     0.074 A 
ATOM     53  C   UNL     1      12.739   4.869   4.432  1.00  0.00     0.029 A 
ATOM     54  N   UNL     1      11.347   3.930   5.890  1.00  0.00    -0.354 N 
ATOM     55  N   UNL     1       9.444   3.921   8.121  1.00  0.00    -0.248 NA
ATOM     56  C   UNL     1       8.383   5.019   9.885  1.00  0.00     0.031 C 
ATOM     57  C   UNL     1      12.309   5.852   5.329  1.00  0.00     0.029 A 
ATOM     58  C   UNL     1      11.422   5.273   6.223  1.00  0.00     0.049 A 
ATOM     59  H   UNL     1      10.794   3.262   6.356  1.00  0.00     0.167 HD
ATOM     60  C   UNL     1       9.835   5.254   8.127  1.00  0.00     0.074 A 
ATOM     61  C   UNL     1       9.125   5.891   9.217  1.00  0.00     0.031 C 
ATOM     62  C   UNL     1      10.701   5.895   7.304  1.00  0.00     0.037 A 
BRANCH  49  63
ATOM     63  C   UNL     1      13.316   2.229   3.075  1.00  0.00     0.064 A 
ATOM     64  C   UNL     1      12.880   1.978   1.766  1.00  0.00     0.173 A 
ATOM     65  C   UNL     1      14.694   2.377   3.292  1.00  0.00     0.173 A 
ATOM     66  F   UNL     1      11.574   1.813   1.509  1.00  0.00    -0.203 F 
ATOM     67  C   UNL     1      13.791   1.855   0.720  1.00  0.00     0.198 A 
ATOM     68  C   UNL     1      15.600   2.282   2.239  1.00  0.00     0.198 A 
ATOM     69  F   UNL     1      15.163   2.620   4.526  1.00  0.00    -0.203 F 
ATOM     70  F   UNL     1      13.356   1.568  -0.515  1.00  0.00    -0.200 F 
ATOM     71  C   UNL     1      15.148   2.014   0.956  1.00  0.00     0.200 A 
ATOM     72  F   UNL     1      16.910   2.447   2.467  1.00  0.00    -0.200 F 
ATOM     73  F   UNL     1      16.023   1.901  -0.053  1.00  0.00    -0.200 F 
ENDBRANCH  49  63
BRANCH  50  74
ATOM     74  C   UNL     1       6.904   2.635  10.716  1.00  0.00     0.064 A 
ATOM     75  C   UNL     1       5.718   3.378  10.648  1.00  0.00     0.173 A 
ATOM     76  C   UNL     1       7.199   1.986  11.924  1.00  0.00     0.173 A 
ATOM     77  F   UNL     1       5.407   4.040   9.524  1.00  0.00    -0.203 F 
ATOM     78  C   UNL     1       4.872   3.486  11.750  1.00  0.00     0.198 A 
ATOM     79  C   UNL     1       6.338   2.071  13.016  1.00  0.00     0.198 A 
ATOM     80  F   UNL     1       8.325   1.268  12.044  1.00  0.00    -0.203 F 
ATOM     81  F   UNL     1       3.771   4.246  11.674  1.00  0.00    -0.200 F 
ATOM     82  C   UNL     1       5.180   2.828  12.931  1.00  0.00     0.200 A 
ATOM     83  F   UNL     1       6.636   1.428  14.153  1.00  0.00    -0.200 F 
ATOM     84  F   UNL     1       4.367   2.935  13.991  1.00  0.00    -0.200 F 
ENDBRANCH  50  74
BRANCH  62  85
ATOM     85  C   UNL     1      10.902   7.368   7.518  1.00  0.00     0.064 A 
ATOM     86  C   UNL     1      11.611   7.864   8.621  1.00  0.00     0.173 A 
ATOM     87  C   UNL     1      10.418   8.292   6.578  1.00  0.00     0.173 A 
ATOM     88  F   UNL     1      12.082   7.023   9.554  1.00  0.00    -0.203 F 
ATOM     89  C   UNL     1      11.810   9.232   8.788  1.00  0.00     0.198 A 
ATOM     90  C   UNL     1      10.645   9.657   6.732  1.00  0.00     0.198 A 
ATOM     91  F   UNL     1       9.741   7.870   5.500  1.00  0.00    -0.203 F 
ATOM     92  F   UNL     1      12.452   9.687   9.873  1.00  0.00    -0.200 F 
ATOM     93  C   UNL     1      11.334  10.127   7.840  1.00  0.00     0.200 A 
ATOM     94  F   UNL     1      10.199  10.518   5.807  1.00  0.00    -0.200 F 
ATOM     95  F   UNL     1      11.535  11.442   7.998  1.00  0.00    -0.200 F 
ENDBRANCH  62  85
ENDBRANCH  36  37
ENDBRANCH  29  31
ENDBRANCH  28  29
ENDBRANCH  27  28
ENDBRANCH  26  27
ENDBRANCH  25  26
ENDBRANCH  24  25
ENDBRANCH   1  24
TORSDOF 21
