REMARK SMILES O=C(OCCOCCOCCOC(=O)[C@@H]1CCn2c(C(=O)c3ccccc3)ccc21)c1ccc(-c2c3nc(c(-c4c(F)c(F)c(F)c(F)c4F)c4ccc([nH]4)c(-c4c(F)c(F)c(F)c(F)c4F)c4nc(c(-c5c(F)c(F)c(F)c(F)c5F)c5ccc2[nH]5)C=C4)C=C3)cc1
REMARK SMILES IDX 7 1 6 2 5 3 4 4 3 5 2 6 1 7 31 8 32 9 93 10 33 11 92 12
REMARK SMILES IDX 34 13 35 14 36 15 86 16 37 17 91 18 85 19 87 20 38 21 90 22
REMARK SMILES IDX 84 23 83 24 39 26 71 27 51 28 70 29 52 30 55 31 69 32 88 33
REMARK SMILES IDX 53 34 54 35 68 37 89 38 56 39 40 40 41 41 49 42 42 43 43 44
REMARK SMILES IDX 47 45 50 46 44 47 45 48 48 49 46 50 72 51 73 52 81 53 74 54
REMARK SMILES IDX 75 55 79 56 82 57 76 58 77 59 80 60 78 61 57 62 58 63 66 64
REMARK SMILES IDX 59 65 60 66 64 67 67 68 61 69 62 70 65 71 63 72 8 73 9 74
REMARK SMILES IDX 10 75 11 76 12 77 13 78 14 79 15 80 16 81 30 82 17 83 18 84
REMARK SMILES IDX 29 85 19 86 28 87 20 88 21 89 22 90 23 91 27 92 24 93 26 94
REMARK SMILES IDX 25 95
REMARK H PARENT 87 25 55 36
REMARK Flexibility Score: inf
ROOT
ATOM      1  C   UNL     1       2.539   0.821  -1.635  1.00  0.00     0.188 C 
ENDROOT
BRANCH   1   2
ATOM      2  O   UNL     1       3.901   0.850  -1.182  1.00  0.00    -0.376 OA
BRANCH   2   3
ATOM      3  C   UNL     1       4.694  -0.206  -1.736  1.00  0.00     0.202 C 
BRANCH   3   4
ATOM      4  C   UNL     1       4.579  -1.550  -1.007  1.00  0.00     0.261 C 
BRANCH   4   5
ATOM      5  O   UNL     1       3.294  -1.755  -0.404  1.00  0.00    -0.460 OA
BRANCH   5   6
ATOM      6  C   UNL     1       2.854  -1.366   0.817  1.00  0.00     0.338 C 
ATOM      7  O   UNL     1       1.694  -1.652   1.118  1.00  0.00    -0.246 OA
BRANCH   6   8
ATOM      8  C   UNL     1       3.674  -0.630   1.840  1.00  0.00     0.060 A 
ATOM      9  C   UNL     1       4.925  -0.040   1.644  1.00  0.00     0.016 A 
ATOM     10  C   UNL     1       3.107  -0.517   3.123  1.00  0.00     0.016 A 
ATOM     11  C   UNL     1       5.643   0.532   2.697  1.00  0.00     0.010 A 
ATOM     12  C   UNL     1       3.795   0.105   4.170  1.00  0.00     0.010 A 
ATOM     13  C   UNL     1       5.095   0.593   3.974  1.00  0.00    -0.014 A 
BRANCH  13  14
ATOM     14  C   UNL     1       5.930   1.004   5.127  1.00  0.00     0.031 A 
ATOM     15  C   UNL     1       6.304  -0.048   6.134  1.00  0.00     0.074 A 
ATOM     16  C   UNL     1       6.413   2.255   5.257  1.00  0.00     0.049 A 
ATOM     17  N   UNL     1       6.970   0.069   7.253  1.00  0.00    -0.248 NA
ATOM     18  C   UNL     1       5.906  -1.431   5.814  1.00  0.00     0.031 C 
ATOM     19  C   UNL     1       6.265   3.342   4.290  1.00  0.00     0.029 A 
ATOM     20  N   UNL     1       7.107   2.832   6.294  1.00  0.00    -0.354 N 
ATOM     21  C   UNL     1       7.126  -1.225   7.728  1.00  0.00     0.074 A 
ATOM     22  C   UNL     1       6.385  -2.100   6.850  1.00  0.00     0.031 C 
ATOM     23  C   UNL     1       6.748   4.474   4.830  1.00  0.00     0.029 A 
ATOM     24  C   UNL     1       7.188   4.201   6.186  1.00  0.00     0.049 A 
ATOM     25  H   UNL     1       7.503   2.320   7.036  1.00  0.00     0.167 HD
ATOM     26  C   UNL     1       7.886  -1.654   8.762  1.00  0.00     0.037 A 
ATOM     27  C   UNL     1       7.508   5.116   7.118  1.00  0.00     0.037 A 
ATOM     28  C   UNL     1       8.603  -0.779   9.645  1.00  0.00     0.049 A 
ATOM     29  C   UNL     1       8.078   4.639   8.420  1.00  0.00     0.074 A 
ATOM     30  C   UNL     1       9.452  -1.096  10.689  1.00  0.00     0.029 A 
ATOM     31  N   UNL     1       8.525   0.604   9.595  1.00  0.00    -0.354 N 
ATOM     32  N   UNL     1       8.234   3.419   8.864  1.00  0.00    -0.248 NA
ATOM     33  C   UNL     1       8.594   5.684   9.317  1.00  0.00     0.031 C 
ATOM     34  C   UNL     1       9.852   0.098  11.302  1.00  0.00     0.029 A 
ATOM     35  C   UNL     1       9.284   1.156  10.613  1.00  0.00     0.049 A 
ATOM     36  H   UNL     1       8.007   1.118   8.935  1.00  0.00     0.167 HD
ATOM     37  C   UNL     1       8.915   3.543  10.063  1.00  0.00     0.074 A 
ATOM     38  C   UNL     1       9.094   4.960  10.304  1.00  0.00     0.031 C 
ATOM     39  C   UNL     1       9.412   2.566  10.857  1.00  0.00     0.037 A 
BRANCH  26  40
ATOM     40  C   UNL     1       7.983  -3.136   8.950  1.00  0.00     0.064 A 
ATOM     41  C   UNL     1       8.682  -3.938   8.032  1.00  0.00     0.173 A 
ATOM     42  C   UNL     1       7.346  -3.768  10.024  1.00  0.00     0.173 A 
ATOM     43  F   UNL     1       9.291  -3.380   6.973  1.00  0.00    -0.203 F 
ATOM     44  C   UNL     1       8.703  -5.323   8.161  1.00  0.00     0.198 A 
ATOM     45  C   UNL     1       7.391  -5.152  10.165  1.00  0.00     0.198 A 
ATOM     46  F   UNL     1       6.662  -3.046  10.925  1.00  0.00    -0.203 F 
ATOM     47  F   UNL     1       9.321  -6.072   7.237  1.00  0.00    -0.200 F 
ATOM     48  C   UNL     1       8.059  -5.929   9.229  1.00  0.00     0.200 A 
ATOM     49  F   UNL     1       6.769  -5.739  11.197  1.00  0.00    -0.200 F 
ATOM     50  F   UNL     1       8.068  -7.263   9.346  1.00  0.00    -0.200 F 
ENDBRANCH  26  40
BRANCH  27  51
ATOM     51  C   UNL     1       7.265   6.570   6.948  1.00  0.00     0.064 A 
ATOM     52  C   UNL     1       8.146   7.404   6.255  1.00  0.00     0.173 A 
ATOM     53  C   UNL     1       6.218   7.173   7.670  1.00  0.00     0.173 A 
ATOM     54  F   UNL     1       9.178   6.880   5.580  1.00  0.00    -0.203 F 
ATOM     55  C   UNL     1       8.003   8.791   6.306  1.00  0.00     0.198 A 
ATOM     56  C   UNL     1       6.083   8.557   7.728  1.00  0.00     0.198 A 
ATOM     57  F   UNL     1       5.374   6.414   8.384  1.00  0.00    -0.203 F 
ATOM     58  F   UNL     1       8.878   9.577   5.662  1.00  0.00    -0.200 F 
ATOM     59  C   UNL     1       6.981   9.366   7.050  1.00  0.00     0.200 A 
ATOM     60  F   UNL     1       5.105   9.108   8.460  1.00  0.00    -0.200 F 
ATOM     61  F   UNL     1       6.867  10.700   7.119  1.00  0.00    -0.200 F 
ENDBRANCH  27  51
BRANCH  39  62
ATOM     62  C   UNL     1      10.258   3.025  12.001  1.00  0.00     0.064 A 
ATOM     63  C   UNL     1       9.704   3.616  13.143  1.00  0.00     0.173 A 
ATOM     64  C   UNL     1      11.654   2.931  11.909  1.00  0.00     0.173 A 
ATOM     65  F   UNL     1       8.375   3.767  13.250  1.00  0.00    -0.203 F 
ATOM     66  C   UNL     1      10.524   4.130  14.143  1.00  0.00     0.198 A 
ATOM     67  C   UNL     1      12.469   3.420  12.922  1.00  0.00     0.198 A 
ATOM     68  F   UNL     1      12.226   2.389  10.823  1.00  0.00    -0.203 F 
ATOM     69  F   UNL     1       9.982   4.760  15.194  1.00  0.00    -0.200 F 
ATOM     70  C   UNL     1      11.904   4.029  14.033  1.00  0.00     0.200 A 
ATOM     71  F   UNL     1      13.801   3.325  12.812  1.00  0.00    -0.200 F 
ATOM     72  F   UNL     1      12.692   4.540  14.988  1.00  0.00    -0.200 F 
ENDBRANCH  39  62
ENDBRANCH  13  14
ENDBRANCH   6   8
ENDBRANCH   5   6
ENDBRANCH   4   5
ENDBRANCH   3   4
ENDBRANCH   2   3
ENDBRANCH   1   2
BRANCH   1  73
ATOM     73  C   UNL     1       2.000   2.216  -1.950  1.00  0.00     0.188 C 
BRANCH  73  74
ATOM     74  O   UNL     1       2.591   2.923  -3.041  1.00  0.00    -0.376 OA
BRANCH  74  75
ATOM     75  C   UNL     1       4.007   3.058  -3.061  1.00  0.00     0.202 C 
BRANCH  75  76
ATOM     76  C   UNL     1       4.678   3.938  -1.992  1.00  0.00     0.261 C 
BRANCH  76  77
ATOM     77  O   UNL     1       3.938   4.074  -0.772  1.00  0.00    -0.463 OA
BRANCH  77  78
ATOM     78  C   UNL     1       3.146   5.178  -0.716  1.00  0.00     0.315 C 
ATOM     79  O   UNL     1       3.141   6.061  -1.570  1.00  0.00    -0.251 OA
BRANCH  78  80
ATOM     80  C   UNL     1       2.164   5.174   0.442  1.00  0.00     0.148 C 
ATOM     81  C   UNL     1       1.932   6.626   0.938  1.00  0.00     0.043 C 
ATOM     82  C   UNL     1       2.594   4.503   1.704  1.00  0.00     0.033 A 
ATOM     83  C   UNL     1       2.806   6.781   2.182  1.00  0.00     0.124 C 
ATOM     84  N   UNL     1       2.934   5.417   2.663  1.00  0.00    -0.341 N 
ATOM     85  C   UNL     1       2.594   3.263   2.281  1.00  0.00     0.025 A 
ATOM     86  C   UNL     1       3.122   4.837   3.880  1.00  0.00     0.090 A 
ATOM     87  C   UNL     1       2.899   3.479   3.656  1.00  0.00     0.032 A 
BRANCH  86  88
ATOM     88  C   UNL     1       3.422   5.456   5.165  1.00  0.00     0.209 C 
ATOM     89  O   UNL     1       3.448   4.851   6.225  1.00  0.00    -0.287 OA
BRANCH  88  90
ATOM     90  C   UNL     1       3.654   6.916   5.219  1.00  0.00     0.024 A 
ATOM     91  C   UNL     1       4.696   7.513   4.500  1.00  0.00     0.012 A 
ATOM     92  C   UNL     1       2.743   7.699   5.929  1.00  0.00     0.012 A 
ATOM     93  C   UNL     1       4.791   8.901   4.440  1.00  0.00     0.001 A 
ATOM     94  C   UNL     1       2.841   9.087   5.864  1.00  0.00     0.001 A 
ATOM     95  C   UNL     1       3.855   9.686   5.113  1.00  0.00     0.000 A 
ENDBRANCH  88  90
ENDBRANCH  86  88
ENDBRANCH  78  80
ENDBRANCH  77  78
ENDBRANCH  76  77
ENDBRANCH  75  76
ENDBRANCH  74  75
ENDBRANCH  73  74
ENDBRANCH   1  73
TORSDOF 19
