REMARK SMILES CC(C)[NH2+][C@]1(C(=O)OCCOCCOCCOC(=O)c2ccc(-c3c4nc(c(-c5c(F)c(F)c(F)c(F)c5F)c5ccc([nH]5)c(-c5c(F)c(F)c(F)c(F)c5F)c5nc(c(-c6c(F)c(F)c(F)c(F)c6F)c6ccc3[nH]6)C=C5)C=C4)cc2)CC[C@H]([N@H+](C)C2CCCC2)C1
REMARK SMILES IDX 12 1 11 2 10 3 9 4 8 5 6 6 7 7 5 8 83 9 93 10 84 11 85 12
REMARK SMILES IDX 4 13 2 16 1 17 3 18 86 19 87 20 88 22 89 23 92 24 90 25
REMARK SMILES IDX 91 26 13 27 14 28 15 29 16 30 17 31 18 32 19 33 20 34 21 35
REMARK SMILES IDX 82 36 22 37 81 38 23 39 24 40 25 41 75 42 26 43 80 44 74 45
REMARK SMILES IDX 76 46 27 47 79 48 73 49 72 50 28 52 60 53 40 54 59 55 41 56
REMARK SMILES IDX 44 57 58 58 77 59 42 60 43 61 57 63 78 64 45 65 29 66 30 67
REMARK SMILES IDX 38 68 31 69 32 70 36 71 39 72 33 73 34 74 37 75 35 76 61 77
REMARK SMILES IDX 62 78 70 79 63 80 64 81 68 82 71 83 65 84 66 85 69 86 67 87
REMARK SMILES IDX 46 88 47 89 55 90 48 91 49 92 53 93 56 94 50 95 51 96 54 97
REMARK SMILES IDX 52 98
REMARK H PARENT 4 14 4 15 86 21 76 51 44 62
REMARK Flexibility Score: inf
ROOT
ATOM      1  C   UNL     1      -1.842   1.457   0.037  1.00  0.00     0.188 C 
ENDROOT
BRANCH   1   2
ATOM      2  O   UNL     1      -1.083   1.073   1.167  1.00  0.00    -0.376 OA
BRANCH   2   3
ATOM      3  C   UNL     1       0.269   0.682   1.031  1.00  0.00     0.202 C 
BRANCH   3   4
ATOM      4  C   UNL     1       0.694  -0.366   0.001  1.00  0.00     0.261 C 
BRANCH   4   5
ATOM      5  O   UNL     1       0.320  -0.095  -1.360  1.00  0.00    -0.459 OA
BRANCH   5   6
ATOM      6  C   UNL     1      -0.731  -0.831  -1.796  1.00  0.00     0.368 C 
ATOM      7  O   UNL     1      -1.361  -1.612  -1.079  1.00  0.00    -0.245 OA
BRANCH   6   8
ATOM      8  C   UNL     1      -1.152  -0.580  -3.272  1.00  0.00     0.200 C 
ATOM      9  C   UNL     1      -0.132  -0.014  -4.263  1.00  0.00     0.087 C 
ATOM     10  C   UNL     1      -1.097  -2.054  -3.770  1.00  0.00     0.146 C 
ATOM     11  C   UNL     1      -0.525  -0.653  -5.624  1.00  0.00     0.072 C 
ATOM     12  C   UNL     1      -1.125  -2.050  -5.280  1.00  0.00     0.191 C 
BRANCH   8  13
ATOM     13  N   UNL     1      -2.438   0.196  -3.207  1.00  0.00    -0.330 N 
ATOM     14  H   UNL     1      -3.142  -0.466  -2.882  1.00  0.00     0.347 HD
ATOM     15  H   UNL     1      -2.153   0.989  -2.632  1.00  0.00     0.347 HD
BRANCH  13  16
ATOM     16  C   UNL     1      -3.044   0.890  -4.350  1.00  0.00     0.176 C 
ATOM     17  C   UNL     1      -4.581   0.942  -4.216  1.00  0.00     0.075 C 
ATOM     18  C   UNL     1      -2.568   2.329  -4.583  1.00  0.00     0.075 C 
ENDBRANCH  13  16
ENDBRANCH   8  13
BRANCH  12  19
ATOM     19  N   UNL     1      -2.337  -2.605  -5.925  1.00  0.00    -0.332 N 
ATOM     20  C   UNL     1      -2.263  -2.430  -7.376  1.00  0.00     0.333 C 
ATOM     21  H   UNL     1      -2.279  -3.588  -5.659  1.00  0.00     0.348 HD
BRANCH  19  22
ATOM     22  C   UNL     1      -3.679  -2.329  -5.375  1.00  0.00     0.184 C 
ATOM     23  C   UNL     1      -4.868  -2.966  -6.121  1.00  0.00     0.065 C 
ATOM     24  C   UNL     1      -4.011  -2.817  -3.947  1.00  0.00     0.065 C 
ATOM     25  C   UNL     1      -6.060  -2.642  -5.220  1.00  0.00     0.006 C 
ATOM     26  C   UNL     1      -5.528  -2.758  -3.803  1.00  0.00     0.006 C 
ENDBRANCH  19  22
ENDBRANCH  12  19
ENDBRANCH   6   8
ENDBRANCH   5   6
ENDBRANCH   4   5
ENDBRANCH   3   4
ENDBRANCH   2   3
ENDBRANCH   1   2
BRANCH   1  27
ATOM     27  C   UNL     1      -1.263   2.396  -1.042  1.00  0.00     0.188 C 
BRANCH  27  28
ATOM     28  O   UNL     1      -0.071   3.114  -0.824  1.00  0.00    -0.376 OA
BRANCH  28  29
ATOM     29  C   UNL     1       0.015   4.044   0.235  1.00  0.00     0.202 C 
BRANCH  29  30
ATOM     30  C   UNL     1      -1.166   4.928   0.658  1.00  0.00     0.261 C 
BRANCH  30  31
ATOM     31  O   UNL     1      -2.448   4.289   0.746  1.00  0.00    -0.460 OA
BRANCH  31  32
ATOM     32  C   UNL     1      -3.375   4.728  -0.146  1.00  0.00     0.338 C 
ATOM     33  O   UNL     1      -3.232   5.584  -0.999  1.00  0.00    -0.246 OA
BRANCH  32  34
ATOM     34  C   UNL     1      -4.592   3.893  -0.069  1.00  0.00     0.060 A 
ATOM     35  C   UNL     1      -4.902   3.072  -1.158  1.00  0.00     0.016 A 
ATOM     36  C   UNL     1      -5.471   3.990   1.007  1.00  0.00     0.016 A 
ATOM     37  C   UNL     1      -6.104   2.366  -1.193  1.00  0.00     0.010 A 
ATOM     38  C   UNL     1      -6.688   3.295   0.962  1.00  0.00     0.010 A 
ATOM     39  C   UNL     1      -7.025   2.503  -0.152  1.00  0.00    -0.014 A 
BRANCH  39  40
ATOM     40  C   UNL     1      -8.401   1.973  -0.326  1.00  0.00     0.031 A 
ATOM     41  C   UNL     1      -9.496   2.927  -0.717  1.00  0.00     0.074 A 
ATOM     42  C   UNL     1      -8.674   0.661  -0.199  1.00  0.00     0.049 A 
ATOM     43  N   UNL     1     -10.784   2.723  -0.821  1.00  0.00    -0.248 NA
ATOM     44  C   UNL     1      -9.075   4.299  -1.044  1.00  0.00     0.031 C 
ATOM     45  C   UNL     1      -7.693  -0.386   0.074  1.00  0.00     0.029 A 
ATOM     46  N   UNL     1      -9.871  -0.009  -0.274  1.00  0.00    -0.354 N 
ATOM     47  C   UNL     1     -11.330   3.943  -1.198  1.00  0.00     0.074 A 
ATOM     48  C   UNL     1     -10.236   4.885  -1.295  1.00  0.00     0.031 C 
ATOM     49  C   UNL     1      -8.331  -1.565   0.168  1.00  0.00     0.029 A 
ATOM     50  C   UNL     1      -9.769  -1.348   0.012  1.00  0.00     0.049 A 
ATOM     51  H   UNL     1     -10.721   0.429  -0.511  1.00  0.00     0.167 HD
ATOM     52  C   UNL     1     -12.627   4.249  -1.440  1.00  0.00     0.037 A 
ATOM     53  C   UNL     1     -10.730  -2.280   0.173  1.00  0.00     0.037 A 
ATOM     54  C   UNL     1     -13.713   3.309  -1.351  1.00  0.00     0.049 A 
ATOM     55  C   UNL     1     -12.178  -1.892   0.001  1.00  0.00     0.074 A 
ATOM     56  C   UNL     1     -15.062   3.527  -1.573  1.00  0.00     0.029 A 
ATOM     57  N   UNL     1     -13.576   1.973  -1.007  1.00  0.00    -0.354 N 
ATOM     58  N   UNL     1     -12.694  -0.733  -0.331  1.00  0.00    -0.248 NA
ATOM     59  C   UNL     1     -13.180  -2.944   0.229  1.00  0.00     0.031 C 
ATOM     60  C   UNL     1     -15.747   2.338  -1.304  1.00  0.00     0.029 A 
ATOM     61  C   UNL     1     -14.819   1.361  -0.982  1.00  0.00     0.049 A 
ATOM     62  H   UNL     1     -12.721   1.525  -0.809  1.00  0.00     0.167 HD
ATOM     63  C   UNL     1     -14.070  -0.924  -0.383  1.00  0.00     0.074 A 
ATOM     64  C   UNL     1     -14.309  -2.314  -0.061  1.00  0.00     0.031 C 
ATOM     65  C   UNL     1     -15.046  -0.028  -0.672  1.00  0.00     0.037 A 
BRANCH  52  66
ATOM     66  C   UNL     1     -12.950   5.676  -1.777  1.00  0.00     0.064 A 
ATOM     67  C   UNL     1     -12.592   6.250  -3.006  1.00  0.00     0.173 A 
ATOM     68  C   UNL     1     -13.659   6.471  -0.864  1.00  0.00     0.173 A 
ATOM     69  F   UNL     1     -11.899   5.539  -3.908  1.00  0.00    -0.203 F 
ATOM     70  C   UNL     1     -12.909   7.575  -3.296  1.00  0.00     0.198 A 
ATOM     71  C   UNL     1     -14.003   7.785  -1.170  1.00  0.00     0.198 A 
ATOM     72  F   UNL     1     -14.029   5.970   0.325  1.00  0.00    -0.203 F 
ATOM     73  F   UNL     1     -12.513   8.119  -4.455  1.00  0.00    -0.200 F 
ATOM     74  C   UNL     1     -13.621   8.338  -2.382  1.00  0.00     0.200 A 
ATOM     75  F   UNL     1     -14.703   8.514  -0.291  1.00  0.00    -0.200 F 
ATOM     76  F   UNL     1     -13.933   9.610  -2.667  1.00  0.00    -0.200 F 
ENDBRANCH  52  66
BRANCH  53  77
ATOM     77  C   UNL     1     -10.364  -3.670   0.562  1.00  0.00     0.064 A 
ATOM     78  C   UNL     1     -10.588  -4.750  -0.302  1.00  0.00     0.173 A 
ATOM     79  C   UNL     1      -9.819  -3.949   1.825  1.00  0.00     0.173 A 
ATOM     80  F   UNL     1     -11.139  -4.541  -1.507  1.00  0.00    -0.203 F 
ATOM     81  C   UNL     1     -10.301  -6.057   0.089  1.00  0.00     0.198 A 
ATOM     82  C   UNL     1      -9.501  -5.252   2.202  1.00  0.00     0.198 A 
ATOM     83  F   UNL     1      -9.595  -2.954   2.695  1.00  0.00    -0.203 F 
ATOM     84  F   UNL     1     -10.580  -7.077  -0.734  1.00  0.00    -0.200 F 
ATOM     85  C   UNL     1      -9.751  -6.306   1.337  1.00  0.00     0.200 A 
ATOM     86  F   UNL     1      -8.962  -5.486   3.406  1.00  0.00    -0.200 F 
ATOM     87  F   UNL     1      -9.475  -7.563   1.712  1.00  0.00    -0.200 F 
ENDBRANCH  53  77
BRANCH  65  88
ATOM     88  C   UNL     1     -16.464  -0.529  -0.706  1.00  0.00     0.064 A 
ATOM     89  C   UNL     1     -17.148  -0.901   0.460  1.00  0.00     0.173 A 
ATOM     90  C   UNL     1     -17.163  -0.591  -1.923  1.00  0.00     0.173 A 
ATOM     91  F   UNL     1     -16.525  -0.872   1.647  1.00  0.00    -0.203 F 
ATOM     92  C   UNL     1     -18.468  -1.345   0.406  1.00  0.00     0.198 A 
ATOM     93  C   UNL     1     -18.493  -1.001  -1.968  1.00  0.00     0.198 A 
ATOM     94  F   UNL     1     -16.561  -0.237  -3.068  1.00  0.00    -0.203 F 
ATOM     95  F   UNL     1     -19.085  -1.744   1.528  1.00  0.00    -0.200 F 
ATOM     96  C   UNL     1     -19.142  -1.386  -0.805  1.00  0.00     0.200 A 
ATOM     97  F   UNL     1     -19.147  -1.023  -3.138  1.00  0.00    -0.200 F 
ATOM     98  F   UNL     1     -20.414  -1.803  -0.853  1.00  0.00    -0.200 F 
ENDBRANCH  65  88
ENDBRANCH  39  40
ENDBRANCH  32  34
ENDBRANCH  31  32
ENDBRANCH  30  31
ENDBRANCH  29  30
ENDBRANCH  28  29
ENDBRANCH  27  28
ENDBRANCH   1  27
TORSDOF 21
