REMARK SMILES O=C(C[C@@H]1[NH2+]CCc2c(Br)cccc21)OCCOCCOCCOC(=O)c1ccc(-c2c3nc(c(-c4c(F)c(F)c(F)c(F)c4F)c4ccc([nH]4)c(-c4c(F)c(F)c(F)c(F)c4F)c4nc(c(-c5c(F)c(F)c(F)c(F)c5F)c5ccc2[nH]5)C=C4)C=C3)cc1
REMARK SMILES IDX 20 1 19 2 18 3 17 4 16 5 15 6 2 7 1 8 3 9 4 10 5 11 14 12
REMARK SMILES IDX 6 13 8 16 13 17 7 18 9 19 12 20 10 21 11 22 21 23 22 24
REMARK SMILES IDX 23 25 24 26 25 27 26 28 27 29 28 30 89 31 29 32 88 33 30 34
REMARK SMILES IDX 31 35 32 36 82 37 33 38 87 39 81 40 83 41 34 42 86 43 80 44
REMARK SMILES IDX 79 45 35 47 67 48 47 49 66 50 48 51 51 52 65 53 84 54 49 55
REMARK SMILES IDX 50 56 64 58 85 59 52 60 36 61 37 62 45 63 38 64 39 65 43 66
REMARK SMILES IDX 46 67 40 68 41 69 44 70 42 71 68 72 69 73 77 74 70 75 71 76
REMARK SMILES IDX 75 77 78 78 72 79 73 80 76 81 74 82 53 83 54 84 62 85 55 86
REMARK SMILES IDX 56 87 60 88 63 89 57 90 58 91 61 92 59 93
REMARK H PARENT 5 14 5 15 83 46 51 57
REMARK Flexibility Score: inf
ROOT
ATOM      1  C   UNL     1       2.274   1.989  -2.196  1.00  0.00     0.188 C 
ENDROOT
BRANCH   1   2
ATOM      2  C   UNL     1       3.207   2.087  -0.978  1.00  0.00     0.188 C 
BRANCH   2   3
ATOM      3  O   UNL     1       4.575   1.821  -1.194  1.00  0.00    -0.376 OA
BRANCH   3   4
ATOM      4  C   UNL     1       5.083   0.545  -0.866  1.00  0.00     0.202 C 
BRANCH   4   5
ATOM      5  C   UNL     1       4.265  -0.644  -1.341  1.00  0.00     0.261 C 
BRANCH   5   6
ATOM      6  O   UNL     1       2.917  -0.816  -0.824  1.00  0.00    -0.463 OA
BRANCH   6   7
ATOM      7  C   UNL     1       2.385  -0.809   0.416  1.00  0.00     0.312 C 
ATOM      8  O   UNL     1       1.219  -1.171   0.564  1.00  0.00    -0.252 OA
BRANCH   7   9
ATOM      9  C   UNL     1       3.158  -0.247   1.578  1.00  0.00     0.192 C 
BRANCH   9  10
ATOM     10  C   UNL     1       4.004  -1.211   2.407  1.00  0.00     0.225 C 
ATOM     11  N   UNL     1       5.000  -2.006   1.686  1.00  0.00    -0.339 N 
ATOM     12  C   UNL     1       3.148  -2.038   3.342  1.00  0.00     0.014 A 
ATOM     13  C   UNL     1       4.426  -3.184   1.048  1.00  0.00     0.265 C 
ATOM     14  H   UNL     1       5.716  -2.309   2.347  1.00  0.00     0.346 HD
ATOM     15  H   UNL     1       5.391  -1.417   0.951  1.00  0.00     0.346 HD
ATOM     16  C   UNL     1       2.964  -3.418   3.133  1.00  0.00    -0.019 A 
ATOM     17  C   UNL     1       2.517  -1.399   4.428  1.00  0.00     0.010 A 
ATOM     18  C   UNL     1       3.738  -4.119   2.040  1.00  0.00     0.098 C 
ATOM     19  C   UNL     1       2.129  -4.123   4.014  1.00  0.00     0.021 A 
ATOM     20  C   UNL     1       1.699  -2.114   5.293  1.00  0.00     0.002 A 
ATOM     21  Br  UNL     1       1.818  -5.989   3.829  1.00  0.00    -0.051 Br
ATOM     22  C   UNL     1       1.500  -3.474   5.081  1.00  0.00     0.016 A 
ENDBRANCH   9  10
ENDBRANCH   7   9
ENDBRANCH   6   7
ENDBRANCH   5   6
ENDBRANCH   4   5
ENDBRANCH   3   4
ENDBRANCH   2   3
ENDBRANCH   1   2
BRANCH   1  23
ATOM     23  O   UNL     1       2.802   1.881  -3.506  1.00  0.00    -0.376 OA
BRANCH  23  24
ATOM     24  C   UNL     1       4.028   2.511  -3.833  1.00  0.00     0.202 C 
BRANCH  24  25
ATOM     25  C   UNL     1       4.161   4.033  -3.651  1.00  0.00     0.261 C 
BRANCH  25  26
ATOM     26  O   UNL     1       3.914   4.542  -2.325  1.00  0.00    -0.460 OA
BRANCH  26  27
ATOM     27  C   UNL     1       2.746   5.212  -2.138  1.00  0.00     0.338 C 
ATOM     28  O   UNL     1       1.881   5.429  -2.961  1.00  0.00    -0.246 OA
BRANCH  27  29
ATOM     29  C   UNL     1       2.575   5.521  -0.694  1.00  0.00     0.060 A 
ATOM     30  C   UNL     1       1.505   4.935   0.003  1.00  0.00     0.016 A 
ATOM     31  C   UNL     1       3.447   6.388  -0.035  1.00  0.00     0.016 A 
ATOM     32  C   UNL     1       1.304   5.217   1.356  1.00  0.00     0.010 A 
ATOM     33  C   UNL     1       3.216   6.707   1.309  1.00  0.00     0.010 A 
ATOM     34  C   UNL     1       2.129   6.145   2.004  1.00  0.00    -0.014 A 
BRANCH  34  35
ATOM     35  C   UNL     1       1.709   6.700   3.316  1.00  0.00     0.031 A 
ATOM     36  C   UNL     1       0.847   7.932   3.317  1.00  0.00     0.074 A 
ATOM     37  C   UNL     1       2.064   6.132   4.482  1.00  0.00     0.049 A 
ATOM     38  N   UNL     1       0.344   8.598   4.324  1.00  0.00    -0.248 NA
ATOM     39  C   UNL     1       0.509   8.490   1.997  1.00  0.00     0.031 C 
ATOM     40  C   UNL     1       2.874   4.927   4.621  1.00  0.00     0.029 A 
ATOM     41  N   UNL     1       1.790   6.507   5.776  1.00  0.00    -0.354 N 
ATOM     42  C   UNL     1      -0.369   9.647   3.761  1.00  0.00     0.074 A 
ATOM     43  C   UNL     1      -0.204   9.555   2.328  1.00  0.00     0.031 C 
ATOM     44  C   UNL     1       3.045   4.667   5.930  1.00  0.00     0.029 A 
ATOM     45  C   UNL     1       2.372   5.699   6.722  1.00  0.00     0.049 A 
ATOM     46  H   UNL     1       1.228   7.283   6.004  1.00  0.00     0.167 HD
ATOM     47  C   UNL     1      -1.106  10.596   4.382  1.00  0.00     0.037 A 
ATOM     48  C   UNL     1       2.373   5.790   8.068  1.00  0.00     0.037 A 
ATOM     49  C   UNL     1      -1.262  10.694   5.808  1.00  0.00     0.049 A 
ATOM     50  C   UNL     1       1.604   6.898   8.746  1.00  0.00     0.074 A 
ATOM     51  C   UNL     1      -2.025  11.596   6.527  1.00  0.00     0.029 A 
ATOM     52  N   UNL     1      -0.627   9.878   6.731  1.00  0.00    -0.354 N 
ATOM     53  N   UNL     1       0.875   7.845   8.207  1.00  0.00    -0.248 NA
ATOM     54  C   UNL     1       1.652   6.949  10.216  1.00  0.00     0.031 C 
ATOM     55  C   UNL     1      -1.794  11.373   7.886  1.00  0.00     0.029 A 
ATOM     56  C   UNL     1      -0.944  10.286   8.016  1.00  0.00     0.049 A 
ATOM     57  H   UNL     1      -0.038   9.121   6.506  1.00  0.00     0.167 HD
ATOM     58  C   UNL     1       0.361   8.587   9.264  1.00  0.00     0.074 A 
ATOM     59  C   UNL     1       0.855   7.978  10.480  1.00  0.00     0.031 C 
ATOM     60  C   UNL     1      -0.452   9.671   9.224  1.00  0.00     0.037 A 
BRANCH  47  61
ATOM     61  C   UNL     1      -1.784  11.624   3.524  1.00  0.00     0.064 A 
ATOM     62  C   UNL     1      -2.867  11.296   2.695  1.00  0.00     0.173 A 
ATOM     63  C   UNL     1      -1.374  12.965   3.567  1.00  0.00     0.173 A 
ATOM     64  F   UNL     1      -3.290  10.025   2.608  1.00  0.00    -0.203 F 
ATOM     65  C   UNL     1      -3.498  12.267   1.922  1.00  0.00     0.198 A 
ATOM     66  C   UNL     1      -2.028  13.940   2.820  1.00  0.00     0.198 A 
ATOM     67  F   UNL     1      -0.346  13.334   4.347  1.00  0.00    -0.203 F 
ATOM     68  F   UNL     1      -4.500  11.922   1.102  1.00  0.00    -0.200 F 
ATOM     69  C   UNL     1      -3.084  13.589   1.993  1.00  0.00     0.200 A 
ATOM     70  F   UNL     1      -1.638  15.219   2.902  1.00  0.00    -0.200 F 
ATOM     71  F   UNL     1      -3.701  14.525   1.259  1.00  0.00    -0.200 F 
ENDBRANCH  47  61
BRANCH  48  72
ATOM     72  C   UNL     1       3.121   4.779   8.862  1.00  0.00     0.064 A 
ATOM     73  C   UNL     1       2.449   3.811   9.620  1.00  0.00     0.173 A 
ATOM     74  C   UNL     1       4.524   4.730   8.838  1.00  0.00     0.173 A 
ATOM     75  F   UNL     1       1.111   3.832   9.697  1.00  0.00    -0.203 F 
ATOM     76  C   UNL     1       3.150   2.826  10.316  1.00  0.00     0.198 A 
ATOM     77  C   UNL     1       5.222   3.730   9.513  1.00  0.00     0.198 A 
ATOM     78  F   UNL     1       5.215   5.636   8.131  1.00  0.00    -0.203 F 
ATOM     79  F   UNL     1       2.483   1.922  11.045  1.00  0.00    -0.200 F 
ATOM     80  C   UNL     1       4.534   2.779  10.251  1.00  0.00     0.200 A 
ATOM     81  F   UNL     1       6.559   3.679   9.434  1.00  0.00    -0.200 F 
ATOM     82  F   UNL     1       5.205   1.815  10.896  1.00  0.00    -0.200 F 
ENDBRANCH  48  72
BRANCH  60  83
ATOM     83  C   UNL     1      -0.888  10.291  10.522  1.00  0.00     0.064 A 
ATOM     84  C   UNL     1      -0.012  11.065  11.295  1.00  0.00     0.173 A 
ATOM     85  C   UNL     1      -2.236  10.234  10.916  1.00  0.00     0.173 A 
ATOM     86  F   UNL     1       1.286  11.145  10.967  1.00  0.00    -0.203 F 
ATOM     87  C   UNL     1      -0.469  11.765  12.409  1.00  0.00     0.198 A 
ATOM     88  C   UNL     1      -2.695  10.959  12.012  1.00  0.00     0.198 A 
ATOM     89  F   UNL     1      -3.118   9.517  10.203  1.00  0.00    -0.203 F 
ATOM     90  F   UNL     1       0.388  12.492  13.139  1.00  0.00    -0.200 F 
ATOM     91  C   UNL     1      -1.812  11.726  12.756  1.00  0.00     0.200 A 
ATOM     92  F   UNL     1      -3.996  10.938  12.331  1.00  0.00    -0.200 F 
ATOM     93  F   UNL     1      -2.256  12.432  13.805  1.00  0.00    -0.200 F 
ENDBRANCH  60  83
ENDBRANCH  34  35
ENDBRANCH  27  29
ENDBRANCH  26  27
ENDBRANCH  25  26
ENDBRANCH  24  25
ENDBRANCH  23  24
ENDBRANCH   1  23
TORSDOF 18
