REMARK SMILES CC(C)CCn1nc(C(=O)OCCOCCOCCOC(=O)c2ccc(-c3c4nc(c(-c5c(F)c(F)c(F)c(F)c5F)c5ccc([nH]5)c(-c5c(F)c(F)c(F)c(F)c5F)c5nc(c(-c6c(F)c(F)c(F)c(F)c6F)c6ccc3[nH]6)C=C5)C=C4)cc2)c2c1CCN(C(=O)[C@@H]1CCc3nn(C)c(=O)n3C1)C2
REMARK SMILES IDX 15 1 14 2 13 3 12 4 11 5 9 6 10 7 8 8 6 9 7 10 87 11 86 12
REMARK SMILES IDX 88 13 104 14 89 15 90 16 5 17 4 18 2 19 1 20 3 21 91 22
REMARK SMILES IDX 92 23 93 24 94 25 103 26 95 27 102 28 96 29 100 30 97 31
REMARK SMILES IDX 98 32 101 33 99 34 16 35 17 36 18 37 19 38 20 39 21 40 22 41
REMARK SMILES IDX 23 42 24 43 85 44 25 45 84 46 26 47 27 48 28 49 78 50 29 51
REMARK SMILES IDX 83 52 77 53 79 54 30 55 82 56 76 57 75 58 31 60 63 61 43 62
REMARK SMILES IDX 62 63 44 64 47 65 61 66 80 67 45 68 46 69 60 71 81 72 48 73
REMARK SMILES IDX 32 74 33 75 41 76 34 77 35 78 39 79 42 80 36 81 37 82 40 83
REMARK SMILES IDX 38 84 64 85 65 86 73 87 66 88 67 89 71 90 74 91 68 92 69 93
REMARK SMILES IDX 72 94 70 95 49 96 50 97 58 98 51 99 52 100 56 101 59 102
REMARK SMILES IDX 53 103 54 104 57 105 55 106
REMARK H PARENT 79 59 47 70
REMARK Flexibility Score: inf
ROOT
ATOM      1  C   UNL     1       3.203  -5.400   1.082  1.00  0.00     0.188 C 
ENDROOT
BRANCH   1   2
ATOM      2  O   UNL     1       4.035  -6.242   1.872  1.00  0.00    -0.376 OA
BRANCH   2   3
ATOM      3  C   UNL     1       3.512  -7.410   2.494  1.00  0.00     0.202 C 
BRANCH   3   4
ATOM      4  C   UNL     1       2.193  -7.399   3.294  1.00  0.00     0.261 C 
BRANCH   4   5
ATOM      5  O   UNL     1       1.103  -6.710   2.681  1.00  0.00    -0.458 OA
BRANCH   5   6
ATOM      6  C   UNL     1       0.817  -5.461   3.156  1.00  0.00     0.359 C 
ATOM      7  O   UNL     1       1.331  -4.968   4.148  1.00  0.00    -0.244 OA
BRANCH   6   8
ATOM      8  C   UNL     1      -0.120  -4.760   2.260  1.00  0.00     0.175 A 
ATOM      9  N   UNL     1      -1.159  -3.147   1.298  1.00  0.00    -0.268 N 
ATOM     10  N   UNL     1      -0.202  -3.408   2.210  1.00  0.00    -0.165 NA
ATOM     11  C   UNL     1      -1.770  -4.287   0.886  1.00  0.00     0.046 A 
ATOM     12  C   UNL     1      -1.001  -5.347   1.310  1.00  0.00     0.028 A 
ATOM     13  C   UNL     1      -3.050  -4.444   0.174  1.00  0.00     0.078 C 
ATOM     14  C   UNL     1      -1.240  -6.776   0.900  1.00  0.00     0.159 C 
ATOM     15  C   UNL     1      -3.486  -5.891   0.479  1.00  0.00     0.126 C 
ATOM     16  N   UNL     1      -2.470  -6.859   0.075  1.00  0.00    -0.338 N 
BRANCH   9  17
ATOM     17  C   UNL     1      -1.424  -1.813   0.785  1.00  0.00     0.145 C 
BRANCH  17  18
ATOM     18  C   UNL     1      -0.904  -0.623   1.594  1.00  0.00     0.027 C 
BRANCH  18  19
ATOM     19  C   UNL     1       0.611  -0.359   1.488  1.00  0.00    -0.016 C 
ATOM     20  C   UNL     1       1.031   0.122   0.097  1.00  0.00     0.007 C 
ATOM     21  C   UNL     1       1.015   0.685   2.533  1.00  0.00     0.007 C 
ENDBRANCH  18  19
ENDBRANCH  17  18
ENDBRANCH   9  17
BRANCH  16  22
ATOM     22  C   UNL     1      -2.533  -7.813  -0.925  1.00  0.00     0.227 C 
ATOM     23  O   UNL     1      -1.543  -8.529  -1.144  1.00  0.00    -0.274 OA
BRANCH  22  24
ATOM     24  C   UNL     1      -3.767  -8.075  -1.831  1.00  0.00     0.099 C 
ATOM     25  C   UNL     1      -3.979  -7.135  -3.024  1.00  0.00     0.023 C 
ATOM     26  C   UNL     1      -5.079  -8.426  -1.140  1.00  0.00     0.142 C 
ATOM     27  C   UNL     1      -4.850  -5.917  -2.752  1.00  0.00     0.078 C 
ATOM     28  N   UNL     1      -5.970  -7.294  -1.015  1.00  0.00    -0.278 N 
ATOM     29  C   UNL     1      -5.863  -6.115  -1.661  1.00  0.00     0.133 A 
ATOM     30  C   UNL     1      -6.753  -7.057   0.091  1.00  0.00     0.345 A 
ATOM     31  N   UNL     1      -6.521  -5.131  -1.117  1.00  0.00    -0.155 NA
ATOM     32  N   UNL     1      -7.090  -5.699   0.007  1.00  0.00    -0.216 N 
ATOM     33  O   UNL     1      -6.942  -7.811   1.032  1.00  0.00    -0.246 OA
ATOM     34  C   UNL     1      -7.490  -4.908   1.142  1.00  0.00     0.179 C 
ENDBRANCH  22  24
ENDBRANCH  16  22
ENDBRANCH   6   8
ENDBRANCH   5   6
ENDBRANCH   4   5
ENDBRANCH   3   4
ENDBRANCH   2   3
ENDBRANCH   1   2
BRANCH   1  35
ATOM     35  C   UNL     1       2.256  -6.003   0.021  1.00  0.00     0.188 C 
BRANCH  35  36
ATOM     36  O   UNL     1       1.980  -7.372   0.219  1.00  0.00    -0.376 OA
BRANCH  36  37
ATOM     37  C   UNL     1       2.464  -8.384  -0.652  1.00  0.00     0.202 C 
BRANCH  37  38
ATOM     38  C   UNL     1       3.874  -8.367  -1.244  1.00  0.00     0.261 C 
BRANCH  38  39
ATOM     39  O   UNL     1       4.560  -7.147  -1.089  1.00  0.00    -0.460 OA
BRANCH  39  40
ATOM     40  C   UNL     1       4.348  -6.264  -2.085  1.00  0.00     0.338 C 
ATOM     41  O   UNL     1       3.609  -6.385  -3.041  1.00  0.00    -0.246 OA
BRANCH  40  42
ATOM     42  C   UNL     1       5.199  -5.096  -1.836  1.00  0.00     0.060 A 
ATOM     43  C   UNL     1       5.005  -4.022  -2.704  1.00  0.00     0.016 A 
ATOM     44  C   UNL     1       6.398  -5.317  -1.149  1.00  0.00     0.016 A 
ATOM     45  C   UNL     1       6.130  -3.428  -3.207  1.00  0.00     0.010 A 
ATOM     46  C   UNL     1       7.520  -4.743  -1.667  1.00  0.00     0.010 A 
ATOM     47  C   UNL     1       7.364  -3.924  -2.781  1.00  0.00    -0.014 A 
BRANCH  47  48
ATOM     48  C   UNL     1       8.534  -3.583  -3.547  1.00  0.00     0.031 A 
ATOM     49  C   UNL     1       9.055  -2.256  -3.184  1.00  0.00     0.074 A 
ATOM     50  C   UNL     1       9.089  -4.468  -4.396  1.00  0.00     0.049 A 
ATOM     51  N   UNL     1       9.040  -1.181  -3.898  1.00  0.00    -0.248 NA
ATOM     52  C   UNL     1       9.426  -2.046  -1.774  1.00  0.00     0.031 C 
ATOM     53  C   UNL     1       8.765  -5.886  -4.594  1.00  0.00     0.029 A 
ATOM     54  N   UNL     1      10.160  -4.286  -5.210  1.00  0.00    -0.354 N 
ATOM     55  C   UNL     1       9.598  -0.206  -3.083  1.00  0.00     0.074 A 
ATOM     56  C   UNL     1       9.578  -0.724  -1.744  1.00  0.00     0.031 C 
ATOM     57  C   UNL     1       9.764  -6.480  -5.289  1.00  0.00     0.029 A 
ATOM     58  C   UNL     1      10.719  -5.465  -5.692  1.00  0.00     0.049 A 
ATOM     59  H   UNL     1      10.511  -3.395  -5.440  1.00  0.00     0.167 HD
ATOM     60  C   UNL     1      10.316   0.816  -3.616  1.00  0.00     0.037 A 
ATOM     61  C   UNL     1      11.943  -5.552  -6.273  1.00  0.00     0.037 A 
ATOM     62  C   UNL     1      10.019   0.985  -5.015  1.00  0.00     0.049 A 
ATOM     63  C   UNL     1      12.317  -4.173  -6.703  1.00  0.00     0.074 A 
ATOM     64  C   UNL     1       8.877   1.305  -5.724  1.00  0.00     0.029 A 
ATOM     65  N   UNL     1      10.880   0.423  -5.927  1.00  0.00    -0.354 N 
ATOM     66  N   UNL     1      11.693  -3.522  -7.648  1.00  0.00    -0.248 NA
ATOM     67  C   UNL     1      13.027  -3.344  -5.737  1.00  0.00     0.031 C 
ATOM     68  C   UNL     1       8.928   0.495  -6.897  1.00  0.00     0.029 A 
ATOM     69  C   UNL     1      10.125  -0.220  -6.876  1.00  0.00     0.049 A 
ATOM     70  H   UNL     1      11.863   0.472  -5.903  1.00  0.00     0.167 HD
ATOM     71  C   UNL     1      11.580  -2.222  -7.171  1.00  0.00     0.074 A 
ATOM     72  C   UNL     1      12.462  -2.163  -6.007  1.00  0.00     0.031 C 
ATOM     73  C   UNL     1      10.563  -1.405  -7.577  1.00  0.00     0.037 A 
BRANCH  60  74
ATOM     74  C   UNL     1      11.552   1.378  -2.964  1.00  0.00     0.064 A 
ATOM     75  C   UNL     1      12.136   2.535  -3.507  1.00  0.00     0.173 A 
ATOM     76  C   UNL     1      12.342   0.684  -2.017  1.00  0.00     0.173 A 
ATOM     77  F   UNL     1      11.485   3.259  -4.430  1.00  0.00    -0.203 F 
ATOM     78  C   UNL     1      13.437   2.924  -3.180  1.00  0.00     0.198 A 
ATOM     79  C   UNL     1      13.614   1.109  -1.648  1.00  0.00     0.198 A 
ATOM     80  F   UNL     1      11.977  -0.490  -1.491  1.00  0.00    -0.203 F 
ATOM     81  F   UNL     1      13.998   3.960  -3.817  1.00  0.00    -0.200 F 
ATOM     82  C   UNL     1      14.176   2.209  -2.255  1.00  0.00     0.200 A 
ATOM     83  F   UNL     1      14.317   0.389  -0.762  1.00  0.00    -0.200 F 
ATOM     84  F   UNL     1      15.443   2.546  -1.986  1.00  0.00    -0.200 F 
ENDBRANCH  60  74
BRANCH  61  85
ATOM     85  C   UNL     1      12.946  -6.630  -6.099  1.00  0.00     0.064 A 
ATOM     86  C   UNL     1      14.020  -6.782  -6.990  1.00  0.00     0.173 A 
ATOM     87  C   UNL     1      13.022  -7.365  -4.899  1.00  0.00     0.173 A 
ATOM     88  F   UNL     1      14.055  -6.074  -8.129  1.00  0.00    -0.203 F 
ATOM     89  C   UNL     1      15.108  -7.614  -6.695  1.00  0.00     0.198 A 
ATOM     90  C   UNL     1      14.104  -8.196  -4.606  1.00  0.00     0.198 A 
ATOM     91  F   UNL     1      12.094  -7.217  -3.943  1.00  0.00    -0.203 F 
ATOM     92  F   UNL     1      16.140  -7.695  -7.546  1.00  0.00    -0.200 F 
ATOM     93  C   UNL     1      15.152  -8.314  -5.500  1.00  0.00     0.200 A 
ATOM     94  F   UNL     1      14.154  -8.833  -3.427  1.00  0.00    -0.200 F 
ATOM     95  F   UNL     1      16.218  -9.066  -5.191  1.00  0.00    -0.200 F 
ENDBRANCH  61  85
BRANCH  73  96
ATOM     96  C   UNL     1       9.693  -1.883  -8.708  1.00  0.00     0.064 A 
ATOM     97  C   UNL     1       8.863  -3.017  -8.636  1.00  0.00     0.173 A 
ATOM     98  C   UNL     1       9.579  -1.077  -9.847  1.00  0.00     0.173 A 
ATOM     99  F   UNL     1       8.839  -3.782  -7.537  1.00  0.00    -0.203 F 
ATOM    100  C   UNL     1       7.993  -3.347  -9.675  1.00  0.00     0.198 A 
ATOM    101  C   UNL     1       8.684  -1.387 -10.867  1.00  0.00     0.198 A 
ATOM    102  F   UNL     1      10.302   0.049  -9.946  1.00  0.00    -0.203 F 
ATOM    103  F   UNL     1       7.218  -4.438  -9.584  1.00  0.00    -0.200 F 
ATOM    104  C   UNL     1       7.899  -2.527 -10.786  1.00  0.00     0.200 A 
ATOM    105  F   UNL     1       8.559  -0.562 -11.915  1.00  0.00    -0.200 F 
ATOM    106  F   UNL     1       7.032  -2.817 -11.767  1.00  0.00    -0.200 F 
ENDBRANCH  73  96
ENDBRANCH  47  48
ENDBRANCH  40  42
ENDBRANCH  39  40
ENDBRANCH  38  39
ENDBRANCH  37  38
ENDBRANCH  36  37
ENDBRANCH  35  36
ENDBRANCH   1  35
TORSDOF 22
