REMARK SMILES O=C(OCCOCCOCCOC(=O)c1sccc1S(=O)(=O)N1CCO[C@@H]2CCCC[C@@H]21)c1ccc(-c2c3nc(c(-c4c(F)c(F)c(F)c(F)c4F)c4ccc([nH]4)c(-c4c(F)c(F)c(F)c(F)c4F)c4nc(c(-c5c(F)c(F)c(F)c(F)c5F)c5ccc2[nH]5)C=C4)C=C3)cc1
REMARK SMILES IDX 7 1 6 2 5 3 4 4 3 5 2 6 1 7 33 8 34 9 95 10 35 11 94 12
REMARK SMILES IDX 36 13 37 14 38 15 88 16 39 17 93 18 87 19 89 20 40 21 92 22
REMARK SMILES IDX 86 23 85 24 41 26 73 27 53 28 72 29 54 30 57 31 71 32 90 33
REMARK SMILES IDX 55 34 56 35 70 37 91 38 58 39 42 40 43 41 51 42 44 43 45 44
REMARK SMILES IDX 49 45 52 46 46 47 47 48 50 49 48 50 74 51 75 52 83 53 76 54
REMARK SMILES IDX 77 55 81 56 84 57 78 58 79 59 82 60 80 61 59 62 60 63 68 64
REMARK SMILES IDX 61 65 62 66 66 67 69 68 63 69 64 70 67 71 65 72 8 73 9 74
REMARK SMILES IDX 10 75 11 76 12 77 13 78 14 79 15 80 16 81 19 82 17 83 18 84
REMARK SMILES IDX 20 85 21 86 22 87 23 88 24 89 32 90 25 91 27 92 31 93 26 94
REMARK SMILES IDX 28 95 30 96 29 97
REMARK H PARENT 89 25 57 36
REMARK Flexibility Score: inf
ROOT
ATOM      1  C   UNL     1       1.991   0.885  -0.598  1.00  0.00     0.188 C 
ENDROOT
BRANCH   1   2
ATOM      2  O   UNL     1       3.395   0.767  -0.324  1.00  0.00    -0.376 OA
BRANCH   2   3
ATOM      3  C   UNL     1       4.183   0.609  -1.500  1.00  0.00     0.202 C 
BRANCH   3   4
ATOM      4  C   UNL     1       4.186  -0.800  -2.102  1.00  0.00     0.261 C 
BRANCH   4   5
ATOM      5  O   UNL     1       3.039  -1.615  -1.808  1.00  0.00    -0.460 OA
BRANCH   5   6
ATOM      6  C   UNL     1       2.660  -2.237  -0.668  1.00  0.00     0.338 C 
ATOM      7  O   UNL     1       1.615  -2.889  -0.690  1.00  0.00    -0.246 OA
BRANCH   6   8
ATOM      8  C   UNL     1       3.382  -2.154   0.643  1.00  0.00     0.060 A 
ATOM      9  C   UNL     1       4.731  -1.840   0.808  1.00  0.00     0.016 A 
ATOM     10  C   UNL     1       2.643  -2.504   1.796  1.00  0.00     0.016 A 
ATOM     11  C   UNL     1       5.331  -1.903   2.068  1.00  0.00     0.010 A 
ATOM     12  C   UNL     1       3.242  -2.589   3.059  1.00  0.00     0.010 A 
ATOM     13  C   UNL     1       4.604  -2.321   3.189  1.00  0.00    -0.014 A 
BRANCH  13  14
ATOM     14  C   UNL     1       5.374  -2.722   4.388  1.00  0.00     0.031 A 
ATOM     15  C   UNL     1       6.056  -4.057   4.342  1.00  0.00     0.074 A 
ATOM     16  C   UNL     1       5.571  -1.885   5.420  1.00  0.00     0.049 A 
ATOM     17  N   UNL     1       6.961  -4.558   5.139  1.00  0.00    -0.248 NA
ATOM     18  C   UNL     1       5.682  -4.938   3.221  1.00  0.00     0.031 C 
ATOM     19  C   UNL     1       4.962  -0.569   5.559  1.00  0.00     0.029 A 
ATOM     20  N   UNL     1       6.373  -2.004   6.528  1.00  0.00    -0.354 N 
ATOM     21  C   UNL     1       7.295  -5.788   4.592  1.00  0.00     0.074 A 
ATOM     22  C   UNL     1       6.480  -5.974   3.413  1.00  0.00     0.031 C 
ATOM     23  C   UNL     1       5.451   0.025   6.662  1.00  0.00     0.029 A 
ATOM     24  C   UNL     1       6.381  -0.884   7.325  1.00  0.00     0.049 A 
ATOM     25  H   UNL     1       6.892  -2.815   6.732  1.00  0.00     0.167 HD
ATOM     26  C   UNL     1       8.200  -6.688   5.039  1.00  0.00     0.037 A 
ATOM     27  C   UNL     1       7.066  -0.630   8.458  1.00  0.00     0.037 A 
ATOM     28  C   UNL     1       8.924  -6.545   6.270  1.00  0.00     0.049 A 
ATOM     29  C   UNL     1       8.000  -1.694   8.985  1.00  0.00     0.074 A 
ATOM     30  C   UNL     1       9.773  -7.446   6.885  1.00  0.00     0.029 A 
ATOM     31  N   UNL     1       8.856  -5.428   7.091  1.00  0.00    -0.354 N 
ATOM     32  N   UNL     1       8.325  -2.850   8.454  1.00  0.00    -0.248 NA
ATOM     33  C   UNL     1       8.656  -1.423  10.272  1.00  0.00     0.031 C 
ATOM     34  C   UNL     1      10.181  -6.892   8.104  1.00  0.00     0.029 A 
ATOM     35  C   UNL     1       9.635  -5.622   8.218  1.00  0.00     0.049 A 
ATOM     36  H   UNL     1       8.331  -4.617   6.900  1.00  0.00     0.167 HD
ATOM     37  C   UNL     1       9.222  -3.439   9.336  1.00  0.00     0.074 A 
ATOM     38  C   UNL     1       9.425  -2.494  10.414  1.00  0.00     0.031 C 
ATOM     39  C   UNL     1       9.815  -4.658   9.274  1.00  0.00     0.037 A 
BRANCH  26  40
ATOM     40  C   UNL     1       8.385  -7.922   4.210  1.00  0.00     0.064 A 
ATOM     41  C   UNL     1       9.047  -7.876   2.974  1.00  0.00     0.173 A 
ATOM     42  C   UNL     1       7.859  -9.151   4.631  1.00  0.00     0.173 A 
ATOM     43  F   UNL     1       9.537  -6.715   2.512  1.00  0.00    -0.203 F 
ATOM     44  C   UNL     1       9.156  -9.014   2.178  1.00  0.00     0.198 A 
ATOM     45  C   UNL     1       7.990 -10.291   3.844  1.00  0.00     0.198 A 
ATOM     46  F   UNL     1       7.205  -9.242   5.798  1.00  0.00    -0.203 F 
ATOM     47  F   UNL     1       9.743  -8.936   0.976  1.00  0.00    -0.200 F 
ATOM     48  C   UNL     1       8.631 -10.221   2.616  1.00  0.00     0.200 A 
ATOM     49  F   UNL     1       7.481 -11.457   4.267  1.00  0.00    -0.200 F 
ATOM     50  F   UNL     1       8.727 -11.313   1.845  1.00  0.00    -0.200 F 
ENDBRANCH  26  40
BRANCH  27  51
ATOM     51  C   UNL     1       6.887   0.660   9.186  1.00  0.00     0.064 A 
ATOM     52  C   UNL     1       7.956   1.547   9.382  1.00  0.00     0.173 A 
ATOM     53  C   UNL     1       5.652   1.007   9.757  1.00  0.00     0.173 A 
ATOM     54  F   UNL     1       9.167   1.257   8.882  1.00  0.00    -0.203 F 
ATOM     55  C   UNL     1       7.808   2.704  10.147  1.00  0.00     0.198 A 
ATOM     56  C   UNL     1       5.494   2.183  10.490  1.00  0.00     0.198 A 
ATOM     57  F   UNL     1       4.593   0.197   9.611  1.00  0.00    -0.203 F 
ATOM     58  F   UNL     1       8.868   3.490  10.382  1.00  0.00    -0.200 F 
ATOM     59  C   UNL     1       6.576   3.023  10.698  1.00  0.00     0.200 A 
ATOM     60  F   UNL     1       4.299   2.485  11.016  1.00  0.00    -0.200 F 
ATOM     61  F   UNL     1       6.439   4.123  11.450  1.00  0.00    -0.200 F 
ENDBRANCH  27  51
BRANCH  39  62
ATOM     62  C   UNL     1      10.741  -5.029  10.396  1.00  0.00     0.064 A 
ATOM     63  C   UNL     1      10.261  -5.313  11.683  1.00  0.00     0.173 A 
ATOM     64  C   UNL     1      12.121  -5.147  10.167  1.00  0.00     0.173 A 
ATOM     65  F   UNL     1       8.951  -5.205  11.954  1.00  0.00    -0.203 F 
ATOM     66  C   UNL     1      11.132  -5.673  12.708  1.00  0.00     0.198 A 
ATOM     67  C   UNL     1      12.984  -5.539  11.186  1.00  0.00     0.198 A 
ATOM     68  F   UNL     1      12.629  -4.897   8.951  1.00  0.00    -0.203 F 
ATOM     69  F   UNL     1      10.657  -5.890  13.942  1.00  0.00    -0.200 F 
ATOM     70  C   UNL     1      12.490  -5.793  12.457  1.00  0.00     0.200 A 
ATOM     71  F   UNL     1      14.294  -5.672  10.937  1.00  0.00    -0.200 F 
ATOM     72  F   UNL     1      13.326  -6.147  13.443  1.00  0.00    -0.200 F 
ENDBRANCH  39  62
ENDBRANCH  13  14
ENDBRANCH   6   8
ENDBRANCH   5   6
ENDBRANCH   4   5
ENDBRANCH   3   4
ENDBRANCH   2   3
ENDBRANCH   1   2
BRANCH   1  73
ATOM     73  C   UNL     1       1.417   2.154   0.020  1.00  0.00     0.188 C 
BRANCH  73  74
ATOM     74  O   UNL     1       1.679   3.314  -0.769  1.00  0.00    -0.376 OA
BRANCH  74  75
ATOM     75  C   UNL     1       2.918   3.966  -0.489  1.00  0.00     0.202 C 
BRANCH  75  76
ATOM     76  C   UNL     1       2.842   4.868   0.745  1.00  0.00     0.261 C 
BRANCH  76  77
ATOM     77  O   UNL     1       2.846   4.085   1.956  1.00  0.00    -0.459 OA
BRANCH  77  78
ATOM     78  C   UNL     1       1.946   4.437   2.917  1.00  0.00     0.349 C 
ATOM     79  O   UNL     1       1.207   5.407   2.861  1.00  0.00    -0.245 OA
BRANCH  78  80
ATOM     80  C   UNL     1       1.963   3.468   3.989  1.00  0.00     0.132 A 
ATOM     81  S   UNL     1       0.795   2.212   3.972  1.00  0.00    -0.136 S 
ATOM     82  C   UNL     1       2.747   3.407   5.124  1.00  0.00     0.108 A 
ATOM     83  C   UNL     1       1.298   1.625   5.497  1.00  0.00     0.067 A 
ATOM     84  C   UNL     1       2.342   2.360   6.012  1.00  0.00     0.034 A 
BRANCH  82  85
ATOM     85  S   UNL     1       4.025   4.522   5.490  1.00  0.00     0.245 S 
ATOM     86  O   UNL     1       3.300   5.743   5.775  1.00  0.00    -0.207 OA
ATOM     87  O   UNL     1       4.819   3.854   6.495  1.00  0.00    -0.207 OA
BRANCH  85  88
ATOM     88  N   UNL     1       4.955   4.733   4.091  1.00  0.00    -0.190 NA
ATOM     89  C   UNL     1       4.969   6.121   3.562  1.00  0.00     0.131 C 
ATOM     90  C   UNL     1       6.167   3.879   3.857  1.00  0.00     0.102 C 
ATOM     91  C   UNL     1       5.943   6.343   2.414  1.00  0.00     0.177 C 
ATOM     92  C   UNL     1       6.921   4.224   2.534  1.00  0.00     0.136 C 
ATOM     93  C   UNL     1       5.848   2.378   3.922  1.00  0.00     0.023 C 
ATOM     94  O   UNL     1       6.198   5.139   1.697  1.00  0.00    -0.375 OA
ATOM     95  C   UNL     1       7.270   3.001   1.681  1.00  0.00     0.034 C 
ATOM     96  C   UNL     1       5.247   1.809   2.646  1.00  0.00     0.002 C 
ATOM     97  C   UNL     1       6.047   2.144   1.397  1.00  0.00     0.003 C 
ENDBRANCH  85  88
ENDBRANCH  82  85
ENDBRANCH  78  80
ENDBRANCH  77  78
ENDBRANCH  76  77
ENDBRANCH  75  76
ENDBRANCH  74  75
ENDBRANCH  73  74
ENDBRANCH   1  73
TORSDOF 19
