REMARK SMILES O=C(OCCOCCOCCOC(=O)[C@@]1([NH2+]C2CC2)CC[C@H](OC2CCC2)C1)c1ccc(-c2c3nc(c(-c4c(F)c(F)c(F)c(F)c4F)c4ccc([nH]4)c(-c4c(F)c(F)c(F)c(F)c4F)c4nc(c(-c5c(F)c(F)c(F)c(F)c5F)c5ccc2[nH]5)C=C4)C=C3)cc1
REMARK SMILES IDX 7 1 6 2 5 3 4 4 3 5 2 6 1 7 29 8 30 9 91 10 31 11 90 12
REMARK SMILES IDX 32 13 33 14 34 15 84 16 35 17 89 18 83 19 85 20 36 21 88 22
REMARK SMILES IDX 82 23 81 24 37 26 69 27 49 28 68 29 50 30 53 31 67 32 86 33
REMARK SMILES IDX 51 34 52 35 66 37 87 38 54 39 38 40 39 41 47 42 40 43 41 44
REMARK SMILES IDX 45 45 48 46 42 47 43 48 46 49 44 50 70 51 71 52 79 53 72 54
REMARK SMILES IDX 73 55 77 56 80 57 74 58 75 59 78 60 76 61 55 62 56 63 64 64
REMARK SMILES IDX 57 65 58 66 62 67 65 68 59 69 60 70 63 71 61 72 8 73 9 74
REMARK SMILES IDX 10 75 11 76 12 77 13 78 14 79 15 80 20 81 28 82 21 83 22 84
REMARK SMILES IDX 16 85 17 88 18 89 19 90 23 91 24 92 25 93 27 94 26 95
REMARK H PARENT 85 25 53 36 16 86 16 87
REMARK Flexibility Score: inf
ROOT
ATOM      1  C   UNL     1       2.998  -2.056   0.164  1.00  0.00     0.188 C 
ENDROOT
BRANCH   1   2
ATOM      2  O   UNL     1       4.274  -1.628  -0.327  1.00  0.00    -0.376 OA
BRANCH   2   3
ATOM      3  C   UNL     1       5.190  -1.322   0.730  1.00  0.00     0.202 C 
BRANCH   3   4
ATOM      4  C   UNL     1       4.870  -0.051   1.538  1.00  0.00     0.261 C 
BRANCH   4   5
ATOM      5  O   UNL     1       3.506   0.396   1.455  1.00  0.00    -0.460 OA
BRANCH   5   6
ATOM      6  C   UNL     1       2.885   1.185   0.548  1.00  0.00     0.338 C 
ATOM      7  O   UNL     1       1.715   1.496   0.772  1.00  0.00    -0.246 OA
BRANCH   6   8
ATOM      8  C   UNL     1       3.501   1.690  -0.725  1.00  0.00     0.060 A 
ATOM      9  C   UNL     1       4.735   1.310  -1.258  1.00  0.00     0.016 A 
ATOM     10  C   UNL     1       2.740   2.615  -1.465  1.00  0.00     0.016 A 
ATOM     11  C   UNL     1       5.237   1.861  -2.442  1.00  0.00     0.010 A 
ATOM     12  C   UNL     1       3.227   3.167  -2.657  1.00  0.00     0.010 A 
ATOM     13  C   UNL     1       4.504   2.819  -3.131  1.00  0.00    -0.014 A 
BRANCH  13  14
ATOM     14  C   UNL     1       5.155   3.665  -4.158  1.00  0.00     0.031 A 
ATOM     15  C   UNL     1       5.570   5.034  -3.711  1.00  0.00     0.074 A 
ATOM     16  C   UNL     1       5.451   3.248  -5.405  1.00  0.00     0.049 A 
ATOM     17  N   UNL     1       6.038   6.028  -4.411  1.00  0.00    -0.248 NA
ATOM     18  C   UNL     1       5.516   5.290  -2.258  1.00  0.00     0.031 C 
ATOM     19  C   UNL     1       5.408   1.873  -5.886  1.00  0.00     0.029 A 
ATOM     20  N   UNL     1       5.799   3.965  -6.527  1.00  0.00    -0.354 N 
ATOM     21  C   UNL     1       6.395   6.994  -3.483  1.00  0.00     0.074 A 
ATOM     22  C   UNL     1       6.009   6.514  -2.178  1.00  0.00     0.031 C 
ATOM     23  C   UNL     1       5.538   1.862  -7.224  1.00  0.00     0.029 A 
ATOM     24  C   UNL     1       5.687   3.230  -7.692  1.00  0.00     0.049 A 
ATOM     25  H   UNL     1       6.097   4.903  -6.502  1.00  0.00     0.167 HD
ATOM     26  C   UNL     1       7.038   8.160  -3.712  1.00  0.00     0.037 A 
ATOM     27  C   UNL     1       5.635   3.654  -8.972  1.00  0.00     0.037 A 
ATOM     28  C   UNL     1       7.357   8.622  -5.033  1.00  0.00     0.049 A 
ATOM     29  C   UNL     1       5.943   5.100  -9.222  1.00  0.00     0.074 A 
ATOM     30  C   UNL     1       8.000   9.780  -5.419  1.00  0.00     0.029 A 
ATOM     31  N   UNL     1       7.010   7.942  -6.195  1.00  0.00    -0.354 N 
ATOM     32  N   UNL     1       6.226   6.038  -8.353  1.00  0.00    -0.248 NA
ATOM     33  C   UNL     1       6.012   5.526 -10.624  1.00  0.00     0.031 C 
ATOM     34  C   UNL     1       7.965   9.842  -6.817  1.00  0.00     0.029 A 
ATOM     35  C   UNL     1       7.370   8.687  -7.302  1.00  0.00     0.049 A 
ATOM     36  H   UNL     1       6.573   7.061  -6.225  1.00  0.00     0.167 HD
ATOM     37  C   UNL     1       6.609   7.136  -9.100  1.00  0.00     0.074 A 
ATOM     38  C   UNL     1       6.426   6.778 -10.494  1.00  0.00     0.031 C 
ATOM     39  C   UNL     1       7.150   8.302  -8.672  1.00  0.00     0.037 A 
BRANCH  26  40
ATOM     40  C   UNL     1       7.362   9.002  -2.516  1.00  0.00     0.064 A 
ATOM     41  C   UNL     1       8.299   8.594  -1.551  1.00  0.00     0.173 A 
ATOM     42  C   UNL     1       6.679  10.206  -2.296  1.00  0.00     0.173 A 
ATOM     43  F   UNL     1       8.961   7.436  -1.699  1.00  0.00    -0.203 F 
ATOM     44  C   UNL     1       8.502   9.335  -0.390  1.00  0.00     0.198 A 
ATOM     45  C   UNL     1       6.907  10.960  -1.149  1.00  0.00     0.198 A 
ATOM     46  F   UNL     1       5.769  10.637  -3.182  1.00  0.00    -0.203 F 
ATOM     47  F   UNL     1       9.340   8.884   0.554  1.00  0.00    -0.200 F 
ATOM     48  C   UNL     1       7.806  10.518  -0.190  1.00  0.00     0.200 A 
ATOM     49  F   UNL     1       6.237  12.105  -0.960  1.00  0.00    -0.200 F 
ATOM     50  F   UNL     1       7.987  11.222   0.936  1.00  0.00    -0.200 F 
ENDBRANCH  26  40
BRANCH  27  51
ATOM     51  C   UNL     1       5.230   2.768 -10.099  1.00  0.00     0.064 A 
ATOM     52  C   UNL     1       6.027   1.724 -10.579  1.00  0.00     0.173 A 
ATOM     53  C   UNL     1       3.999   2.980 -10.746  1.00  0.00     0.173 A 
ATOM     54  F   UNL     1       7.237   1.509 -10.045  1.00  0.00    -0.203 F 
ATOM     55  C   UNL     1       5.589   0.897 -11.617  1.00  0.00     0.198 A 
ATOM     56  C   UNL     1       3.556   2.149 -11.775  1.00  0.00     0.198 A 
ATOM     57  F   UNL     1       3.215   4.000 -10.367  1.00  0.00    -0.203 F 
ATOM     58  F   UNL     1       6.374  -0.097 -12.054  1.00  0.00    -0.200 F 
ATOM     59  C   UNL     1       4.346   1.097 -12.201  1.00  0.00     0.200 A 
ATOM     60  F   UNL     1       2.351   2.352 -12.326  1.00  0.00    -0.200 F 
ATOM     61  F   UNL     1       3.914   0.282 -13.173  1.00  0.00    -0.200 F 
ENDBRANCH  27  51
BRANCH  39  62
ATOM     62  C   UNL     1       7.675   9.215  -9.730  1.00  0.00     0.064 A 
ATOM     63  C   UNL     1       6.832   9.981 -10.542  1.00  0.00     0.173 A 
ATOM     64  C   UNL     1       9.062   9.336  -9.902  1.00  0.00     0.173 A 
ATOM     65  F   UNL     1       5.500   9.864 -10.434  1.00  0.00    -0.203 F 
ATOM     66  C   UNL     1       7.363  10.836 -11.501  1.00  0.00     0.198 A 
ATOM     67  C   UNL     1       9.589  10.217 -10.836  1.00  0.00     0.198 A 
ATOM     68  F   UNL     1       9.904   8.607  -9.153  1.00  0.00    -0.203 F 
ATOM     69  F   UNL     1       6.543  11.528 -12.304  1.00  0.00    -0.200 F 
ATOM     70  C   UNL     1       8.739  10.963 -11.637  1.00  0.00     0.200 A 
ATOM     71  F   UNL     1      10.917  10.344 -10.959  1.00  0.00    -0.200 F 
ATOM     72  F   UNL     1       9.247  11.801 -12.551  1.00  0.00    -0.200 F 
ENDBRANCH  39  62
ENDBRANCH  13  14
ENDBRANCH   6   8
ENDBRANCH   5   6
ENDBRANCH   4   5
ENDBRANCH   3   4
ENDBRANCH   2   3
ENDBRANCH   1   2
BRANCH   1  73
ATOM     73  C   UNL     1       2.423  -3.296  -0.517  1.00  0.00     0.188 C 
BRANCH  73  74
ATOM     74  O   UNL     1       3.188  -4.492  -0.434  1.00  0.00    -0.376 OA
BRANCH  74  75
ATOM     75  C   UNL     1       4.501  -4.472  -0.980  1.00  0.00     0.202 C 
BRANCH  75  76
ATOM     76  C   UNL     1       4.657  -4.248  -2.491  1.00  0.00     0.261 C 
BRANCH  76  77
ATOM     77  O   UNL     1       4.015  -3.066  -3.000  1.00  0.00    -0.459 OA
BRANCH  77  78
ATOM     78  C   UNL     1       2.910  -3.277  -3.784  1.00  0.00     0.368 C 
ATOM     79  O   UNL     1       2.466  -4.384  -4.052  1.00  0.00    -0.245 OA
BRANCH  78  80
ATOM     80  C   UNL     1       2.361  -1.962  -4.370  1.00  0.00     0.197 C 
ATOM     81  C   UNL     1       2.956  -0.646  -3.857  1.00  0.00     0.084 C 
ATOM     82  C   UNL     1       2.916  -1.896  -5.818  1.00  0.00     0.113 C 
ATOM     83  C   UNL     1       2.572   0.340  -4.945  1.00  0.00     0.039 C 
ATOM     84  C   UNL     1       2.681  -0.442  -6.251  1.00  0.00     0.125 C 
BRANCH  80  85
ATOM     85  N   UNL     1       0.886  -1.970  -4.492  1.00  0.00    -0.330 N 
ATOM     86  H   UNL     1       0.657  -2.880  -4.891  1.00  0.00     0.347 HD
ATOM     87  H   UNL     1       0.751  -1.094  -4.996  1.00  0.00     0.347 HD
BRANCH  85  88
ATOM     88  C   UNL     1      -0.068  -1.779  -3.412  1.00  0.00     0.183 C 
ATOM     89  C   UNL     1       0.099  -1.094  -2.093  1.00  0.00     0.071 C 
ATOM     90  C   UNL     1      -0.607  -0.377  -3.195  1.00  0.00     0.071 C 
ENDBRANCH  85  88
ENDBRANCH  80  85
BRANCH  84  91
ATOM     91  O   UNL     1       1.449  -0.388  -6.963  1.00  0.00    -0.375 OA
BRANCH  91  92
ATOM     92  C   UNL     1       1.102   0.758  -7.769  1.00  0.00     0.118 C 
ATOM     93  C   UNL     1       0.818   2.115  -7.100  1.00  0.00     0.032 C 
ATOM     94  C   UNL     1       2.172   1.419  -8.637  1.00  0.00     0.032 C 
ATOM     95  C   UNL     1       1.888   2.771  -7.971  1.00  0.00     0.005 C 
ENDBRANCH  91  92
ENDBRANCH  84  91
ENDBRANCH  78  80
ENDBRANCH  77  78
ENDBRANCH  76  77
ENDBRANCH  75  76
ENDBRANCH  74  75
ENDBRANCH  73  74
ENDBRANCH   1  73
TORSDOF 21
