REMARK SMILES C[C@@H]1CCc2sc(NC(=O)/C=C/C(=O)OCCOCCOCCOC(=O)c3ccc(-c4c5nc(c(-c6c(F)c(F)c(F)c(F)c6F)c6ccc([nH]6)c(-c6c(F)c(F)c(F)c(F)c6F)c6nc(c(-c7c(F)c(F)c(F)c(F)c7F)c7ccc4[nH]7)C=C6)C=C5)cc3)c(C#N)c2C1
REMARK SMILES IDX 19 1 18 2 17 3 16 4 15 5 13 6 14 7 12 8 11 9 9 10 8 11 10 13
REMARK SMILES IDX 7 14 1 15 2 16 3 17 94 18 4 19 93 20 5 21 90 22 6 23 91 24
REMARK SMILES IDX 92 25 20 26 21 27 22 28 23 29 24 30 25 31 26 32 27 33 28 34
REMARK SMILES IDX 89 35 29 36 88 37 30 38 31 39 32 40 82 41 33 42 87 43 81 44
REMARK SMILES IDX 83 45 34 46 86 47 80 48 79 49 35 51 67 52 47 53 66 54 48 55
REMARK SMILES IDX 51 56 65 57 84 58 49 59 50 60 64 62 85 63 52 64 36 65 37 66
REMARK SMILES IDX 45 67 38 68 39 69 43 70 46 71 40 72 41 73 44 74 42 75 68 76
REMARK SMILES IDX 69 77 77 78 70 79 71 80 75 81 78 82 72 83 73 84 76 85 74 86
REMARK SMILES IDX 53 87 54 88 62 89 55 90 56 91 60 92 63 93 57 94 58 95 61 96
REMARK SMILES IDX 59 97
REMARK H PARENT 8 12 83 50 51 61
REMARK Flexibility Score: inf
ROOT
ATOM      1  C   UNL     1       3.012   3.429   5.132  1.00  0.00     0.188 C 
ENDROOT
BRANCH   1   2
ATOM      2  O   UNL     1       4.179   2.954   5.762  1.00  0.00    -0.376 OA
BRANCH   2   3
ATOM      3  C   UNL     1       5.384   3.706   5.779  1.00  0.00     0.202 C 
BRANCH   3   4
ATOM      4  C   UNL     1       5.689   4.910   4.859  1.00  0.00     0.261 C 
BRANCH   4   5
ATOM      5  O   UNL     1       4.533   5.644   4.455  1.00  0.00    -0.460 OA
BRANCH   5   6
ATOM      6  C   UNL     1       4.346   5.789   3.125  1.00  0.00     0.331 C 
ATOM      7  O   UNL     1       5.154   5.569   2.243  1.00  0.00    -0.247 OA
BRANCH   6   8
ATOM      8  C   UNL     1       2.908   5.982   2.882  1.00  0.00     0.099 C 
ATOM      9  C   UNL     1       2.338   7.049   2.335  1.00  0.00     0.079 C 
BRANCH   9  10
ATOM     10  C   UNL     1       0.890   7.157   2.054  1.00  0.00     0.249 C 
ATOM     11  N   UNL     1       0.031   6.149   1.744  1.00  0.00    -0.313 N 
ATOM     12  H   UNL     1      -0.879   6.494   1.597  1.00  0.00     0.171 HD
ATOM     13  O   UNL     1       0.412   8.297   2.099  1.00  0.00    -0.270 OA
BRANCH  11  14
ATOM     14  C   UNL     1       0.071   4.781   1.579  1.00  0.00     0.114 A 
ATOM     15  C   UNL     1       0.863  -0.051  -0.094  1.00  0.00     0.008 C 
ATOM     16  C   UNL     1       0.332  -0.004   1.339  1.00  0.00    -0.009 C 
ATOM     17  C   UNL     1      -1.214   0.066   1.415  1.00  0.00     0.009 C 
ATOM     18  C   UNL     1       0.972   1.172   2.096  1.00  0.00     0.041 C 
ATOM     19  C   UNL     1      -1.821   1.397   0.939  1.00  0.00     0.047 C 
ATOM     20  C   UNL     1       0.336   2.484   1.738  1.00  0.00    -0.014 A 
ATOM     21  C   UNL     1      -0.993   2.562   1.382  1.00  0.00     0.011 A 
ATOM     22  C   UNL     1       0.962   3.736   1.421  1.00  0.00     0.090 A 
ATOM     23  S   UNL     1      -1.541   4.168   1.400  1.00  0.00    -0.121 S 
BRANCH  22  24
ATOM     24  C   UNL     1       2.301   3.787   0.932  1.00  0.00     0.103 C 
ATOM     25  N   UNL     1       3.373   3.714   0.484  1.00  0.00    -0.192 NA
ENDBRANCH  22  24
ENDBRANCH  11  14
ENDBRANCH   9  10
ENDBRANCH   6   8
ENDBRANCH   5   6
ENDBRANCH   4   5
ENDBRANCH   3   4
ENDBRANCH   2   3
ENDBRANCH   1   2
BRANCH   1  26
ATOM     26  C   UNL     1       2.162   4.570   5.745  1.00  0.00     0.188 C 
BRANCH  26  27
ATOM     27  O   UNL     1       2.693   5.707   6.394  1.00  0.00    -0.376 OA
BRANCH  27  28
ATOM     28  C   UNL     1       3.483   5.652   7.568  1.00  0.00     0.202 C 
BRANCH  28  29
ATOM     29  C   UNL     1       3.239   4.641   8.681  1.00  0.00     0.261 C 
BRANCH  29  30
ATOM     30  O   UNL     1       2.593   3.457   8.273  1.00  0.00    -0.460 OA
BRANCH  30  31
ATOM     31  C   UNL     1       1.250   3.521   8.383  1.00  0.00     0.338 C 
ATOM     32  O   UNL     1       0.561   4.507   8.580  1.00  0.00    -0.246 OA
BRANCH  31  33
ATOM     33  C   UNL     1       0.726   2.157   8.330  1.00  0.00     0.060 A 
ATOM     34  C   UNL     1      -0.661   2.037   8.262  1.00  0.00     0.016 A 
ATOM     35  C   UNL     1       1.543   1.169   8.883  1.00  0.00     0.016 A 
ATOM     36  C   UNL     1      -1.250   1.110   9.089  1.00  0.00     0.010 A 
ATOM     37  C   UNL     1       0.955   0.264   9.719  1.00  0.00     0.010 A 
ATOM     38  C   UNL     1      -0.423   0.333   9.913  1.00  0.00    -0.014 A 
BRANCH  38  39
ATOM     39  C   UNL     1      -1.012  -0.644  10.806  1.00  0.00     0.031 A 
ATOM     40  C   UNL     1      -1.468  -1.785   9.978  1.00  0.00     0.074 A 
ATOM     41  C   UNL     1      -0.989  -0.529  12.154  1.00  0.00     0.049 A 
ATOM     42  N   UNL     1      -2.683  -2.016   9.599  1.00  0.00    -0.248 NA
ATOM     43  C   UNL     1      -0.467  -2.542   9.198  1.00  0.00     0.031 C 
ATOM     44  C   UNL     1      -0.369   0.533  12.958  1.00  0.00     0.029 A 
ATOM     45  N   UNL     1      -1.447  -1.399  13.115  1.00  0.00    -0.354 N 
ATOM     46  C   UNL     1      -2.592  -3.171   8.827  1.00  0.00     0.074 A 
ATOM     47  C   UNL     1      -1.247  -3.212   8.346  1.00  0.00     0.031 C 
ATOM     48  C   UNL     1      -0.262   0.132  14.248  1.00  0.00     0.029 A 
ATOM     49  C   UNL     1      -0.912  -1.153  14.398  1.00  0.00     0.049 A 
ATOM     50  H   UNL     1      -2.086  -2.124  12.926  1.00  0.00     0.167 HD
ATOM     51  C   UNL     1      -3.426  -4.207   9.127  1.00  0.00     0.037 A 
ATOM     52  C   UNL     1      -0.986  -2.000  15.466  1.00  0.00     0.037 A 
ATOM     53  C   UNL     1      -4.550  -3.699   9.886  1.00  0.00     0.049 A 
ATOM     54  C   UNL     1      -2.121  -2.911  15.190  1.00  0.00     0.074 A 
ATOM     55  C   UNL     1      -5.621  -2.857   9.669  1.00  0.00     0.029 A 
ATOM     56  N   UNL     1      -4.295  -3.683  11.231  1.00  0.00    -0.354 N 
ATOM     57  N   UNL     1      -3.362  -2.510  15.160  1.00  0.00    -0.248 NA
ATOM     58  C   UNL     1      -1.836  -4.149  14.480  1.00  0.00     0.031 C 
ATOM     59  C   UNL     1      -5.921  -2.260  10.934  1.00  0.00     0.029 A 
ATOM     60  C   UNL     1      -5.100  -2.823  11.908  1.00  0.00     0.049 A 
ATOM     61  H   UNL     1      -3.603  -4.236  11.661  1.00  0.00     0.167 HD
ATOM     62  C   UNL     1      -3.894  -3.159  14.060  1.00  0.00     0.074 A 
ATOM     63  C   UNL     1      -2.962  -4.251  13.770  1.00  0.00     0.031 C 
ATOM     64  C   UNL     1      -4.843  -2.536  13.298  1.00  0.00     0.037 A 
BRANCH  51  65
ATOM     65  C   UNL     1      -2.934  -5.643   9.367  1.00  0.00     0.064 A 
ATOM     66  C   UNL     1      -3.890  -6.601   9.768  1.00  0.00     0.173 A 
ATOM     67  C   UNL     1      -1.588  -6.044   9.554  1.00  0.00     0.173 A 
ATOM     68  F   UNL     1      -5.201  -6.346   9.643  1.00  0.00    -0.203 F 
ATOM     69  C   UNL     1      -3.530  -7.800  10.394  1.00  0.00     0.198 A 
ATOM     70  C   UNL     1      -1.233  -7.252  10.152  1.00  0.00     0.198 A 
ATOM     71  F   UNL     1      -0.539  -5.277   9.255  1.00  0.00    -0.203 F 
ATOM     72  F   UNL     1      -4.482  -8.618  10.862  1.00  0.00    -0.200 F 
ATOM     73  C   UNL     1      -2.201  -8.118  10.600  1.00  0.00     0.200 A 
ATOM     74  F   UNL     1       0.064  -7.524  10.357  1.00  0.00    -0.200 F 
ATOM     75  F   UNL     1      -1.853  -9.232  11.255  1.00  0.00    -0.200 F 
ENDBRANCH  51  65
BRANCH  52  76
ATOM     76  C   UNL     1       0.006  -2.313  16.534  1.00  0.00     0.064 A 
ATOM     77  C   UNL     1      -0.335  -3.083  17.668  1.00  0.00     0.173 A 
ATOM     78  C   UNL     1       1.383  -2.142  16.304  1.00  0.00     0.173 A 
ATOM     79  F   UNL     1      -1.621  -3.346  17.944  1.00  0.00    -0.203 F 
ATOM     80  C   UNL     1       0.639  -3.668  18.491  1.00  0.00     0.198 A 
ATOM     81  C   UNL     1       2.353  -2.728  17.123  1.00  0.00     0.198 A 
ATOM     82  F   UNL     1       1.815  -1.491  15.216  1.00  0.00    -0.203 F 
ATOM     83  F   UNL     1       0.273  -4.447  19.519  1.00  0.00    -0.200 F 
ATOM     84  C   UNL     1       1.983  -3.501  18.208  1.00  0.00     0.200 A 
ATOM     85  F   UNL     1       3.650  -2.596  16.811  1.00  0.00    -0.200 F 
ATOM     86  F   UNL     1       2.917  -4.118  18.947  1.00  0.00    -0.200 F 
ENDBRANCH  52  76
BRANCH  64  87
ATOM     87  C   UNL     1      -5.607  -1.411  13.921  1.00  0.00     0.064 A 
ATOM     88  C   UNL     1      -5.066  -0.166  14.281  1.00  0.00     0.173 A 
ATOM     89  C   UNL     1      -6.989  -1.587  14.065  1.00  0.00     0.173 A 
ATOM     90  F   UNL     1      -3.766   0.101  14.089  1.00  0.00    -0.203 F 
ATOM     91  C   UNL     1      -5.878   0.842  14.801  1.00  0.00     0.198 A 
ATOM     92  C   UNL     1      -7.801  -0.569  14.547  1.00  0.00     0.198 A 
ATOM     93  F   UNL     1      -7.560  -2.742  13.690  1.00  0.00    -0.203 F 
ATOM     94  F   UNL     1      -5.346   2.022  15.154  1.00  0.00    -0.200 F 
ATOM     95  C   UNL     1      -7.245   0.640  14.928  1.00  0.00     0.200 A 
ATOM     96  F   UNL     1      -9.125  -0.756  14.618  1.00  0.00    -0.200 F 
ATOM     97  F   UNL     1      -8.031   1.618  15.398  1.00  0.00    -0.200 F 
ENDBRANCH  64  87
ENDBRANCH  38  39
ENDBRANCH  31  33
ENDBRANCH  30  31
ENDBRANCH  29  30
ENDBRANCH  28  29
ENDBRANCH  27  28
ENDBRANCH  26  27
ENDBRANCH   1  26
TORSDOF 20
