REMARK SMILES CC1(C)Oc2ccc(NC(=O)[C@H]3CC=CC[C@@H]3C(=O)OCCOCCOCCOC(=O)c3ccc(-c4c5nc(c(-c6c(F)c(F)c(F)c(F)c6F)c6ccc([nH]6)c(-c6c(F)c(F)c(F)c(F)c6F)c6nc(c(-c7c(F)c(F)c(F)c(F)c7F)c7ccc4[nH]7)C=C6)C=C5)cc3)cc2NC1=O
REMARK SMILES IDX 24 1 23 2 22 3 21 4 20 5 18 6 19 7 17 8 12 9 13 10 14 11
REMARK SMILES IDX 16 12 15 13 10 14 9 15 11 17 8 18 1 19 2 20 3 21 4 22 98 23
REMARK SMILES IDX 5 24 97 25 99 26 6 27 96 28 7 30 95 31 25 32 26 33 27 34
REMARK SMILES IDX 28 35 29 36 30 37 31 38 32 39 33 40 94 41 34 42 93 43 35 44
REMARK SMILES IDX 36 45 37 46 87 47 38 48 92 49 86 50 88 51 39 52 91 53 85 54
REMARK SMILES IDX 84 55 40 57 72 58 52 59 71 60 53 61 56 62 70 63 89 64 54 65
REMARK SMILES IDX 55 66 69 68 90 69 57 70 41 71 42 72 50 73 43 74 44 75 48 76
REMARK SMILES IDX 51 77 45 78 46 79 49 80 47 81 73 82 74 83 82 84 75 85 76 86
REMARK SMILES IDX 80 87 83 88 77 89 78 90 81 91 79 92 58 93 59 94 67 95 60 96
REMARK SMILES IDX 61 97 65 98 68 99 62 100 63 101 66 102 64 103
REMARK H PARENT 9 16 97 29 88 56 56 67
REMARK Flexibility Score: inf
ROOT
ATOM      1  C   UNL     1      -0.273  -5.584  -4.149  1.00  0.00     0.188 C 
ENDROOT
BRANCH   1   2
ATOM      2  O   UNL     1      -0.605  -6.712  -3.354  1.00  0.00    -0.376 OA
BRANCH   2   3
ATOM      3  C   UNL     1      -1.675  -7.541  -3.793  1.00  0.00     0.202 C 
BRANCH   3   4
ATOM      4  C   UNL     1      -3.017  -6.859  -4.104  1.00  0.00     0.261 C 
BRANCH   4   5
ATOM      5  O   UNL     1      -2.942  -5.840  -5.141  1.00  0.00    -0.463 OA
BRANCH   5   6
ATOM      6  C   UNL     1      -3.453  -4.633  -4.812  1.00  0.00     0.310 C 
ATOM      7  O   UNL     1      -4.144  -4.467  -3.807  1.00  0.00    -0.252 OA
BRANCH   6   8
ATOM      8  C   UNL     1      -3.096  -3.441  -5.729  1.00  0.00     0.116 C 
ATOM      9  C   UNL     1      -3.865  -3.206  -7.022  1.00  0.00     0.097 C 
ATOM     10  C   UNL     1      -2.944  -3.623  -8.204  1.00  0.00     0.041 C 
ATOM     11  C   UNL     1      -1.623  -2.910  -8.162  1.00  0.00    -0.030 C 
ATOM     12  C   UNL     1      -1.723  -2.741  -5.679  1.00  0.00     0.043 C 
ATOM     13  C   UNL     1      -1.102  -2.469  -7.013  1.00  0.00    -0.030 C 
BRANCH   9  14
ATOM     14  C   UNL     1      -4.403  -1.742  -7.300  1.00  0.00     0.228 C 
ATOM     15  N   UNL     1      -4.395  -0.636  -6.479  1.00  0.00    -0.326 N 
ATOM     16  H   UNL     1      -4.585   0.193  -6.975  1.00  0.00     0.169 HD
ATOM     17  O   UNL     1      -4.830  -1.507  -8.444  1.00  0.00    -0.274 OA
BRANCH  15  18
ATOM     18  C   UNL     1      -4.182  -0.394  -5.106  1.00  0.00     0.043 A 
ATOM     19  C   UNL     1      -0.755  -0.062   0.025  1.00  0.00     0.067 C 
ATOM     20  C   UNL     1      -1.002   0.244  -1.444  1.00  0.00     0.182 C 
ATOM     21  C   UNL     1       0.311   0.181  -2.243  1.00  0.00     0.067 C 
ATOM     22  O   UNL     1      -1.878  -0.813  -1.815  1.00  0.00    -0.476 OA
ATOM     23  C   UNL     1      -1.519   1.678  -1.691  1.00  0.00     0.268 C 
ATOM     24  C   UNL     1      -2.804  -0.486  -2.749  1.00  0.00     0.144 A 
ATOM     25  N   UNL     1      -2.160   1.809  -2.911  1.00  0.00    -0.319 N 
ATOM     26  O   UNL     1      -1.270   2.637  -0.969  1.00  0.00    -0.270 OA
ATOM     27  C   UNL     1      -3.802  -1.409  -2.979  1.00  0.00     0.051 A 
ATOM     28  C   UNL     1      -2.785   0.693  -3.483  1.00  0.00     0.086 A 
ATOM     29  H   UNL     1      -2.176   2.678  -3.373  1.00  0.00     0.170 HD
ATOM     30  C   UNL     1      -4.594  -1.278  -4.116  1.00  0.00     0.030 A 
ATOM     31  C   UNL     1      -3.437   0.729  -4.715  1.00  0.00     0.056 A 
ENDBRANCH  15  18
ENDBRANCH   9  14
ENDBRANCH   6   8
ENDBRANCH   5   6
ENDBRANCH   4   5
ENDBRANCH   3   4
ENDBRANCH   2   3
ENDBRANCH   1   2
BRANCH   1  32
ATOM     32  C   UNL     1      -0.249  -5.731  -5.681  1.00  0.00     0.188 C 
BRANCH  32  33
ATOM     33  O   UNL     1      -0.070  -7.072  -6.093  1.00  0.00    -0.376 OA
BRANCH  33  34
ATOM     34  C   UNL     1       0.766  -7.202  -7.229  1.00  0.00     0.202 C 
BRANCH  34  35
ATOM     35  C   UNL     1       2.226  -7.294  -6.775  1.00  0.00     0.261 C 
BRANCH  35  36
ATOM     36  O   UNL     1       2.687  -6.199  -5.944  1.00  0.00    -0.460 OA
BRANCH  36  37
ATOM     37  C   UNL     1       2.840  -4.993  -6.546  1.00  0.00     0.338 C 
ATOM     38  O   UNL     1       2.629  -4.740  -7.714  1.00  0.00    -0.246 OA
BRANCH  37  39
ATOM     39  C   UNL     1       3.126  -3.957  -5.513  1.00  0.00     0.060 A 
ATOM     40  C   UNL     1       4.217  -4.055  -4.653  1.00  0.00     0.016 A 
ATOM     41  C   UNL     1       2.316  -2.818  -5.455  1.00  0.00     0.016 A 
ATOM     42  C   UNL     1       4.516  -2.994  -3.776  1.00  0.00     0.010 A 
ATOM     43  C   UNL     1       2.598  -1.767  -4.566  1.00  0.00     0.010 A 
ATOM     44  C   UNL     1       3.722  -1.830  -3.730  1.00  0.00    -0.014 A 
BRANCH  44  45
ATOM     45  C   UNL     1       4.194  -0.622  -2.986  1.00  0.00     0.031 A 
ATOM     46  C   UNL     1       3.749  -0.273  -1.590  1.00  0.00     0.074 A 
ATOM     47  C   UNL     1       5.098   0.180  -3.581  1.00  0.00     0.049 A 
ATOM     48  N   UNL     1       3.951   0.829  -0.903  1.00  0.00    -0.248 NA
ATOM     49  C   UNL     1       2.942  -1.270  -0.885  1.00  0.00     0.031 C 
ATOM     50  C   UNL     1       5.671  -0.039  -4.907  1.00  0.00     0.029 A 
ATOM     51  N   UNL     1       5.748   1.294  -3.112  1.00  0.00    -0.354 N 
ATOM     52  C   UNL     1       3.162   0.728   0.242  1.00  0.00     0.074 A 
ATOM     53  C   UNL     1       2.575  -0.594   0.200  1.00  0.00     0.031 C 
ATOM     54  C   UNL     1       6.677   0.831  -5.091  1.00  0.00     0.029 A 
ATOM     55  C   UNL     1       6.784   1.697  -3.917  1.00  0.00     0.049 A 
ATOM     56  H   UNL     1       5.496   1.758  -2.281  1.00  0.00     0.167 HD
ATOM     57  C   UNL     1       2.925   1.679   1.188  1.00  0.00     0.037 A 
ATOM     58  C   UNL     1       7.743   2.619  -3.702  1.00  0.00     0.037 A 
ATOM     59  C   UNL     1       3.748   2.852   1.358  1.00  0.00     0.049 A 
ATOM     60  C   UNL     1       7.736   3.440  -2.438  1.00  0.00     0.074 A 
ATOM     61  C   UNL     1       3.695   3.811   2.360  1.00  0.00     0.029 A 
ATOM     62  N   UNL     1       4.839   3.166   0.569  1.00  0.00    -0.354 N 
ATOM     63  N   UNL     1       6.878   3.427  -1.450  1.00  0.00    -0.248 NA
ATOM     64  C   UNL     1       8.835   4.404  -2.254  1.00  0.00     0.031 C 
ATOM     65  C   UNL     1       4.776   4.677   2.201  1.00  0.00     0.029 A 
ATOM     66  C   UNL     1       5.520   4.234   1.123  1.00  0.00     0.049 A 
ATOM     67  H   UNL     1       5.092   2.699  -0.260  1.00  0.00     0.167 HD
ATOM     68  C   UNL     1       7.346   4.352  -0.524  1.00  0.00     0.074 A 
ATOM     69  C   UNL     1       8.576   4.895  -1.049  1.00  0.00     0.031 C 
ATOM     70  C   UNL     1       6.782   4.726   0.647  1.00  0.00     0.037 A 
BRANCH  57  71
ATOM     71  C   UNL     1       1.756   1.550   2.138  1.00  0.00     0.064 A 
ATOM     72  C   UNL     1       1.635   0.520   3.075  1.00  0.00     0.173 A 
ATOM     73  C   UNL     1       0.766   2.561   2.165  1.00  0.00     0.173 A 
ATOM     74  F   UNL     1       2.567  -0.442   3.147  1.00  0.00    -0.203 F 
ATOM     75  C   UNL     1       0.549   0.463   3.949  1.00  0.00     0.198 A 
ATOM     76  C   UNL     1      -0.290   2.529   3.075  1.00  0.00     0.198 A 
ATOM     77  F   UNL     1       0.837   3.603   1.322  1.00  0.00    -0.203 F 
ATOM     78  F   UNL     1       0.431  -0.572   4.792  1.00  0.00    -0.200 F 
ATOM     79  C   UNL     1      -0.406   1.468   3.955  1.00  0.00     0.200 A 
ATOM     80  F   UNL     1      -1.182   3.529   3.109  1.00  0.00    -0.200 F 
ATOM     81  F   UNL     1      -1.431   1.417   4.816  1.00  0.00    -0.200 F 
ENDBRANCH  57  71
BRANCH  58  82
ATOM     82  C   UNL     1       8.884   2.711  -4.647  1.00  0.00     0.064 A 
ATOM     83  C   UNL     1      10.156   2.277  -4.245  1.00  0.00     0.173 A 
ATOM     84  C   UNL     1       8.739   3.197  -5.952  1.00  0.00     0.173 A 
ATOM     85  F   UNL     1      10.342   1.806  -3.003  1.00  0.00    -0.203 F 
ATOM     86  C   UNL     1      11.249   2.359  -5.102  1.00  0.00     0.198 A 
ATOM     87  C   UNL     1       9.827   3.244  -6.821  1.00  0.00     0.198 A 
ATOM     88  F   UNL     1       7.538   3.601  -6.390  1.00  0.00    -0.203 F 
ATOM     89  F   UNL     1      12.462   1.987  -4.673  1.00  0.00    -0.200 F 
ATOM     90  C   UNL     1      11.082   2.837  -6.392  1.00  0.00     0.200 A 
ATOM     91  F   UNL     1       9.658   3.681  -8.076  1.00  0.00    -0.200 F 
ATOM     92  F   UNL     1      12.132   2.909  -7.221  1.00  0.00    -0.200 F 
ENDBRANCH  58  82
BRANCH  70  93
ATOM     93  C   UNL     1       7.478   5.726   1.520  1.00  0.00     0.064 A 
ATOM     94  C   UNL     1       7.457   7.094   1.220  1.00  0.00     0.173 A 
ATOM     95  C   UNL     1       7.992   5.331   2.766  1.00  0.00     0.173 A 
ATOM     96  F   UNL     1       6.976   7.519   0.042  1.00  0.00    -0.203 F 
ATOM     97  C   UNL     1       7.909   8.033   2.143  1.00  0.00     0.198 A 
ATOM     98  C   UNL     1       8.423   6.274   3.694  1.00  0.00     0.198 A 
ATOM     99  F   UNL     1       8.021   4.032   3.104  1.00  0.00    -0.203 F 
ATOM    100  F   UNL     1       7.868   9.338   1.842  1.00  0.00    -0.200 F 
ATOM    101  C   UNL     1       8.374   7.625   3.385  1.00  0.00     0.200 A 
ATOM    102  F   UNL     1       8.854   5.878   4.901  1.00  0.00    -0.200 F 
ATOM    103  F   UNL     1       8.764   8.534   4.289  1.00  0.00    -0.200 F 
ENDBRANCH  70  93
ENDBRANCH  44  45
ENDBRANCH  37  39
ENDBRANCH  36  37
ENDBRANCH  35  36
ENDBRANCH  34  35
ENDBRANCH  33  34
ENDBRANCH  32  33
ENDBRANCH   1  32
TORSDOF 19
