REMARK SMILES C[C@@H]1[NH2+]CC[C@H]1C(=O)Nc1ccc(C(=O)OCCOCCOCCOC(=O)c2ccc(-c3c4nc(c(-c5c(F)c(F)c(F)c(F)c5F)c5ccc([nH]5)c(-c5c(F)c(F)c(F)c(F)c5F)c5nc(c(-c6c(F)c(F)c(F)c(F)c6F)c6ccc3[nH]6)C=C5)C=C4)cc2)c(Cl)c1
REMARK SMILES IDX 20 1 19 2 18 3 17 4 16 5 14 6 15 7 13 8 10 9 11 10 93 11
REMARK SMILES IDX 12 12 91 13 92 14 9 15 7 16 8 17 6 19 1 20 2 21 3 22 4 23
REMARK SMILES IDX 5 26 21 27 22 28 23 29 24 30 25 31 26 32 27 33 28 34 29 35
REMARK SMILES IDX 90 36 30 37 89 38 31 39 32 40 33 41 83 42 34 43 88 44 82 45
REMARK SMILES IDX 84 46 35 47 87 48 81 49 80 50 36 52 68 53 48 54 67 55 49 56
REMARK SMILES IDX 52 57 66 58 85 59 50 60 51 61 65 63 86 64 53 65 37 66 38 67
REMARK SMILES IDX 46 68 39 69 40 70 44 71 47 72 41 73 42 74 45 75 43 76 69 77
REMARK SMILES IDX 70 78 78 79 71 80 72 81 76 82 79 83 73 84 74 85 77 86 75 87
REMARK SMILES IDX 54 88 55 89 63 90 56 91 57 92 61 93 64 94 58 95 59 96 62 97
REMARK SMILES IDX 60 98
REMARK H PARENT 9 18 3 24 3 25 84 51 52 62
REMARK Flexibility Score: inf
ROOT
ATOM      1  C   UNL     1      -2.721  -4.747   2.381  1.00  0.00     0.188 C 
ENDROOT
BRANCH   1   2
ATOM      2  O   UNL     1      -3.165  -5.939   3.002  1.00  0.00    -0.376 OA
BRANCH   2   3
ATOM      3  C   UNL     1      -3.799  -5.865   4.275  1.00  0.00     0.202 C 
BRANCH   3   4
ATOM      4  C   UNL     1      -3.184  -5.004   5.378  1.00  0.00     0.261 C 
BRANCH   4   5
ATOM      5  O   UNL     1      -3.046  -3.632   4.977  1.00  0.00    -0.460 OA
BRANCH   5   6
ATOM      6  C   UNL     1      -1.913  -3.029   5.398  1.00  0.00     0.339 C 
ATOM      7  O   UNL     1      -1.058  -3.506   6.136  1.00  0.00    -0.246 OA
BRANCH   6   8
ATOM      8  C   UNL     1      -1.692  -1.775   4.659  1.00  0.00     0.078 A 
ATOM      9  C   UNL     1      -1.029   0.583   3.271  1.00  0.00     0.042 A 
ATOM     10  C   UNL     1      -0.136  -0.483   3.310  1.00  0.00     0.027 A 
ATOM     11  C   UNL     1      -2.238   0.478   3.971  1.00  0.00     0.047 A 
ATOM     12  C   UNL     1      -0.466  -1.659   3.988  1.00  0.00     0.019 A 
ATOM     13  C   UNL     1      -2.582  -0.702   4.651  1.00  0.00     0.057 A 
ATOM     14  Cl  UNL     1      -4.083  -0.733   5.500  1.00  0.00    -0.083 Cl
BRANCH   9  15
ATOM     15  N   UNL     1      -0.687   1.828   2.723  1.00  0.00    -0.326 N 
ATOM     16  C   UNL     1       0.032   2.203   1.623  1.00  0.00     0.233 C 
ATOM     17  O   UNL     1       0.573   3.314   1.659  1.00  0.00    -0.274 OA
ATOM     18  H   UNL     1      -1.038   2.590   3.238  1.00  0.00     0.169 HD
BRANCH  16  19
ATOM     19  C   UNL     1       0.027   1.424   0.307  1.00  0.00     0.142 C 
ATOM     20  C   UNL     1       1.884   0.258  -0.983  1.00  0.00     0.076 C 
ATOM     21  C   UNL     1       0.921   0.193   0.207  1.00  0.00     0.192 C 
ATOM     22  N   UNL     1       0.010  -0.955   0.026  1.00  0.00    -0.343 N 
ATOM     23  C   UNL     1      -1.175  -0.423  -0.652  1.00  0.00     0.261 C 
ATOM     24  H   UNL     1      -0.247  -1.351   0.930  1.00  0.00     0.346 HD
ATOM     25  H   UNL     1       0.448  -1.700  -0.515  1.00  0.00     0.346 HD
ATOM     26  C   UNL     1      -1.366   0.979  -0.124  1.00  0.00     0.081 C 
ENDBRANCH  16  19
ENDBRANCH   9  15
ENDBRANCH   6   8
ENDBRANCH   5   6
ENDBRANCH   4   5
ENDBRANCH   3   4
ENDBRANCH   2   3
ENDBRANCH   1   2
BRANCH   1  27
ATOM     27  C   UNL     1      -3.732  -3.647   1.991  1.00  0.00     0.188 C 
BRANCH  27  28
ATOM     28  O   UNL     1      -5.082  -3.723   2.396  1.00  0.00    -0.376 OA
BRANCH  28  29
ATOM     29  C   UNL     1      -5.933  -4.739   1.883  1.00  0.00     0.202 C 
BRANCH  29  30
ATOM     30  C   UNL     1      -5.838  -5.268   0.448  1.00  0.00     0.261 C 
BRANCH  30  31
ATOM     31  O   UNL     1      -4.511  -5.506  -0.035  1.00  0.00    -0.460 OA
BRANCH  31  32
ATOM     32  C   UNL     1      -4.215  -4.871  -1.190  1.00  0.00     0.338 C 
ATOM     33  O   UNL     1      -4.939  -4.133  -1.849  1.00  0.00    -0.246 OA
BRANCH  32  34
ATOM     34  C   UNL     1      -2.798  -5.052  -1.516  1.00  0.00     0.060 A 
ATOM     35  C   UNL     1      -1.937  -3.976  -1.292  1.00  0.00     0.016 A 
ATOM     36  C   UNL     1      -2.346  -6.203  -2.156  1.00  0.00     0.016 A 
ATOM     37  C   UNL     1      -0.619  -4.029  -1.729  1.00  0.00     0.010 A 
ATOM     38  C   UNL     1      -1.022  -6.254  -2.606  1.00  0.00     0.010 A 
ATOM     39  C   UNL     1      -0.163  -5.156  -2.419  1.00  0.00    -0.014 A 
BRANCH  39  40
ATOM     40  C   UNL     1       1.162  -5.108  -3.076  1.00  0.00     0.031 A 
ATOM     41  C   UNL     1       1.231  -4.801  -4.545  1.00  0.00     0.074 A 
ATOM     42  C   UNL     1       2.290  -5.279  -2.365  1.00  0.00     0.049 A 
ATOM     43  N   UNL     1       2.265  -4.797  -5.346  1.00  0.00    -0.248 NA
ATOM     44  C   UNL     1      -0.039  -4.444  -5.197  1.00  0.00     0.031 C 
ATOM     45  C   UNL     1       2.354  -5.488  -0.920  1.00  0.00     0.029 A 
ATOM     46  N   UNL     1       3.601  -5.304  -2.769  1.00  0.00    -0.354 N 
ATOM     47  C   UNL     1       1.770  -4.454  -6.596  1.00  0.00     0.074 A 
ATOM     48  C   UNL     1       0.342  -4.270  -6.454  1.00  0.00     0.031 C 
ATOM     49  C   UNL     1       3.640  -5.637  -0.559  1.00  0.00     0.029 A 
ATOM     50  C   UNL     1       4.481  -5.577  -1.753  1.00  0.00     0.049 A 
ATOM     51  H   UNL     1       3.882  -5.141  -3.699  1.00  0.00     0.167 HD
ATOM     52  C   UNL     1       2.450  -4.305  -7.758  1.00  0.00     0.037 A 
ATOM     53  C   UNL     1       5.811  -5.790  -1.793  1.00  0.00     0.037 A 
ATOM     54  C   UNL     1       3.871  -4.481  -7.892  1.00  0.00     0.049 A 
ATOM     55  C   UNL     1       6.529  -5.713  -3.116  1.00  0.00     0.074 A 
ATOM     56  C   UNL     1       4.652  -4.369  -9.029  1.00  0.00     0.029 A 
ATOM     57  N   UNL     1       4.725  -4.808  -6.849  1.00  0.00    -0.354 N 
ATOM     58  N   UNL     1       6.054  -5.418  -4.302  1.00  0.00    -0.248 NA
ATOM     59  C   UNL     1       7.969  -6.008  -3.106  1.00  0.00     0.031 C 
ATOM     60  C   UNL     1       5.973  -4.668  -8.682  1.00  0.00     0.029 A 
ATOM     61  C   UNL     1       6.023  -4.920  -7.320  1.00  0.00     0.049 A 
ATOM     62  H   UNL     1       4.450  -4.939  -5.913  1.00  0.00     0.167 HD
ATOM     63  C   UNL     1       7.136  -5.464  -5.171  1.00  0.00     0.074 A 
ATOM     64  C   UNL     1       8.296  -5.804  -4.374  1.00  0.00     0.031 C 
ATOM     65  C   UNL     1       7.167  -5.246  -6.508  1.00  0.00     0.037 A 
BRANCH  52  66
ATOM     66  C   UNL     1       1.656  -3.970  -8.984  1.00  0.00     0.064 A 
ATOM     67  C   UNL     1       1.115  -2.693  -9.188  1.00  0.00     0.173 A 
ATOM     68  C   UNL     1       1.460  -4.936  -9.983  1.00  0.00     0.173 A 
ATOM     69  F   UNL     1       1.259  -1.741  -8.254  1.00  0.00    -0.203 F 
ATOM     70  C   UNL     1       0.390  -2.400 -10.341  1.00  0.00     0.198 A 
ATOM     71  C   UNL     1       0.757  -4.632 -11.145  1.00  0.00     0.198 A 
ATOM     72  F   UNL     1       1.958  -6.173  -9.835  1.00  0.00    -0.203 F 
ATOM     73  F   UNL     1      -0.152  -1.185 -10.499  1.00  0.00    -0.200 F 
ATOM     74  C   UNL     1       0.218  -3.367 -11.321  1.00  0.00     0.200 A 
ATOM     75  F   UNL     1       0.600  -5.565 -12.095  1.00  0.00    -0.200 F 
ATOM     76  F   UNL     1      -0.473  -3.080 -12.433  1.00  0.00    -0.200 F 
ENDBRANCH  52  66
BRANCH  53  77
ATOM     77  C   UNL     1       6.549  -6.136  -0.551  1.00  0.00     0.064 A 
ATOM     78  C   UNL     1       7.497  -5.261  -0.004  1.00  0.00     0.173 A 
ATOM     79  C   UNL     1       6.347  -7.365   0.094  1.00  0.00     0.173 A 
ATOM     80  F   UNL     1       7.747  -4.086  -0.600  1.00  0.00    -0.203 F 
ATOM     81  C   UNL     1       8.230  -5.611   1.129  1.00  0.00     0.198 A 
ATOM     82  C   UNL     1       7.059  -7.702   1.244  1.00  0.00     0.198 A 
ATOM     83  F   UNL     1       5.456  -8.241  -0.392  1.00  0.00    -0.203 F 
ATOM     84  F   UNL     1       9.167  -4.778   1.601  1.00  0.00    -0.200 F 
ATOM     85  C   UNL     1       8.006  -6.828   1.755  1.00  0.00     0.200 A 
ATOM     86  F   UNL     1       6.833  -8.876   1.849  1.00  0.00    -0.200 F 
ATOM     87  F   UNL     1       8.713  -7.165   2.842  1.00  0.00    -0.200 F 
ENDBRANCH  53  77
BRANCH  65  88
ATOM     88  C   UNL     1       8.502  -5.327  -7.189  1.00  0.00     0.064 A 
ATOM     89  C   UNL     1       9.142  -6.554  -7.410  1.00  0.00     0.173 A 
ATOM     90  C   UNL     1       9.125  -4.164  -7.668  1.00  0.00     0.173 A 
ATOM     91  F   UNL     1       8.594  -7.692  -6.958  1.00  0.00    -0.203 F 
ATOM     92  C   UNL     1      10.369  -6.612  -8.065  1.00  0.00     0.198 A 
ATOM     93  C   UNL     1      10.337  -4.229  -8.348  1.00  0.00     0.198 A 
ATOM     94  F   UNL     1       8.549  -2.965  -7.489  1.00  0.00    -0.203 F 
ATOM     95  F   UNL     1      10.985  -7.792  -8.228  1.00  0.00    -0.200 F 
ATOM     96  C   UNL     1      10.962  -5.451  -8.540  1.00  0.00     0.200 A 
ATOM     97  F   UNL     1      10.902  -3.107  -8.817  1.00  0.00    -0.200 F 
ATOM     98  F   UNL     1      12.139  -5.511  -9.178  1.00  0.00    -0.200 F 
ENDBRANCH  65  88
ENDBRANCH  39  40
ENDBRANCH  32  34
ENDBRANCH  31  32
ENDBRANCH  30  31
ENDBRANCH  29  30
ENDBRANCH  28  29
ENDBRANCH  27  28
ENDBRANCH   1  27
TORSDOF 19
