REMARK SMILES O=C(OCCOCCOCCOC(=O)c1ccc(-c2c3nc(c(-c4c(F)c(F)c(F)c(F)c4F)c4ccc([nH]4)c(-c4c(F)c(F)c(F)c(F)c4F)c4nc(c(-c5c(F)c(F)c(F)c(F)c5F)c5ccc2[nH]5)C=C4)C=C3)cc1)c1ccc(N[C@H]2OC[C@@H](O)[C@@H](O)[C@H]2O)cc1
REMARK SMILES IDX 7 1 6 2 5 3 4 4 3 5 2 6 1 7 78 8 79 9 93 10 80 11 92 12
REMARK SMILES IDX 81 13 82 14 83 16 84 17 90 18 85 19 88 20 86 21 91 22 89 24
REMARK SMILES IDX 87 26 8 28 9 29 10 30 11 31 12 32 13 33 14 34 15 35 16 36
REMARK SMILES IDX 77 37 17 38 76 39 18 40 19 41 20 42 70 43 21 44 75 45 69 46
REMARK SMILES IDX 71 47 22 48 74 49 68 50 67 51 23 53 55 54 35 55 54 56 36 57
REMARK SMILES IDX 39 58 53 59 72 60 37 61 38 62 52 64 73 65 40 66 24 67 25 68
REMARK SMILES IDX 33 69 26 70 27 71 31 72 34 73 28 74 29 75 32 76 30 77 56 78
REMARK SMILES IDX 57 79 65 80 58 81 59 82 63 83 66 84 60 85 61 86 64 87 62 88
REMARK SMILES IDX 41 89 42 90 50 91 43 92 44 93 48 94 51 95 45 96 46 97 49 98
REMARK SMILES IDX 47 99
REMARK H PARENT 82 15 91 23 89 25 87 27 71 52 39 63
REMARK Flexibility Score: inf
ROOT
ATOM      1  C   UNL     1       1.082   6.670   6.679  1.00  0.00     0.188 C 
ENDROOT
BRANCH   1   2
ATOM      2  O   UNL     1       1.415   5.444   6.011  1.00  0.00    -0.376 OA
BRANCH   2   3
ATOM      3  C   UNL     1       0.463   4.402   6.218  1.00  0.00     0.202 C 
BRANCH   3   4
ATOM      4  C   UNL     1       0.757   3.506   7.426  1.00  0.00     0.261 C 
BRANCH   4   5
ATOM      5  O   UNL     1       1.315   4.245   8.528  1.00  0.00    -0.460 OA
BRANCH   5   6
ATOM      6  C   UNL     1       2.567   4.091   9.030  1.00  0.00     0.338 C 
ATOM      7  O   UNL     1       2.868   4.580  10.115  1.00  0.00    -0.246 OA
BRANCH   6   8
ATOM      8  C   UNL     1       3.595   3.309   8.296  1.00  0.00     0.060 A 
ATOM      9  C   UNL     1       3.809   3.465   6.933  1.00  0.00     0.018 A 
ATOM     10  C   UNL     1       4.452   2.467   9.013  1.00  0.00     0.018 A 
ATOM     11  C   UNL     1       4.790   2.722   6.278  1.00  0.00     0.026 A 
ATOM     12  C   UNL     1       5.467   1.754   8.352  1.00  0.00     0.026 A 
ATOM     13  C   UNL     1       5.637   1.847   6.965  1.00  0.00     0.036 A 
BRANCH  13  14
ATOM     14  N   UNL     1       6.678   1.167   6.346  1.00  0.00    -0.358 N 
ATOM     15  H   UNL     1       7.326   0.675   6.901  1.00  0.00     0.163 HD
BRANCH  14  16
ATOM     16  C   UNL     1       6.838   1.160   4.897  1.00  0.00     0.244 C 
ATOM     17  O   UNL     1       7.081   2.499   4.454  1.00  0.00    -0.353 OA
ATOM     18  C   UNL     1       8.053   0.301   4.483  1.00  0.00     0.195 C 
ATOM     19  C   UNL     1       7.094   2.610   3.028  1.00  0.00     0.197 C 
ATOM     20  C   UNL     1       8.151   0.337   2.948  1.00  0.00     0.178 C 
ATOM     21  C   UNL     1       8.228   1.782   2.427  1.00  0.00     0.171 C 
BRANCH  18  22
ATOM     22  O   UNL     1       9.266   0.848   5.051  1.00  0.00    -0.386 OA
ATOM     23  H   UNL     1       9.388   1.758   4.739  1.00  0.00     0.211 HD
ENDBRANCH  18  22
BRANCH  20  24
ATOM     24  O   UNL     1       9.287  -0.405   2.502  1.00  0.00    -0.387 OA
ATOM     25  H   UNL     1      10.096  -0.002   2.856  1.00  0.00     0.211 HD
ENDBRANCH  20  24
BRANCH  21  26
ATOM     26  O   UNL     1       9.488   2.371   2.779  1.00  0.00    -0.388 OA
ATOM     27  H   UNL     1       9.579   2.387   3.745  1.00  0.00     0.211 HD
ENDBRANCH  21  26
ENDBRANCH  14  16
ENDBRANCH  13  14
ENDBRANCH   6   8
ENDBRANCH   5   6
ENDBRANCH   4   5
ENDBRANCH   3   4
ENDBRANCH   2   3
ENDBRANCH   1   2
BRANCH   1  28
ATOM     28  C   UNL     1       1.757   7.850   5.973  1.00  0.00     0.188 C 
BRANCH  28  29
ATOM     29  O   UNL     1       1.121   8.246   4.754  1.00  0.00    -0.376 OA
BRANCH  29  30
ATOM     30  C   UNL     1       1.148   7.306   3.681  1.00  0.00     0.202 C 
BRANCH  30  31
ATOM     31  C   UNL     1       2.453   7.263   2.882  1.00  0.00     0.261 C 
BRANCH  31  32
ATOM     32  O   UNL     1       3.590   6.827   3.650  1.00  0.00    -0.460 OA
BRANCH  32  33
ATOM     33  C   UNL     1       4.571   7.753   3.775  1.00  0.00     0.338 C 
ATOM     34  O   UNL     1       4.578   8.898   3.357  1.00  0.00    -0.246 OA
BRANCH  33  35
ATOM     35  C   UNL     1       5.729   7.195   4.489  1.00  0.00     0.060 A 
ATOM     36  C   UNL     1       5.945   7.542   5.825  1.00  0.00     0.016 A 
ATOM     37  C   UNL     1       6.715   6.530   3.757  1.00  0.00     0.016 A 
ATOM     38  C   UNL     1       7.181   7.269   6.419  1.00  0.00     0.010 A 
ATOM     39  C   UNL     1       7.945   6.247   4.358  1.00  0.00     0.010 A 
ATOM     40  C   UNL     1       8.203   6.658   5.676  1.00  0.00    -0.014 A 
BRANCH  40  41
ATOM     41  C   UNL     1       9.586   6.577   6.214  1.00  0.00     0.031 A 
ATOM     42  C   UNL     1      10.628   7.551   5.729  1.00  0.00     0.074 A 
ATOM     43  C   UNL     1       9.918   5.645   7.125  1.00  0.00     0.049 A 
ATOM     44  N   UNL     1      11.906   7.616   6.013  1.00  0.00    -0.248 NA
ATOM     45  C   UNL     1      10.169   8.592   4.795  1.00  0.00     0.031 C 
ATOM     46  C   UNL     1       9.005   4.659   7.697  1.00  0.00     0.029 A 
ATOM     47  N   UNL     1      11.125   5.379   7.723  1.00  0.00    -0.354 N 
ATOM     48  C   UNL     1      12.403   8.689   5.284  1.00  0.00     0.074 A 
ATOM     49  C   UNL     1      11.296   9.236   4.529  1.00  0.00     0.031 C 
ATOM     50  C   UNL     1       9.685   3.894   8.568  1.00  0.00     0.029 A 
ATOM     51  C   UNL     1      11.087   4.312   8.584  1.00  0.00     0.049 A 
ATOM     52  H   UNL     1      11.940   5.903   7.549  1.00  0.00     0.167 HD
ATOM     53  C   UNL     1      13.665   9.182   5.252  1.00  0.00     0.037 A 
ATOM     54  C   UNL     1      12.076   3.727   9.288  1.00  0.00     0.037 A 
ATOM     55  C   UNL     1      14.770   8.655   6.009  1.00  0.00     0.049 A 
ATOM     56  C   UNL     1      13.482   4.262   9.196  1.00  0.00     0.074 A 
ATOM     57  C   UNL     1      16.079   9.105   6.055  1.00  0.00     0.029 A 
ATOM     58  N   UNL     1      14.694   7.560   6.855  1.00  0.00    -0.354 N 
ATOM     59  N   UNL     1      13.938   5.287   8.519  1.00  0.00    -0.248 NA
ATOM     60  C   UNL     1      14.513   3.552   9.969  1.00  0.00     0.031 C 
ATOM     61  C   UNL     1      16.803   8.260   6.904  1.00  0.00     0.029 A 
ATOM     62  C   UNL     1      15.936   7.308   7.414  1.00  0.00     0.049 A 
ATOM     63  H   UNL     1      13.878   7.038   7.032  1.00  0.00     0.167 HD
ATOM     64  C   UNL     1      15.296   5.359   8.801  1.00  0.00     0.074 A 
ATOM     65  C   UNL     1      15.592   4.281   9.720  1.00  0.00     0.031 C 
ATOM     66  C   UNL     1      16.216   6.240   8.338  1.00  0.00     0.037 A 
BRANCH  53  67
ATOM     67  C   UNL     1      13.927  10.353   4.354  1.00  0.00     0.064 A 
ATOM     68  C   UNL     1      13.498  11.645   4.692  1.00  0.00     0.173 A 
ATOM     69  C   UNL     1      14.656  10.190   3.167  1.00  0.00     0.173 A 
ATOM     70  F   UNL     1      12.790  11.849   5.813  1.00  0.00    -0.203 F 
ATOM     71  C   UNL     1      13.774  12.729   3.863  1.00  0.00     0.198 A 
ATOM     72  C   UNL     1      14.948  11.280   2.352  1.00  0.00     0.198 A 
ATOM     73  F   UNL     1      15.095   8.976   2.804  1.00  0.00    -0.203 F 
ATOM     74  F   UNL     1      13.327  13.950   4.188  1.00  0.00    -0.200 F 
ATOM     75  C   UNL     1      14.503  12.547   2.697  1.00  0.00     0.200 A 
ATOM     76  F   UNL     1      15.663  11.105   1.231  1.00  0.00    -0.200 F 
ATOM     77  F   UNL     1      14.774  13.593   1.905  1.00  0.00    -0.200 F 
ENDBRANCH  53  67
BRANCH  54  78
ATOM     78  C   UNL     1      11.775   2.551  10.142  1.00  0.00     0.064 A 
ATOM     79  C   UNL     1      11.829   2.643  11.540  1.00  0.00     0.173 A 
ATOM     80  C   UNL     1      11.448   1.309   9.579  1.00  0.00     0.173 A 
ATOM     81  F   UNL     1      12.162   3.804  12.122  1.00  0.00    -0.203 F 
ATOM     82  C   UNL     1      11.583   1.531  12.342  1.00  0.00     0.198 A 
ATOM     83  C   UNL     1      11.178   0.205  10.383  1.00  0.00     0.198 A 
ATOM     84  F   UNL     1      11.379   1.171   8.247  1.00  0.00    -0.203 F 
ATOM     85  F   UNL     1      11.681   1.634  13.674  1.00  0.00    -0.200 F 
ATOM     86  C   UNL     1      11.253   0.314  11.763  1.00  0.00     0.200 A 
ATOM     87  F   UNL     1      10.845  -0.965   9.820  1.00  0.00    -0.200 F 
ATOM     88  F   UNL     1      11.014  -0.755  12.535  1.00  0.00    -0.200 F 
ENDBRANCH  54  78
BRANCH  66  89
ATOM     89  C   UNL     1      17.622   6.102   8.843  1.00  0.00     0.064 A 
ATOM     90  C   UNL     1      18.467   5.079   8.389  1.00  0.00     0.173 A 
ATOM     91  C   UNL     1      18.142   7.027   9.760  1.00  0.00     0.173 A 
ATOM     92  F   UNL     1      18.011   4.161   7.523  1.00  0.00    -0.203 F 
ATOM     93  C   UNL     1      19.776   4.975   8.851  1.00  0.00     0.198 A 
ATOM     94  C   UNL     1      19.459   6.934  10.203  1.00  0.00     0.198 A 
ATOM     95  F   UNL     1      17.376   8.027  10.220  1.00  0.00    -0.203 F 
ATOM     96  F   UNL     1      20.555   3.967   8.434  1.00  0.00    -0.200 F 
ATOM     97  C   UNL     1      20.273   5.905   9.752  1.00  0.00     0.200 A 
ATOM     98  F   UNL     1      19.940   7.838  11.067  1.00  0.00    -0.200 F 
ATOM     99  F   UNL     1      21.535   5.806  10.193  1.00  0.00    -0.200 F 
ENDBRANCH  66  89
ENDBRANCH  40  41
ENDBRANCH  33  35
ENDBRANCH  32  33
ENDBRANCH  31  32
ENDBRANCH  30  31
ENDBRANCH  29  30
ENDBRANCH  28  29
ENDBRANCH   1  28
TORSDOF 22
