REMARK SMILES COc1ccc(-c2[nH]nc3nc(-c4ccc(C(F)(F)F)cc4)cc(C(=O)OCCOCCOCCOC(=O)c4ccc(-c5c6nc(c(-c7c(F)c(F)c(F)c(F)c7F)c7ccc([nH]7)c(-c7c(F)c(F)c(F)c(F)c7F)c7nc(c(-c8c(F)c(F)c(F)c(F)c8F)c8ccc5[nH]8)C=C7)C=C6)cc4)c23)cc1
REMARK SMILES IDX 31 1 30 2 29 3 28 4 27 5 25 6 26 7 24 8 7 9 8 10 102 11 9 12
REMARK SMILES IDX 10 14 11 15 23 16 12 17 6 18 3 19 4 20 104 21 5 22 103 23
REMARK SMILES IDX 2 24 1 25 13 26 14 27 22 28 15 29 21 30 16 31 17 32 18 33
REMARK SMILES IDX 19 34 20 35 32 36 33 37 34 38 35 39 36 40 37 41 38 42 39 43
REMARK SMILES IDX 40 44 101 45 41 46 100 47 42 48 43 49 44 50 94 51 45 52
REMARK SMILES IDX 99 53 93 54 95 55 46 56 98 57 92 58 91 59 47 61 79 62 59 63
REMARK SMILES IDX 78 64 60 65 63 66 77 67 96 68 61 69 62 70 76 72 97 73 64 74
REMARK SMILES IDX 48 75 49 76 57 77 50 78 51 79 55 80 58 81 52 82 53 83 56 84
REMARK SMILES IDX 54 85 80 86 81 87 89 88 82 89 83 90 87 91 90 92 84 93 85 94
REMARK SMILES IDX 88 95 86 96 65 97 66 98 74 99 67 100 68 101 72 102 75 103
REMARK SMILES IDX 69 104 70 105 73 106 71 107
REMARK H PARENT 8 13 95 60 63 71
REMARK Flexibility Score: inf
ROOT
ATOM      1  C   UNL     1       5.105  -3.643   3.429  1.00  0.00     0.188 C 
ENDROOT
BRANCH   1   2
ATOM      2  O   UNL     1       5.015  -2.226   3.429  1.00  0.00    -0.376 OA
BRANCH   2   3
ATOM      3  C   UNL     1       4.038  -1.690   4.337  1.00  0.00     0.202 C 
BRANCH   3   4
ATOM      4  C   UNL     1       3.860  -2.353   5.729  1.00  0.00     0.261 C 
BRANCH   4   5
ATOM      5  O   UNL     1       3.757  -3.796   5.738  1.00  0.00    -0.460 OA
BRANCH   5   6
ATOM      6  C   UNL     1       2.667  -4.374   5.164  1.00  0.00     0.339 C 
ATOM      7  O   UNL     1       1.616  -3.827   4.971  1.00  0.00    -0.246 OA
BRANCH   6   8
ATOM      8  C   UNL     1       3.064  -5.741   4.706  1.00  0.00     0.075 A 
ATOM      9  C   UNL     1       1.784  -5.969   2.529  1.00  0.00     0.075 A 
ATOM     10  N   UNL     1       1.593  -7.079   1.736  1.00  0.00    -0.275 N 
ATOM     11  C   UNL     1       2.566  -6.420   3.581  1.00  0.00     0.061 A 
ATOM     12  N   UNL     1       2.328  -8.143   2.081  1.00  0.00    -0.154 NA
ATOM     13  H   UNL     1       0.966  -7.089   0.977  1.00  0.00     0.190 HD
ATOM     14  C   UNL     1       2.965  -7.741   3.178  1.00  0.00     0.182 A 
ATOM     15  N   UNL     1       3.915  -8.449   3.828  1.00  0.00    -0.226 NA
ATOM     16  C   UNL     1       4.082  -6.501   5.332  1.00  0.00     0.045 A 
ATOM     17  C   UNL     1       4.470  -7.798   4.886  1.00  0.00     0.074 A 
BRANCH   9  18
ATOM     18  C   UNL     1       1.339  -4.664   2.064  1.00  0.00     0.001 A 
ATOM     19  C   UNL     1       0.589  -2.095   1.203  1.00  0.00     0.118 A 
ATOM     20  C   UNL     1      -0.232  -2.830   2.063  1.00  0.00     0.047 A 
ATOM     21  C   UNL     1       1.768  -2.669   0.733  1.00  0.00     0.047 A 
ATOM     22  C   UNL     1       0.131  -4.113   2.484  1.00  0.00     0.014 A 
ATOM     23  C   UNL     1       2.136  -3.950   1.157  1.00  0.00     0.014 A 
BRANCH  19  24
ATOM     24  O   UNL     1       0.135  -0.838   0.913  1.00  0.00    -0.497 OA
ATOM     25  C   UNL     1       0.940  -0.042   0.053  1.00  0.00     0.278 C 
ENDBRANCH  19  24
ENDBRANCH   9  18
BRANCH  17  26
ATOM     26  C   UNL     1       5.513  -8.590   5.589  1.00  0.00     0.000 A 
ATOM     27  C   UNL     1       6.378  -9.455   4.888  1.00  0.00     0.011 A 
ATOM     28  C   UNL     1       5.634  -8.565   6.989  1.00  0.00     0.011 A 
ATOM     29  C   UNL     1       7.299 -10.277   5.556  1.00  0.00     0.014 A 
ATOM     30  C   UNL     1       6.549  -9.385   7.661  1.00  0.00     0.014 A 
ATOM     31  C   UNL     1       7.383 -10.260   6.954  1.00  0.00     0.056 A 
BRANCH  31  32
ATOM     32  C   UNL     1       8.329 -11.188   7.679  1.00  0.00     0.416 C 
ATOM     33  F   UNL     1       8.063 -12.501   7.435  1.00  0.00    -0.166 F 
ATOM     34  F   UNL     1       9.629 -10.996   7.324  1.00  0.00    -0.166 F 
ATOM     35  F   UNL     1       8.290 -11.050   9.035  1.00  0.00    -0.166 F 
ENDBRANCH  31  32
ENDBRANCH  17  26
ENDBRANCH   6   8
ENDBRANCH   5   6
ENDBRANCH   4   5
ENDBRANCH   3   4
ENDBRANCH   2   3
ENDBRANCH   1   2
BRANCH   1  36
ATOM     36  C   UNL     1       6.131  -4.279   2.518  1.00  0.00     0.188 C 
BRANCH  36  37
ATOM     37  O   UNL     1       7.488  -3.981   2.840  1.00  0.00    -0.376 OA
BRANCH  37  38
ATOM     38  C   UNL     1       7.814  -2.625   3.134  1.00  0.00     0.202 C 
BRANCH  38  39
ATOM     39  C   UNL     1       7.862  -1.659   1.953  1.00  0.00     0.261 C 
BRANCH  39  40
ATOM     40  O   UNL     1       6.792  -1.820   1.034  1.00  0.00    -0.460 OA
BRANCH  40  41
ATOM     41  C   UNL     1       7.047  -2.750   0.087  1.00  0.00     0.338 C 
ATOM     42  O   UNL     1       7.990  -3.521   0.027  1.00  0.00    -0.246 OA
BRANCH  41  43
ATOM     43  C   UNL     1       6.053  -2.634  -0.983  1.00  0.00     0.060 A 
ATOM     44  C   UNL     1       6.114  -3.630  -1.960  1.00  0.00     0.016 A 
ATOM     45  C   UNL     1       5.516  -1.364  -1.226  1.00  0.00     0.016 A 
ATOM     46  C   UNL     1       5.961  -3.239  -3.266  1.00  0.00     0.010 A 
ATOM     47  C   UNL     1       5.387  -0.970  -2.532  1.00  0.00     0.010 A 
ATOM     48  C   UNL     1       5.729  -1.883  -3.524  1.00  0.00    -0.014 A 
BRANCH  48  49
ATOM     49  C   UNL     1       5.828  -1.440  -4.892  1.00  0.00     0.031 A 
ATOM     50  C   UNL     1       4.638  -1.790  -5.682  1.00  0.00     0.074 A 
ATOM     51  C   UNL     1       6.878  -0.736  -5.352  1.00  0.00     0.049 A 
ATOM     52  N   UNL     1       4.554  -2.682  -6.609  1.00  0.00    -0.248 NA
ATOM     53  C   UNL     1       3.349  -1.224  -5.259  1.00  0.00     0.031 C 
ATOM     54  C   UNL     1       7.976  -0.121  -4.605  1.00  0.00     0.029 A 
ATOM     55  N   UNL     1       7.128  -0.355  -6.631  1.00  0.00    -0.354 N 
ATOM     56  C   UNL     1       3.231  -2.657  -7.022  1.00  0.00     0.074 A 
ATOM     57  C   UNL     1       2.505  -1.898  -6.038  1.00  0.00     0.031 C 
ATOM     58  C   UNL     1       8.639   0.738  -5.416  1.00  0.00     0.029 A 
ATOM     59  C   UNL     1       8.096   0.630  -6.760  1.00  0.00     0.049 A 
ATOM     60  H   UNL     1       6.661  -0.746  -7.404  1.00  0.00     0.167 HD
ATOM     61  C   UNL     1       2.891  -3.042  -8.279  1.00  0.00     0.037 A 
ATOM     62  C   UNL     1       8.345   1.343  -7.888  1.00  0.00     0.037 A 
ATOM     63  C   UNL     1       3.938  -3.818  -8.893  1.00  0.00     0.049 A 
ATOM     64  C   UNL     1       7.783   0.572  -9.031  1.00  0.00     0.074 A 
ATOM     65  C   UNL     1       4.545  -5.023  -8.598  1.00  0.00     0.029 A 
ATOM     66  N   UNL     1       4.781  -3.178  -9.768  1.00  0.00    -0.354 N 
ATOM     67  N   UNL     1       8.273  -0.564  -9.446  1.00  0.00    -0.248 NA
ATOM     68  C   UNL     1       6.396   0.823  -9.402  1.00  0.00     0.031 C 
ATOM     69  C   UNL     1       5.918  -4.841  -8.933  1.00  0.00     0.029 A 
ATOM     70  C   UNL     1       6.063  -3.560  -9.466  1.00  0.00     0.049 A 
ATOM     71  H   UNL     1       4.514  -2.556 -10.483  1.00  0.00     0.167 HD
ATOM     72  C   UNL     1       7.162  -1.343  -9.738  1.00  0.00     0.074 A 
ATOM     73  C   UNL     1       6.038  -0.411  -9.770  1.00  0.00     0.031 C 
ATOM     74  C   UNL     1       7.213  -2.704  -9.635  1.00  0.00     0.037 A 
BRANCH  61  75
ATOM     75  C   UNL     1       1.794  -2.389  -9.073  1.00  0.00     0.064 A 
ATOM     76  C   UNL     1       1.395  -2.972 -10.289  1.00  0.00     0.173 A 
ATOM     77  C   UNL     1       1.333  -1.074  -8.841  1.00  0.00     0.173 A 
ATOM     78  F   UNL     1       1.799  -4.207 -10.618  1.00  0.00    -0.203 F 
ATOM     79  C   UNL     1       0.649  -2.261 -11.232  1.00  0.00     0.198 A 
ATOM     80  C   UNL     1       0.540  -0.391  -9.758  1.00  0.00     0.198 A 
ATOM     81  F   UNL     1       1.722  -0.353  -7.784  1.00  0.00    -0.203 F 
ATOM     82  F   UNL     1       0.401  -2.808 -12.429  1.00  0.00    -0.200 F 
ATOM     83  C   UNL     1       0.226  -0.971 -10.968  1.00  0.00     0.200 A 
ATOM     84  F   UNL     1       0.159   0.866  -9.490  1.00  0.00    -0.200 F 
ATOM     85  F   UNL     1      -0.436  -0.268 -11.894  1.00  0.00    -0.200 F 
ENDBRANCH  61  75
BRANCH  62  86
ATOM     86  C   UNL     1       8.702   2.778  -8.002  1.00  0.00     0.064 A 
ATOM     87  C   UNL     1       9.181   3.311  -9.211  1.00  0.00     0.173 A 
ATOM     88  C   UNL     1       8.312   3.710  -7.021  1.00  0.00     0.173 A 
ATOM     89  F   UNL     1       9.529   2.495 -10.217  1.00  0.00    -0.203 F 
ATOM     90  C   UNL     1       9.241   4.692  -9.433  1.00  0.00     0.198 A 
ATOM     91  C   UNL     1       8.377   5.087  -7.241  1.00  0.00     0.198 A 
ATOM     92  F   UNL     1       7.764   3.307  -5.866  1.00  0.00    -0.203 F 
ATOM     93  F   UNL     1       9.642   5.162 -10.622  1.00  0.00    -0.200 F 
ATOM     94  C   UNL     1       8.828   5.578  -8.451  1.00  0.00     0.200 A 
ATOM     95  F   UNL     1       7.937   5.931  -6.297  1.00  0.00    -0.200 F 
ATOM     96  F   UNL     1       8.824   6.897  -8.686  1.00  0.00    -0.200 F 
ENDBRANCH  62  86
BRANCH  74  97
ATOM     97  C   UNL     1       8.564  -3.337  -9.451  1.00  0.00     0.064 A 
ATOM     98  C   UNL     1       9.388  -3.125  -8.331  1.00  0.00     0.173 A 
ATOM     99  C   UNL     1       8.976  -4.303 -10.379  1.00  0.00     0.173 A 
ATOM    100  F   UNL     1       9.015  -2.294  -7.349  1.00  0.00    -0.203 F 
ATOM    101  C   UNL     1      10.590  -3.814  -8.176  1.00  0.00     0.198 A 
ATOM    102  C   UNL     1      10.156  -5.018 -10.202  1.00  0.00     0.198 A 
ATOM    103  F   UNL     1       8.202  -4.589 -11.438  1.00  0.00    -0.203 F 
ATOM    104  F   UNL     1      11.365  -3.583  -7.106  1.00  0.00    -0.200 F 
ATOM    105  C   UNL     1      10.969  -4.766  -9.108  1.00  0.00     0.200 A 
ATOM    106  F   UNL     1      10.493  -5.973 -11.080  1.00  0.00    -0.200 F 
ATOM    107  F   UNL     1      12.103  -5.460  -8.940  1.00  0.00    -0.200 F 
ENDBRANCH  74  97
ENDBRANCH  48  49
ENDBRANCH  41  43
ENDBRANCH  40  41
ENDBRANCH  39  40
ENDBRANCH  38  39
ENDBRANCH  37  38
ENDBRANCH  36  37
ENDBRANCH   1  36
TORSDOF 21
