REMARK SMILES CCCC[C@H](C(=O)OCCOCCOCCOC(=O)c1ccc(-c2c3nc(c(-c4c(F)c(F)c(F)c(F)c4F)c4ccc([nH]4)c(-c4c(F)c(F)c(F)c(F)c4F)c4nc(c(-c5c(F)c(F)c(F)c(F)c5F)c5ccc2[nH]5)C=C4)C=C3)cc1)N1C(=O)/C(=C/c2ccc(C)cc2)SC1=S
REMARK SMILES IDX 12 1 11 2 10 3 9 4 8 5 6 6 7 7 5 8 4 9 3 10 2 11 1 12 83 13
REMARK SMILES IDX 84 14 96 15 85 16 86 17 95 18 97 19 87 20 88 21 89 22 94 23
REMARK SMILES IDX 90 24 93 25 91 26 92 27 13 28 14 29 15 30 16 31 17 32 18 33
REMARK SMILES IDX 19 34 20 35 21 36 82 37 22 38 81 39 23 40 24 41 25 42 75 43
REMARK SMILES IDX 26 44 80 45 74 46 76 47 27 48 79 49 73 50 72 51 28 53 60 54
REMARK SMILES IDX 40 55 59 56 41 57 44 58 58 59 77 60 42 61 43 62 57 64 78 65
REMARK SMILES IDX 45 66 29 67 30 68 38 69 31 70 32 71 36 72 39 73 33 74 34 75
REMARK SMILES IDX 37 76 35 77 61 78 62 79 70 80 63 81 64 82 68 83 71 84 65 85
REMARK SMILES IDX 66 86 69 87 67 88 46 89 47 90 55 91 48 92 49 93 53 94 56 95
REMARK SMILES IDX 50 96 51 97 54 98 52 99
REMARK H PARENT 76 52 44 63
REMARK Flexibility Score: inf
ROOT
ATOM      1  C   UNL     1       1.800  -0.265  -2.911  1.00  0.00     0.188 C 
ENDROOT
BRANCH   1   2
ATOM      2  O   UNL     1       2.990  -0.524  -2.170  1.00  0.00    -0.376 OA
BRANCH   2   3
ATOM      3  C   UNL     1       3.461  -1.858  -2.065  1.00  0.00     0.202 C 
BRANCH   3   4
ATOM      4  C   UNL     1       2.536  -2.849  -1.358  1.00  0.00     0.261 C 
BRANCH   4   5
ATOM      5  O   UNL     1       1.150  -2.693  -1.710  1.00  0.00    -0.462 OA
BRANCH   5   6
ATOM      6  C   UNL     1       0.279  -2.418  -0.715  1.00  0.00     0.329 C 
ATOM      7  O   UNL     1       0.606  -2.232   0.455  1.00  0.00    -0.250 OA
BRANCH   6   8
ATOM      8  C   UNL     1      -1.201  -2.571  -1.127  1.00  0.00     0.202 C 
BRANCH   8   9
ATOM      9  C   UNL     1      -1.778  -2.102  -2.484  1.00  0.00     0.038 C 
BRANCH   9  10
ATOM     10  C   UNL     1      -1.810  -3.027  -3.715  1.00  0.00     0.002 C 
BRANCH  10  11
ATOM     11  C   UNL     1      -2.888  -4.119  -3.774  1.00  0.00    -0.003 C 
ATOM     12  C   UNL     1      -4.323  -3.617  -3.800  1.00  0.00     0.004 C 
ENDBRANCH  10  11
ENDBRANCH   9  10
ENDBRANCH   8   9
BRANCH   8  13
ATOM     13  N   UNL     1      -1.637  -3.890  -0.683  1.00  0.00    -0.278 N 
ATOM     14  C   UNL     1      -0.989  -4.998  -1.200  1.00  0.00     0.266 C 
ATOM     15  C   UNL     1      -2.671  -4.133   0.194  1.00  0.00     0.149 C 
ATOM     16  O   UNL     1      -0.074  -5.003  -2.011  1.00  0.00    -0.268 OA
ATOM     17  C   UNL     1      -1.601  -6.231  -0.687  1.00  0.00     0.081 C 
ATOM     18  S   UNL     1      -2.834  -5.866   0.444  1.00  0.00    -0.054 SA
ATOM     19  S   UNL     1      -3.697  -3.034   0.916  1.00  0.00    -0.052 S 
ATOM     20  C   UNL     1      -1.202  -7.410  -1.175  1.00  0.00     0.029 C 
BRANCH  20  21
ATOM     21  C   UNL     1      -1.805  -8.685  -0.824  1.00  0.00    -0.024 A 
ATOM     22  C   UNL     1      -1.046  -9.639  -0.149  1.00  0.00     0.008 A 
ATOM     23  C   UNL     1      -3.136  -8.949  -1.160  1.00  0.00     0.008 A 
ATOM     24  C   UNL     1      -1.634 -10.842   0.230  1.00  0.00     0.004 A 
ATOM     25  C   UNL     1      -3.723 -10.148  -0.775  1.00  0.00     0.004 A 
ATOM     26  C   UNL     1      -2.980 -11.097  -0.066  1.00  0.00    -0.051 A 
ATOM     27  C   UNL     1      -3.610 -12.380   0.380  1.00  0.00     0.044 C 
ENDBRANCH  20  21
ENDBRANCH   8  13
ENDBRANCH   6   8
ENDBRANCH   5   6
ENDBRANCH   4   5
ENDBRANCH   3   4
ENDBRANCH   2   3
ENDBRANCH   1   2
BRANCH   1  28
ATOM     28  C   UNL     1       1.367  -1.193  -4.065  1.00  0.00     0.188 C 
BRANCH  28  29
ATOM     29  O   UNL     1       2.445  -1.882  -4.669  1.00  0.00    -0.376 OA
BRANCH  29  30
ATOM     30  C   UNL     1       2.510  -1.781  -6.079  1.00  0.00     0.202 C 
BRANCH  30  31
ATOM     31  C   UNL     1       3.171  -0.471  -6.518  1.00  0.00     0.261 C 
BRANCH  31  32
ATOM     32  O   UNL     1       2.629   0.718  -5.906  1.00  0.00    -0.460 OA
BRANCH  32  33
ATOM     33  C   UNL     1       1.409   1.122  -6.323  1.00  0.00     0.338 C 
ATOM     34  O   UNL     1       0.723   0.599  -7.187  1.00  0.00    -0.246 OA
BRANCH  33  35
ATOM     35  C   UNL     1       0.926   2.195  -5.419  1.00  0.00     0.060 A 
ATOM     36  C   UNL     1      -0.344   2.070  -4.836  1.00  0.00     0.016 A 
ATOM     37  C   UNL     1       1.710   3.320  -5.150  1.00  0.00     0.016 A 
ATOM     38  C   UNL     1      -0.857   3.095  -4.034  1.00  0.00     0.010 A 
ATOM     39  C   UNL     1       1.189   4.354  -4.362  1.00  0.00     0.010 A 
ATOM     40  C   UNL     1      -0.115   4.269  -3.839  1.00  0.00    -0.014 A 
BRANCH  40  41
ATOM     41  C   UNL     1      -0.784   5.495  -3.325  1.00  0.00     0.031 A 
ATOM     42  C   UNL     1      -1.279   6.500  -4.334  1.00  0.00     0.074 A 
ATOM     43  C   UNL     1      -0.967   5.727  -2.013  1.00  0.00     0.049 A 
ATOM     44  N   UNL     1      -1.827   7.675  -4.149  1.00  0.00    -0.248 NA
ATOM     45  C   UNL     1      -1.128   6.125  -5.749  1.00  0.00     0.031 C 
ATOM     46  C   UNL     1      -0.582   4.828  -0.929  1.00  0.00     0.029 A 
ATOM     47  N   UNL     1      -1.522   6.811  -1.372  1.00  0.00    -0.354 N 
ATOM     48  C   UNL     1      -2.073   8.180  -5.420  1.00  0.00     0.074 A 
ATOM     49  C   UNL     1      -1.586   7.201  -6.367  1.00  0.00     0.031 C 
ATOM     50  C   UNL     1      -0.899   5.404   0.246  1.00  0.00     0.029 A 
ATOM     51  C   UNL     1      -1.479   6.724  -0.002  1.00  0.00     0.049 A 
ATOM     52  H   UNL     1      -1.913   7.577  -1.851  1.00  0.00     0.167 HD
ATOM     53  C   UNL     1      -2.662   9.348  -5.772  1.00  0.00     0.037 A 
ATOM     54  C   UNL     1      -1.844   7.619   0.939  1.00  0.00     0.037 A 
ATOM     55  C   UNL     1      -3.146  10.328  -4.838  1.00  0.00     0.049 A 
ATOM     56  C   UNL     1      -2.428   8.949   0.522  1.00  0.00     0.074 A 
ATOM     57  C   UNL     1      -3.762  11.540  -5.099  1.00  0.00     0.029 A 
ATOM     58  N   UNL     1      -3.062  10.213  -3.458  1.00  0.00    -0.354 N 
ATOM     59  N   UNL     1      -2.675   9.410  -0.680  1.00  0.00    -0.248 NA
ATOM     60  C   UNL     1      -2.789   9.881   1.602  1.00  0.00     0.031 C 
ATOM     61  C   UNL     1      -4.002  12.182  -3.880  1.00  0.00     0.029 A 
ATOM     62  C   UNL     1      -3.596  11.341  -2.857  1.00  0.00     0.049 A 
ATOM     63  H   UNL     1      -2.679   9.443  -2.978  1.00  0.00     0.167 HD
ATOM     64  C   UNL     1      -3.255  10.662  -0.500  1.00  0.00     0.074 A 
ATOM     65  C   UNL     1      -3.334  10.883   0.928  1.00  0.00     0.031 C 
ATOM     66  C   UNL     1      -3.687  11.547  -1.433  1.00  0.00     0.037 A 
BRANCH  53  67
ATOM     67  C   UNL     1      -2.785   9.642  -7.240  1.00  0.00     0.064 A 
ATOM     68  C   UNL     1      -3.664   8.923  -8.066  1.00  0.00     0.173 A 
ATOM     69  C   UNL     1      -2.029  10.669  -7.823  1.00  0.00     0.173 A 
ATOM     70  F   UNL     1      -4.396   7.919  -7.561  1.00  0.00    -0.203 F 
ATOM     71  C   UNL     1      -3.757   9.203  -9.427  1.00  0.00     0.198 A 
ATOM     72  C   UNL     1      -2.150  10.968  -9.177  1.00  0.00     0.198 A 
ATOM     73  F   UNL     1      -1.175  11.387  -7.079  1.00  0.00    -0.203 F 
ATOM     74  F   UNL     1      -4.561   8.467 -10.207  1.00  0.00    -0.200 F 
ATOM     75  C   UNL     1      -3.006  10.230  -9.980  1.00  0.00     0.200 A 
ATOM     76  F   UNL     1      -1.433  11.969  -9.707  1.00  0.00    -0.200 F 
ATOM     77  F   UNL     1      -3.102  10.502 -11.288  1.00  0.00    -0.200 F 
ENDBRANCH  53  67
BRANCH  54  78
ATOM     78  C   UNL     1      -1.664   7.305   2.384  1.00  0.00     0.064 A 
ATOM     79  C   UNL     1      -2.769   7.146   3.233  1.00  0.00     0.173 A 
ATOM     80  C   UNL     1      -0.387   7.210   2.955  1.00  0.00     0.173 A 
ATOM     81  F   UNL     1      -4.012   7.262   2.743  1.00  0.00    -0.203 F 
ATOM     82  C   UNL     1      -2.603   6.932   4.601  1.00  0.00     0.198 A 
ATOM     83  C   UNL     1      -0.222   6.964   4.317  1.00  0.00     0.198 A 
ATOM     84  F   UNL     1       0.704   7.365   2.190  1.00  0.00    -0.203 F 
ATOM     85  F   UNL     1      -3.676   6.849   5.398  1.00  0.00    -0.200 F 
ATOM     86  C   UNL     1      -1.329   6.836   5.140  1.00  0.00     0.200 A 
ATOM     87  F   UNL     1       1.011   6.866   4.833  1.00  0.00    -0.200 F 
ATOM     88  F   UNL     1      -1.170   6.635   6.455  1.00  0.00    -0.200 F 
ENDBRANCH  54  78
BRANCH  66  89
ATOM     89  C   UNL     1      -4.341  12.811  -0.946  1.00  0.00     0.064 A 
ATOM     90  C   UNL     1      -3.618  13.822  -0.294  1.00  0.00     0.173 A 
ATOM     91  C   UNL     1      -5.712  13.025  -1.162  1.00  0.00     0.173 A 
ATOM     92  F   UNL     1      -2.308  13.666  -0.053  1.00  0.00    -0.203 F 
ATOM     93  C   UNL     1      -4.250  14.979   0.157  1.00  0.00     0.198 A 
ATOM     94  C   UNL     1      -6.333  14.199  -0.742  1.00  0.00     0.198 A 
ATOM     95  F   UNL     1      -6.451  12.099  -1.791  1.00  0.00    -0.203 F 
ATOM     96  F   UNL     1      -3.550  15.902   0.831  1.00  0.00    -0.200 F 
ATOM     97  C   UNL     1      -5.604  15.169  -0.073  1.00  0.00     0.200 A 
ATOM     98  F   UNL     1      -7.638  14.389  -0.983  1.00  0.00    -0.200 F 
ATOM     99  F   UNL     1      -6.209  16.285   0.359  1.00  0.00    -0.200 F 
ENDBRANCH  66  89
ENDBRANCH  40  41
ENDBRANCH  33  35
ENDBRANCH  32  33
ENDBRANCH  31  32
ENDBRANCH  30  31
ENDBRANCH  29  30
ENDBRANCH  28  29
ENDBRANCH   1  28
TORSDOF 22
