REMARK SMILES O=C(OCCOCCOCCOC(=O)[C@@]12CN(CC3CC3)C(=O)[C@@H]1CN(c1nc3ccccc3o1)C2)c1ccc(-c2c3nc(c(-c4c(F)c(F)c(F)c(F)c4F)c4ccc([nH]4)c(-c4c(F)c(F)c(F)c(F)c4F)c4nc(c(-c5c(F)c(F)c(F)c(F)c5F)c5ccc2[nH]5)C=C4)C=C3)cc1
REMARK SMILES IDX 7 1 6 2 5 3 4 4 3 5 2 6 1 7 37 8 38 9 99 10 39 11 98 12
REMARK SMILES IDX 40 13 41 14 42 15 92 16 43 17 97 18 91 19 93 20 44 21 96 22
REMARK SMILES IDX 90 23 89 24 45 26 77 27 57 28 76 29 58 30 61 31 75 32 94 33
REMARK SMILES IDX 59 34 60 35 74 37 95 38 62 39 46 40 47 41 55 42 48 43 49 44
REMARK SMILES IDX 53 45 56 46 50 47 51 48 54 49 52 50 78 51 79 52 87 53 80 54
REMARK SMILES IDX 81 55 85 56 88 57 82 58 83 59 86 60 84 61 63 62 64 63 72 64
REMARK SMILES IDX 65 65 66 66 70 67 73 68 67 69 68 70 71 71 69 72 8 73 9 74
REMARK SMILES IDX 10 75 11 76 12 77 13 78 14 79 15 80 16 81 24 82 36 83 17 84
REMARK SMILES IDX 22 85 25 86 26 87 23 88 18 89 19 90 20 91 21 92 27 93 28 94
REMARK SMILES IDX 35 95 29 96 34 97 30 98 33 99 31 100 32 101
REMARK H PARENT 93 25 61 36
REMARK Flexibility Score: inf
ROOT
ATOM      1  C   UNL     1       2.553   2.521   0.110  1.00  0.00     0.188 C 
ENDROOT
BRANCH   1   2
ATOM      2  O   UNL     1       3.826   1.879   0.244  1.00  0.00    -0.376 OA
BRANCH   2   3
ATOM      3  C   UNL     1       4.678   2.123  -0.878  1.00  0.00     0.202 C 
BRANCH   3   4
ATOM      4  C   UNL     1       4.285   1.397  -2.190  1.00  0.00     0.261 C 
BRANCH   4   5
ATOM      5  O   UNL     1       2.898   0.979  -2.293  1.00  0.00    -0.460 OA
BRANCH   5   6
ATOM      6  C   UNL     1       2.263  -0.154  -1.869  1.00  0.00     0.338 C 
ATOM      7  O   UNL     1       1.101  -0.348  -2.222  1.00  0.00    -0.246 OA
BRANCH   6   8
ATOM      8  C   UNL     1       2.878  -1.136  -0.926  1.00  0.00     0.060 A 
ATOM      9  C   UNL     1       4.140  -0.973  -0.431  1.00  0.00     0.016 A 
ATOM     10  C   UNL     1       2.175  -2.246  -0.460  1.00  0.00     0.016 A 
ATOM     11  C   UNL     1       4.732  -1.828   0.477  1.00  0.00     0.010 A 
ATOM     12  C   UNL     1       2.761  -3.166   0.469  1.00  0.00     0.010 A 
ATOM     13  C   UNL     1       4.188  -3.114   1.077  1.00  0.00    -0.014 A 
BRANCH  13  14
ATOM     14  C   UNL     1       5.243  -4.443   2.471  1.00  0.00     0.031 A 
ATOM     15  C   UNL     1       5.881  -6.030   2.250  1.00  0.00     0.074 A 
ATOM     16  C   UNL     1       5.911  -4.231   3.778  1.00  0.00     0.049 A 
ATOM     17  N   UNL     1       7.172  -6.322   2.260  1.00  0.00    -0.248 NA
ATOM     18  C   UNL     1       5.057  -7.193   1.842  1.00  0.00     0.031 C 
ATOM     19  C   UNL     1       6.001  -2.941   4.543  1.00  0.00     0.029 A 
ATOM     20  N   UNL     1       6.556  -5.079   4.682  1.00  0.00    -0.354 N 
ATOM     21  C   UNL     1       7.295  -7.500   1.543  1.00  0.00     0.074 A 
ATOM     22  C   UNL     1       5.965  -7.940   1.209  1.00  0.00     0.031 C 
ATOM     23  C   UNL     1       6.369  -3.145   5.806  1.00  0.00     0.029 A 
ATOM     24  C   UNL     1       6.761  -4.528   5.934  1.00  0.00     0.049 A 
ATOM     25  H   UNL     1       6.841  -5.992   4.448  1.00  0.00     0.167 HD
ATOM     26  C   UNL     1       8.445  -8.119   1.187  1.00  0.00     0.037 A 
ATOM     27  C   UNL     1       7.281  -4.997   7.082  1.00  0.00     0.037 A 
ATOM     28  C   UNL     1       9.359  -8.539   2.223  1.00  0.00     0.049 A 
ATOM     29  C   UNL     1       8.124  -6.222   7.048  1.00  0.00     0.074 A 
ATOM     30  C   UNL     1      10.278  -9.574   2.206  1.00  0.00     0.029 A 
ATOM     31  N   UNL     1       9.302  -8.077   3.529  1.00  0.00    -0.354 N 
ATOM     32  N   UNL     1       8.513  -6.908   6.006  1.00  0.00    -0.248 NA
ATOM     33  C   UNL     1       8.697  -6.668   8.323  1.00  0.00     0.031 C 
ATOM     34  C   UNL     1      10.626  -9.860   3.536  1.00  0.00     0.029 A 
ATOM     35  C   UNL     1      10.028  -8.918   4.356  1.00  0.00     0.049 A 
ATOM     36  H   UNL     1       8.819  -7.271   3.824  1.00  0.00     0.167 HD
ATOM     37  C   UNL     1       9.414  -7.841   6.488  1.00  0.00     0.074 A 
ATOM     38  C   UNL     1       9.521  -7.623   7.916  1.00  0.00     0.031 C 
ATOM     39  C   UNL     1      10.104  -8.771   5.787  1.00  0.00     0.037 A 
BRANCH  26  40
ATOM     40  C   UNL     1       8.529  -8.761  -0.162  1.00  0.00     0.064 A 
ATOM     41  C   UNL     1       9.086  -8.046  -1.237  1.00  0.00     0.173 A 
ATOM     42  C   UNL     1       8.155 -10.090  -0.392  1.00  0.00     0.173 A 
ATOM     43  F   UNL     1       9.494  -6.778  -1.072  1.00  0.00    -0.203 F 
ATOM     44  C   UNL     1       9.247  -8.636  -2.491  1.00  0.00     0.198 A 
ATOM     45  C   UNL     1       8.316 -10.678  -1.646  1.00  0.00     0.198 A 
ATOM     46  F   UNL     1       7.635 -10.823   0.603  1.00  0.00    -0.203 F 
ATOM     47  F   UNL     1       9.779  -7.934  -3.503  1.00  0.00    -0.200 F 
ATOM     48  C   UNL     1       8.860  -9.951  -2.695  1.00  0.00     0.200 A 
ATOM     49  F   UNL     1       7.946 -11.951  -1.838  1.00  0.00    -0.200 F 
ATOM     50  F   UNL     1       9.008 -10.519  -3.900  1.00  0.00    -0.200 F 
ENDBRANCH  26  40
BRANCH  27  51
ATOM     51  C   UNL     1       7.060  -4.240   8.346  1.00  0.00     0.064 A 
ATOM     52  C   UNL     1       8.085  -3.549   9.001  1.00  0.00     0.173 A 
ATOM     53  C   UNL     1       5.778  -4.213   8.924  1.00  0.00     0.173 A 
ATOM     54  F   UNL     1       9.327  -3.552   8.495  1.00  0.00    -0.203 F 
ATOM     55  C   UNL     1       7.845  -2.878  10.200  1.00  0.00     0.198 A 
ATOM     56  C   UNL     1       5.535  -3.526  10.112  1.00  0.00     0.198 A 
ATOM     57  F   UNL     1       4.769  -4.878   8.341  1.00  0.00    -0.203 F 
ATOM     58  F   UNL     1       8.853  -2.263  10.833  1.00  0.00    -0.200 F 
ATOM     59  C   UNL     1       6.572  -2.865  10.752  1.00  0.00     0.200 A 
ATOM     60  F   UNL     1       4.309  -3.526  10.653  1.00  0.00    -0.200 F 
ATOM     61  F   UNL     1       6.350  -2.230  11.912  1.00  0.00    -0.200 F 
ENDBRANCH  27  51
BRANCH  39  62
ATOM     62  C   UNL     1      11.014  -9.675   6.559  1.00  0.00     0.064 A 
ATOM     63  C   UNL     1      10.517 -10.589   7.503  1.00  0.00     0.173 A 
ATOM     64  C   UNL     1      12.399  -9.638   6.347  1.00  0.00     0.173 A 
ATOM     65  F   UNL     1       9.200 -10.657   7.752  1.00  0.00    -0.203 F 
ATOM     66  C   UNL     1      11.378 -11.401   8.234  1.00  0.00     0.198 A 
ATOM     67  C   UNL     1      13.253 -10.480   7.051  1.00  0.00     0.198 A 
ATOM     68  F   UNL     1      12.926  -8.786   5.455  1.00  0.00    -0.203 F 
ATOM     69  F   UNL     1      10.886 -12.216   9.177  1.00  0.00    -0.200 F 
ATOM     70  C   UNL     1      12.744 -11.351   8.002  1.00  0.00     0.200 A 
ATOM     71  F   UNL     1      14.572 -10.443   6.814  1.00  0.00    -0.200 F 
ATOM     72  F   UNL     1      13.572 -12.137   8.703  1.00  0.00    -0.200 F 
ENDBRANCH  39  62
ENDBRANCH  13  14
ENDBRANCH   6   8
ENDBRANCH   5   6
ENDBRANCH   4   5
ENDBRANCH   3   4
ENDBRANCH   2   3
ENDBRANCH   1   2
BRANCH   1  73
ATOM     73  C   UNL     1       1.990   2.958   1.452  1.00  0.00     0.188 C 
BRANCH  73  74
ATOM     74  O   UNL     1       2.647   4.038   2.106  1.00  0.00    -0.376 OA
BRANCH  74  75
ATOM     75  C   UNL     1       4.036   3.916   2.365  1.00  0.00     0.202 C 
BRANCH  75  76
ATOM     76  C   UNL     1       4.445   3.139   3.622  1.00  0.00     0.261 C 
BRANCH  76  77
ATOM     77  O   UNL     1       4.239   1.709   3.664  1.00  0.00    -0.463 OA
BRANCH  77  78
ATOM     78  C   UNL     1       3.057   1.227   4.194  1.00  0.00     0.316 C 
ATOM     79  O   UNL     1       2.003   1.849   4.203  1.00  0.00    -0.251 OA
BRANCH  78  80
ATOM     80  C   UNL     1       3.334  -0.122   4.975  1.00  0.00     0.116 C 
ATOM     81  C   UNL     1       3.107   0.853   6.198  1.00  0.00     0.141 C 
ATOM     82  C   UNL     1       2.451  -1.230   5.662  1.00  0.00     0.119 C 
ATOM     83  C   UNL     1       3.277  -0.786   3.557  1.00  0.00     0.142 C 
ATOM     84  N   UNL     1       3.318   0.056   7.366  1.00  0.00    -0.341 N 
ATOM     85  C   UNL     1       3.004  -1.250   7.079  1.00  0.00     0.228 C 
ATOM     86  C   UNL     1       2.663  -2.591   5.002  1.00  0.00     0.136 C 
ATOM     87  N   UNL     1       3.293  -2.233   3.767  1.00  0.00    -0.324 N 
ATOM     88  O   UNL     1       3.123  -2.209   7.818  1.00  0.00    -0.274 OA
BRANCH  84  89
ATOM     89  C   UNL     1       3.723   0.628   8.638  1.00  0.00     0.123 C 
BRANCH  89  90
ATOM     90  C   UNL     1       2.619   0.832   9.637  1.00  0.00     0.008 C 
ATOM     91  C   UNL     1       1.204   0.305   9.539  1.00  0.00     0.006 C 
ATOM     92  C   UNL     1       2.183  -0.354  10.465  1.00  0.00     0.006 C 
ENDBRANCH  89  90
ENDBRANCH  84  89
BRANCH  87  93
ATOM     93  C   UNL     1       3.885  -3.141   2.950  1.00  0.00     0.298 A 
ATOM     94  N   UNL     1       3.389  -4.551   2.146  1.00  0.00    -0.193 NA
ATOM     95  O   UNL     1       5.588  -2.725   2.154  1.00  0.00    -0.423 OA
ATOM     96  C   UNL     1       4.502  -4.975   0.652  1.00  0.00     0.111 A 
ATOM     97  C   UNL     1       5.944  -3.927   0.713  1.00  0.00     0.156 A 
ATOM     98  C   UNL     1       4.290  -5.687  -0.540  1.00  0.00     0.032 A 
ATOM     99  C   UNL     1       6.848  -3.951  -0.329  1.00  0.00     0.049 A 
ATOM    100  C   UNL     1       5.282  -5.562  -1.532  1.00  0.00     0.003 A 
ATOM    101  C   UNL     1       6.475  -4.775  -1.421  1.00  0.00     0.004 A 
ENDBRANCH  87  93
ENDBRANCH  78  80
ENDBRANCH  77  78
ENDBRANCH  76  77
ENDBRANCH  75  76
ENDBRANCH  74  75
ENDBRANCH  73  74
ENDBRANCH   1  73
TORSDOF 20
