REMARK SMILES O=C(OCCOCCOCCOC(=O)c1ccc(-c2c3nc(c(-c4c(F)c(F)c(F)c(F)c4F)c4ccc([nH]4)c(-c4c(F)c(F)c(F)c(F)c4F)c4nc(c(-c5c(F)c(F)c(F)c(F)c5F)c5ccc2[nH]5)C=C4)C=C3)cc1)C1=Cc2cc(Cl)c(Cl)c(Cl)c2O[C@@H]1C(F)(F)F
REMARK SMILES IDX 8 1 7 2 6 3 5 4 4 5 3 6 2 7 1 8 78 9 79 10 90 11 80 12 89 13
REMARK SMILES IDX 81 14 88 15 82 16 86 17 83 18 84 19 87 20 85 21 91 22 92 23
REMARK SMILES IDX 93 24 94 25 9 26 10 27 11 28 12 29 13 30 14 31 15 32 16 33
REMARK SMILES IDX 77 34 17 35 76 36 18 37 19 38 20 39 70 40 21 41 75 42 69 43
REMARK SMILES IDX 71 44 22 45 74 46 68 47 67 48 23 50 55 51 35 52 54 53 36 54
REMARK SMILES IDX 39 55 53 56 72 57 37 58 38 59 52 61 73 62 40 63 24 64 25 65
REMARK SMILES IDX 33 66 26 67 27 68 31 69 34 70 28 71 29 72 32 73 30 74 56 75
REMARK SMILES IDX 57 76 65 77 58 78 59 79 63 80 66 81 60 82 61 83 64 84 62 85
REMARK SMILES IDX 41 86 42 87 50 88 43 89 44 90 48 91 51 92 45 93 46 94 49 95
REMARK SMILES IDX 47 96
REMARK H PARENT 71 49 39 60
REMARK Flexibility Score: inf
ROOT
ATOM      1  C   UNL     1       2.112   1.245   3.309  1.00  0.00     0.188 C 
ENDROOT
BRANCH   1   2
ATOM      2  C   UNL     1       2.386   0.063   2.368  1.00  0.00     0.188 C 
BRANCH   2   3
ATOM      3  O   UNL     1       3.751  -0.459   2.066  1.00  0.00    -0.376 OA
BRANCH   3   4
ATOM      4  C   UNL     1       4.497  -0.689   0.531  1.00  0.00     0.202 C 
BRANCH   4   5
ATOM      5  C   UNL     1       3.787   0.160  -1.340  1.00  0.00     0.261 C 
BRANCH   5   6
ATOM      6  O   UNL     1       2.810  -0.483  -2.310  1.00  0.00    -0.460 OA
BRANCH   6   7
ATOM      7  C   UNL     1       2.974  -1.811  -2.378  1.00  0.00     0.338 C 
ATOM      8  O   UNL     1       2.253  -2.626  -2.899  1.00  0.00    -0.246 OA
BRANCH   7   9
ATOM      9  C   UNL     1       3.877  -1.930  -1.243  1.00  0.00     0.087 C 
ATOM     10  C   UNL     1       5.266  -1.547  -1.473  1.00  0.00     0.027 C 
ATOM     11  C   UNL     1       2.672  -1.015  -0.066  1.00  0.00     0.316 C 
ATOM     12  C   UNL     1       5.983   0.011  -0.939  1.00  0.00     0.020 A 
ATOM     13  O   UNL     1       3.360   0.759   0.384  1.00  0.00    -0.474 OA
ATOM     14  C   UNL     1       7.262   0.311  -1.313  1.00  0.00     0.034 A 
ATOM     15  C   UNL     1       5.071   1.212  -0.095  1.00  0.00     0.148 A 
ATOM     16  C   UNL     1       7.721   1.591  -0.935  1.00  0.00     0.062 A 
ATOM     17  C   UNL     1       5.582   2.450   0.213  1.00  0.00     0.103 A 
ATOM     18  Cl  UNL     1       9.366   1.915  -1.433  1.00  0.00    -0.083 Cl
ATOM     19  C   UNL     1       6.936   2.610  -0.212  1.00  0.00     0.082 A 
ATOM     20  Cl  UNL     1       4.658   3.683   0.943  1.00  0.00    -0.079 Cl
ATOM     21  Cl  UNL     1       7.739   4.130   0.134  1.00  0.00    -0.081 Cl
BRANCH  11  22
ATOM     22  C   UNL     1       2.421  -2.415   0.844  1.00  0.00     0.430 C 
ATOM     23  F   UNL     1       2.346  -2.394   2.172  1.00  0.00    -0.167 F 
ATOM     24  F   UNL     1       1.261  -2.988   0.418  1.00  0.00    -0.167 F 
ATOM     25  F   UNL     1       3.375  -3.367   0.593  1.00  0.00    -0.167 F 
ENDBRANCH  11  22
ENDBRANCH   7   9
ENDBRANCH   6   7
ENDBRANCH   5   6
ENDBRANCH   4   5
ENDBRANCH   3   4
ENDBRANCH   2   3
ENDBRANCH   1   2
BRANCH   1  26
ATOM     26  O   UNL     1       3.074   2.254   3.448  1.00  0.00    -0.376 OA
BRANCH  26  27
ATOM     27  C   UNL     1       4.374   1.825   3.823  1.00  0.00     0.202 C 
BRANCH  27  28
ATOM     28  C   UNL     1       4.507   0.965   5.087  1.00  0.00     0.261 C 
BRANCH  28  29
ATOM     29  O   UNL     1       4.003  -0.381   4.939  1.00  0.00    -0.460 OA
BRANCH  29  30
ATOM     30  C   UNL     1       2.950  -0.739   5.716  1.00  0.00     0.338 C 
ATOM     31  O   UNL     1       2.355  -0.050   6.526  1.00  0.00    -0.246 OA
BRANCH  30  32
ATOM     32  C   UNL     1       2.511  -2.099   5.348  1.00  0.00     0.060 A 
ATOM     33  C   UNL     1       1.216  -2.302   4.845  1.00  0.00     0.016 A 
ATOM     34  C   UNL     1       3.363  -3.181   5.564  1.00  0.00     0.016 A 
ATOM     35  C   UNL     1       0.781  -3.592   4.529  1.00  0.00     0.010 A 
ATOM     36  C   UNL     1       2.910  -4.474   5.297  1.00  0.00     0.010 A 
ATOM     37  C   UNL     1       1.611  -4.686   4.799  1.00  0.00    -0.014 A 
BRANCH  37  38
ATOM     38  C   UNL     1       1.038  -6.053   4.833  1.00  0.00     0.031 A 
ATOM     39  C   UNL     1       0.502  -6.543   6.148  1.00  0.00     0.074 A 
ATOM     40  C   UNL     1       1.005  -6.842   3.746  1.00  0.00     0.049 A 
ATOM     41  N   UNL     1       0.007  -7.710   6.468  1.00  0.00    -0.248 NA
ATOM     42  C   UNL     1       0.544  -5.579   7.260  1.00  0.00     0.031 C 
ATOM     43  C   UNL     1       1.459  -6.465   2.412  1.00  0.00     0.029 A 
ATOM     44  N   UNL     1       0.576  -8.139   3.606  1.00  0.00    -0.354 N 
ATOM     45  C   UNL     1      -0.317  -7.620   7.816  1.00  0.00     0.074 A 
ATOM     46  C   UNL     1       0.077  -6.303   8.263  1.00  0.00     0.031 C 
ATOM     47  C   UNL     1       1.294  -7.513   1.585  1.00  0.00     0.029 A 
ATOM     48  C   UNL     1       0.756  -8.645   2.342  1.00  0.00     0.049 A 
ATOM     49  H   UNL     1       0.176  -8.658   4.341  1.00  0.00     0.167 HD
ATOM     50  C   UNL     1      -0.897  -8.552   8.608  1.00  0.00     0.037 A 
ATOM     51  C   UNL     1       0.529  -9.885   1.865  1.00  0.00     0.037 A 
ATOM     52  C   UNL     1      -1.254  -9.871   8.162  1.00  0.00     0.049 A 
ATOM     53  C   UNL     1      -0.031 -10.940   2.791  1.00  0.00     0.074 A 
ATOM     54  C   UNL     1      -1.852 -10.891   8.878  1.00  0.00     0.029 A 
ATOM     55  N   UNL     1      -1.020 -10.361   6.884  1.00  0.00    -0.354 N 
ATOM     56  N   UNL     1      -0.372 -10.842   4.054  1.00  0.00    -0.248 NA
ATOM     57  C   UNL     1      -0.242 -12.278   2.221  1.00  0.00     0.031 C 
ATOM     58  C   UNL     1      -1.905 -12.023   8.059  1.00  0.00     0.029 A 
ATOM     59  C   UNL     1      -1.427 -11.683   6.803  1.00  0.00     0.049 A 
ATOM     60  H   UNL     1      -0.624  -9.846   6.145  1.00  0.00     0.167 HD
ATOM     61  C   UNL     1      -0.871 -12.088   4.418  1.00  0.00     0.074 A 
ATOM     62  C   UNL     1      -0.798 -12.922   3.237  1.00  0.00     0.031 C 
ATOM     63  C   UNL     1      -1.352 -12.501   5.618  1.00  0.00     0.037 A 
BRANCH  50  64
ATOM     64  C   UNL     1      -1.125  -8.183  10.047  1.00  0.00     0.064 A 
ATOM     65  C   UNL     1      -2.030  -7.177  10.423  1.00  0.00     0.173 A 
ATOM     66  C   UNL     1      -0.418  -8.839  11.067  1.00  0.00     0.173 A 
ATOM     67  F   UNL     1      -2.722  -6.506   9.489  1.00  0.00    -0.203 F 
ATOM     68  C   UNL     1      -2.181  -6.809  11.758  1.00  0.00     0.198 A 
ATOM     69  C   UNL     1      -0.604  -8.498  12.404  1.00  0.00     0.198 A 
ATOM     70  F   UNL     1       0.458  -9.810  10.768  1.00  0.00    -0.203 F 
ATOM     71  F   UNL     1      -2.992  -5.793  12.084  1.00  0.00    -0.200 F 
ATOM     72  C   UNL     1      -1.473  -7.474  12.747  1.00  0.00     0.200 A 
ATOM     73  F   UNL     1       0.068  -9.155  13.359  1.00  0.00    -0.200 F 
ATOM     74  F   UNL     1      -1.619  -7.121  14.031  1.00  0.00    -0.200 F 
ENDBRANCH  50  64
BRANCH  51  75
ATOM     75  C   UNL     1       0.830 -10.205   0.442  1.00  0.00     0.064 A 
ATOM     76  C   UNL     1      -0.194 -10.530  -0.460  1.00  0.00     0.173 A 
ATOM     77  C   UNL     1       2.146 -10.211  -0.043  1.00  0.00     0.173 A 
ATOM     78  F   UNL     1      -1.468 -10.568  -0.041  1.00  0.00    -0.203 F 
ATOM     79  C   UNL     1       0.088 -10.865  -1.783  1.00  0.00     0.198 A 
ATOM     80  C   UNL     1       2.425 -10.513  -1.375  1.00  0.00     0.198 A 
ATOM     81  F   UNL     1       3.166  -9.918   0.777  1.00  0.00    -0.203 F 
ATOM     82  F   UNL     1      -0.905 -11.225  -2.607  1.00  0.00    -0.200 F 
ATOM     83  C   UNL     1       1.397 -10.848  -2.242  1.00  0.00     0.200 A 
ATOM     84  F   UNL     1       3.690 -10.484  -1.816  1.00  0.00    -0.200 F 
ATOM     85  F   UNL     1       1.667 -11.166  -3.515  1.00  0.00    -0.200 F 
ENDBRANCH  51  75
BRANCH  63  86
ATOM     86  C   UNL     1      -1.890 -13.904   5.708  1.00  0.00     0.064 A 
ATOM     87  C   UNL     1      -1.059 -15.031   5.614  1.00  0.00     0.173 A 
ATOM     88  C   UNL     1      -3.258 -14.120   5.944  1.00  0.00     0.173 A 
ATOM     89  F   UNL     1       0.254 -14.885   5.383  1.00  0.00    -0.203 F 
ATOM     90  C   UNL     1      -1.583 -16.318   5.715  1.00  0.00     0.198 A 
ATOM     91  C   UNL     1      -3.770 -15.406   6.088  1.00  0.00     0.198 A 
ATOM     92  F   UNL     1      -4.098 -13.080   6.056  1.00  0.00    -0.203 F 
ATOM     93  F   UNL     1      -0.779 -17.380   5.561  1.00  0.00    -0.200 F 
ATOM     94  C   UNL     1      -2.935 -16.504   5.961  1.00  0.00     0.200 A 
ATOM     95  F   UNL     1      -5.073 -15.581   6.351  1.00  0.00    -0.200 F 
ATOM     96  F   UNL     1      -3.434 -17.743   6.070  1.00  0.00    -0.200 F 
ENDBRANCH  63  86
ENDBRANCH  37  38
ENDBRANCH  30  32
ENDBRANCH  29  30
ENDBRANCH  28  29
ENDBRANCH  27  28
ENDBRANCH  26  27
ENDBRANCH   1  26
TORSDOF 18
