REMARK SMILES CC1(C)CC[N@H+](CCOc2ccc(C(=O)OCCOCCOCCOC(=O)c3ccc(-c4c5nc(c(-c6c(F)c(F)c(F)c(F)c6F)c6ccc([nH]6)c(-c6c(F)c(F)c(F)c(F)c6F)c6nc(c(-c7c(F)c(F)c(F)c(F)c7F)c7ccc4[nH]7)C=C6)C=C5)cc3)cc2)C1
REMARK SMILES IDX 20 1 19 2 18 3 17 4 16 5 14 6 15 7 13 8 10 9 11 10 92 11
REMARK SMILES IDX 12 12 91 13 9 14 8 15 7 16 6 17 1 18 2 19 3 20 4 21 93 22
REMARK SMILES IDX 5 23 21 25 22 26 23 27 24 28 25 29 26 30 27 31 28 32 29 33
REMARK SMILES IDX 90 34 30 35 89 36 31 37 32 38 33 39 83 40 34 41 88 42 82 43
REMARK SMILES IDX 84 44 35 45 87 46 81 47 80 48 36 50 68 51 48 52 67 53 49 54
REMARK SMILES IDX 52 55 66 56 85 57 50 58 51 59 65 61 86 62 53 63 37 64 38 65
REMARK SMILES IDX 46 66 39 67 40 68 44 69 47 70 41 71 42 72 45 73 43 74 69 75
REMARK SMILES IDX 70 76 78 77 71 78 72 79 76 80 79 81 73 82 74 83 77 84 75 85
REMARK SMILES IDX 54 86 55 87 63 88 56 89 57 90 61 91 64 92 58 93 59 94 62 95
REMARK SMILES IDX 60 96
REMARK H PARENT 6 24 84 49 52 60
REMARK Flexibility Score: inf
ROOT
ATOM      1  C   UNL     1      -1.052  -6.117  -1.677  1.00  0.00     0.188 C 
ENDROOT
BRANCH   1   2
ATOM      2  O   UNL     1      -2.270  -6.037  -2.390  1.00  0.00    -0.376 OA
BRANCH   2   3
ATOM      3  C   UNL     1      -2.637  -4.828  -3.029  1.00  0.00     0.202 C 
BRANCH   3   4
ATOM      4  C   UNL     1      -2.595  -3.491  -2.271  1.00  0.00     0.261 C 
BRANCH   4   5
ATOM      5  O   UNL     1      -1.428  -3.266  -1.462  1.00  0.00    -0.460 OA
BRANCH   5   6
ATOM      6  C   UNL     1      -1.597  -3.335  -0.116  1.00  0.00     0.338 C 
ATOM      7  O   UNL     1      -2.662  -3.518   0.454  1.00  0.00    -0.246 OA
BRANCH   6   8
ATOM      8  C   UNL     1      -0.311  -3.124   0.632  1.00  0.00     0.060 A 
ATOM      9  C   UNL     1       1.752  -1.883   2.005  1.00  0.00     0.119 A 
ATOM     10  C   UNL     1       0.617  -2.289   2.705  1.00  0.00     0.047 A 
ATOM     11  C   UNL     1       2.002  -2.355   0.728  1.00  0.00     0.047 A 
ATOM     12  C   UNL     1      -0.414  -2.933   2.016  1.00  0.00     0.019 A 
ATOM     13  C   UNL     1       0.937  -2.903   0.015  1.00  0.00     0.019 A 
BRANCH   9  14
ATOM     14  O   UNL     1       2.544  -0.856   2.447  1.00  0.00    -0.488 OA
BRANCH  14  15
ATOM     15  C   UNL     1       1.833   0.413   2.402  1.00  0.00     0.290 C 
BRANCH  15  16
ATOM     16  C   UNL     1       2.266   1.349   1.230  1.00  0.00     0.304 C 
BRANCH  16  17
ATOM     17  N   UNL     1       1.425   1.608   0.034  1.00  0.00    -0.332 N 
ATOM     18  C   UNL     1      -1.537   1.463  -1.688  1.00  0.00     0.017 C 
ATOM     19  C   UNL     1      -0.951   1.115  -0.311  1.00  0.00     0.019 C 
ATOM     20  C   UNL     1      -2.099   0.817   0.662  1.00  0.00     0.017 C 
ATOM     21  C   UNL     1      -0.066  -0.097  -0.491  1.00  0.00     0.073 C 
ATOM     22  C   UNL     1       0.061   2.139   0.263  1.00  0.00     0.268 C 
ATOM     23  C   UNL     1       1.289   0.465  -0.855  1.00  0.00     0.263 C 
ATOM     24  H   UNL     1       1.976   2.350  -0.396  1.00  0.00     0.348 HD
ENDBRANCH  16  17
ENDBRANCH  15  16
ENDBRANCH  14  15
ENDBRANCH   9  14
ENDBRANCH   6   8
ENDBRANCH   5   6
ENDBRANCH   4   5
ENDBRANCH   3   4
ENDBRANCH   2   3
ENDBRANCH   1   2
BRANCH   1  25
ATOM     25  C   UNL     1       0.221  -5.449  -2.221  1.00  0.00     0.188 C 
BRANCH  25  26
ATOM     26  O   UNL     1       0.312  -4.997  -3.544  1.00  0.00    -0.376 OA
BRANCH  26  27
ATOM     27  C   UNL     1       0.366  -5.947  -4.588  1.00  0.00     0.202 C 
BRANCH  27  28
ATOM     28  C   UNL     1       0.904  -7.383  -4.406  1.00  0.00     0.261 C 
BRANCH  28  29
ATOM     29  O   UNL     1       0.773  -7.992  -3.109  1.00  0.00    -0.460 OA
BRANCH  29  30
ATOM     30  C   UNL     1       1.912  -8.092  -2.373  1.00  0.00     0.338 C 
ATOM     31  O   UNL     1       3.039  -7.757  -2.716  1.00  0.00    -0.246 OA
BRANCH  30  32
ATOM     32  C   UNL     1       1.573  -8.444  -0.973  1.00  0.00     0.060 A 
ATOM     33  C   UNL     1       1.875  -7.537   0.059  1.00  0.00     0.016 A 
ATOM     34  C   UNL     1       0.980  -9.668  -0.671  1.00  0.00     0.016 A 
ATOM     35  C   UNL     1       1.610  -7.863   1.392  1.00  0.00     0.010 A 
ATOM     36  C   UNL     1       0.745 -10.007   0.667  1.00  0.00     0.010 A 
ATOM     37  C   UNL     1       1.089  -9.122   1.709  1.00  0.00    -0.014 A 
BRANCH  37  38
ATOM     38  C   UNL     1       1.101  -9.610   3.114  1.00  0.00     0.031 A 
ATOM     39  C   UNL     1       2.228 -10.513   3.542  1.00  0.00     0.074 A 
ATOM     40  C   UNL     1       0.142  -9.278   3.996  1.00  0.00     0.049 A 
ATOM     41  N   UNL     1       2.405 -11.157   4.668  1.00  0.00    -0.248 NA
ATOM     42  C   UNL     1       3.300 -10.724   2.555  1.00  0.00     0.031 C 
ATOM     43  C   UNL     1      -0.974  -8.374   3.736  1.00  0.00     0.029 A 
ATOM     44  N   UNL     1      -0.050  -9.687   5.295  1.00  0.00    -0.354 N 
ATOM     45  C   UNL     1       3.595 -11.857   4.520  1.00  0.00     0.074 A 
ATOM     46  C   UNL     1       4.083 -11.585   3.185  1.00  0.00     0.031 C 
ATOM     47  C   UNL     1      -1.750  -8.313   4.833  1.00  0.00     0.029 A 
ATOM     48  C   UNL     1      -1.205  -9.203   5.860  1.00  0.00     0.049 A 
ATOM     49  H   UNL     1       0.580 -10.272   5.775  1.00  0.00     0.167 HD
ATOM     50  C   UNL     1       4.230 -12.650   5.416  1.00  0.00     0.037 A 
ATOM     51  C   UNL     1      -1.771  -9.472   7.055  1.00  0.00     0.037 A 
ATOM     52  C   UNL     1       3.744 -12.926   6.742  1.00  0.00     0.049 A 
ATOM     53  C   UNL     1      -1.090 -10.429   8.005  1.00  0.00     0.074 A 
ATOM     54  C   UNL     1       4.322 -13.708   7.727  1.00  0.00     0.029 A 
ATOM     55  N   UNL     1       2.558 -12.435   7.268  1.00  0.00    -0.354 N 
ATOM     56  N   UNL     1       0.043 -11.074   7.866  1.00  0.00    -0.248 NA
ATOM     57  C   UNL     1      -1.770 -10.693   9.282  1.00  0.00     0.031 C 
ATOM     58  C   UNL     1       3.456 -13.742   8.824  1.00  0.00     0.029 A 
ATOM     59  C   UNL     1       2.374 -12.921   8.553  1.00  0.00     0.049 A 
ATOM     60  H   UNL     1       1.938 -11.832   6.797  1.00  0.00     0.167 HD
ATOM     61  C   UNL     1       0.231 -11.782   9.049  1.00  0.00     0.074 A 
ATOM     62  C   UNL     1      -0.901 -11.482   9.898  1.00  0.00     0.031 C 
ATOM     63  C   UNL     1       1.252 -12.603   9.400  1.00  0.00     0.037 A 
BRANCH  50  64
ATOM     64  C   UNL     1       5.508 -13.308   4.977  1.00  0.00     0.064 A 
ATOM     65  C   UNL     1       6.682 -12.571   4.758  1.00  0.00     0.173 A 
ATOM     66  C   UNL     1       5.566 -14.699   4.805  1.00  0.00     0.173 A 
ATOM     67  F   UNL     1       6.678 -11.237   4.894  1.00  0.00    -0.203 F 
ATOM     68  C   UNL     1       7.857 -13.200   4.354  1.00  0.00     0.198 A 
ATOM     69  C   UNL     1       6.752 -15.328   4.436  1.00  0.00     0.198 A 
ATOM     70  F   UNL     1       4.474 -15.453   5.007  1.00  0.00    -0.203 F 
ATOM     71  F   UNL     1       8.951 -12.470   4.098  1.00  0.00    -0.200 F 
ATOM     72  C   UNL     1       7.893 -14.578   4.202  1.00  0.00     0.200 A 
ATOM     73  F   UNL     1       6.788 -16.662   4.306  1.00  0.00    -0.200 F 
ATOM     74  F   UNL     1       9.027 -15.182   3.822  1.00  0.00    -0.200 F 
ENDBRANCH  50  64
BRANCH  51  75
ATOM     75  C   UNL     1      -3.066  -8.841   7.429  1.00  0.00     0.064 A 
ATOM     76  C   UNL     1      -3.146  -7.926   8.490  1.00  0.00     0.173 A 
ATOM     77  C   UNL     1      -4.257  -9.169   6.764  1.00  0.00     0.173 A 
ATOM     78  F   UNL     1      -2.042  -7.604   9.180  1.00  0.00    -0.203 F 
ATOM     79  C   UNL     1      -4.368  -7.384   8.885  1.00  0.00     0.198 A 
ATOM     80  C   UNL     1      -5.473  -8.600   7.138  1.00  0.00     0.198 A 
ATOM     81  F   UNL     1      -4.241 -10.044   5.748  1.00  0.00    -0.203 F 
ATOM     82  F   UNL     1      -4.422  -6.560   9.941  1.00  0.00    -0.200 F 
ATOM     83  C   UNL     1      -5.529  -7.716   8.205  1.00  0.00     0.200 A 
ATOM     84  F   UNL     1      -6.592  -8.917   6.473  1.00  0.00    -0.200 F 
ATOM     85  F   UNL     1      -6.704  -7.195   8.586  1.00  0.00    -0.200 F 
ENDBRANCH  51  75
BRANCH  63  86
ATOM     86  C   UNL     1       1.234 -13.190  10.785  1.00  0.00     0.064 A 
ATOM     87  C   UNL     1       0.305 -14.168  11.169  1.00  0.00     0.173 A 
ATOM     88  C   UNL     1       2.196 -12.797  11.730  1.00  0.00     0.173 A 
ATOM     89  F   UNL     1      -0.642 -14.574  10.310  1.00  0.00    -0.203 F 
ATOM     90  C   UNL     1       0.320 -14.707  12.454  1.00  0.00     0.198 A 
ATOM     91  C   UNL     1       2.231 -13.364  13.001  1.00  0.00     0.198 A 
ATOM     92  F   UNL     1       3.116 -11.873  11.415  1.00  0.00    -0.203 F 
ATOM     93  F   UNL     1      -0.611 -15.601  12.815  1.00  0.00    -0.200 F 
ATOM     94  C   UNL     1       1.287 -14.311  13.366  1.00  0.00     0.200 A 
ATOM     95  F   UNL     1       3.179 -12.993  13.873  1.00  0.00    -0.200 F 
ATOM     96  F   UNL     1       1.306 -14.837  14.598  1.00  0.00    -0.200 F 
ENDBRANCH  63  86
ENDBRANCH  37  38
ENDBRANCH  30  32
ENDBRANCH  29  30
ENDBRANCH  28  29
ENDBRANCH  27  28
ENDBRANCH  26  27
ENDBRANCH  25  26
ENDBRANCH   1  25
TORSDOF 21
