REMARK SMILES C=C(C(=O)OCCOCCOCCOC(=O)c1ccc(-c2c3nc(c(-c4c(F)c(F)c(F)c(F)c4F)c4ccc([nH]4)c(-c4c(F)c(F)c(F)c(F)c4F)c4nc(c(-c5c(F)c(F)c(F)c(F)c5F)c5ccc2[nH]5)C=C4)C=C3)cc1)[C@@H]1CC[C@]2(C)CCCC(=C)[C@H]2[C@H]1O
REMARK SMILES IDX 9 1 8 2 7 3 6 4 5 5 3 6 4 7 2 8 1 9 80 10 81 11 91 12 82 13
REMARK SMILES IDX 90 14 83 15 88 16 84 17 85 18 87 19 89 20 86 21 92 22 10 24
REMARK SMILES IDX 11 25 12 26 13 27 14 28 15 29 16 30 17 31 18 32 79 33 19 34
REMARK SMILES IDX 78 35 20 36 21 37 22 38 72 39 23 40 77 41 71 42 73 43 24 44
REMARK SMILES IDX 76 45 70 46 69 47 25 49 57 50 37 51 56 52 38 53 41 54 55 55
REMARK SMILES IDX 74 56 39 57 40 58 54 60 75 61 42 62 26 63 27 64 35 65 28 66
REMARK SMILES IDX 29 67 33 68 36 69 30 70 31 71 34 72 32 73 58 74 59 75 67 76
REMARK SMILES IDX 60 77 61 78 65 79 68 80 62 81 63 82 66 83 64 84 43 85 44 86
REMARK SMILES IDX 52 87 45 88 46 89 50 90 53 91 47 92 48 93 51 94 49 95
REMARK H PARENT 92 23 73 48 41 59
REMARK Flexibility Score: inf
ROOT
ATOM      1  C   UNL     1      -2.768   2.135   1.340  1.00  0.00     0.188 C 
ENDROOT
BRANCH   1   2
ATOM      2  O   UNL     1      -4.094   1.757   1.059  1.00  0.00    -0.376 OA
BRANCH   2   3
ATOM      3  C   UNL     1      -4.346   0.749   0.097  1.00  0.00     0.202 C 
BRANCH   3   4
ATOM      4  C   UNL     1      -3.349   0.432  -1.028  1.00  0.00     0.261 C 
BRANCH   4   5
ATOM      5  O   UNL     1      -1.997   0.234  -0.588  1.00  0.00    -0.460 OA
BRANCH   5   6
ATOM      6  C   UNL     1      -1.014   1.045  -1.078  1.00  0.00     0.333 C 
ATOM      7  O   UNL     1      -1.175   2.001  -1.830  1.00  0.00    -0.247 OA
BRANCH   6   8
ATOM      8  C   UNL     1       0.306   0.658  -0.489  1.00  0.00     0.036 C 
ATOM      9  C   UNL     1       0.460  -0.680  -0.365  1.00  0.00     0.020 C 
BRANCH   8  10
ATOM     10  C   UNL     1       1.420   1.714  -0.269  1.00  0.00     0.055 C 
ATOM     11  C   UNL     1       2.727   1.062   0.222  1.00  0.00     0.012 C 
ATOM     12  C   UNL     1       1.209   3.020   0.612  1.00  0.00     0.129 C 
ATOM     13  C   UNL     1       2.615   0.679   1.702  1.00  0.00     0.008 C 
ATOM     14  C   UNL     1       1.534   2.926   2.165  1.00  0.00     0.050 C 
ATOM     15  C   UNL     1       2.637   1.916   2.610  1.00  0.00    -0.024 C 
ATOM     16  C   UNL     1       1.756   4.163   3.060  1.00  0.00    -0.071 C 
ATOM     17  C   UNL     1       4.072   2.506   2.587  1.00  0.00     0.012 C 
ATOM     18  C   UNL     1       2.293   1.492   4.075  1.00  0.00     0.008 C 
ATOM     19  C   UNL     1       1.499   3.888   4.538  1.00  0.00     0.031 C 
ATOM     20  C   UNL     1       2.228   5.366   2.688  1.00  0.00     0.008 C 
ATOM     21  C   UNL     1       2.250   2.666   5.065  1.00  0.00     0.005 C 
BRANCH  12  22
ATOM     22  O   UNL     1       1.984   4.058  -0.006  1.00  0.00    -0.392 OA
ATOM     23  H   UNL     1       2.924   3.820   0.022  1.00  0.00     0.211 HD
ENDBRANCH  12  22
ENDBRANCH   8  10
ENDBRANCH   6   8
ENDBRANCH   5   6
ENDBRANCH   4   5
ENDBRANCH   3   4
ENDBRANCH   2   3
ENDBRANCH   1   2
BRANCH   1  24
ATOM     24  C   UNL     1      -1.875   1.218   2.214  1.00  0.00     0.188 C 
BRANCH  24  25
ATOM     25  O   UNL     1      -2.358  -0.033   2.653  1.00  0.00    -0.376 OA
BRANCH  25  26
ATOM     26  C   UNL     1      -3.533  -0.019   3.451  1.00  0.00     0.202 C 
BRANCH  26  27
ATOM     27  C   UNL     1      -3.678   1.024   4.576  1.00  0.00     0.261 C 
BRANCH  27  28
ATOM     28  O   UNL     1      -3.463   2.395   4.170  1.00  0.00    -0.460 OA
BRANCH  28  29
ATOM     29  C   UNL     1      -2.748   3.159   5.035  1.00  0.00     0.338 C 
ATOM     30  O   UNL     1      -2.323   2.818   6.128  1.00  0.00    -0.246 OA
BRANCH  29  31
ATOM     31  C   UNL     1      -2.445   4.502   4.482  1.00  0.00     0.060 A 
ATOM     32  C   UNL     1      -1.601   4.629   3.384  1.00  0.00     0.016 A 
ATOM     33  C   UNL     1      -2.773   5.649   5.200  1.00  0.00     0.016 A 
ATOM     34  C   UNL     1      -1.046   5.855   3.033  1.00  0.00     0.010 A 
ATOM     35  C   UNL     1      -2.230   6.896   4.829  1.00  0.00     0.010 A 
ATOM     36  C   UNL     1      -1.310   7.005   3.770  1.00  0.00    -0.014 A 
BRANCH  36  37
ATOM     37  C   UNL     1      -0.493   8.237   3.532  1.00  0.00     0.031 A 
ATOM     38  C   UNL     1       0.288   8.844   4.672  1.00  0.00     0.074 A 
ATOM     39  C   UNL     1      -0.325   8.762   2.299  1.00  0.00     0.049 A 
ATOM     40  N   UNL     1       0.844  10.026   4.769  1.00  0.00    -0.248 NA
ATOM     41  C   UNL     1       0.472   8.002   5.866  1.00  0.00     0.031 C 
ATOM     42  C   UNL     1      -0.855   8.206   1.054  1.00  0.00     0.029 A 
ATOM     43  N   UNL     1       0.364   9.881   1.888  1.00  0.00    -0.354 N 
ATOM     44  C   UNL     1       1.357  10.102   6.059  1.00  0.00     0.074 A 
ATOM     45  C   UNL     1       1.074   8.837   6.701  1.00  0.00     0.031 C 
ATOM     46  C   UNL     1      -0.441   8.955   0.022  1.00  0.00     0.029 A 
ATOM     47  C   UNL     1       0.254  10.127   0.540  1.00  0.00     0.049 A 
ATOM     48  H   UNL     1       0.885  10.450   2.500  1.00  0.00     0.167 HD
ATOM     49  C   UNL     1       1.990  11.145   6.652  1.00  0.00     0.037 A 
ATOM     50  C   UNL     1       0.587  11.208  -0.192  1.00  0.00     0.037 A 
ATOM     51  C   UNL     1       2.336  12.370   5.975  1.00  0.00     0.049 A 
ATOM     52  C   UNL     1       1.187  12.400   0.502  1.00  0.00     0.074 A 
ATOM     53  C   UNL     1       2.957  13.496   6.486  1.00  0.00     0.029 A 
ATOM     54  N   UNL     1       2.109  12.618   4.629  1.00  0.00    -0.354 N 
ATOM     55  N   UNL     1       1.532  12.540   1.758  1.00  0.00    -0.248 NA
ATOM     56  C   UNL     1       1.411  13.598  -0.318  1.00  0.00     0.031 C 
ATOM     57  C   UNL     1       3.054  14.446   5.464  1.00  0.00     0.029 A 
ATOM     58  C   UNL     1       2.556  13.888   4.299  1.00  0.00     0.049 A 
ATOM     59  H   UNL     1       1.692  11.985   4.000  1.00  0.00     0.167 HD
ATOM     60  C   UNL     1       2.026  13.832   1.877  1.00  0.00     0.074 A 
ATOM     61  C   UNL     1       1.958  14.427   0.559  1.00  0.00     0.031 C 
ATOM     62  C   UNL     1       2.488  14.468   2.982  1.00  0.00     0.037 A 
BRANCH  49  63
ATOM     63  C   UNL     1       2.277  11.047   8.125  1.00  0.00     0.064 A 
ATOM     64  C   UNL     1       3.256  10.194   8.654  1.00  0.00     0.173 A 
ATOM     65  C   UNL     1       1.570  11.864   9.024  1.00  0.00     0.173 A 
ATOM     66  F   UNL     1       3.952   9.381   7.845  1.00  0.00    -0.203 F 
ATOM     67  C   UNL     1       3.496  10.143  10.027  1.00  0.00     0.198 A 
ATOM     68  C   UNL     1       1.837  11.836  10.390  1.00  0.00     0.198 A 
ATOM     69  F   UNL     1       0.626  12.705   8.574  1.00  0.00    -0.203 F 
ATOM     70  F   UNL     1       4.401   9.283  10.515  1.00  0.00    -0.200 F 
ATOM     71  C   UNL     1       2.794  10.969  10.891  1.00  0.00     0.200 A 
ATOM     72  F   UNL     1       1.168  12.649  11.219  1.00  0.00    -0.200 F 
ATOM     73  F   UNL     1       3.034  10.925  12.209  1.00  0.00    -0.200 F 
ENDBRANCH  49  63
BRANCH  50  74
ATOM     74  C   UNL     1       0.253  11.257  -1.644  1.00  0.00     0.064 A 
ATOM     75  C   UNL     1       1.251  11.349  -2.622  1.00  0.00     0.173 A 
ATOM     76  C   UNL     1      -1.082  11.224  -2.082  1.00  0.00     0.173 A 
ATOM     77  F   UNL     1       2.540  11.425  -2.259  1.00  0.00    -0.203 F 
ATOM     78  C   UNL     1       0.928  11.413  -3.978  1.00  0.00     0.198 A 
ATOM     79  C   UNL     1      -1.401  11.244  -3.437  1.00  0.00     0.198 A 
ATOM     80  F   UNL     1      -2.082  11.155  -1.190  1.00  0.00    -0.203 F 
ATOM     81  F   UNL     1       1.900  11.556  -4.889  1.00  0.00    -0.200 F 
ATOM     82  C   UNL     1      -0.396  11.347  -4.384  1.00  0.00     0.200 A 
ATOM     83  F   UNL     1      -2.683  11.166  -3.822  1.00  0.00    -0.200 F 
ATOM     84  F   UNL     1      -0.704  11.396  -5.687  1.00  0.00    -0.200 F 
ENDBRANCH  50  74
BRANCH  62  85
ATOM     85  C   UNL     1       3.002  15.868   2.801  1.00  0.00     0.064 A 
ATOM     86  C   UNL     1       2.142  16.943   2.532  1.00  0.00     0.173 A 
ATOM     87  C   UNL     1       4.374  16.139   2.922  1.00  0.00     0.173 A 
ATOM     88  F   UNL     1       0.825  16.735   2.390  1.00  0.00    -0.203 F 
ATOM     89  C   UNL     1       2.641  18.232   2.358  1.00  0.00     0.198 A 
ATOM     90  C   UNL     1       4.864  17.434   2.783  1.00  0.00     0.198 A 
ATOM     91  F   UNL     1       5.239  15.148   3.186  1.00  0.00    -0.203 F 
ATOM     92  F   UNL     1       1.808  19.233   2.044  1.00  0.00    -0.200 F 
ATOM     93  C   UNL     1       3.999  18.477   2.491  1.00  0.00     0.200 A 
ATOM     94  F   UNL     1       6.176  17.671   2.927  1.00  0.00    -0.200 F 
ATOM     95  F   UNL     1       4.477  19.718   2.328  1.00  0.00    -0.200 F 
ENDBRANCH  62  85
ENDBRANCH  36  37
ENDBRANCH  29  31
ENDBRANCH  28  29
ENDBRANCH  27  28
ENDBRANCH  26  27
ENDBRANCH  25  26
ENDBRANCH  24  25
ENDBRANCH   1  24
TORSDOF 19
