REMARK SMILES COc1cccc(C(=O)Nc2ccc(NC(=O)[C@@H]3[C@@H](C(=O)OCCOCCOCCOC(=O)c4ccc(-c5c6nc(c(-c7c(F)c(F)c(F)c(F)c7F)c7ccc([nH]7)c(-c7c(F)c(F)c(F)c(F)c7F)c7nc(c(-c8c(F)c(F)c(F)c(F)c8F)c8ccc5[nH]8)C=C7)C=C6)cc4)[C@@H]4C=C[C@H]3C4)cc2)c1
REMARK SMILES IDX 25 1 24 2 23 3 22 4 20 5 21 6 19 7 18 8 100 9 97 10 99 11
REMARK SMILES IDX 101 12 98 13 16 14 15 15 17 17 14 18 11 19 12 20 103 21
REMARK SMILES IDX 13 22 102 23 10 24 8 25 9 26 7 28 3 29 4 30 104 31 5 32 6 33
REMARK SMILES IDX 2 34 1 35 26 36 27 37 28 38 29 39 30 40 31 41 32 42 33 43
REMARK SMILES IDX 34 44 35 45 96 46 36 47 95 48 37 49 38 50 39 51 89 52 40 53
REMARK SMILES IDX 94 54 88 55 90 56 41 57 93 58 87 59 86 60 42 62 74 63 54 64
REMARK SMILES IDX 73 65 55 66 58 67 72 68 91 69 56 70 57 71 71 73 92 74 59 75
REMARK SMILES IDX 43 76 44 77 52 78 45 79 46 80 50 81 53 82 47 83 48 84 51 85
REMARK SMILES IDX 49 86 75 87 76 88 84 89 77 90 78 91 82 92 85 93 79 94 80 95
REMARK SMILES IDX 83 96 81 97 60 98 61 99 69 100 62 101 63 102 67 103 70 104
REMARK SMILES IDX 64 105 65 106 68 107 66 108
REMARK H PARENT 15 16 10 27 90 61 58 72
REMARK Flexibility Score: inf
ROOT
ATOM      1  O   UNL     1       9.457  -4.420  -0.510  1.00  0.00    -0.376 OA
ENDROOT
BRANCH   1   2
ATOM      2  C   UNL     1       9.210  -3.065  -0.141  1.00  0.00     0.202 C 
BRANCH   2   3
ATOM      3  C   UNL     1       7.883  -2.442  -0.600  1.00  0.00     0.261 C 
BRANCH   3   4
ATOM      4  O   UNL     1       6.689  -3.201  -0.278  1.00  0.00    -0.463 OA
BRANCH   4   5
ATOM      5  C   UNL     1       5.910  -3.516  -1.346  1.00  0.00     0.310 C 
ATOM      6  O   UNL     1       6.179  -3.214  -2.505  1.00  0.00    -0.252 OA
BRANCH   5   7
ATOM      7  C   UNL     1       4.630  -4.250  -1.024  1.00  0.00     0.119 C 
ATOM      8  C   UNL     1       3.578  -3.443  -0.226  1.00  0.00     0.100 C 
ATOM      9  C   UNL     1       2.855  -4.559   0.570  1.00  0.00     0.025 C 
ATOM     10  C   UNL     1       4.671  -5.595  -0.252  1.00  0.00     0.027 C 
ATOM     11  C   UNL     1       2.375  -5.711  -0.285  1.00  0.00    -0.027 C 
ATOM     12  C   UNL     1       4.117  -5.239   1.136  1.00  0.00     0.017 C 
ATOM     13  C   UNL     1       3.458  -6.363  -0.739  1.00  0.00    -0.027 C 
BRANCH   8  14
ATOM     14  C   UNL     1       2.780  -2.581  -1.167  1.00  0.00     0.228 C 
ATOM     15  N   UNL     1       3.120  -1.274  -1.403  1.00  0.00    -0.326 N 
ATOM     16  H   UNL     1       2.742  -0.927  -2.243  1.00  0.00     0.169 HD
ATOM     17  O   UNL     1       1.817  -3.036  -1.789  1.00  0.00    -0.274 OA
BRANCH  15  18
ATOM     18  C   UNL     1       3.891  -0.313  -0.709  1.00  0.00     0.041 A 
ATOM     19  C   UNL     1       4.645   1.707   1.077  1.00  0.00     0.041 A 
ATOM     20  C   UNL     1       5.212   0.448   1.187  1.00  0.00     0.028 A 
ATOM     21  C   UNL     1       3.928   2.032  -0.070  1.00  0.00     0.028 A 
ATOM     22  C   UNL     1       4.817  -0.556   0.303  1.00  0.00     0.028 A 
ATOM     23  C   UNL     1       3.565   1.023  -0.970  1.00  0.00     0.028 A 
BRANCH  19  24
ATOM     24  N   UNL     1       4.729   2.534   2.199  1.00  0.00    -0.322 N 
ATOM     25  C   UNL     1       3.762   3.325   2.786  1.00  0.00     0.255 C 
ATOM     26  O   UNL     1       4.092   4.053   3.724  1.00  0.00    -0.269 OA
ATOM     27  H   UNL     1       5.610   2.555   2.638  1.00  0.00     0.170 HD
BRANCH  25  28
ATOM     28  C   UNL     1       2.322   3.279   2.388  1.00  0.00     0.043 A 
ATOM     29  C   UNL     1       0.352   2.174   1.483  1.00  0.00     0.119 A 
ATOM     30  C   UNL     1      -0.349   3.378   1.595  1.00  0.00     0.046 A 
ATOM     31  C   UNL     1       1.667   2.113   1.946  1.00  0.00     0.060 A 
ATOM     32  C   UNL     1       0.253   4.511   2.140  1.00  0.00     0.005 A 
ATOM     33  C   UNL     1       1.591   4.465   2.524  1.00  0.00     0.014 A 
BRANCH  29  34
ATOM     34  O   UNL     1      -0.370   1.172   0.903  1.00  0.00    -0.497 OA
ATOM     35  C   UNL     1       0.245  -0.073   0.605  1.00  0.00     0.278 C 
ENDBRANCH  29  34
ENDBRANCH  25  28
ENDBRANCH  19  24
ENDBRANCH  15  18
ENDBRANCH   8  14
ENDBRANCH   5   7
ENDBRANCH   4   5
ENDBRANCH   3   4
ENDBRANCH   2   3
ENDBRANCH   1   2
BRANCH   1  36
ATOM     36  C   UNL     1       8.507  -5.374  -0.063  1.00  0.00     0.188 C 
BRANCH  36  37
ATOM     37  C   UNL     1       8.280  -5.474   1.449  1.00  0.00     0.188 C 
BRANCH  37  38
ATOM     38  O   UNL     1       8.173  -4.244   2.153  1.00  0.00    -0.376 OA
BRANCH  38  39
ATOM     39  C   UNL     1       7.911  -4.337   3.559  1.00  0.00     0.202 C 
BRANCH  39  40
ATOM     40  C   UNL     1       8.759  -5.349   4.357  1.00  0.00     0.261 C 
BRANCH  40  41
ATOM     41  O   UNL     1       8.575  -6.726   3.960  1.00  0.00    -0.460 OA
BRANCH  41  42
ATOM     42  C   UNL     1       7.308  -7.208   3.966  1.00  0.00     0.338 C 
ATOM     43  O   UNL     1       6.348  -6.704   4.510  1.00  0.00    -0.246 OA
BRANCH  42  44
ATOM     44  C   UNL     1       7.218  -8.311   2.964  1.00  0.00     0.060 A 
ATOM     45  C   UNL     1       6.024  -8.433   2.240  1.00  0.00     0.016 A 
ATOM     46  C   UNL     1       8.293  -9.155   2.667  1.00  0.00     0.016 A 
ATOM     47  C   UNL     1       5.886  -9.411   1.252  1.00  0.00     0.010 A 
ATOM     48  C   UNL     1       8.149 -10.151   1.692  1.00  0.00     0.010 A 
ATOM     49  C   UNL     1       6.933 -10.306   1.003  1.00  0.00    -0.014 A 
BRANCH  49  50
ATOM     50  C   UNL     1       6.666 -11.539   0.216  1.00  0.00     0.031 A 
ATOM     51  C   UNL     1       6.273 -12.782   0.969  1.00  0.00     0.074 A 
ATOM     52  C   UNL     1       6.714 -11.564  -1.128  1.00  0.00     0.049 A 
ATOM     53  N   UNL     1       6.007 -13.983   0.522  1.00  0.00    -0.248 NA
ATOM     54  C   UNL     1       6.159 -12.644   2.430  1.00  0.00     0.031 C 
ATOM     55  C   UNL     1       7.014 -10.426  -1.991  1.00  0.00     0.029 A 
ATOM     56  N   UNL     1       6.505 -12.605  -2.003  1.00  0.00    -0.354 N 
ATOM     57  C   UNL     1       5.692 -14.739   1.643  1.00  0.00     0.074 A 
ATOM     58  C   UNL     1       5.832 -13.874   2.794  1.00  0.00     0.031 C 
ATOM     59  C   UNL     1       6.979 -10.831  -3.274  1.00  0.00     0.029 A 
ATOM     60  C   UNL     1       6.685 -12.265  -3.321  1.00  0.00     0.049 A 
ATOM     61  H   UNL     1       6.250 -13.510  -1.711  1.00  0.00     0.167 HD
ATOM     62  C   UNL     1       5.311 -16.036   1.712  1.00  0.00     0.037 A 
ATOM     63  C   UNL     1       6.639 -13.028  -4.433  1.00  0.00     0.037 A 
ATOM     64  C   UNL     1       5.181 -16.910   0.578  1.00  0.00     0.049 A 
ATOM     65  C   UNL     1       6.320 -14.501  -4.319  1.00  0.00     0.074 A 
ATOM     66  C   UNL     1       4.809 -18.242   0.555  1.00  0.00     0.029 A 
ATOM     67  N   UNL     1       5.431 -16.541  -0.734  1.00  0.00    -0.354 N 
ATOM     68  N   UNL     1       6.012 -15.206  -3.258  1.00  0.00    -0.248 NA
ATOM     69  C   UNL     1       6.343 -15.284  -5.566  1.00  0.00     0.031 C 
ATOM     70  C   UNL     1       4.887 -18.696  -0.765  1.00  0.00     0.029 A 
ATOM     71  C   UNL     1       5.248 -17.629  -1.573  1.00  0.00     0.049 A 
ATOM     72  H   UNL     1       5.699 -15.640  -1.027  1.00  0.00     0.167 HD
ATOM     73  C   UNL     1       5.770 -16.499  -3.712  1.00  0.00     0.074 A 
ATOM     74  C   UNL     1       5.959 -16.481  -5.146  1.00  0.00     0.031 C 
ATOM     75  C   UNL     1       5.421 -17.601  -3.002  1.00  0.00     0.037 A 
BRANCH  62  76
ATOM     76  C   UNL     1       5.040 -16.597   3.077  1.00  0.00     0.064 A 
ATOM     77  C   UNL     1       3.909 -16.223   3.817  1.00  0.00     0.173 A 
ATOM     78  C   UNL     1       5.919 -17.531   3.644  1.00  0.00     0.173 A 
ATOM     79  F   UNL     1       3.050 -15.317   3.327  1.00  0.00    -0.203 F 
ATOM     80  C   UNL     1       3.683 -16.744   5.088  1.00  0.00     0.198 A 
ATOM     81  C   UNL     1       5.673 -18.073   4.902  1.00  0.00     0.198 A 
ATOM     82  F   UNL     1       7.016 -17.921   2.977  1.00  0.00    -0.203 F 
ATOM     83  F   UNL     1       2.625 -16.332   5.801  1.00  0.00    -0.200 F 
ATOM     84  C   UNL     1       4.561 -17.673   5.626  1.00  0.00     0.200 A 
ATOM     85  F   UNL     1       6.518 -18.978   5.416  1.00  0.00    -0.200 F 
ATOM     86  F   UNL     1       4.340 -18.176   6.849  1.00  0.00    -0.200 F 
ENDBRANCH  62  76
BRANCH  63  87
ATOM     87  C   UNL     1       6.923 -12.430  -5.766  1.00  0.00     0.064 A 
ATOM     88  C   UNL     1       5.928 -12.342  -6.750  1.00  0.00     0.173 A 
ATOM     89  C   UNL     1       8.211 -11.989  -6.103  1.00  0.00     0.173 A 
ATOM     90  F   UNL     1       4.689 -12.786  -6.490  1.00  0.00    -0.203 F 
ATOM     91  C   UNL     1       6.215 -11.857  -8.025  1.00  0.00     0.198 A 
ATOM     92  C   UNL     1       8.490 -11.476  -7.369  1.00  0.00     0.198 A 
ATOM     93  F   UNL     1       9.204 -12.063  -5.204  1.00  0.00    -0.203 F 
ATOM     94  F   UNL     1       5.259 -11.841  -8.964  1.00  0.00    -0.200 F 
ATOM     95  C   UNL     1       7.495 -11.419  -8.332  1.00  0.00     0.200 A 
ATOM     96  F   UNL     1       9.727 -11.051  -7.659  1.00  0.00    -0.200 F 
ATOM     97  F   UNL     1       7.772 -10.959  -9.559  1.00  0.00    -0.200 F 
ENDBRANCH  63  87
BRANCH  75  98
ATOM     98  C   UNL     1       5.167 -18.873  -3.762  1.00  0.00     0.064 A 
ATOM     99  C   UNL     1       6.208 -19.603  -4.356  1.00  0.00     0.173 A 
ATOM    100  C   UNL     1       3.868 -19.398  -3.849  1.00  0.00     0.173 A 
ATOM    101  F   UNL     1       7.467 -19.141  -4.311  1.00  0.00    -0.203 F 
ATOM    102  C   UNL     1       5.954 -20.796  -5.029  1.00  0.00     0.198 A 
ATOM    103  C   UNL     1       3.622 -20.607  -4.496  1.00  0.00     0.198 A 
ATOM    104  F   UNL     1       2.836 -18.747  -3.291  1.00  0.00    -0.203 F 
ATOM    105  F   UNL     1       6.957 -21.453  -5.627  1.00  0.00    -0.200 F 
ATOM    106  C   UNL     1       4.663 -21.301  -5.091  1.00  0.00     0.200 A 
ATOM    107  F   UNL     1       2.377 -21.101  -4.539  1.00  0.00    -0.200 F 
ATOM    108  F   UNL     1       4.423 -22.454  -5.730  1.00  0.00    -0.200 F 
ENDBRANCH  75  98
ENDBRANCH  49  50
ENDBRANCH  42  44
ENDBRANCH  41  42
ENDBRANCH  40  41
ENDBRANCH  39  40
ENDBRANCH  38  39
ENDBRANCH  37  38
ENDBRANCH  36  37
ENDBRANCH   1  36
TORSDOF 22
