REMARK SMILES Cc1ccc(S(=O)(=O)N2CCN(C(=O)[C@H]3CCCC[C@H]3C(=O)OCCOCCOCCOC(=O)c3ccc(-c4c5nc(c(-c6c(F)c(F)c(F)c(F)c6F)c6ccc([nH]6)c(-c6c(F)c(F)c(F)c(F)c6F)c6nc(c(-c7c(F)c(F)c(F)c(F)c7F)c7ccc4[nH]7)C=C6)C=C5)cc3)CC2)cc1C
REMARK SMILES IDX 27 1 26 2 25 3 24 4 23 5 21 6 22 7 20 8 15 9 16 10 17 11
REMARK SMILES IDX 19 12 18 13 13 14 9 15 10 16 99 17 11 18 98 19 12 20 14 21
REMARK SMILES IDX 6 22 7 23 8 24 5 25 1 26 2 27 3 28 101 29 4 30 100 31 102 32
REMARK SMILES IDX 28 33 29 34 30 35 31 36 32 37 33 38 34 39 35 40 36 41 97 42
REMARK SMILES IDX 37 43 96 44 38 45 39 46 40 47 90 48 41 49 95 50 89 51 91 52
REMARK SMILES IDX 42 53 94 54 88 55 87 56 43 58 75 59 55 60 74 61 56 62 59 63
REMARK SMILES IDX 73 64 92 65 57 66 58 67 72 69 93 70 60 71 44 72 45 73 53 74
REMARK SMILES IDX 46 75 47 76 51 77 54 78 48 79 49 80 52 81 50 82 76 83 77 84
REMARK SMILES IDX 85 85 78 86 79 87 83 88 86 89 80 90 81 91 84 92 82 93 61 94
REMARK SMILES IDX 62 95 70 96 63 97 64 98 68 99 71 100 65 101 66 102 69 103
REMARK SMILES IDX 67 104
REMARK H PARENT 91 57 59 68
REMARK Flexibility Score: inf
ROOT
ATOM      1  C   UNL     1      -1.724   5.106   1.409  1.00  0.00     0.188 C 
ENDROOT
BRANCH   1   2
ATOM      2  O   UNL     1      -1.049   6.197   1.986  1.00  0.00    -0.376 OA
BRANCH   2   3
ATOM      3  C   UNL     1      -1.785   7.400   2.170  1.00  0.00     0.202 C 
BRANCH   3   4
ATOM      4  C   UNL     1      -2.802   7.865   1.117  1.00  0.00     0.261 C 
BRANCH   4   5
ATOM      5  O   UNL     1      -3.881   6.937   0.844  1.00  0.00    -0.463 OA
BRANCH   5   6
ATOM      6  C   UNL     1      -4.056   6.629  -0.463  1.00  0.00     0.309 C 
ATOM      7  O   UNL     1      -3.284   6.998  -1.348  1.00  0.00    -0.252 OA
BRANCH   6   8
ATOM      8  C   UNL     1      -5.227   5.706  -0.809  1.00  0.00     0.111 C 
ATOM      9  C   UNL     1      -6.182   5.128   0.274  1.00  0.00     0.093 C 
ATOM     10  C   UNL     1      -7.272   4.274  -0.413  1.00  0.00     0.014 C 
ATOM     11  C   UNL     1      -8.034   5.034  -1.487  1.00  0.00     0.001 C 
ATOM     12  C   UNL     1      -5.985   6.398  -1.962  1.00  0.00     0.016 C 
ATOM     13  C   UNL     1      -7.089   5.541  -2.558  1.00  0.00     0.001 C 
BRANCH   9  14
ATOM     14  C   UNL     1      -6.775   6.187   1.203  1.00  0.00     0.226 C 
ATOM     15  N   UNL     1      -9.413   5.410   4.348  1.00  0.00    -0.194 NA
ATOM     16  C   UNL     1      -9.086   6.759   3.834  1.00  0.00     0.124 C 
ATOM     17  C   UNL     1      -9.023   4.281   3.467  1.00  0.00     0.124 C 
ATOM     18  C   UNL     1      -7.619   6.823   3.413  1.00  0.00     0.136 C 
ATOM     19  C   UNL     1      -7.589   4.427   2.892  1.00  0.00     0.136 C 
ATOM     20  N   UNL     1      -7.313   5.790   2.418  1.00  0.00    -0.340 N 
ATOM     21  O   UNL     1      -6.760   7.375   0.873  1.00  0.00    -0.275 OA
BRANCH  15  22
ATOM     22  S   UNL     1      -9.914   5.194   5.940  1.00  0.00     0.243 S 
ATOM     23  O   UNL     1     -10.475   3.858   6.062  1.00  0.00    -0.207 OA
ATOM     24  O   UNL     1     -10.668   6.363   6.317  1.00  0.00    -0.207 OA
BRANCH  22  25
ATOM     25  C   UNL     1      -8.425   5.200   6.915  1.00  0.00     0.082 A 
ATOM     26  C   UNL     1      -4.742   5.294   9.160  1.00  0.00     0.044 C 
ATOM     27  C   UNL     1      -6.053   5.266   8.425  1.00  0.00    -0.048 A 
ATOM     28  C   UNL     1      -6.107   4.601   7.194  1.00  0.00     0.005 A 
ATOM     29  C   UNL     1      -7.235   5.827   8.948  1.00  0.00    -0.047 A 
ATOM     30  C   UNL     1      -7.290   4.542   6.464  1.00  0.00     0.022 A 
ATOM     31  C   UNL     1      -8.408   5.827   8.165  1.00  0.00     0.025 A 
ATOM     32  C   UNL     1      -7.324   6.365  10.352  1.00  0.00     0.044 C 
ENDBRANCH  22  25
ENDBRANCH  15  22
ENDBRANCH   9  14
ENDBRANCH   6   8
ENDBRANCH   5   6
ENDBRANCH   4   5
ENDBRANCH   3   4
ENDBRANCH   2   3
ENDBRANCH   1   2
BRANCH   1  33
ATOM     33  C   UNL     1      -2.933   4.519   2.136  1.00  0.00     0.188 C 
BRANCH  33  34
ATOM     34  O   UNL     1      -3.658   5.212   3.121  1.00  0.00    -0.376 OA
BRANCH  34  35
ATOM     35  C   UNL     1      -3.242   5.261   4.478  1.00  0.00     0.202 C 
BRANCH  35  36
ATOM     36  C   UNL     1      -2.412   4.187   5.217  1.00  0.00     0.261 C 
BRANCH  36  37
ATOM     37  O   UNL     1      -1.886   3.091   4.472  1.00  0.00    -0.460 OA
BRANCH  37  38
ATOM     38  C   UNL     1      -2.735   2.055   4.244  1.00  0.00     0.338 C 
ATOM     39  O   UNL     1      -3.876   1.939   4.652  1.00  0.00    -0.246 OA
BRANCH  38  40
ATOM     40  C   UNL     1      -2.129   1.248   3.152  1.00  0.00     0.060 A 
ATOM     41  C   UNL     1      -2.872   1.061   1.975  1.00  0.00     0.016 A 
ATOM     42  C   UNL     1      -0.800   0.824   3.217  1.00  0.00     0.016 A 
ATOM     43  C   UNL     1      -2.284   0.465   0.857  1.00  0.00     0.010 A 
ATOM     44  C   UNL     1      -0.224   0.197   2.109  1.00  0.00     0.010 A 
ATOM     45  C   UNL     1      -0.962   0.009   0.926  1.00  0.00    -0.014 A 
BRANCH  45  46
ATOM     46  C   UNL     1      -0.379  -0.798  -0.174  1.00  0.00     0.031 A 
ATOM     47  C   UNL     1      -0.382  -2.293  -0.041  1.00  0.00     0.074 A 
ATOM     48  C   UNL     1       0.184  -0.224  -1.252  1.00  0.00     0.049 A 
ATOM     49  N   UNL     1       0.193  -3.199  -0.788  1.00  0.00    -0.248 NA
ATOM     50  C   UNL     1      -1.131  -2.834   1.103  1.00  0.00     0.031 C 
ATOM     51  C   UNL     1       0.219   1.209  -1.525  1.00  0.00     0.029 A 
ATOM     52  N   UNL     1       0.867  -0.789  -2.303  1.00  0.00    -0.354 N 
ATOM     53  C   UNL     1      -0.109  -4.418  -0.197  1.00  0.00     0.074 A 
ATOM     54  C   UNL     1      -0.900  -4.132   0.982  1.00  0.00     0.031 C 
ATOM     55  C   UNL     1       0.923   1.417  -2.652  1.00  0.00     0.029 A 
ATOM     56  C   UNL     1       1.425   0.136  -3.151  1.00  0.00     0.049 A 
ATOM     57  H   UNL     1       0.947  -1.761  -2.436  1.00  0.00     0.167 HD
ATOM     58  C   UNL     1       0.245  -5.662  -0.598  1.00  0.00     0.037 A 
ATOM     59  C   UNL     1       2.282  -0.028  -4.179  1.00  0.00     0.037 A 
ATOM     60  C   UNL     1       1.041  -5.942  -1.764  1.00  0.00     0.049 A 
ATOM     61  C   UNL     1       2.739  -1.414  -4.561  1.00  0.00     0.074 A 
ATOM     62  C   UNL     1       1.411  -7.171  -2.279  1.00  0.00     0.029 A 
ATOM     63  N   UNL     1       1.611  -4.978  -2.583  1.00  0.00    -0.354 N 
ATOM     64  N   UNL     1       2.419  -2.568  -4.026  1.00  0.00    -0.248 NA
ATOM     65  C   UNL     1       3.680  -1.520  -5.686  1.00  0.00     0.031 C 
ATOM     66  C   UNL     1       2.266  -6.951  -3.365  1.00  0.00     0.029 A 
ATOM     67  C   UNL     1       2.374  -5.584  -3.569  1.00  0.00     0.049 A 
ATOM     68  H   UNL     1       1.492  -4.006  -2.479  1.00  0.00     0.167 HD
ATOM     69  C   UNL     1       3.108  -3.534  -4.751  1.00  0.00     0.074 A 
ATOM     70  C   UNL     1       3.848  -2.833  -5.779  1.00  0.00     0.031 C 
ATOM     71  C   UNL     1       3.124  -4.879  -4.579  1.00  0.00     0.037 A 
BRANCH  58  72
ATOM     72  C   UNL     1      -0.185  -6.809   0.269  1.00  0.00     0.064 A 
ATOM     73  C   UNL     1      -1.530  -7.187   0.393  1.00  0.00     0.173 A 
ATOM     74  C   UNL     1       0.770  -7.542   0.991  1.00  0.00     0.173 A 
ATOM     75  F   UNL     1      -2.485  -6.510  -0.264  1.00  0.00    -0.203 F 
ATOM     76  C   UNL     1      -1.907  -8.226   1.239  1.00  0.00     0.198 A 
ATOM     77  C   UNL     1       0.394  -8.603   1.808  1.00  0.00     0.198 A 
ATOM     78  F   UNL     1       2.071  -7.225   0.906  1.00  0.00    -0.203 F 
ATOM     79  F   UNL     1      -3.205  -8.524   1.394  1.00  0.00    -0.200 F 
ATOM     80  C   UNL     1      -0.946  -8.936   1.942  1.00  0.00     0.200 A 
ATOM     81  F   UNL     1       1.326  -9.296   2.476  1.00  0.00    -0.200 F 
ATOM     82  F   UNL     1      -1.310  -9.934   2.759  1.00  0.00    -0.200 F 
ENDBRANCH  58  72
BRANCH  59  83
ATOM     83  C   UNL     1       2.808   1.168  -4.889  1.00  0.00     0.064 A 
ATOM     84  C   UNL     1       2.441   1.450  -6.212  1.00  0.00     0.173 A 
ATOM     85  C   UNL     1       3.683   2.061  -4.251  1.00  0.00     0.173 A 
ATOM     86  F   UNL     1       1.635   0.609  -6.876  1.00  0.00    -0.203 F 
ATOM     87  C   UNL     1       2.929   2.578  -6.868  1.00  0.00     0.198 A 
ATOM     88  C   UNL     1       4.147   3.203  -4.898  1.00  0.00     0.198 A 
ATOM     89  F   UNL     1       4.073   1.831  -2.988  1.00  0.00    -0.203 F 
ATOM     90  F   UNL     1       2.592   2.806  -8.145  1.00  0.00    -0.200 F 
ATOM     91  C   UNL     1       3.773   3.460  -6.208  1.00  0.00     0.200 A 
ATOM     92  F   UNL     1       4.954   4.056  -4.252  1.00  0.00    -0.200 F 
ATOM     93  F   UNL     1       4.230   4.551  -6.836  1.00  0.00    -0.200 F 
ENDBRANCH  59  83
BRANCH  71  94
ATOM     94  C   UNL     1       3.966  -5.695  -5.521  1.00  0.00     0.064 A 
ATOM     95  C   UNL     1       5.367  -5.679  -5.456  1.00  0.00     0.173 A 
ATOM     96  C   UNL     1       3.365  -6.551  -6.458  1.00  0.00     0.173 A 
ATOM     97  F   UNL     1       5.994  -4.869  -4.589  1.00  0.00    -0.203 F 
ATOM     98  C   UNL     1       6.135  -6.477  -6.303  1.00  0.00     0.198 A 
ATOM     99  C   UNL     1       4.134  -7.370  -7.281  1.00  0.00     0.198 A 
ATOM    100  F   UNL     1       2.029  -6.612  -6.559  1.00  0.00    -0.203 F 
ATOM    101  F   UNL     1       7.473  -6.415  -6.248  1.00  0.00    -0.200 F 
ATOM    102  C   UNL     1       5.518  -7.328  -7.207  1.00  0.00     0.200 A 
ATOM    103  F   UNL     1       3.535  -8.204  -8.142  1.00  0.00    -0.200 F 
ATOM    104  F   UNL     1       6.258  -8.106  -8.010  1.00  0.00    -0.200 F 
ENDBRANCH  71  94
ENDBRANCH  45  46
ENDBRANCH  38  40
ENDBRANCH  37  38
ENDBRANCH  36  37
ENDBRANCH  35  36
ENDBRANCH  34  35
ENDBRANCH  33  34
ENDBRANCH   1  33
TORSDOF 20
