REMARK SMILES O=C(OCCOCCOCCOC(=O)c1cn2ccnc2s1)c1ccc(-c2c3nc(c(-c4c(F)c(F)c(F)c(F)c4F)c4ccc([nH]4)c(-c4c(F)c(F)c(F)c(F)c4F)c4nc(c(-c5c(F)c(F)c(F)c(F)c5F)c5ccc2[nH]5)C=C4)C=C3)cc1
REMARK SMILES IDX 7 1 6 2 5 3 4 4 3 5 2 6 1 7 23 8 24 9 85 10 25 11 84 12
REMARK SMILES IDX 26 13 27 14 28 15 78 16 29 17 83 18 77 19 79 20 30 21 82 22
REMARK SMILES IDX 76 23 75 24 31 26 63 27 43 28 62 29 44 30 47 31 61 32 80 33
REMARK SMILES IDX 45 34 46 35 60 37 81 38 48 39 32 40 33 41 41 42 34 43 35 44
REMARK SMILES IDX 39 45 42 46 36 47 37 48 40 49 38 50 64 51 65 52 73 53 66 54
REMARK SMILES IDX 67 55 71 56 74 57 68 58 69 59 72 60 70 61 49 62 50 63 58 64
REMARK SMILES IDX 51 65 52 66 56 67 59 68 53 69 54 70 57 71 55 72 8 73 9 74
REMARK SMILES IDX 10 75 11 76 12 77 13 78 14 79 15 80 16 81 22 82 17 83 21 84
REMARK SMILES IDX 18 85 20 86 19 87
REMARK H PARENT 79 25 47 36
REMARK Flexibility Score: inf
ROOT
ATOM      1  C   UNL     1       2.491   0.525  -2.081  1.00  0.00     0.188 C 
ENDROOT
BRANCH   1   2
ATOM      2  O   UNL     1       3.795   0.636  -1.490  1.00  0.00    -0.376 OA
BRANCH   2   3
ATOM      3  C   UNL     1       4.570  -0.563  -1.596  1.00  0.00     0.202 C 
BRANCH   3   4
ATOM      4  C   UNL     1       4.376  -1.536  -0.428  1.00  0.00     0.261 C 
BRANCH   4   5
ATOM      5  O   UNL     1       3.009  -1.580   0.010  1.00  0.00    -0.460 OA
BRANCH   5   6
ATOM      6  C   UNL     1       2.413  -0.864   0.997  1.00  0.00     0.338 C 
ATOM      7  O   UNL     1       1.214  -1.051   1.204  1.00  0.00    -0.246 OA
BRANCH   6   8
ATOM      8  C   UNL     1       3.134   0.088   1.903  1.00  0.00     0.060 A 
ATOM      9  C   UNL     1       4.331   0.745   1.613  1.00  0.00     0.016 A 
ATOM     10  C   UNL     1       2.531   0.355   3.147  1.00  0.00     0.016 A 
ATOM     11  C   UNL     1       4.992   1.501   2.580  1.00  0.00     0.010 A 
ATOM     12  C   UNL     1       3.153   1.170   4.099  1.00  0.00     0.010 A 
ATOM     13  C   UNL     1       4.423   1.692   3.840  1.00  0.00    -0.014 A 
BRANCH  13  14
ATOM     14  C   UNL     1       5.245   2.320   4.899  1.00  0.00     0.031 A 
ATOM     15  C   UNL     1       5.856   1.442   5.954  1.00  0.00     0.074 A 
ATOM     16  C   UNL     1       5.553   3.627   4.826  1.00  0.00     0.049 A 
ATOM     17  N   UNL     1       6.690   1.754   6.913  1.00  0.00    -0.248 NA
ATOM     18  C   UNL     1       5.494   0.016   5.913  1.00  0.00     0.031 C 
ATOM     19  C   UNL     1       5.065   4.547   3.800  1.00  0.00     0.029 A 
ATOM     20  N   UNL     1       6.381   4.395   5.602  1.00  0.00    -0.354 N 
ATOM     21  C   UNL     1       6.940   0.569   7.592  1.00  0.00     0.074 A 
ATOM     22  C   UNL     1       6.161  -0.466   6.950  1.00  0.00     0.031 C 
ATOM     23  C   UNL     1       5.643   5.746   3.979  1.00  0.00     0.029 A 
ATOM     24  C   UNL     1       6.503   5.689   5.159  1.00  0.00     0.049 A 
ATOM     25  H   UNL     1       6.844   4.053   6.400  1.00  0.00     0.167 HD
ATOM     26  C   UNL     1       7.752   0.362   8.655  1.00  0.00     0.037 A 
ATOM     27  C   UNL     1       7.229   6.708   5.656  1.00  0.00     0.037 A 
ATOM     28  C   UNL     1       8.522   1.395   9.290  1.00  0.00     0.049 A 
ATOM     29  C   UNL     1       8.076   6.464   6.877  1.00  0.00     0.074 A 
ATOM     30  C   UNL     1       9.338   1.310  10.402  1.00  0.00     0.029 A 
ATOM     31  N   UNL     1       8.566   2.712   8.856  1.00  0.00    -0.354 N 
ATOM     32  N   UNL     1       8.290   5.344   7.525  1.00  0.00    -0.248 NA
ATOM     33  C   UNL     1       8.774   7.627   7.441  1.00  0.00     0.031 C 
ATOM     34  C   UNL     1       9.853   2.586  10.661  1.00  0.00     0.029 A 
ATOM     35  C   UNL     1       9.385   3.456   9.688  1.00  0.00     0.049 A 
ATOM     36  H   UNL     1       8.086   3.066   8.073  1.00  0.00     0.167 HD
ATOM     37  C   UNL     1       9.156   5.662   8.562  1.00  0.00     0.074 A 
ATOM     38  C   UNL     1       9.446   7.077   8.443  1.00  0.00     0.031 C 
ATOM     39  C   UNL     1       9.661   4.860   9.532  1.00  0.00     0.037 A 
BRANCH  26  40
ATOM     40  C   UNL     1       7.794  -1.028   9.213  1.00  0.00     0.064 A 
ATOM     41  C   UNL     1       8.477  -2.065   8.560  1.00  0.00     0.173 A 
ATOM     42  C   UNL     1       7.113  -1.334  10.401  1.00  0.00     0.173 A 
ATOM     43  F   UNL     1       9.121  -1.827   7.407  1.00  0.00    -0.203 F 
ATOM     44  C   UNL     1       8.451  -3.364   9.060  1.00  0.00     0.198 A 
ATOM     45  C   UNL     1       7.106  -2.630  10.909  1.00  0.00     0.198 A 
ATOM     46  F   UNL     1       6.441  -0.378  11.059  1.00  0.00    -0.203 F 
ATOM     47  F   UNL     1       9.064  -4.351   8.391  1.00  0.00    -0.200 F 
ATOM     48  C   UNL     1       7.767  -3.645  10.234  1.00  0.00     0.200 A 
ATOM     49  F   UNL     1       6.446  -2.900  12.043  1.00  0.00    -0.200 F 
ATOM     50  F   UNL     1       7.733  -4.899  10.707  1.00  0.00    -0.200 F 
ENDBRANCH  26  40
BRANCH  27  51
ATOM     51  C   UNL     1       7.193   8.042   5.000  1.00  0.00     0.064 A 
ATOM     52  C   UNL     1       8.327   8.567   4.365  1.00  0.00     0.173 A 
ATOM     53  C   UNL     1       6.026   8.820   4.993  1.00  0.00     0.173 A 
ATOM     54  F   UNL     1       9.473   7.870   4.358  1.00  0.00    -0.203 F 
ATOM     55  C   UNL     1       8.299   9.823   3.761  1.00  0.00     0.198 A 
ATOM     56  C   UNL     1       5.990  10.062   4.364  1.00  0.00     0.198 A 
ATOM     57  F   UNL     1       4.909   8.364   5.580  1.00  0.00    -0.203 F 
ATOM     58  F   UNL     1       9.407  10.316   3.192  1.00  0.00    -0.200 F 
ATOM     59  C   UNL     1       7.128  10.567   3.756  1.00  0.00     0.200 A 
ATOM     60  F   UNL     1       4.849  10.765   4.340  1.00  0.00    -0.200 F 
ATOM     61  F   UNL     1       7.097  11.768   3.164  1.00  0.00    -0.200 F 
ENDBRANCH  27  51
BRANCH  39  62
ATOM     62  C   UNL     1      10.591   5.494  10.521  1.00  0.00     0.064 A 
ATOM     63  C   UNL     1      10.111   6.320  11.547  1.00  0.00     0.173 A 
ATOM     64  C   UNL     1      11.968   5.234  10.468  1.00  0.00     0.173 A 
ATOM     65  F   UNL     1       8.803   6.607  11.626  1.00  0.00    -0.203 F 
ATOM     66  C   UNL     1      10.982   6.881  12.476  1.00  0.00     0.198 A 
ATOM     67  C   UNL     1      12.832   5.779  11.412  1.00  0.00     0.198 A 
ATOM     68  F   UNL     1      12.471   4.446   9.507  1.00  0.00    -0.203 F 
ATOM     69  F   UNL     1      10.508   7.698  13.427  1.00  0.00    -0.200 F 
ATOM     70  C   UNL     1      12.340   6.606  12.412  1.00  0.00     0.200 A 
ATOM     71  F   UNL     1      14.143   5.507  11.354  1.00  0.00    -0.200 F 
ATOM     72  F   UNL     1      13.176   7.144  13.310  1.00  0.00    -0.200 F 
ENDBRANCH  39  62
ENDBRANCH  13  14
ENDBRANCH   6   8
ENDBRANCH   5   6
ENDBRANCH   4   5
ENDBRANCH   3   4
ENDBRANCH   2   3
ENDBRANCH   1   2
BRANCH   1  73
ATOM     73  C   UNL     1       2.084   1.826  -2.779  1.00  0.00     0.188 C 
BRANCH  73  74
ATOM     74  O   UNL     1       2.794   2.094  -3.992  1.00  0.00    -0.376 OA
BRANCH  74  75
ATOM     75  C   UNL     1       4.182   2.402  -3.864  1.00  0.00     0.202 C 
BRANCH  75  76
ATOM     76  C   UNL     1       4.481   3.812  -3.352  1.00  0.00     0.261 C 
BRANCH  76  77
ATOM     77  O   UNL     1       3.974   4.036  -2.024  1.00  0.00    -0.459 OA
BRANCH  77  78
ATOM     78  C   UNL     1       3.515   5.293  -1.810  1.00  0.00     0.350 C 
ATOM     79  O   UNL     1       3.570   6.223  -2.601  1.00  0.00    -0.245 OA
BRANCH  78  80
ATOM     80  C   UNL     1       3.013   5.476  -0.441  1.00  0.00     0.132 A 
ATOM     81  C   UNL     1       3.276   6.590   0.264  1.00  0.00     0.120 A 
ATOM     82  S   UNL     1       1.850   4.402   0.328  1.00  0.00    -0.089 S 
ATOM     83  N   UNL     1       2.535   6.625   1.417  1.00  0.00    -0.297 N 
ATOM     84  C   UNL     1       1.702   5.564   1.614  1.00  0.00     0.194 A 
ATOM     85  C   UNL     1       2.356   7.486   2.453  1.00  0.00     0.114 A 
ATOM     86  N   UNL     1       0.965   5.678   2.683  1.00  0.00    -0.227 NA
ATOM     87  C   UNL     1       1.365   6.891   3.217  1.00  0.00     0.133 A 
ENDBRANCH  78  80
ENDBRANCH  77  78
ENDBRANCH  76  77
ENDBRANCH  75  76
ENDBRANCH  74  75
ENDBRANCH  73  74
ENDBRANCH   1  73
TORSDOF 17
