REMARK SMILES COc1ccc(CSc2ncccc2C(=O)OCCOCCOCCOC(=O)c2ccc(-c3c4nc(c(-c5c(F)c(F)c(F)c(F)c5F)c5ccc([nH]5)c(-c5c(F)c(F)c(F)c(F)c5F)c5nc(c(-c6c(F)c(F)c(F)c(F)c6F)c6ccc3[nH]6)C=C5)C=C4)cc2)cc1
REMARK SMILES IDX 21 1 20 2 19 3 18 4 17 5 15 6 16 7 14 8 9 9 10 10 11 11
REMARK SMILES IDX 13 12 12 13 8 14 7 15 6 16 3 17 4 18 93 19 5 20 92 21 2 22
REMARK SMILES IDX 1 23 22 24 23 25 24 26 25 27 26 28 27 29 28 30 29 31 30 32
REMARK SMILES IDX 91 33 31 34 90 35 32 36 33 37 34 38 84 39 35 40 89 41 83 42
REMARK SMILES IDX 85 43 36 44 88 45 82 46 81 47 37 49 69 50 49 51 68 52 50 53
REMARK SMILES IDX 53 54 67 55 86 56 51 57 52 58 66 60 87 61 54 62 38 63 39 64
REMARK SMILES IDX 47 65 40 66 41 67 45 68 48 69 42 70 43 71 46 72 44 73 70 74
REMARK SMILES IDX 71 75 79 76 72 77 73 78 77 79 80 80 74 81 75 82 78 83 76 84
REMARK SMILES IDX 55 85 56 86 64 87 57 88 58 89 62 90 65 91 59 92 60 93 63 94
REMARK SMILES IDX 61 95
REMARK H PARENT 85 48 53 59
REMARK Flexibility Score: inf
ROOT
ATOM      1  C   UNL     1       3.953   3.927   0.506  1.00  0.00     0.188 C 
ENDROOT
BRANCH   1   2
ATOM      2  O   UNL     1       2.988   2.911   0.752  1.00  0.00    -0.376 OA
BRANCH   2   3
ATOM      3  C   UNL     1       2.905   1.781  -0.106  1.00  0.00     0.202 C 
BRANCH   3   4
ATOM      4  C   UNL     1       2.794   1.994  -1.629  1.00  0.00     0.261 C 
BRANCH   4   5
ATOM      5  O   UNL     1       3.043   3.343  -2.042  1.00  0.00    -0.460 OA
BRANCH   5   6
ATOM      6  C   UNL     1       2.091   4.057  -2.709  1.00  0.00     0.340 C 
ATOM      7  O   UNL     1       1.010   3.682  -3.082  1.00  0.00    -0.246 OA
BRANCH   6   8
ATOM      8  C   UNL     1       2.703   5.394  -2.873  1.00  0.00     0.092 A 
ATOM      9  C   UNL     1       2.203   6.587  -2.339  1.00  0.00     0.111 A 
ATOM     10  N   UNL     1       2.962   7.720  -2.353  1.00  0.00    -0.249 NA
ATOM     11  C   UNL     1       4.171   7.687  -2.969  1.00  0.00     0.112 A 
ATOM     12  C   UNL     1       3.951   5.403  -3.524  1.00  0.00     0.020 A 
ATOM     13  C   UNL     1       4.691   6.569  -3.590  1.00  0.00     0.021 A 
BRANCH   9  14
ATOM     14  S   UNL     1       0.498   6.913  -1.899  1.00  0.00    -0.101 SA
BRANCH  14  15
ATOM     15  C   UNL     1       0.434   6.719  -0.064  1.00  0.00     0.112 C 
BRANCH  15  16
ATOM     16  C   UNL     1      -0.312   5.445   0.257  1.00  0.00    -0.037 A 
ATOM     17  C   UNL     1      -1.622   2.933   0.328  1.00  0.00     0.118 A 
ATOM     18  C   UNL     1      -2.305   4.104   0.660  1.00  0.00     0.047 A 
ATOM     19  C   UNL     1      -0.289   3.034  -0.008  1.00  0.00     0.047 A 
ATOM     20  C   UNL     1      -1.660   5.359   0.614  1.00  0.00     0.008 A 
ATOM     21  C   UNL     1       0.359   4.258   0.015  1.00  0.00     0.008 A 
BRANCH  17  22
ATOM     22  O   UNL     1      -2.320   1.755   0.318  1.00  0.00    -0.497 OA
ATOM     23  C   UNL     1      -1.527   0.565   0.260  1.00  0.00     0.278 C 
ENDBRANCH  17  22
ENDBRANCH  15  16
ENDBRANCH  14  15
ENDBRANCH   9  14
ENDBRANCH   6   8
ENDBRANCH   5   6
ENDBRANCH   4   5
ENDBRANCH   3   4
ENDBRANCH   2   3
ENDBRANCH   1   2
BRANCH   1  24
ATOM     24  C   UNL     1       5.364   3.502   0.094  1.00  0.00     0.188 C 
BRANCH  24  25
ATOM     25  O   UNL     1       5.642   2.135   0.343  1.00  0.00    -0.376 OA
BRANCH  25  26
ATOM     26  C   UNL     1       6.275   1.828   1.579  1.00  0.00     0.202 C 
BRANCH  26  27
ATOM     27  C   UNL     1       5.473   2.070   2.869  1.00  0.00     0.261 C 
BRANCH  27  28
ATOM     28  O   UNL     1       5.086   3.423   3.180  1.00  0.00    -0.460 OA
BRANCH  28  29
ATOM     29  C   UNL     1       6.034   4.380   3.238  1.00  0.00     0.338 C 
ATOM     30  O   UNL     1       7.228   4.252   3.039  1.00  0.00    -0.246 OA
BRANCH  29  31
ATOM     31  C   UNL     1       5.370   5.686   3.456  1.00  0.00     0.060 A 
ATOM     32  C   UNL     1       5.550   6.710   2.517  1.00  0.00     0.016 A 
ATOM     33  C   UNL     1       4.618   5.917   4.611  1.00  0.00     0.016 A 
ATOM     34  C   UNL     1       5.037   7.987   2.766  1.00  0.00     0.010 A 
ATOM     35  C   UNL     1       4.120   7.200   4.868  1.00  0.00     0.010 A 
ATOM     36  C   UNL     1       4.372   8.255   3.971  1.00  0.00    -0.014 A 
BRANCH  36  37
ATOM     37  C   UNL     1       4.187   9.665   4.411  1.00  0.00     0.031 A 
ATOM     38  C   UNL     1       5.246  10.273   5.297  1.00  0.00     0.074 A 
ATOM     39  C   UNL     1       3.136  10.412   4.027  1.00  0.00     0.049 A 
ATOM     40  N   UNL     1       5.322  11.476   5.808  1.00  0.00    -0.248 NA
ATOM     41  C   UNL     1       6.375   9.398   5.654  1.00  0.00     0.031 C 
ATOM     42  C   UNL     1       2.056   9.971   3.151  1.00  0.00     0.029 A 
ATOM     43  N   UNL     1       2.809  11.711   4.340  1.00  0.00    -0.354 N 
ATOM     44  C   UNL     1       6.504  11.502   6.538  1.00  0.00     0.074 A 
ATOM     45  C   UNL     1       7.093  10.184   6.440  1.00  0.00     0.031 C 
ATOM     46  C   UNL     1       1.177  10.979   3.003  1.00  0.00     0.029 A 
ATOM     47  C   UNL     1       1.622  12.130   3.791  1.00  0.00     0.049 A 
ATOM     48  H   UNL     1       3.374  12.287   4.904  1.00  0.00     0.167 HD
ATOM     49  C   UNL     1       7.062  12.531   7.218  1.00  0.00     0.037 A 
ATOM     50  C   UNL     1       0.968  13.303   3.921  1.00  0.00     0.037 A 
ATOM     51  C   UNL     1       6.481  13.841   7.333  1.00  0.00     0.049 A 
ATOM     52  C   UNL     1       1.569  14.412   4.752  1.00  0.00     0.074 A 
ATOM     53  C   UNL     1       6.981  14.952   7.991  1.00  0.00     0.029 A 
ATOM     54  N   UNL     1       5.262  14.214   6.789  1.00  0.00    -0.354 N 
ATOM     55  N   UNL     1       2.710  14.442   5.397  1.00  0.00    -0.248 NA
ATOM     56  C   UNL     1       0.791  15.656   4.864  1.00  0.00     0.031 C 
ATOM     57  C   UNL     1       6.038  15.980   7.892  1.00  0.00     0.029 A 
ATOM     58  C   UNL     1       4.980  15.530   7.120  1.00  0.00     0.049 A 
ATOM     59  H   UNL     1       4.682  13.630   6.248  1.00  0.00     0.167 HD
ATOM     60  C   UNL     1       2.804  15.714   5.954  1.00  0.00     0.074 A 
ATOM     61  C   UNL     1       1.608  16.429   5.566  1.00  0.00     0.031 C 
ATOM     62  C   UNL     1       3.796  16.242   6.714  1.00  0.00     0.037 A 
BRANCH  49  63
ATOM     63  C   UNL     1       8.367  12.270   7.913  1.00  0.00     0.064 A 
ATOM     64  C   UNL     1       9.558  12.084   7.195  1.00  0.00     0.173 A 
ATOM     65  C   UNL     1       8.430  12.230   9.313  1.00  0.00     0.173 A 
ATOM     66  F   UNL     1       9.548  12.097   5.854  1.00  0.00    -0.203 F 
ATOM     67  C   UNL     1      10.760  11.839   7.855  1.00  0.00     0.198 A 
ATOM     68  C   UNL     1       9.639  12.016   9.970  1.00  0.00     0.198 A 
ATOM     69  F   UNL     1       7.320  12.405  10.046  1.00  0.00    -0.203 F 
ATOM     70  F   UNL     1      11.876  11.613   7.148  1.00  0.00    -0.200 F 
ATOM     71  C   UNL     1      10.800  11.812   9.241  1.00  0.00     0.200 A 
ATOM     72  F   UNL     1       9.678  12.003  11.309  1.00  0.00    -0.200 F 
ATOM     73  F   UNL     1      11.959  11.582   9.874  1.00  0.00    -0.200 F 
ENDBRANCH  49  63
BRANCH  50  74
ATOM     74  C   UNL     1      -0.345  13.503   3.249  1.00  0.00     0.064 A 
ATOM     75  C   UNL     1      -0.491  14.424   2.201  1.00  0.00     0.173 A 
ATOM     76  C   UNL     1      -1.490  12.812   3.672  1.00  0.00     0.173 A 
ATOM     77  F   UNL     1       0.567  15.135   1.783  1.00  0.00    -0.203 F 
ATOM     78  C   UNL     1      -1.734  14.661   1.617  1.00  0.00     0.198 A 
ATOM     79  C   UNL     1      -2.728  13.029   3.068  1.00  0.00     0.198 A 
ATOM     80  F   UNL     1      -1.409  11.929   4.677  1.00  0.00    -0.203 F 
ATOM     81  F   UNL     1      -1.856  15.588   0.658  1.00  0.00    -0.200 F 
ATOM     82  C   UNL     1      -2.851  13.960   2.048  1.00  0.00     0.200 A 
ATOM     83  F   UNL     1      -3.803  12.346   3.484  1.00  0.00    -0.200 F 
ATOM     84  F   UNL     1      -4.047  14.192   1.490  1.00  0.00    -0.200 F 
ENDBRANCH  50  74
BRANCH  62  85
ATOM     85  C   UNL     1       3.667  17.679   7.137  1.00  0.00     0.064 A 
ATOM     86  C   UNL     1       2.732  18.089   8.098  1.00  0.00     0.173 A 
ATOM     87  C   UNL     1       4.534  18.650   6.610  1.00  0.00     0.173 A 
ATOM     88  F   UNL     1       1.873  17.204   8.626  1.00  0.00    -0.203 F 
ATOM     89  C   UNL     1       2.653  19.422   8.498  1.00  0.00     0.198 A 
ATOM     90  C   UNL     1       4.473  19.975   7.035  1.00  0.00     0.198 A 
ATOM     91  F   UNL     1       5.455  18.311   5.696  1.00  0.00    -0.203 F 
ATOM     92  F   UNL     1       1.721  19.799   9.384  1.00  0.00    -0.200 F 
ATOM     93  C   UNL     1       3.528  20.361   7.973  1.00  0.00     0.200 A 
ATOM     94  F   UNL     1       5.332  20.877   6.539  1.00  0.00    -0.200 F 
ATOM     95  F   UNL     1       3.457  21.640   8.367  1.00  0.00    -0.200 F 
ENDBRANCH  62  85
ENDBRANCH  36  37
ENDBRANCH  29  31
ENDBRANCH  28  29
ENDBRANCH  27  28
ENDBRANCH  26  27
ENDBRANCH  25  26
ENDBRANCH  24  25
ENDBRANCH   1  24
TORSDOF 21
