REMARK SMILES CCc1nc(C)c(C(=O)OCCOCCOCCOC(=O)c2ccc(-c3c4nc(c(-c5c(F)c(F)c(F)c(F)c5F)c5ccc([nH]5)c(-c5c(F)c(F)c(F)c(F)c5F)c5nc(c(-c6c(F)c(F)c(F)c(F)c6F)c6ccc3[nH]6)C=C5)C=C4)cc2)c(SCc2cnc(Cl)s2)n1
REMARK SMILES IDX 14 1 13 2 12 3 11 4 10 5 8 6 9 7 7 8 3 9 4 10 94 11 5 12
REMARK SMILES IDX 85 13 6 14 2 15 1 16 86 17 87 18 88 19 89 20 93 21 90 22
REMARK SMILES IDX 91 23 92 24 15 25 16 26 17 27 18 28 19 29 20 30 21 31 22 32
REMARK SMILES IDX 23 33 84 34 24 35 83 36 25 37 26 38 27 39 77 40 28 41 82 42
REMARK SMILES IDX 76 43 78 44 29 45 81 46 75 47 74 48 30 50 62 51 42 52 61 53
REMARK SMILES IDX 43 54 46 55 60 56 79 57 44 58 45 59 59 61 80 62 47 63 31 64
REMARK SMILES IDX 32 65 40 66 33 67 34 68 38 69 41 70 35 71 36 72 39 73 37 74
REMARK SMILES IDX 63 75 64 76 72 77 65 78 66 79 70 80 73 81 67 82 68 83 71 84
REMARK SMILES IDX 69 85 48 86 49 87 57 88 50 89 51 90 55 91 58 92 52 93 53 94
REMARK SMILES IDX 56 95 54 96
REMARK H PARENT 78 49 46 60
REMARK Flexibility Score: inf
ROOT
ATOM      1  C   UNL     1       0.202  -1.804  -7.697  1.00  0.00     0.188 C 
ENDROOT
BRANCH   1   2
ATOM      2  O   UNL     1       0.473  -2.871  -8.589  1.00  0.00    -0.376 OA
BRANCH   2   3
ATOM      3  C   UNL     1       1.662  -3.623  -8.380  1.00  0.00     0.202 C 
BRANCH   3   4
ATOM      4  C   UNL     1       1.899  -4.205  -6.982  1.00  0.00     0.261 C 
BRANCH   4   5
ATOM      5  O   UNL     1       1.656  -3.219  -5.965  1.00  0.00    -0.460 OA
BRANCH   5   6
ATOM      6  C   UNL     1       2.644  -2.684  -5.234  1.00  0.00     0.342 C 
ATOM      7  O   UNL     1       3.826  -2.984  -5.252  1.00  0.00    -0.246 OA
BRANCH   6   8
ATOM      8  C   UNL     1       2.024  -1.703  -4.345  1.00  0.00     0.113 A 
ATOM      9  C   UNL     1       0.889  -0.083  -2.478  1.00  0.00     0.129 A 
ATOM     10  N   UNL     1       0.607  -1.384  -2.415  1.00  0.00    -0.237 NA
ATOM     11  N   UNL     1       1.625   0.466  -3.451  1.00  0.00    -0.226 NA
ATOM     12  C   UNL     1       1.171  -2.188  -3.341  1.00  0.00     0.057 A 
ATOM     13  C   UNL     1       2.210  -0.325  -4.393  1.00  0.00     0.115 A 
ATOM     14  C   UNL     1       0.853  -3.644  -3.127  1.00  0.00     0.068 C 
BRANCH   9  15
ATOM     15  C   UNL     1       0.425   0.801  -1.354  1.00  0.00     0.074 C 
ATOM     16  C   UNL     1       0.939   0.301  -0.010  1.00  0.00     0.012 C 
ENDBRANCH   9  15
BRANCH  13  17
ATOM     17  S   UNL     1       3.155   0.786  -5.416  1.00  0.00    -0.100 SA
BRANCH  17  18
ATOM     18  C   UNL     1       3.534   0.096  -7.053  1.00  0.00     0.125 C 
BRANCH  18  19
ATOM     19  C   UNL     1       4.744  -0.762  -7.058  1.00  0.00     0.036 A 
ATOM     20  C   UNL     1       5.872  -0.740  -6.254  1.00  0.00     0.129 A 
ATOM     21  S   UNL     1       4.932  -2.022  -8.214  1.00  0.00    -0.107 S 
ATOM     22  N   UNL     1       6.739  -1.805  -6.403  1.00  0.00    -0.233 NA
ATOM     23  C   UNL     1       6.261  -2.594  -7.331  1.00  0.00     0.183 A 
ATOM     24  Cl  UNL     1       6.911  -4.140  -7.677  1.00  0.00    -0.051 Cl
ENDBRANCH  18  19
ENDBRANCH  17  18
ENDBRANCH  13  17
ENDBRANCH   6   8
ENDBRANCH   5   6
ENDBRANCH   4   5
ENDBRANCH   3   4
ENDBRANCH   2   3
ENDBRANCH   1   2
BRANCH   1  25
ATOM     25  C   UNL     1      -0.921  -2.086  -6.678  1.00  0.00     0.188 C 
BRANCH  25  26
ATOM     26  O   UNL     1      -1.631  -3.311  -6.749  1.00  0.00    -0.376 OA
BRANCH  26  27
ATOM     27  C   UNL     1      -2.054  -3.774  -8.025  1.00  0.00     0.202 C 
BRANCH  27  28
ATOM     28  C   UNL     1      -2.838  -2.826  -8.952  1.00  0.00     0.261 C 
BRANCH  28  29
ATOM     29  O   UNL     1      -2.255  -1.525  -9.179  1.00  0.00    -0.460 OA
BRANCH  29  30
ATOM     30  C   UNL     1      -2.916  -0.475  -8.629  1.00  0.00     0.338 C 
ATOM     31  O   UNL     1      -3.950  -0.511  -7.985  1.00  0.00    -0.246 OA
BRANCH  30  32
ATOM     32  C   UNL     1      -2.123   0.769  -8.764  1.00  0.00     0.060 A 
ATOM     33  C   UNL     1      -1.672   1.415  -7.602  1.00  0.00     0.016 A 
ATOM     34  C   UNL     1      -1.922   1.355 -10.013  1.00  0.00     0.016 A 
ATOM     35  C   UNL     1      -1.058   2.668  -7.680  1.00  0.00     0.010 A 
ATOM     36  C   UNL     1      -1.331   2.623 -10.089  1.00  0.00     0.010 A 
ATOM     37  C   UNL     1      -0.934   3.304  -8.921  1.00  0.00    -0.014 A 
BRANCH  37  38
ATOM     38  C   UNL     1      -0.601   4.751  -8.988  1.00  0.00     0.031 A 
ATOM     39  C   UNL     1      -1.730   5.739  -9.124  1.00  0.00     0.074 A 
ATOM     40  C   UNL     1       0.668   5.190  -8.933  1.00  0.00     0.049 A 
ATOM     41  N   UNL     1      -1.690   7.034  -9.314  1.00  0.00    -0.248 NA
ATOM     42  C   UNL     1      -3.091   5.186  -9.038  1.00  0.00     0.031 C 
ATOM     43  C   UNL     1       1.847   4.351  -8.739  1.00  0.00     0.029 A 
ATOM     44  N   UNL     1       1.175   6.462  -9.053  1.00  0.00    -0.354 N 
ATOM     45  C   UNL     1      -3.015   7.445  -9.385  1.00  0.00     0.074 A 
ATOM     46  C   UNL     1      -3.835   6.261  -9.243  1.00  0.00     0.031 C 
ATOM     47  C   UNL     1       2.944   5.127  -8.781  1.00  0.00     0.029 A 
ATOM     48  C   UNL     1       2.547   6.511  -9.041  1.00  0.00     0.049 A 
ATOM     49  H   UNL     1       0.607   7.262  -9.141  1.00  0.00     0.167 HD
ATOM     50  C   UNL     1      -3.506   8.697  -9.549  1.00  0.00     0.037 A 
ATOM     51  C   UNL     1       3.383   7.548  -9.248  1.00  0.00     0.037 A 
ATOM     52  C   UNL     1      -2.691   9.875  -9.691  1.00  0.00     0.049 A 
ATOM     53  C   UNL     1       2.814   8.921  -9.518  1.00  0.00     0.074 A 
ATOM     54  C   UNL     1      -3.094  11.189  -9.851  1.00  0.00     0.029 A 
ATOM     55  N   UNL     1      -1.304   9.879  -9.700  1.00  0.00    -0.354 N 
ATOM     56  N   UNL     1       1.562   9.306  -9.571  1.00  0.00    -0.248 NA
ATOM     57  C   UNL     1       3.780  10.005  -9.755  1.00  0.00     0.031 C 
ATOM     58  C   UNL     1      -1.953  11.980 -10.015  1.00  0.00     0.029 A 
ATOM     59  C   UNL     1      -0.836  11.169  -9.890  1.00  0.00     0.049 A 
ATOM     60  H   UNL     1      -0.736   9.082  -9.588  1.00  0.00     0.167 HD
ATOM     61  C   UNL     1       1.591  10.676  -9.806  1.00  0.00     0.074 A 
ATOM     62  C   UNL     1       2.985  11.058  -9.880  1.00  0.00     0.031 C 
ATOM     63  C   UNL     1       0.555  11.541  -9.944  1.00  0.00     0.037 A 
BRANCH  50  64
ATOM     64  C   UNL     1      -4.997   8.854  -9.619  1.00  0.00     0.064 A 
ATOM     65  C   UNL     1      -5.816   8.669  -8.495  1.00  0.00     0.173 A 
ATOM     66  C   UNL     1      -5.614   9.226 -10.824  1.00  0.00     0.173 A 
ATOM     67  F   UNL     1      -5.279   8.300  -7.322  1.00  0.00    -0.203 F 
ATOM     68  C   UNL     1      -7.198   8.823  -8.582  1.00  0.00     0.198 A 
ATOM     69  C   UNL     1      -6.991   9.411 -10.899  1.00  0.00     0.198 A 
ATOM     70  F   UNL     1      -4.877   9.420 -11.929  1.00  0.00    -0.203 F 
ATOM     71  F   UNL     1      -7.965   8.591  -7.507  1.00  0.00    -0.200 F 
ATOM     72  C   UNL     1      -7.783   9.201  -9.781  1.00  0.00     0.200 A 
ATOM     73  F   UNL     1      -7.553   9.790 -12.056  1.00  0.00    -0.200 F 
ATOM     74  F   UNL     1      -9.112   9.356  -9.861  1.00  0.00    -0.200 F 
ENDBRANCH  50  64
BRANCH  51  75
ATOM     75  C   UNL     1       4.855   7.334  -9.232  1.00  0.00     0.064 A 
ATOM     76  C   UNL     1       5.659   7.902  -8.234  1.00  0.00     0.173 A 
ATOM     77  C   UNL     1       5.493   6.588 -10.234  1.00  0.00     0.173 A 
ATOM     78  F   UNL     1       5.101   8.650  -7.271  1.00  0.00    -0.203 F 
ATOM     79  C   UNL     1       7.044   7.749  -8.250  1.00  0.00     0.198 A 
ATOM     80  C   UNL     1       6.875   6.409 -10.232  1.00  0.00     0.198 A 
ATOM     81  F   UNL     1       4.772   6.027 -11.216  1.00  0.00    -0.203 F 
ATOM     82  F   UNL     1       7.793   8.349  -7.314  1.00  0.00    -0.200 F 
ATOM     83  C   UNL     1       7.651   6.998  -9.245  1.00  0.00     0.200 A 
ATOM     84  F   UNL     1       7.455   5.673 -11.190  1.00  0.00    -0.200 F 
ATOM     85  F   UNL     1       8.982   6.851  -9.260  1.00  0.00    -0.200 F 
ENDBRANCH  51  75
BRANCH  63  86
ATOM     86  C   UNL     1       0.880  12.997 -10.130  1.00  0.00     0.064 A 
ATOM     87  C   UNL     1       1.436  13.489 -11.319  1.00  0.00     0.173 A 
ATOM     88  C   UNL     1       0.578  13.922  -9.117  1.00  0.00     0.173 A 
ATOM     89  F   UNL     1       1.755  12.648 -12.314  1.00  0.00    -0.203 F 
ATOM     90  C   UNL     1       1.702  14.848 -11.478  1.00  0.00     0.198 A 
ATOM     91  C   UNL     1       0.814  15.283  -9.292  1.00  0.00     0.198 A 
ATOM     92  F   UNL     1       0.035  13.508  -7.962  1.00  0.00    -0.203 F 
ATOM     93  F   UNL     1       2.278  15.288 -12.605  1.00  0.00    -0.200 F 
ATOM     94  C   UNL     1       1.383  15.744 -10.469  1.00  0.00     0.200 A 
ATOM     95  F   UNL     1       0.487  16.149  -8.322  1.00  0.00    -0.200 F 
ATOM     96  F   UNL     1       1.628  17.052 -10.629  1.00  0.00    -0.200 F 
ENDBRANCH  63  86
ENDBRANCH  37  38
ENDBRANCH  30  32
ENDBRANCH  29  30
ENDBRANCH  28  29
ENDBRANCH  27  28
ENDBRANCH  26  27
ENDBRANCH  25  26
ENDBRANCH   1  25
TORSDOF 21
