REMARK SMILES CCCN1CCC[C@@]2(CCN(c3ccc(C(=O)OCCOCCOCCOC(=O)c4ccc(-c5c6nc(c(-c7c(F)c(F)c(F)c(F)c7F)c7ccc([nH]7)c(-c7c(F)c(F)c(F)c(F)c7F)c7nc(c(-c8c(F)c(F)c(F)c(F)c8F)c8ccc5[nH]8)C=C7)C=C6)cc4)cn3)C2)C1=O
REMARK SMILES IDX 22 1 21 2 20 3 19 4 18 5 16 6 17 7 15 8 12 9 13 10 94 11
REMARK SMILES IDX 14 12 93 13 11 14 4 15 5 16 96 17 6 18 8 19 97 20 7 21 9 22
REMARK SMILES IDX 95 23 10 24 3 25 2 26 1 27 23 28 24 29 25 30 26 31 27 32
REMARK SMILES IDX 28 33 29 34 30 35 31 36 92 37 32 38 91 39 33 40 34 41 35 42
REMARK SMILES IDX 85 43 36 44 90 45 84 46 86 47 37 48 89 49 83 50 82 51 38 53
REMARK SMILES IDX 70 54 50 55 69 56 51 57 54 58 68 59 87 60 52 61 53 62 67 64
REMARK SMILES IDX 88 65 55 66 39 67 40 68 48 69 41 70 42 71 46 72 49 73 43 74
REMARK SMILES IDX 44 75 47 76 45 77 71 78 72 79 80 80 73 81 74 82 78 83 81 84
REMARK SMILES IDX 75 85 76 86 79 87 77 88 56 89 57 90 65 91 58 92 59 93 63 94
REMARK SMILES IDX 66 95 60 96 61 97 64 98 62 99
REMARK H PARENT 86 52 54 63
REMARK Flexibility Score: inf
ROOT
ATOM      1  C   UNL     1       8.690   7.057  -6.339  1.00  0.00     0.188 C 
ENDROOT
BRANCH   1   2
ATOM      2  O   UNL     1       9.964   7.469  -5.860  1.00  0.00    -0.376 OA
BRANCH   2   3
ATOM      3  C   UNL     1      10.906   6.503  -5.412  1.00  0.00     0.202 C 
BRANCH   3   4
ATOM      4  C   UNL     1      10.500   5.465  -4.355  1.00  0.00     0.261 C 
BRANCH   4   5
ATOM      5  O   UNL     1       9.293   4.744  -4.646  1.00  0.00    -0.460 OA
BRANCH   5   6
ATOM      6  C   UNL     1       8.239   5.013  -3.829  1.00  0.00     0.339 C 
ATOM      7  O   UNL     1       8.222   5.753  -2.873  1.00  0.00    -0.246 OA
BRANCH   6   8
ATOM      8  C   UNL     1       7.020   4.396  -4.385  1.00  0.00     0.078 A 
ATOM      9  C   UNL     1       4.621   3.425  -5.337  1.00  0.00     0.128 A 
ATOM     10  C   UNL     1       5.772   2.634  -5.404  1.00  0.00     0.048 A 
ATOM     11  N   UNL     1       4.664   4.689  -4.871  1.00  0.00    -0.238 NA
ATOM     12  C   UNL     1       6.990   3.124  -4.939  1.00  0.00     0.021 A 
ATOM     13  C   UNL     1       5.847   5.137  -4.381  1.00  0.00     0.129 A 
BRANCH   9  14
ATOM     14  N   UNL     1       3.402   2.843  -5.638  1.00  0.00    -0.356 N 
ATOM     15  N   UNL     1       0.498   1.539  -2.586  1.00  0.00    -0.342 N 
ATOM     16  C   UNL     1       0.121   0.157  -2.825  1.00  0.00     0.119 C 
ATOM     17  C   UNL     1       0.652   2.395  -3.677  1.00  0.00     0.230 C 
ATOM     18  C   UNL     1       1.086  -0.495  -3.794  1.00  0.00     0.023 C 
ATOM     19  C   UNL     1       1.392   1.778  -4.878  1.00  0.00     0.069 C 
ATOM     20  O   UNL     1       0.421   3.600  -3.602  1.00  0.00    -0.274 OA
ATOM     21  C   UNL     1       1.051   0.295  -5.101  1.00  0.00     0.021 C 
ATOM     22  C   UNL     1       1.163   2.612  -6.156  1.00  0.00     0.040 C 
ATOM     23  C   UNL     1       2.906   1.949  -4.588  1.00  0.00     0.135 C 
ATOM     24  C   UNL     1       2.296   3.641  -6.142  1.00  0.00     0.119 C 
BRANCH  15  25
ATOM     25  C   UNL     1       0.867   2.064  -1.270  1.00  0.00     0.119 C 
BRANCH  25  26
ATOM     26  C   UNL     1       0.390   1.337  -0.015  1.00  0.00     0.018 C 
ATOM     27  C   UNL     1       1.295   0.185   0.411  1.00  0.00     0.006 C 
ENDBRANCH  25  26
ENDBRANCH  15  25
ENDBRANCH   9  14
ENDBRANCH   6   8
ENDBRANCH   5   6
ENDBRANCH   4   5
ENDBRANCH   3   4
ENDBRANCH   2   3
ENDBRANCH   1   2
BRANCH   1  28
ATOM     28  C   UNL     1       8.571   5.873  -7.324  1.00  0.00     0.188 C 
BRANCH  28  29
ATOM     29  O   UNL     1       9.798   5.268  -7.648  1.00  0.00    -0.376 OA
BRANCH  29  30
ATOM     30  C   UNL     1      10.457   5.615  -8.853  1.00  0.00     0.202 C 
BRANCH  30  31
ATOM     31  C   UNL     1      10.369   6.997  -9.533  1.00  0.00     0.261 C 
BRANCH  31  32
ATOM     32  O   UNL     1       9.318   7.885  -9.141  1.00  0.00    -0.460 OA
BRANCH  32  33
ATOM     33  C   UNL     1       8.198   7.880  -9.900  1.00  0.00     0.338 C 
ATOM     34  O   UNL     1       7.952   7.162 -10.853  1.00  0.00    -0.246 OA
BRANCH  33  35
ATOM     35  C   UNL     1       7.223   8.803  -9.286  1.00  0.00     0.060 A 
ATOM     36  C   UNL     1       6.064   8.277  -8.700  1.00  0.00     0.016 A 
ATOM     37  C   UNL     1       7.447  10.181  -9.302  1.00  0.00     0.016 A 
ATOM     38  C   UNL     1       5.112   9.134  -8.145  1.00  0.00     0.010 A 
ATOM     39  C   UNL     1       6.483  11.039  -8.763  1.00  0.00     0.010 A 
ATOM     40  C   UNL     1       5.299  10.522  -8.205  1.00  0.00    -0.014 A 
BRANCH  40  41
ATOM     41  C   UNL     1       4.194  11.439  -7.830  1.00  0.00     0.031 A 
ATOM     42  C   UNL     1       3.339  12.024  -8.920  1.00  0.00     0.074 A 
ATOM     43  C   UNL     1       3.950  11.748  -6.544  1.00  0.00     0.049 A 
ATOM     44  N   UNL     1       2.365  12.894  -8.840  1.00  0.00    -0.248 NA
ATOM     45  C   UNL     1       3.627  11.566 -10.288  1.00  0.00     0.031 C 
ATOM     46  C   UNL     1       4.680  11.219  -5.395  1.00  0.00     0.029 A 
ATOM     47  N   UNL     1       3.020  12.596  -5.994  1.00  0.00    -0.354 N 
ATOM     48  C   UNL     1       1.928  13.091 -10.143  1.00  0.00     0.074 A 
ATOM     49  C   UNL     1       2.764  12.277 -10.999  1.00  0.00     0.031 C 
ATOM     50  C   UNL     1       4.179  11.765  -4.273  1.00  0.00     0.029 A 
ATOM     51  C   UNL     1       3.119  12.707  -4.628  1.00  0.00     0.049 A 
ATOM     52  H   UNL     1       2.348  13.078  -6.527  1.00  0.00     0.167 HD
ATOM     53  C   UNL     1       0.915  13.874 -10.586  1.00  0.00     0.037 A 
ATOM     54  C   UNL     1       2.445  13.499  -3.770  1.00  0.00     0.037 A 
ATOM     55  C   UNL     1       0.087  14.687  -9.734  1.00  0.00     0.049 A 
ATOM     56  C   UNL     1       1.375  14.423  -4.298  1.00  0.00     0.074 A 
ATOM     57  C   UNL     1      -0.977  15.500 -10.086  1.00  0.00     0.029 A 
ATOM     58  N   UNL     1       0.236  14.797  -8.359  1.00  0.00    -0.354 N 
ATOM     59  N   UNL     1       0.948  14.584  -5.527  1.00  0.00    -0.248 NA
ATOM     60  C   UNL     1       0.691  15.275  -3.313  1.00  0.00     0.031 C 
ATOM     61  C   UNL     1      -1.432  16.148  -8.933  1.00  0.00     0.029 A 
ATOM     62  C   UNL     1      -0.696  15.689  -7.852  1.00  0.00     0.049 A 
ATOM     63  H   UNL     1       0.905  14.313  -7.823  1.00  0.00     0.167 HD
ATOM     64  C   UNL     1      -0.072  15.525  -5.459  1.00  0.00     0.074 A 
ATOM     65  C   UNL     1      -0.210  15.891  -4.065  1.00  0.00     0.031 C 
ATOM     66  C   UNL     1      -0.829  16.039  -6.461  1.00  0.00     0.037 A 
BRANCH  53  67
ATOM     67  C   UNL     1       0.665  13.913 -12.066  1.00  0.00     0.064 A 
ATOM     68  C   UNL     1       0.132  12.813 -12.755  1.00  0.00     0.173 A 
ATOM     69  C   UNL     1       0.930  15.080 -12.799  1.00  0.00     0.173 A 
ATOM     70  F   UNL     1      -0.127  11.669 -12.104  1.00  0.00    -0.203 F 
ATOM     71  C   UNL     1      -0.101  12.872 -14.127  1.00  0.00     0.198 A 
ATOM     72  C   UNL     1       0.666  15.146 -14.164  1.00  0.00     0.198 A 
ATOM     73  F   UNL     1       1.437  16.162 -12.188  1.00  0.00    -0.203 F 
ATOM     74  F   UNL     1      -0.565  11.793 -14.773  1.00  0.00    -0.200 F 
ATOM     75  C   UNL     1       0.159  14.040 -14.828  1.00  0.00     0.200 A 
ATOM     76  F   UNL     1       0.904  16.280 -14.837  1.00  0.00    -0.200 F 
ATOM     77  F   UNL     1      -0.075  14.098 -16.147  1.00  0.00    -0.200 F 
ENDBRANCH  53  67
BRANCH  54  78
ATOM     78  C   UNL     1       2.769  13.471  -2.319  1.00  0.00     0.064 A 
ATOM     79  C   UNL     1       1.845  12.995  -1.378  1.00  0.00     0.173 A 
ATOM     80  C   UNL     1       3.997  13.951  -1.839  1.00  0.00     0.173 A 
ATOM     81  F   UNL     1       0.644  12.556  -1.783  1.00  0.00    -0.203 F 
ATOM     82  C   UNL     1       2.127  13.020  -0.014  1.00  0.00     0.198 A 
ATOM     83  C   UNL     1       4.290  13.947  -0.476  1.00  0.00     0.198 A 
ATOM     84  F   UNL     1       4.914  14.427  -2.694  1.00  0.00    -0.203 F 
ATOM     85  F   UNL     1       1.202  12.614   0.867  1.00  0.00    -0.200 F 
ATOM     86  C   UNL     1       3.351  13.490   0.436  1.00  0.00     0.200 A 
ATOM     87  F   UNL     1       5.478  14.396  -0.047  1.00  0.00    -0.200 F 
ATOM     88  F   UNL     1       3.621  13.518   1.748  1.00  0.00    -0.200 F 
ENDBRANCH  54  78
BRANCH  66  89
ATOM     89  C   UNL     1      -1.904  17.021  -6.086  1.00  0.00     0.064 A 
ATOM     90  C   UNL     1      -1.602  18.317  -5.642  1.00  0.00     0.173 A 
ATOM     91  C   UNL     1      -3.258  16.672  -6.213  1.00  0.00     0.173 A 
ATOM     92  F   UNL     1      -0.325  18.698  -5.491  1.00  0.00    -0.203 F 
ATOM     93  C   UNL     1      -2.614  19.216  -5.312  1.00  0.00     0.198 A 
ATOM     94  C   UNL     1      -4.267  17.584  -5.916  1.00  0.00     0.198 A 
ATOM     95  F   UNL     1      -3.604  15.449  -6.643  1.00  0.00    -0.203 F 
ATOM     96  F   UNL     1      -2.301  20.431  -4.841  1.00  0.00    -0.200 F 
ATOM     97  C   UNL     1      -3.944  18.852  -5.457  1.00  0.00     0.200 A 
ATOM     98  F   UNL     1      -5.551  17.236  -6.074  1.00  0.00    -0.200 F 
ATOM     99  F   UNL     1      -4.916  19.721  -5.148  1.00  0.00    -0.200 F 
ENDBRANCH  66  89
ENDBRANCH  40  41
ENDBRANCH  33  35
ENDBRANCH  32  33
ENDBRANCH  31  32
ENDBRANCH  30  31
ENDBRANCH  29  30
ENDBRANCH  28  29
ENDBRANCH   1  28
TORSDOF 20
