REMARK SMILES CC(C)[C@@H](NC(=O)/C(=C\c1ccccc1F)NC(=O)c1ccccc1)C(=O)OCCOCCOCCOC(=O)c1ccc(-c2c3nc(c(-c4c(F)c(F)c(F)c(F)c4F)c4ccc([nH]4)c(-c4c(F)c(F)c(F)c(F)c4F)c4nc(c(-c5c(F)c(F)c(F)c(F)c5F)c5ccc2[nH]5)C=C4)C=C3)cc1
REMARK SMILES IDX 32 1 31 2 30 3 29 4 28 5 26 6 27 7 4 8 2 9 1 10 3 11 5 12
REMARK SMILES IDX 6 13 7 15 8 16 9 17 17 18 18 19 19 21 20 22 21 23 25 24
REMARK SMILES IDX 22 25 24 26 23 27 10 28 11 29 15 30 12 31 14 32 16 33 13 34
REMARK SMILES IDX 33 35 34 36 35 37 36 38 37 39 38 40 39 41 40 42 41 43 102 44
REMARK SMILES IDX 42 45 101 46 43 47 44 48 45 49 95 50 46 51 100 52 94 53
REMARK SMILES IDX 96 54 47 55 99 56 93 57 92 58 48 60 80 61 60 62 79 63 61 64
REMARK SMILES IDX 64 65 78 66 97 67 62 68 63 69 77 71 98 72 65 73 49 74 50 75
REMARK SMILES IDX 58 76 51 77 52 78 56 79 59 80 53 81 54 82 57 83 55 84 81 85
REMARK SMILES IDX 82 86 90 87 83 88 84 89 88 90 91 91 85 92 86 93 89 94 87 95
REMARK SMILES IDX 66 96 67 97 75 98 68 99 69 100 73 101 76 102 70 103 71 104
REMARK SMILES IDX 74 105 72 106
REMARK H PARENT 5 14 17 20 96 59 64 70
REMARK Flexibility Score: inf
ROOT
ATOM      1  C   UNL     1      -0.963  -5.915  -0.469  1.00  0.00     0.188 C 
ENDROOT
BRANCH   1   2
ATOM      2  O   UNL     1      -0.837  -6.314  -1.830  1.00  0.00    -0.376 OA
BRANCH   2   3
ATOM      3  C   UNL     1      -1.545  -5.538  -2.789  1.00  0.00     0.202 C 
BRANCH   3   4
ATOM      4  C   UNL     1      -0.671  -4.483  -3.506  1.00  0.00     0.261 C 
BRANCH   4   5
ATOM      5  O   UNL     1      -0.248  -3.262  -2.842  1.00  0.00    -0.462 OA
BRANCH   5   6
ATOM      6  C   UNL     1      -1.082  -2.682  -1.959  1.00  0.00     0.328 C 
ATOM      7  O   UNL     1      -2.106  -3.224  -1.560  1.00  0.00    -0.250 OA
BRANCH   6   8
ATOM      8  C   UNL     1      -0.673  -1.277  -1.469  1.00  0.00     0.195 C 
BRANCH   8   9
ATOM      9  C   UNL     1       0.826  -0.877  -1.617  1.00  0.00     0.017 C 
ATOM     10  C   UNL     1       1.085   0.539  -1.060  1.00  0.00     0.010 C 
ATOM     11  C   UNL     1       1.754  -1.830  -0.848  1.00  0.00     0.010 C 
ENDBRANCH   8   9
BRANCH   8  12
ATOM     12  N   UNL     1      -1.579  -0.222  -1.964  1.00  0.00    -0.337 N 
ATOM     13  C   UNL     1      -2.898   0.010  -1.680  1.00  0.00     0.268 C 
ATOM     14  H   UNL     1      -1.171   0.413  -2.596  1.00  0.00     0.164 HD
ATOM     15  O   UNL     1      -3.307   1.169  -1.655  1.00  0.00    -0.268 OA
BRANCH  13  16
ATOM     16  C   UNL     1      -3.851  -1.136  -1.536  1.00  0.00     0.107 C 
ATOM     17  C   UNL     1      -4.145  -1.614  -0.307  1.00  0.00     0.043 C 
BRANCH  16  18
ATOM     18  N   UNL     1      -4.322  -1.805  -2.659  1.00  0.00    -0.317 N 
ATOM     19  C   UNL     1      -4.157  -1.571  -4.008  1.00  0.00     0.255 C 
ATOM     20  H   UNL     1      -4.876  -2.592  -2.453  1.00  0.00     0.170 HD
ATOM     21  O   UNL     1      -4.384  -2.459  -4.827  1.00  0.00    -0.269 OA
BRANCH  19  22
ATOM     22  C   UNL     1      -3.766  -0.243  -4.501  1.00  0.00     0.040 A 
ATOM     23  C   UNL     1      -4.729   0.769  -4.542  1.00  0.00     0.014 A 
ATOM     24  C   UNL     1      -2.451  -0.003  -4.910  1.00  0.00     0.014 A 
ATOM     25  C   UNL     1      -4.351   2.054  -4.927  1.00  0.00     0.001 A 
ATOM     26  C   UNL     1      -2.075   1.293  -5.264  1.00  0.00     0.001 A 
ATOM     27  C   UNL     1      -3.022   2.320  -5.265  1.00  0.00     0.000 A 
ENDBRANCH  19  22
ENDBRANCH  16  18
BRANCH  17  28
ATOM     28  C   UNL     1      -3.463  -1.181   0.919  1.00  0.00     0.012 A 
ATOM     29  C   UNL     1      -2.436  -1.992   1.421  1.00  0.00     0.011 A 
ATOM     30  C   UNL     1      -3.689   0.061   1.510  1.00  0.00     0.130 A 
ATOM     31  C   UNL     1      -1.564  -1.499   2.391  1.00  0.00     0.001 A 
ATOM     32  C   UNL     1      -2.846   0.538   2.511  1.00  0.00     0.040 A 
ATOM     33  F   UNL     1      -4.706   0.831   1.098  1.00  0.00    -0.206 F 
ATOM     34  C   UNL     1      -1.760  -0.231   2.930  1.00  0.00     0.003 A 
ENDBRANCH  17  28
ENDBRANCH  13  16
ENDBRANCH   8  12
ENDBRANCH   6   8
ENDBRANCH   5   6
ENDBRANCH   4   5
ENDBRANCH   3   4
ENDBRANCH   2   3
ENDBRANCH   1   2
BRANCH   1  35
ATOM     35  C   UNL     1       0.237  -5.098   0.014  1.00  0.00     0.188 C 
BRANCH  35  36
ATOM     36  O   UNL     1       1.542  -5.531  -0.368  1.00  0.00    -0.376 OA
BRANCH  36  37
ATOM     37  C   UNL     1       1.772  -6.934  -0.425  1.00  0.00     0.202 C 
BRANCH  37  38
ATOM     38  C   UNL     1       1.993  -7.639   0.917  1.00  0.00     0.261 C 
BRANCH  38  39
ATOM     39  O   UNL     1       1.189  -7.128   1.992  1.00  0.00    -0.460 OA
BRANCH  39  40
ATOM     40  C   UNL     1       1.844  -6.259   2.795  1.00  0.00     0.338 C 
ATOM     41  O   UNL     1       3.011  -5.892   2.705  1.00  0.00    -0.246 OA
BRANCH  40  42
ATOM     42  C   UNL     1       0.935  -5.684   3.798  1.00  0.00     0.060 A 
ATOM     43  C   UNL     1       0.807  -4.291   3.829  1.00  0.00     0.016 A 
ATOM     44  C   UNL     1       0.346  -6.471   4.790  1.00  0.00     0.016 A 
ATOM     45  C   UNL     1       0.129  -3.676   4.879  1.00  0.00     0.010 A 
ATOM     46  C   UNL     1      -0.331  -5.849   5.847  1.00  0.00     0.010 A 
ATOM     47  C   UNL     1      -0.413  -4.446   5.915  1.00  0.00    -0.014 A 
BRANCH  47  48
ATOM     48  C   UNL     1      -0.871  -3.765   7.154  1.00  0.00     0.031 A 
ATOM     49  C   UNL     1       0.057  -3.724   8.338  1.00  0.00     0.074 A 
ATOM     50  C   UNL     1      -2.044  -3.110   7.209  1.00  0.00     0.049 A 
ATOM     51  N   UNL     1      -0.150  -3.259   9.543  1.00  0.00    -0.248 NA
ATOM     52  C   UNL     1       1.408  -4.268   8.126  1.00  0.00     0.031 C 
ATOM     53  C   UNL     1      -2.988  -2.968   6.104  1.00  0.00     0.029 A 
ATOM     54  N   UNL     1      -2.633  -2.428   8.247  1.00  0.00    -0.354 N 
ATOM     55  C   UNL     1       1.033  -3.472  10.237  1.00  0.00     0.074 A 
ATOM     56  C   UNL     1       1.952  -4.116   9.324  1.00  0.00     0.031 C 
ATOM     57  C   UNL     1      -4.040  -2.241   6.521  1.00  0.00     0.029 A 
ATOM     58  C   UNL     1      -3.866  -1.910   7.936  1.00  0.00     0.049 A 
ATOM     59  H   UNL     1      -2.211  -2.321   9.130  1.00  0.00     0.167 HD
ATOM     60  C   UNL     1       1.330  -3.156  11.520  1.00  0.00     0.037 A 
ATOM     61  C   UNL     1      -4.762  -1.269   8.712  1.00  0.00     0.037 A 
ATOM     62  C   UNL     1       0.429  -2.500  12.428  1.00  0.00     0.049 A 
ATOM     63  C   UNL     1      -4.452  -1.022  10.167  1.00  0.00     0.074 A 
ATOM     64  C   UNL     1       0.632  -2.172  13.758  1.00  0.00     0.029 A 
ATOM     65  N   UNL     1      -0.845  -2.064  12.099  1.00  0.00    -0.354 N 
ATOM     66  N   UNL     1      -3.359  -1.290  10.839  1.00  0.00    -0.248 NA
ATOM     67  C   UNL     1      -5.508  -0.392  10.975  1.00  0.00     0.031 C 
ATOM     68  C   UNL     1      -0.533  -1.571  14.243  1.00  0.00     0.029 A 
ATOM     69  C   UNL     1      -1.444  -1.482  13.204  1.00  0.00     0.049 A 
ATOM     70  H   UNL     1      -1.261  -2.154  11.212  1.00  0.00     0.167 HD
ATOM     71  C   UNL     1      -3.587  -0.848  12.137  1.00  0.00     0.074 A 
ATOM     72  C   UNL     1      -4.917  -0.279  12.157  1.00  0.00     0.031 C 
ATOM     73  C   UNL     1      -2.767  -0.912  13.214  1.00  0.00     0.037 A 
BRANCH  60  74
ATOM     74  C   UNL     1       2.683  -3.550  12.032  1.00  0.00     0.064 A 
ATOM     75  C   UNL     1       2.811  -4.607  12.944  1.00  0.00     0.173 A 
ATOM     76  C   UNL     1       3.844  -2.860  11.655  1.00  0.00     0.173 A 
ATOM     77  F   UNL     1       1.729  -5.297  13.335  1.00  0.00    -0.203 F 
ATOM     78  C   UNL     1       4.052  -4.953  13.469  1.00  0.00     0.198 A 
ATOM     79  C   UNL     1       5.087  -3.225  12.163  1.00  0.00     0.198 A 
ATOM     80  F   UNL     1       3.774  -1.854  10.770  1.00  0.00    -0.203 F 
ATOM     81  F   UNL     1       4.147  -5.952  14.358  1.00  0.00    -0.200 F 
ATOM     82  C   UNL     1       5.189  -4.265  13.075  1.00  0.00     0.200 A 
ATOM     83  F   UNL     1       6.190  -2.577  11.761  1.00  0.00    -0.200 F 
ATOM     84  F   UNL     1       6.386  -4.609  13.570  1.00  0.00    -0.200 F 
ENDBRANCH  60  74
BRANCH  61  85
ATOM     85  C   UNL     1      -6.064  -0.839   8.138  1.00  0.00     0.064 A 
ATOM     86  C   UNL     1      -7.036  -1.777   7.758  1.00  0.00     0.173 A 
ATOM     87  C   UNL     1      -6.370   0.519   7.976  1.00  0.00     0.173 A 
ATOM     88  F   UNL     1      -6.797  -3.088   7.905  1.00  0.00    -0.203 F 
ATOM     89  C   UNL     1      -8.255  -1.373   7.220  1.00  0.00     0.198 A 
ATOM     90  C   UNL     1      -7.601   0.923   7.463  1.00  0.00     0.198 A 
ATOM     91  F   UNL     1      -5.487   1.454   8.358  1.00  0.00    -0.203 F 
ATOM     92  F   UNL     1      -9.156  -2.291   6.844  1.00  0.00    -0.200 F 
ATOM     93  C   UNL     1      -8.539  -0.023   7.077  1.00  0.00     0.200 A 
ATOM     94  F   UNL     1      -7.885   2.228   7.358  1.00  0.00    -0.200 F 
ATOM     95  F   UNL     1      -9.721   0.366   6.580  1.00  0.00    -0.200 F 
ENDBRANCH  61  85
BRANCH  73  96
ATOM     96  C   UNL     1      -3.264  -0.334  14.508  1.00  0.00     0.064 A 
ATOM     97  C   UNL     1      -2.700   0.843  15.025  1.00  0.00     0.173 A 
ATOM     98  C   UNL     1      -4.250  -0.978  15.270  1.00  0.00     0.173 A 
ATOM     99  F   UNL     1      -1.747   1.493  14.341  1.00  0.00    -0.203 F 
ATOM    100  C   UNL     1      -3.097   1.346  16.261  1.00  0.00     0.198 A 
ATOM    101  C   UNL     1      -4.664  -0.457  16.493  1.00  0.00     0.198 A 
ATOM    102  F   UNL     1      -4.828  -2.100  14.815  1.00  0.00    -0.203 F 
ATOM    103  F   UNL     1      -2.523   2.455  16.748  1.00  0.00    -0.200 F 
ATOM    104  C   UNL     1      -4.082   0.699  16.992  1.00  0.00     0.200 A 
ATOM    105  F   UNL     1      -5.632  -1.071  17.188  1.00  0.00    -0.200 F 
ATOM    106  F   UNL     1      -4.472   1.191  18.175  1.00  0.00    -0.200 F 
ENDBRANCH  73  96
ENDBRANCH  47  48
ENDBRANCH  40  42
ENDBRANCH  39  40
ENDBRANCH  38  39
ENDBRANCH  37  38
ENDBRANCH  36  37
ENDBRANCH  35  36
ENDBRANCH   1  35
TORSDOF 23
