REMARK SMILES CCOC(=O)[C@@H]1CCCCN1C(=O)N[C@](C)(CC)C(=O)OCCOCCOCCOC(=O)c1ccc(-c2c3nc(c(-c4c(F)c(F)c(F)c(F)c4F)c4ccc([nH]4)c(-c4c(F)c(F)c(F)c(F)c4F)c4nc(c(-c5c(F)c(F)c(F)c(F)c5F)c5ccc2[nH]5)C=C4)C=C3)cc1
REMARK SMILES IDX 24 1 23 2 22 3 21 4 19 5 20 6 15 7 16 8 14 9 12 10 13 11
REMARK SMILES IDX 11 13 6 14 7 15 8 16 10 17 9 18 4 19 5 20 3 21 2 22 1 23
REMARK SMILES IDX 17 24 18 25 25 26 26 27 27 28 28 29 29 30 30 31 31 32 32 33
REMARK SMILES IDX 33 34 34 35 95 36 35 37 94 38 36 39 37 40 38 41 88 42 39 43
REMARK SMILES IDX 93 44 87 45 89 46 40 47 92 48 86 49 85 50 41 52 73 53 53 54
REMARK SMILES IDX 72 55 54 56 57 57 71 58 90 59 55 60 56 61 70 63 91 64 58 65
REMARK SMILES IDX 42 66 43 67 51 68 44 69 45 70 49 71 52 72 46 73 47 74 50 75
REMARK SMILES IDX 48 76 74 77 75 78 83 79 76 80 77 81 81 82 84 83 78 84 79 85
REMARK SMILES IDX 82 86 80 87 59 88 60 89 68 90 61 91 62 92 66 93 69 94 63 95
REMARK SMILES IDX 64 96 67 97 65 98
REMARK H PARENT 14 12 89 51 57 62
REMARK Flexibility Score: inf
ROOT
ATOM      1  O   UNL     1       3.037  -1.299  -6.457  1.00  0.00    -0.376 OA
ENDROOT
BRANCH   1   2
ATOM      2  C   UNL     1       3.665  -1.278  -7.744  1.00  0.00     0.202 C 
BRANCH   2   3
ATOM      3  C   UNL     1       4.473  -0.010  -8.096  1.00  0.00     0.261 C 
BRANCH   3   4
ATOM      4  O   UNL     1       5.608   0.225  -7.225  1.00  0.00    -0.462 OA
BRANCH   4   5
ATOM      5  C   UNL     1       5.834   1.517  -6.838  1.00  0.00     0.331 C 
ATOM      6  O   UNL     1       5.174   2.476  -7.231  1.00  0.00    -0.249 OA
BRANCH   5   7
ATOM      7  C   UNL     1       6.920   1.646  -5.703  1.00  0.00     0.136 C 
ATOM      8  C   UNL     1       6.141   1.441  -4.383  1.00  0.00     0.047 C 
BRANCH   7   9
ATOM      9  N   UNL     1       7.326   3.084  -5.725  1.00  0.00    -0.322 N 
ATOM     10  C   UNL     1       8.263   3.879  -5.166  1.00  0.00     0.319 C 
ATOM     11  O   UNL     1       8.124   5.088  -5.363  1.00  0.00    -0.249 OA
ATOM     12  H   UNL     1       6.740   3.603  -6.322  1.00  0.00     0.166 HD
BRANCH  10  13
ATOM     13  N   UNL     1       9.352   3.379  -4.493  1.00  0.00    -0.311 N 
ATOM     14  C   UNL     1      10.499   4.289  -4.274  1.00  0.00     0.196 C 
ATOM     15  C   UNL     1      11.811   3.480  -4.176  1.00  0.00     0.037 C 
ATOM     16  C   UNL     1      11.743   2.378  -3.126  1.00  0.00     0.005 C 
ATOM     17  C   UNL     1       9.265   2.368  -3.448  1.00  0.00     0.122 C 
ATOM     18  C   UNL     1      10.521   1.510  -3.363  1.00  0.00     0.022 C 
BRANCH  14  19
ATOM     19  C   UNL     1      10.782   5.378  -5.323  1.00  0.00     0.328 C 
ATOM     20  O   UNL     1      10.775   5.231  -6.536  1.00  0.00    -0.250 OA
BRANCH  19  21
ATOM     21  O   UNL     1      11.143   6.516  -4.653  1.00  0.00    -0.464 OA
BRANCH  21  22
ATOM     22  C   UNL     1      11.320   7.715  -5.416  1.00  0.00     0.229 C 
ATOM     23  C   UNL     1      12.497   7.638  -6.369  1.00  0.00     0.049 C 
ENDBRANCH  21  22
ENDBRANCH  19  21
ENDBRANCH  14  19
ENDBRANCH  10  13
ENDBRANCH   7   9
BRANCH   7  24
ATOM     24  C   UNL     1       8.131   0.729  -6.035  1.00  0.00     0.037 C 
ATOM     25  C   UNL     1       8.402  -0.447  -5.109  1.00  0.00     0.007 C 
ENDBRANCH   7  24
ENDBRANCH   5   7
ENDBRANCH   4   5
ENDBRANCH   3   4
ENDBRANCH   2   3
ENDBRANCH   1   2
BRANCH   1  26
ATOM     26  C   UNL     1       3.906  -1.140  -5.343  1.00  0.00     0.188 C 
BRANCH  26  27
ATOM     27  C   UNL     1       4.973  -2.227  -5.168  1.00  0.00     0.188 C 
BRANCH  27  28
ATOM     28  O   UNL     1       5.731  -2.482  -6.341  1.00  0.00    -0.376 OA
BRANCH  28  29
ATOM     29  C   UNL     1       6.711  -3.519  -6.330  1.00  0.00     0.202 C 
BRANCH  29  30
ATOM     30  C   UNL     1       6.420  -4.789  -5.518  1.00  0.00     0.261 C 
BRANCH  30  31
ATOM     31  O   UNL     1       6.137  -4.566  -4.122  1.00  0.00    -0.460 OA
BRANCH  31  32
ATOM     32  C   UNL     1       7.063  -3.896  -3.394  1.00  0.00     0.338 C 
ATOM     33  O   UNL     1       8.200  -3.637  -3.724  1.00  0.00    -0.246 OA
BRANCH  32  34
ATOM     34  C   UNL     1       6.383  -3.307  -2.205  1.00  0.00     0.060 A 
ATOM     35  C   UNL     1       6.805  -2.042  -1.772  1.00  0.00     0.016 A 
ATOM     36  C   UNL     1       5.317  -3.939  -1.558  1.00  0.00     0.016 A 
ATOM     37  C   UNL     1       6.203  -1.434  -0.669  1.00  0.00     0.010 A 
ATOM     38  C   UNL     1       4.716  -3.333  -0.447  1.00  0.00     0.010 A 
ATOM     39  C   UNL     1       5.184  -2.095   0.030  1.00  0.00    -0.014 A 
BRANCH  39  40
ATOM     40  C   UNL     1       4.765  -1.581   1.361  1.00  0.00     0.031 A 
ATOM     41  C   UNL     1       5.324  -2.243   2.593  1.00  0.00     0.074 A 
ATOM     42  C   UNL     1       3.970  -0.504   1.489  1.00  0.00     0.049 A 
ATOM     43  N   UNL     1       5.128  -1.963   3.857  1.00  0.00    -0.248 NA
ATOM     44  C   UNL     1       6.237  -3.374   2.364  1.00  0.00     0.031 C 
ATOM     45  C   UNL     1       3.405   0.269   0.386  1.00  0.00     0.029 A 
ATOM     46  N   UNL     1       3.509   0.133   2.617  1.00  0.00    -0.354 N 
ATOM     47  C   UNL     1       5.891  -2.879   4.570  1.00  0.00     0.074 A 
ATOM     48  C   UNL     1       6.516  -3.752   3.601  1.00  0.00     0.031 C 
ATOM     49  C   UNL     1       2.681   1.284   0.891  1.00  0.00     0.029 A 
ATOM     50  C   UNL     1       2.701   1.211   2.352  1.00  0.00     0.049 A 
ATOM     51  H   UNL     1       3.736  -0.158   3.530  1.00  0.00     0.167 HD
ATOM     52  C   UNL     1       6.071  -2.978   5.910  1.00  0.00     0.037 A 
ATOM     53  C   UNL     1       2.045   2.036   3.193  1.00  0.00     0.037 A 
ATOM     54  C   UNL     1       5.442  -2.120   6.880  1.00  0.00     0.049 A 
ATOM     55  C   UNL     1       2.175   1.839   4.684  1.00  0.00     0.074 A 
ATOM     56  C   UNL     1       5.554  -2.149   8.259  1.00  0.00     0.029 A 
ATOM     57  N   UNL     1       4.573  -1.083   6.573  1.00  0.00    -0.354 N 
ATOM     58  N   UNL     1       2.905   0.977   5.350  1.00  0.00    -0.248 NA
ATOM     59  C   UNL     1       1.389   2.740   5.540  1.00  0.00     0.031 C 
ATOM     60  C   UNL     1       4.706  -1.170   8.789  1.00  0.00     0.029 A 
ATOM     61  C   UNL     1       4.121  -0.482   7.739  1.00  0.00     0.049 A 
ATOM     62  H   UNL     1       4.316  -0.813   5.662  1.00  0.00     0.167 HD
ATOM     63  C   UNL     1       2.697   1.256   6.696  1.00  0.00     0.074 A 
ATOM     64  C   UNL     1       1.784   2.378   6.752  1.00  0.00     0.031 C 
ATOM     65  C   UNL     1       3.217   0.640   7.788  1.00  0.00     0.037 A 
BRANCH  52  66
ATOM     66  C   UNL     1       6.962  -4.084   6.401  1.00  0.00     0.064 A 
ATOM     67  C   UNL     1       8.347  -4.080   6.165  1.00  0.00     0.173 A 
ATOM     68  C   UNL     1       6.425  -5.164   7.117  1.00  0.00     0.173 A 
ATOM     69  F   UNL     1       8.911  -3.081   5.469  1.00  0.00    -0.203 F 
ATOM     70  C   UNL     1       9.150  -5.136   6.591  1.00  0.00     0.198 A 
ATOM     71  C   UNL     1       7.236  -6.198   7.574  1.00  0.00     0.198 A 
ATOM     72  F   UNL     1       5.109  -5.217   7.374  1.00  0.00    -0.203 F 
ATOM     73  F   UNL     1      10.456  -5.143   6.293  1.00  0.00    -0.200 F 
ATOM     74  C   UNL     1       8.595  -6.190   7.300  1.00  0.00     0.200 A 
ATOM     75  F   UNL     1       6.701  -7.210   8.272  1.00  0.00    -0.200 F 
ATOM     76  F   UNL     1       9.369  -7.205   7.709  1.00  0.00    -0.200 F 
ENDBRANCH  52  66
BRANCH  53  77
ATOM     77  C   UNL     1       1.197   3.135   2.655  1.00  0.00     0.064 A 
ATOM     78  C   UNL     1       1.533   4.480   2.867  1.00  0.00     0.173 A 
ATOM     79  C   UNL     1       0.012   2.864   1.954  1.00  0.00     0.173 A 
ATOM     80  F   UNL     1       2.638   4.792   3.561  1.00  0.00    -0.203 F 
ATOM     81  C   UNL     1       0.707   5.510   2.418  1.00  0.00     0.198 A 
ATOM     82  C   UNL     1      -0.795   3.894   1.476  1.00  0.00     0.198 A 
ATOM     83  F   UNL     1      -0.361   1.595   1.731  1.00  0.00    -0.203 F 
ATOM     84  F   UNL     1       1.023   6.784   2.686  1.00  0.00    -0.200 F 
ATOM     85  C   UNL     1      -0.453   5.216   1.717  1.00  0.00     0.200 A 
ATOM     86  F   UNL     1      -1.911   3.606   0.792  1.00  0.00    -0.200 F 
ATOM     87  F   UNL     1      -1.246   6.206   1.286  1.00  0.00    -0.200 F 
ENDBRANCH  53  77
BRANCH  65  88
ATOM     88  C   UNL     1       2.857   1.200   9.138  1.00  0.00     0.064 A 
ATOM     89  C   UNL     1       1.557   1.114   9.659  1.00  0.00     0.173 A 
ATOM     90  C   UNL     1       3.836   1.822   9.931  1.00  0.00     0.173 A 
ATOM     91  F   UNL     1       0.579   0.540   8.942  1.00  0.00    -0.203 F 
ATOM     92  C   UNL     1       1.241   1.667  10.898  1.00  0.00     0.198 A 
ATOM     93  C   UNL     1       3.526   2.339  11.186  1.00  0.00     0.198 A 
ATOM     94  F   UNL     1       5.100   1.923   9.491  1.00  0.00    -0.203 F 
ATOM     95  F   UNL     1      -0.023   1.632  11.343  1.00  0.00    -0.200 F 
ATOM     96  C   UNL     1       2.226   2.273  11.663  1.00  0.00     0.200 A 
ATOM     97  F   UNL     1       4.484   2.907  11.931  1.00  0.00    -0.200 F 
ATOM     98  F   UNL     1       1.921   2.804  12.855  1.00  0.00    -0.200 F 
ENDBRANCH  65  88
ENDBRANCH  39  40
ENDBRANCH  32  34
ENDBRANCH  31  32
ENDBRANCH  30  31
ENDBRANCH  29  30
ENDBRANCH  28  29
ENDBRANCH  27  28
ENDBRANCH  26  27
ENDBRANCH   1  26
TORSDOF 23
