REMARK SMILES COc1ccc2[nH]c(C(=O)c3cc(C)ccn3)c(CC(=O)OCCOCCOCCOC(=O)c3ccc(-c4c5nc(c(-c6c(F)c(F)c(F)c(F)c6F)c6ccc([nH]6)c(-c6c(F)c(F)c(F)c(F)c6F)c6nc(c(-c7c(F)c(F)c(F)c(F)c7F)c7ccc4[nH]7)C=C6)C=C5)cc3)c2c1
REMARK SMILES IDX 26 1 25 2 24 3 23 4 22 5 20 6 21 7 19 8 18 9 3 10 4 11 98 12
REMARK SMILES IDX 5 13 97 14 6 15 7 16 8 17 2 19 1 20 9 21 10 22 11 23 12 24
REMARK SMILES IDX 17 25 13 26 16 27 14 28 15 29 27 30 28 31 29 32 30 33 31 34
REMARK SMILES IDX 32 35 33 36 34 37 35 38 96 39 36 40 95 41 37 42 38 43 39 44
REMARK SMILES IDX 89 45 40 46 94 47 88 48 90 49 41 50 93 51 87 52 86 53 42 55
REMARK SMILES IDX 74 56 54 57 73 58 55 59 58 60 72 61 91 62 56 63 57 64 71 66
REMARK SMILES IDX 92 67 59 68 43 69 44 70 52 71 45 72 46 73 50 74 53 75 47 76
REMARK SMILES IDX 48 77 51 78 49 79 75 80 76 81 84 82 77 83 78 84 82 85 85 86
REMARK SMILES IDX 79 87 80 88 83 89 81 90 60 91 61 92 69 93 62 94 63 95 67 96
REMARK SMILES IDX 70 97 64 98 65 99 68 100 66 101
REMARK H PARENT 7 18 90 54 58 65
REMARK Flexibility Score: inf
ROOT
ATOM      1  C   UNL     1      -2.372  -8.278  -3.353  1.00  0.00     0.188 C 
ENDROOT
BRANCH   1   2
ATOM      2  O   UNL     1      -3.610  -7.868  -3.928  1.00  0.00    -0.376 OA
BRANCH   2   3
ATOM      3  C   UNL     1      -3.762  -6.499  -4.285  1.00  0.00     0.202 C 
BRANCH   3   4
ATOM      4  C   UNL     1      -3.712  -5.504  -3.118  1.00  0.00     0.261 C 
BRANCH   4   5
ATOM      5  O   UNL     1      -2.465  -5.584  -2.393  1.00  0.00    -0.463 OA
BRANCH   5   6
ATOM      6  C   UNL     1      -2.537  -5.550  -1.036  1.00  0.00     0.310 C 
ATOM      7  O   UNL     1      -3.553  -5.241  -0.421  1.00  0.00    -0.252 OA
BRANCH   6   8
ATOM      8  C   UNL     1      -1.310  -6.126  -0.336  1.00  0.00     0.161 C 
BRANCH   8   9
ATOM      9  C   UNL     1       0.062  -5.731  -0.830  1.00  0.00     0.000 A 
ATOM     10  C   UNL     1       0.969  -2.053  -0.295  1.00  0.00     0.119 A 
ATOM     11  C   UNL     1       2.289  -2.162  -0.734  1.00  0.00     0.048 A 
ATOM     12  C   UNL     1       0.113  -3.161  -0.347  1.00  0.00     0.057 A 
ATOM     13  C   UNL     1       2.781  -3.366  -1.247  1.00  0.00     0.030 A 
ATOM     14  C   UNL     1       0.599  -4.400  -0.806  1.00  0.00     0.008 A 
ATOM     15  C   UNL     1       1.917  -4.465  -1.250  1.00  0.00     0.046 A 
ATOM     16  N   UNL     1       2.150  -5.766  -1.613  1.00  0.00    -0.352 N 
ATOM     17  C   UNL     1       1.152  -6.572  -1.107  1.00  0.00     0.093 A 
ATOM     18  H   UNL     1       2.913  -6.078  -2.152  1.00  0.00     0.167 HD
BRANCH  10  19
ATOM     19  O   UNL     1       0.414  -0.937   0.273  1.00  0.00    -0.497 OA
ATOM     20  C   UNL     1       1.047   0.299  -0.026  1.00  0.00     0.278 C 
ENDBRANCH  10  19
BRANCH  17  21
ATOM     21  C   UNL     1       1.328  -7.991  -0.839  1.00  0.00     0.227 C 
ATOM     22  O   UNL     1       0.592  -8.627  -0.089  1.00  0.00    -0.285 OA
BRANCH  21  23
ATOM     23  C   UNL     1       2.491  -8.708  -1.441  1.00  0.00     0.113 A 
ATOM     24  C   UNL     1       3.602  -9.026  -0.664  1.00  0.00     0.036 A 
ATOM     25  N   UNL     1       2.348  -9.067  -2.742  1.00  0.00    -0.253 NA
ATOM     26  C   UNL     1       4.623  -9.784  -1.248  1.00  0.00    -0.047 A 
ATOM     27  C   UNL     1       3.322  -9.848  -3.259  1.00  0.00     0.112 A 
ATOM     28  C   UNL     1       5.879 -10.133  -0.505  1.00  0.00     0.044 C 
ATOM     29  C   UNL     1       4.455 -10.232  -2.561  1.00  0.00     0.023 A 
ENDBRANCH  21  23
ENDBRANCH  17  21
ENDBRANCH   8   9
ENDBRANCH   6   8
ENDBRANCH   5   6
ENDBRANCH   4   5
ENDBRANCH   3   4
ENDBRANCH   2   3
ENDBRANCH   1   2
BRANCH   1  30
ATOM     30  C   UNL     1      -1.061  -7.642  -3.864  1.00  0.00     0.188 C 
BRANCH  30  31
ATOM     31  O   UNL     1      -1.093  -7.325  -5.250  1.00  0.00    -0.376 OA
BRANCH  31  32
ATOM     32  C   UNL     1      -0.156  -8.047  -6.035  1.00  0.00     0.202 C 
BRANCH  32  33
ATOM     33  C   UNL     1      -0.603  -9.492  -6.247  1.00  0.00     0.261 C 
BRANCH  33  34
ATOM     34  O   UNL     1      -0.632 -10.217  -4.997  1.00  0.00    -0.460 OA
BRANCH  34  35
ATOM     35  C   UNL     1       0.336 -11.118  -4.768  1.00  0.00     0.338 C 
ATOM     36  O   UNL     1       1.247 -11.423  -5.539  1.00  0.00    -0.246 OA
BRANCH  35  37
ATOM     37  C   UNL     1       0.154 -11.763  -3.446  1.00  0.00     0.060 A 
ATOM     38  C   UNL     1      -0.112 -11.032  -2.285  1.00  0.00     0.016 A 
ATOM     39  C   UNL     1       0.359 -13.138  -3.344  1.00  0.00     0.016 A 
ATOM     40  C   UNL     1      -0.108 -11.652  -1.029  1.00  0.00     0.010 A 
ATOM     41  C   UNL     1       0.296 -13.769  -2.095  1.00  0.00     0.010 A 
ATOM     42  C   UNL     1       0.089 -13.031  -0.916  1.00  0.00    -0.014 A 
BRANCH  42  43
ATOM     43  C   UNL     1       0.124 -13.716   0.408  1.00  0.00     0.031 A 
ATOM     44  C   UNL     1       1.358 -14.468   0.833  1.00  0.00     0.074 A 
ATOM     45  C   UNL     1      -0.944 -13.707   1.230  1.00  0.00     0.049 A 
ATOM     46  N   UNL     1       1.510 -15.351   1.789  1.00  0.00    -0.248 NA
ATOM     47  C   UNL     1       2.585 -14.193   0.070  1.00  0.00     0.031 C 
ATOM     48  C   UNL     1      -2.180 -12.958   1.013  1.00  0.00     0.029 A 
ATOM     49  N   UNL     1      -1.165 -14.377   2.412  1.00  0.00    -0.354 N 
ATOM     50  C   UNL     1       2.829 -15.776   1.709  1.00  0.00     0.074 A 
ATOM     51  C   UNL     1       3.438 -15.052   0.611  1.00  0.00     0.031 C 
ATOM     52  C   UNL     1      -3.028 -13.207   2.023  1.00  0.00     0.029 A 
ATOM     53  C   UNL     1      -2.433 -14.200   2.912  1.00  0.00     0.049 A 
ATOM     54  H   UNL     1      -0.481 -14.928   2.857  1.00  0.00     0.167 HD
ATOM     55  C   UNL     1       3.470 -16.692   2.476  1.00  0.00     0.037 A 
ATOM     56  C   UNL     1      -3.070 -14.809   3.931  1.00  0.00     0.037 A 
ATOM     57  C   UNL     1       2.879 -17.382   3.595  1.00  0.00     0.049 A 
ATOM     58  C   UNL     1      -2.368 -15.884   4.716  1.00  0.00     0.074 A 
ATOM     59  C   UNL     1       3.457 -18.321   4.433  1.00  0.00     0.029 A 
ATOM     60  N   UNL     1       1.577 -17.202   4.039  1.00  0.00    -0.354 N 
ATOM     61  N   UNL     1      -1.143 -16.333   4.596  1.00  0.00    -0.248 NA
ATOM     62  C   UNL     1      -3.149 -16.553   5.768  1.00  0.00     0.031 C 
ATOM     63  C   UNL     1       2.492 -18.744   5.355  1.00  0.00     0.029 A 
ATOM     64  C   UNL     1       1.328 -18.029   5.125  1.00  0.00     0.049 A 
ATOM     65  H   UNL     1       0.926 -16.580   3.642  1.00  0.00     0.167 HD
ATOM     66  C   UNL     1      -1.000 -17.318   5.565  1.00  0.00     0.074 A 
ATOM     67  C   UNL     1      -2.257 -17.390   6.278  1.00  0.00     0.031 C 
ATOM     68  C   UNL     1       0.077 -18.096   5.834  1.00  0.00     0.037 A 
BRANCH  55  69
ATOM     69  C   UNL     1       4.884 -17.041   2.110  1.00  0.00     0.064 A 
ATOM     70  C   UNL     1       5.951 -16.161   2.335  1.00  0.00     0.173 A 
ATOM     71  C   UNL     1       5.177 -18.304   1.569  1.00  0.00     0.173 A 
ATOM     72  F   UNL     1       5.725 -14.938   2.836  1.00  0.00    -0.203 F 
ATOM     73  C   UNL     1       7.257 -16.524   2.012  1.00  0.00     0.198 A 
ATOM     74  C   UNL     1       6.486 -18.674   1.275  1.00  0.00     0.198 A 
ATOM     75  F   UNL     1       4.192 -19.186   1.339  1.00  0.00    -0.203 F 
ATOM     76  F   UNL     1       8.257 -15.650   2.195  1.00  0.00    -0.200 F 
ATOM     77  C   UNL     1       7.524 -17.781   1.491  1.00  0.00     0.200 A 
ATOM     78  F   UNL     1       6.742 -19.894   0.783  1.00  0.00    -0.200 F 
ATOM     79  F   UNL     1       8.783 -18.130   1.189  1.00  0.00    -0.200 F 
ENDBRANCH  55  69
BRANCH  56  80
ATOM     80  C   UNL     1      -4.483 -14.457   4.236  1.00  0.00     0.064 A 
ATOM     81  C   UNL     1      -4.823 -13.814   5.433  1.00  0.00     0.173 A 
ATOM     82  C   UNL     1      -5.521 -14.772   3.346  1.00  0.00     0.173 A 
ATOM     83  F   UNL     1      -3.870 -13.526   6.332  1.00  0.00    -0.203 F 
ATOM     84  C   UNL     1      -6.149 -13.509   5.734  1.00  0.00     0.198 A 
ATOM     85  C   UNL     1      -6.842 -14.437   3.633  1.00  0.00     0.198 A 
ATOM     86  F   UNL     1      -5.251 -15.399   2.191  1.00  0.00    -0.203 F 
ATOM     87  F   UNL     1      -6.452 -12.941   6.910  1.00  0.00    -0.200 F 
ATOM     88  C   UNL     1      -7.156 -13.812   4.831  1.00  0.00     0.200 A 
ATOM     89  F   UNL     1      -7.811 -14.724   2.753  1.00  0.00    -0.200 F 
ATOM     90  F   UNL     1      -8.430 -13.516   5.119  1.00  0.00    -0.200 F 
ENDBRANCH  56  80
BRANCH  68  91
ATOM     91  C   UNL     1      -0.042 -19.069   6.972  1.00  0.00     0.064 A 
ATOM     92  C   UNL     1      -0.835 -20.223   6.876  1.00  0.00     0.173 A 
ATOM     93  C   UNL     1       0.663 -18.857   8.167  1.00  0.00     0.173 A 
ATOM     94  F   UNL     1      -1.542 -20.464   5.762  1.00  0.00    -0.203 F 
ATOM     95  C   UNL     1      -0.937 -21.113   7.942  1.00  0.00     0.198 A 
ATOM     96  C   UNL     1       0.581 -19.764   9.220  1.00  0.00     0.198 A 
ATOM     97  F   UNL     1       1.440 -17.773   8.310  1.00  0.00    -0.203 F 
ATOM     98  F   UNL     1      -1.739 -22.183   7.845  1.00  0.00    -0.200 F 
ATOM     99  C   UNL     1      -0.225 -20.886   9.110  1.00  0.00     0.200 A 
ATOM    100  F   UNL     1       1.280 -19.549  10.344  1.00  0.00    -0.200 F 
ATOM    101  F   UNL     1      -0.322 -21.746  10.134  1.00  0.00    -0.200 F 
ENDBRANCH  68  91
ENDBRANCH  42  43
ENDBRANCH  35  37
ENDBRANCH  34  35
ENDBRANCH  33  34
ENDBRANCH  32  33
ENDBRANCH  31  32
ENDBRANCH  30  31
ENDBRANCH   1  30
TORSDOF 21
