REMARK SMILES Cc1cc2cc(-c3ccc([C@@H](C)C(=O)OCCOCCOCCOC(=O)c4ccc(-c5c6nc(c(-c7c(F)c(F)c(F)c(F)c7F)c7ccc([nH]7)c(-c7c(F)c(F)c(F)c(F)c7F)c7nc(c(-c8c(F)c(F)c(F)c(F)c8F)c8ccc5[nH]8)C=C7)C=C6)cc4)cc3)ccc2[nH]1
REMARK SMILES IDX 19 1 18 2 17 3 16 4 15 5 13 6 14 7 11 8 12 9 10 10 7 11 8 12
REMARK SMILES IDX 91 13 9 14 90 15 6 16 1 17 2 18 3 19 95 20 4 21 94 22 5 24
REMARK SMILES IDX 93 25 92 26 20 27 21 28 22 29 23 30 24 31 25 32 26 33 27 34
REMARK SMILES IDX 28 35 89 36 29 37 88 38 30 39 31 40 32 41 82 42 33 43 87 44
REMARK SMILES IDX 81 45 83 46 34 47 86 48 80 49 79 50 35 52 67 53 47 54 66 55
REMARK SMILES IDX 48 56 51 57 65 58 84 59 49 60 50 61 64 63 85 64 52 65 36 66
REMARK SMILES IDX 37 67 45 68 38 69 39 70 43 71 46 72 40 73 41 74 44 75 42 76
REMARK SMILES IDX 68 77 69 78 77 79 70 80 71 81 75 82 78 83 72 84 73 85 76 86
REMARK SMILES IDX 74 87 53 88 54 89 62 90 55 91 56 92 60 93 63 94 57 95 58 96
REMARK SMILES IDX 61 97 59 98
REMARK H PARENT 95 23 83 51 51 62
REMARK Flexibility Score: inf
ROOT
ATOM      1  C   UNL     1       9.163  -1.341  -1.938  1.00  0.00     0.188 C 
ENDROOT
BRANCH   1   2
ATOM      2  O   UNL     1       9.902  -1.729  -3.091  1.00  0.00    -0.376 OA
BRANCH   2   3
ATOM      3  C   UNL     1       9.312  -2.619  -4.031  1.00  0.00     0.202 C 
BRANCH   3   4
ATOM      4  C   UNL     1       8.812  -3.986  -3.532  1.00  0.00     0.261 C 
BRANCH   4   5
ATOM      5  O   UNL     1       7.875  -3.955  -2.431  1.00  0.00    -0.463 OA
BRANCH   5   6
ATOM      6  C   UNL     1       8.273  -4.547  -1.276  1.00  0.00     0.313 C 
ATOM      7  O   UNL     1       9.351  -5.127  -1.154  1.00  0.00    -0.252 OA
BRANCH   6   8
ATOM      8  C   UNL     1       7.308  -4.449  -0.088  1.00  0.00     0.126 C 
ATOM      9  C   UNL     1       6.898  -5.860   0.327  1.00  0.00     0.025 C 
BRANCH   8  10
ATOM     10  C   UNL     1       6.087  -3.532  -0.126  1.00  0.00    -0.034 A 
ATOM     11  C   UNL     1       3.814  -1.793  -0.086  1.00  0.00    -0.018 A 
ATOM     12  C   UNL     1       4.008  -2.733  -1.114  1.00  0.00     0.009 A 
ATOM     13  C   UNL     1       4.784  -1.729   0.920  1.00  0.00     0.009 A 
ATOM     14  C   UNL     1       5.115  -3.598  -1.130  1.00  0.00     0.005 A 
ATOM     15  C   UNL     1       5.895  -2.588   0.906  1.00  0.00     0.005 A 
BRANCH  11  16
ATOM     16  C   UNL     1       2.588  -0.972  -0.039  1.00  0.00    -0.018 A 
ATOM     17  C   UNL     1      -3.443   0.154   0.010  1.00  0.00     0.064 C 
ATOM     18  C   UNL     1      -1.974  -0.054   0.016  1.00  0.00     0.013 A 
ATOM     19  C   UNL     1      -1.237  -1.219   0.026  1.00  0.00     0.031 A 
ATOM     20  N   UNL     1      -1.081   0.993   0.010  1.00  0.00    -0.359 N 
ATOM     21  C   UNL     1       0.139  -0.869   0.009  1.00  0.00     0.000 A 
ATOM     22  C   UNL     1       0.215   0.521   0.004  1.00  0.00     0.046 A 
ATOM     23  H   UNL     1      -1.332   1.945   0.010  1.00  0.00     0.166 HD
ATOM     24  C   UNL     1       1.334  -1.613  -0.006  1.00  0.00     0.019 A 
ATOM     25  C   UNL     1       1.439   1.202  -0.010  1.00  0.00     0.027 A 
ATOM     26  C   UNL     1       2.618   0.432  -0.032  1.00  0.00     0.011 A 
ENDBRANCH  11  16
ENDBRANCH   8  10
ENDBRANCH   6   8
ENDBRANCH   5   6
ENDBRANCH   4   5
ENDBRANCH   3   4
ENDBRANCH   2   3
ENDBRANCH   1   2
BRANCH   1  27
ATOM     27  C   UNL     1       7.644  -1.143  -2.044  1.00  0.00     0.188 C 
BRANCH  27  28
ATOM     28  O   UNL     1       7.148  -1.143  -3.364  1.00  0.00    -0.376 OA
BRANCH  28  29
ATOM     29  C   UNL     1       6.392  -0.017  -3.761  1.00  0.00     0.202 C 
BRANCH  29  30
ATOM     30  C   UNL     1       7.184   1.295  -3.850  1.00  0.00     0.261 C 
BRANCH  30  31
ATOM     31  O   UNL     1       7.995   1.620  -2.704  1.00  0.00    -0.460 OA
BRANCH  31  32
ATOM     32  C   UNL     1       7.354   2.046  -1.594  1.00  0.00     0.338 C 
ATOM     33  O   UNL     1       6.150   2.218  -1.458  1.00  0.00    -0.246 OA
BRANCH  32  34
ATOM     34  C   UNL     1       8.329   2.079  -0.481  1.00  0.00     0.060 A 
ATOM     35  C   UNL     1       8.096   1.293   0.657  1.00  0.00     0.016 A 
ATOM     36  C   UNL     1       9.463   2.892  -0.551  1.00  0.00     0.016 A 
ATOM     37  C   UNL     1       8.971   1.353   1.745  1.00  0.00     0.010 A 
ATOM     38  C   UNL     1      10.328   2.966   0.547  1.00  0.00     0.010 A 
ATOM     39  C   UNL     1      10.065   2.228   1.716  1.00  0.00    -0.014 A 
BRANCH  39  40
ATOM     40  C   UNL     1      10.807   2.535   2.968  1.00  0.00     0.031 A 
ATOM     41  C   UNL     1      10.462   3.800   3.708  1.00  0.00     0.074 A 
ATOM     42  C   UNL     1      11.756   1.715   3.453  1.00  0.00     0.049 A 
ATOM     43  N   UNL     1      11.006   4.318   4.781  1.00  0.00    -0.248 NA
ATOM     44  C   UNL     1       9.351   4.593   3.157  1.00  0.00     0.031 C 
ATOM     45  C   UNL     1      12.160   0.443   2.860  1.00  0.00     0.029 A 
ATOM     46  N   UNL     1      12.562   1.844   4.558  1.00  0.00    -0.354 N 
ATOM     47  C   UNL     1      10.314   5.498   5.022  1.00  0.00     0.074 A 
ATOM     48  C   UNL     1       9.334   5.638   3.968  1.00  0.00     0.031 C 
ATOM     49  C   UNL     1      13.150  -0.086   3.600  1.00  0.00     0.029 A 
ATOM     50  C   UNL     1      13.472   0.825   4.698  1.00  0.00     0.049 A 
ATOM     51  H   UNL     1      12.494   2.596   5.190  1.00  0.00     0.167 HD
ATOM     52  C   UNL     1      10.473   6.382   6.037  1.00  0.00     0.037 A 
ATOM     53  C   UNL     1      14.466   0.662   5.595  1.00  0.00     0.037 A 
ATOM     54  C   UNL     1      11.449   6.245   7.086  1.00  0.00     0.049 A 
ATOM     55  C   UNL     1      14.671   1.697   6.676  1.00  0.00     0.074 A 
ATOM     56  C   UNL     1      11.676   7.079   8.167  1.00  0.00     0.029 A 
ATOM     57  N   UNL     1      12.368   5.210   7.180  1.00  0.00    -0.354 N 
ATOM     58  N   UNL     1      13.997   2.796   6.913  1.00  0.00    -0.248 NA
ATOM     59  C   UNL     1      15.775   1.461   7.618  1.00  0.00     0.031 C 
ATOM     60  C   UNL     1      12.773   6.583   8.879  1.00  0.00     0.029 A 
ATOM     61  C   UNL     1      13.181   5.399   8.286  1.00  0.00     0.049 A 
ATOM     62  H   UNL     1      12.433   4.453   6.554  1.00  0.00     0.167 HD
ATOM     63  C   UNL     1      14.567   3.359   8.050  1.00  0.00     0.074 A 
ATOM     64  C   UNL     1      15.635   2.473   8.462  1.00  0.00     0.031 C 
ATOM     65  C   UNL     1      14.234   4.505   8.697  1.00  0.00     0.037 A 
BRANCH  52  66
ATOM     66  C   UNL     1       9.590   7.597   6.042  1.00  0.00     0.064 A 
ATOM     67  C   UNL     1       8.212   7.512   6.294  1.00  0.00     0.173 A 
ATOM     68  C   UNL     1      10.136   8.871   5.818  1.00  0.00     0.173 A 
ATOM     69  F   UNL     1       7.635   6.318   6.499  1.00  0.00    -0.203 F 
ATOM     70  C   UNL     1       7.410   8.651   6.292  1.00  0.00     0.198 A 
ATOM     71  C   UNL     1       9.338  10.011   5.852  1.00  0.00     0.198 A 
ATOM     72  F   UNL     1      11.448   9.011   5.575  1.00  0.00    -0.203 F 
ATOM     73  F   UNL     1       6.088   8.538   6.481  1.00  0.00    -0.200 F 
ATOM     74  C   UNL     1       7.975   9.899   6.079  1.00  0.00     0.200 A 
ATOM     75  F   UNL     1       9.888  11.218   5.661  1.00  0.00    -0.200 F 
ATOM     76  F   UNL     1       7.204  10.995   6.086  1.00  0.00    -0.200 F 
ENDBRANCH  52  66
BRANCH  53  77
ATOM     77  C   UNL     1      15.359  -0.526   5.514  1.00  0.00     0.064 A 
ATOM     78  C   UNL     1      15.357  -1.506   6.517  1.00  0.00     0.173 A 
ATOM     79  C   UNL     1      16.261  -0.687   4.450  1.00  0.00     0.173 A 
ATOM     80  F   UNL     1      14.536  -1.383   7.571  1.00  0.00    -0.203 F 
ATOM     81  C   UNL     1      16.237  -2.586   6.472  1.00  0.00     0.198 A 
ATOM     82  C   UNL     1      17.116  -1.785   4.390  1.00  0.00     0.198 A 
ATOM     83  F   UNL     1      16.310   0.225   3.468  1.00  0.00    -0.203 F 
ATOM     84  F   UNL     1      16.254  -3.474   7.475  1.00  0.00    -0.200 F 
ATOM     85  C   UNL     1      17.111  -2.728   5.406  1.00  0.00     0.200 A 
ATOM     86  F   UNL     1      17.953  -1.923   3.353  1.00  0.00    -0.200 F 
ATOM     87  F   UNL     1      17.958  -3.766   5.364  1.00  0.00    -0.200 F 
ENDBRANCH  53  77
BRANCH  65  88
ATOM     88  C   UNL     1      14.990   4.840   9.954  1.00  0.00     0.064 A 
ATOM     89  C   UNL     1      16.342   5.215   9.934  1.00  0.00     0.173 A 
ATOM     90  C   UNL     1      14.338   4.814  11.198  1.00  0.00     0.173 A 
ATOM     91  F   UNL     1      17.017   5.248   8.775  1.00  0.00    -0.203 F 
ATOM     92  C   UNL     1      17.021   5.513  11.114  1.00  0.00     0.198 A 
ATOM     93  C   UNL     1      15.010   5.149  12.370  1.00  0.00     0.198 A 
ATOM     94  F   UNL     1      13.043   4.473  11.276  1.00  0.00    -0.203 F 
ATOM     95  F   UNL     1      18.328   5.809  11.076  1.00  0.00    -0.200 F 
ATOM     96  C   UNL     1      16.353   5.486  12.329  1.00  0.00     0.200 A 
ATOM     97  F   UNL     1      14.357   5.141  13.540  1.00  0.00    -0.200 F 
ATOM     98  F   UNL     1      17.007   5.778  13.462  1.00  0.00    -0.200 F 
ENDBRANCH  65  88
ENDBRANCH  39  40
ENDBRANCH  32  34
ENDBRANCH  31  32
ENDBRANCH  30  31
ENDBRANCH  29  30
ENDBRANCH  28  29
ENDBRANCH  27  28
ENDBRANCH   1  27
TORSDOF 19
