REMARK SMILES Cc1cc2nc(S/C(=C\c3ccc(O)cc3)C(=O)OCCOCCOCCOC(=O)c3ccc(-c4c5nc(c(-c6c(F)c(F)c(F)c(F)c6F)c6ccc([nH]6)c(-c6c(F)c(F)c(F)c(F)c6F)c6nc(c(-c7c(F)c(F)c(F)c(F)c7F)c7ccc4[nH]7)C=C6)C=C5)cc3)[nH]c2cc1C
REMARK SMILES IDX 23 1 22 2 21 3 20 4 19 5 17 6 18 7 8 8 9 9 7 10 6 11 1 12
REMARK SMILES IDX 2 13 3 14 97 15 4 16 96 17 98 18 5 19 95 20 94 21 10 23
REMARK SMILES IDX 11 24 16 25 12 26 15 27 13 28 14 29 24 31 25 32 26 33 27 34
REMARK SMILES IDX 28 35 29 36 30 37 31 38 32 39 93 40 33 41 92 42 34 43 35 44
REMARK SMILES IDX 36 45 86 46 37 47 91 48 85 49 87 50 38 51 90 52 84 53 83 54
REMARK SMILES IDX 39 56 71 57 51 58 70 59 52 60 55 61 69 62 88 63 53 64 54 65
REMARK SMILES IDX 68 67 89 68 56 69 40 70 41 71 49 72 42 73 43 74 47 75 50 76
REMARK SMILES IDX 44 77 45 78 48 79 46 80 72 81 73 82 81 83 74 84 75 85 79 86
REMARK SMILES IDX 82 87 76 88 77 89 80 90 78 91 57 92 58 93 66 94 59 95 60 96
REMARK SMILES IDX 64 97 67 98 61 99 62 100 65 101 63 102
REMARK H PARENT 94 22 14 30 87 55 55 66
REMARK Flexibility Score: inf
ROOT
ATOM      1  C   UNL     1      -7.904  -1.100   1.465  1.00  0.00     0.188 C 
ENDROOT
BRANCH   1   2
ATOM      2  O   UNL     1      -9.199  -1.480   1.014  1.00  0.00    -0.376 OA
BRANCH   2   3
ATOM      3  C   UNL     1      -9.373  -2.720   0.338  1.00  0.00     0.202 C 
BRANCH   3   4
ATOM      4  C   UNL     1      -8.456  -3.075  -0.843  1.00  0.00     0.261 C 
BRANCH   4   5
ATOM      5  O   UNL     1      -7.053  -2.912  -0.574  1.00  0.00    -0.459 OA
BRANCH   5   6
ATOM      6  C   UNL     1      -6.370  -2.042  -1.371  1.00  0.00     0.345 C 
ATOM      7  O   UNL     1      -6.828  -1.480  -2.356  1.00  0.00    -0.246 OA
BRANCH   6   8
ATOM      8  C   UNL     1      -4.989  -1.767  -0.813  1.00  0.00     0.101 C 
ATOM      9  C   UNL     1      -4.339  -2.826  -0.286  1.00  0.00     0.031 C 
BRANCH   8  10
ATOM     10  S   UNL     1      -4.592  -0.078  -0.895  1.00  0.00    -0.044 SA
BRANCH  10  11
ATOM     11  C   UNL     1      -2.884   0.109  -0.856  1.00  0.00     0.171 A 
ATOM     12  C   UNL     1       2.671   1.857   0.231  1.00  0.00     0.044 C 
ATOM     13  C   UNL     1       1.486   1.013  -0.162  1.00  0.00    -0.046 A 
ATOM     14  C   UNL     1       0.200   1.580  -0.019  1.00  0.00     0.034 A 
ATOM     15  C   UNL     1       1.627  -0.275  -0.721  1.00  0.00    -0.046 A 
ATOM     16  C   UNL     1      -0.925   0.862  -0.450  1.00  0.00     0.090 A 
ATOM     17  C   UNL     1       0.513  -0.936  -1.276  1.00  0.00     0.032 A 
ATOM     18  C   UNL     1       2.950  -0.996  -0.737  1.00  0.00     0.044 C 
ATOM     19  N   UNL     1      -2.265   1.133  -0.308  1.00  0.00    -0.222 NA
ATOM     20  C   UNL     1      -0.737  -0.339  -1.118  1.00  0.00     0.066 A 
ATOM     21  N   UNL     1      -2.004  -0.726  -1.480  1.00  0.00    -0.333 N 
ATOM     22  H   UNL     1      -2.235  -1.470  -2.082  1.00  0.00     0.169 HD
ENDBRANCH  10  11
ENDBRANCH   8  10
BRANCH   9  23
ATOM     23  C   UNL     1      -3.017  -2.942   0.335  1.00  0.00    -0.024 A 
ATOM     24  C   UNL     1      -2.616  -2.186   1.442  1.00  0.00     0.012 A 
ATOM     25  C   UNL     1      -2.113  -3.847  -0.245  1.00  0.00     0.012 A 
ATOM     26  C   UNL     1      -1.292  -2.249   1.888  1.00  0.00     0.047 A 
ATOM     27  C   UNL     1      -0.799  -3.921   0.210  1.00  0.00     0.047 A 
ATOM     28  C   UNL     1      -0.390  -3.093   1.246  1.00  0.00     0.115 A 
BRANCH  28  29
ATOM     29  O   UNL     1       0.933  -3.094   1.574  1.00  0.00    -0.508 OA
ATOM     30  H   UNL     1       1.244  -2.547   2.268  1.00  0.00     0.293 HD
ENDBRANCH  28  29
ENDBRANCH   9  23
ENDBRANCH   6   8
ENDBRANCH   5   6
ENDBRANCH   4   5
ENDBRANCH   3   4
ENDBRANCH   2   3
ENDBRANCH   1   2
BRANCH   1  31
ATOM     31  C   UNL     1      -7.028  -2.113   2.234  1.00  0.00     0.188 C 
BRANCH  31  32
ATOM     32  O   UNL     1      -7.610  -3.384   2.383  1.00  0.00    -0.376 OA
BRANCH  32  33
ATOM     33  C   UNL     1      -8.240  -3.720   3.607  1.00  0.00     0.202 C 
BRANCH  33  34
ATOM     34  C   UNL     1      -8.953  -2.707   4.528  1.00  0.00     0.261 C 
BRANCH  34  35
ATOM     35  O   UNL     1      -8.682  -1.312   4.348  1.00  0.00    -0.460 OA
BRANCH  35  36
ATOM     36  C   UNL     1      -7.714  -0.767   5.119  1.00  0.00     0.338 C 
ATOM     37  O   UNL     1      -6.999  -1.341   5.926  1.00  0.00    -0.246 OA
BRANCH  36  38
ATOM     38  C   UNL     1      -7.522   0.635   4.696  1.00  0.00     0.060 A 
ATOM     39  C   UNL     1      -6.341   0.991   4.030  1.00  0.00     0.016 A 
ATOM     40  C   UNL     1      -8.504   1.593   4.956  1.00  0.00     0.016 A 
ATOM     41  C   UNL     1      -6.133   2.313   3.632  1.00  0.00     0.010 A 
ATOM     42  C   UNL     1      -8.282   2.921   4.580  1.00  0.00     0.010 A 
ATOM     43  C   UNL     1      -7.086   3.293   3.938  1.00  0.00    -0.014 A 
BRANCH  43  44
ATOM     44  C   UNL     1      -6.767   4.730   3.741  1.00  0.00     0.031 A 
ATOM     45  C   UNL     1      -6.314   5.535   4.928  1.00  0.00     0.074 A 
ATOM     46  C   UNL     1      -6.871   5.312   2.534  1.00  0.00     0.049 A 
ATOM     47  N   UNL     1      -6.051   6.814   5.019  1.00  0.00    -0.248 NA
ATOM     48  C   UNL     1      -6.140   4.794   6.187  1.00  0.00     0.031 C 
ATOM     49  C   UNL     1      -7.253   4.633   1.299  1.00  0.00     0.029 A 
ATOM     50  N   UNL     1      -6.673   6.618   2.156  1.00  0.00    -0.354 N 
ATOM     51  C   UNL     1      -5.688   7.030   6.341  1.00  0.00     0.074 A 
ATOM     52  C   UNL     1      -5.798   5.760   7.025  1.00  0.00     0.031 C 
ATOM     53  C   UNL     1      -7.277   5.532   0.299  1.00  0.00     0.029 A 
ATOM     54  C   UNL     1      -6.948   6.854   0.831  1.00  0.00     0.049 A 
ATOM     55  H   UNL     1      -6.364   7.318   2.776  1.00  0.00     0.167 HD
ATOM     56  C   UNL     1      -5.291   8.184   6.931  1.00  0.00     0.037 A 
ATOM     57  C   UNL     1      -6.958   8.010   0.138  1.00  0.00     0.037 A 
ATOM     58  C   UNL     1      -5.186   9.447   6.249  1.00  0.00     0.049 A 
ATOM     59  C   UNL     1      -6.596   9.297   0.838  1.00  0.00     0.074 A 
ATOM     60  C   UNL     1      -4.774  10.668   6.754  1.00  0.00     0.029 A 
ATOM     61  N   UNL     1      -5.508   9.655   4.915  1.00  0.00    -0.354 N 
ATOM     62  N   UNL     1      -6.227   9.493   2.081  1.00  0.00    -0.248 NA
ATOM     63  C   UNL     1      -6.652  10.527   0.034  1.00  0.00     0.031 C 
ATOM     64  C   UNL     1      -4.909  11.627   5.745  1.00  0.00     0.029 A 
ATOM     65  C   UNL     1      -5.338  10.991   4.590  1.00  0.00     0.049 A 
ATOM     66  H   UNL     1      -5.813   8.956   4.292  1.00  0.00     0.167 HD
ATOM     67  C   UNL     1      -5.976  10.855   2.199  1.00  0.00     0.074 A 
ATOM     68  C   UNL     1      -6.221  11.437   0.896  1.00  0.00     0.031 C 
ATOM     69  C   UNL     1      -5.579  11.560   3.288  1.00  0.00     0.037 A 
BRANCH  56  70
ATOM     70  C   UNL     1      -4.972   8.138   8.398  1.00  0.00     0.064 A 
ATOM     71  C   UNL     1      -3.841   7.470   8.890  1.00  0.00     0.173 A 
ATOM     72  C   UNL     1      -5.796   8.799   9.322  1.00  0.00     0.173 A 
ATOM     73  F   UNL     1      -3.027   6.811   8.051  1.00  0.00    -0.203 F 
ATOM     74  C   UNL     1      -3.563   7.440  10.254  1.00  0.00     0.198 A 
ATOM     75  C   UNL     1      -5.497   8.796  10.681  1.00  0.00     0.198 A 
ATOM     76  F   UNL     1      -6.889   9.457   8.905  1.00  0.00    -0.203 F 
ATOM     77  F   UNL     1      -2.506   6.752  10.706  1.00  0.00    -0.200 F 
ATOM     78  C   UNL     1      -4.386   8.109  11.147  1.00  0.00     0.200 A 
ATOM     79  F   UNL     1      -6.285   9.456  11.541  1.00  0.00    -0.200 F 
ATOM     80  F   UNL     1      -4.113   8.087  12.459  1.00  0.00    -0.200 F 
ENDBRANCH  56  70
BRANCH  57  81
ATOM     81  C   UNL     1      -7.342   8.014  -1.299  1.00  0.00     0.064 A 
ATOM     82  C   UNL     1      -6.414   8.345  -2.297  1.00  0.00     0.173 A 
ATOM     83  C   UNL     1      -8.654   7.723  -1.702  1.00  0.00     0.173 A 
ATOM     84  F   UNL     1      -5.156   8.665  -1.961  1.00  0.00    -0.203 F 
ATOM     85  C   UNL     1      -6.789   8.405  -3.638  1.00  0.00     0.198 A 
ATOM     86  C   UNL     1      -9.019   7.752  -3.047  1.00  0.00     0.198 A 
ATOM     87  F   UNL     1      -9.585   7.412  -0.788  1.00  0.00    -0.203 F 
ATOM     88  F   UNL     1      -5.896   8.782  -4.564  1.00  0.00    -0.200 F 
ATOM     89  C   UNL     1      -8.089   8.101  -4.013  1.00  0.00     0.200 A 
ATOM     90  F   UNL     1     -10.275   7.452  -3.404  1.00  0.00    -0.200 F 
ATOM     91  F   UNL     1      -8.449   8.162  -5.302  1.00  0.00    -0.200 F 
ENDBRANCH  57  81
BRANCH  69  92
ATOM     92  C   UNL     1      -5.344  13.035   3.113  1.00  0.00     0.064 A 
ATOM     93  C   UNL     1      -6.400  13.933   2.900  1.00  0.00     0.173 A 
ATOM     94  C   UNL     1      -4.046  13.562   3.205  1.00  0.00     0.173 A 
ATOM     95  F   UNL     1      -7.659  13.482   2.792  1.00  0.00    -0.203 F 
ATOM     96  C   UNL     1      -6.162  15.298   2.755  1.00  0.00     0.198 A 
ATOM     97  C   UNL     1      -3.816  14.931   3.096  1.00  0.00     0.198 A 
ATOM     98  F   UNL     1      -2.999  12.751   3.419  1.00  0.00    -0.203 F 
ATOM     99  F   UNL     1      -7.181  16.130   2.499  1.00  0.00    -0.200 F 
ATOM    100  C   UNL     1      -4.873  15.797   2.862  1.00  0.00     0.200 A 
ATOM    101  F   UNL     1      -2.571  15.412   3.219  1.00  0.00    -0.200 F 
ATOM    102  F   UNL     1      -4.648  17.111   2.734  1.00  0.00    -0.200 F 
ENDBRANCH  69  92
ENDBRANCH  43  44
ENDBRANCH  36  38
ENDBRANCH  35  36
ENDBRANCH  34  35
ENDBRANCH  33  34
ENDBRANCH  32  33
ENDBRANCH  31  32
ENDBRANCH   1  31
TORSDOF 21
