REMARK SMILES O=C(C[C@@H]1COCCN1C(=O)c1csc(Cc2ccccc2)n1)OCCOCCOCCOC(=O)c1ccc(-c2c3nc(c(-c4c(F)c(F)c(F)c(F)c4F)c4ccc([nH]4)c(-c4c(F)c(F)c(F)c(F)c4F)c4nc(c(-c5c(F)c(F)c(F)c(F)c5F)c5ccc2[nH]5)C=C4)C=C3)cc1
REMARK SMILES IDX 27 1 26 2 25 3 24 4 2 5 1 6 3 7 4 8 5 9 9 10 6 11 8 12 7 13
REMARK SMILES IDX 10 14 11 15 12 16 13 17 23 18 14 19 15 20 16 21 17 22 18 23
REMARK SMILES IDX 22 24 19 25 21 26 20 27 28 28 29 29 30 30 31 31 32 32 33 33
REMARK SMILES IDX 34 34 35 35 36 36 37 37 98 38 38 39 97 40 39 41 40 42 41 43
REMARK SMILES IDX 91 44 42 45 96 46 90 47 92 48 43 49 95 50 89 51 88 52 44 54
REMARK SMILES IDX 76 55 56 56 75 57 57 58 60 59 74 60 93 61 58 62 59 63 73 65
REMARK SMILES IDX 94 66 61 67 45 68 46 69 54 70 47 71 48 72 52 73 55 74 49 75
REMARK SMILES IDX 50 76 53 77 51 78 77 79 78 80 86 81 79 82 80 83 84 84 87 85
REMARK SMILES IDX 81 86 82 87 85 88 83 89 62 90 63 91 71 92 64 93 65 94 69 95
REMARK SMILES IDX 72 96 66 97 67 98 70 99 68 100
REMARK H PARENT 92 53 60 64
REMARK Flexibility Score: inf
ROOT
ATOM      1  O   UNL     1       4.689   1.785   1.426  1.00  0.00    -0.376 OA
ENDROOT
BRANCH   1   2
ATOM      2  C   UNL     1       5.340   0.904   0.539  1.00  0.00     0.202 C 
BRANCH   2   3
ATOM      3  C   UNL     1       4.798   0.847  -0.900  1.00  0.00     0.261 C 
BRANCH   3   4
ATOM      4  O   UNL     1       3.378   0.619  -1.088  1.00  0.00    -0.463 OA
BRANCH   4   5
ATOM      5  C   UNL     1       2.721  -0.562  -0.971  1.00  0.00     0.308 C 
ATOM      6  O   UNL     1       1.673  -0.747  -1.578  1.00  0.00    -0.252 OA
BRANCH   5   7
ATOM      7  C   UNL     1       3.281  -1.571  -0.003  1.00  0.00     0.150 C 
BRANCH   7   8
ATOM      8  C   UNL     1       3.561  -2.946  -0.573  1.00  0.00     0.122 C 
ATOM      9  C   UNL     1       3.682  -2.972  -2.114  1.00  0.00     0.185 C 
ATOM     10  N   UNL     1       2.894  -4.178  -0.082  1.00  0.00    -0.329 N 
ATOM     11  O   UNL     1       4.438  -4.121  -2.526  1.00  0.00    -0.377 OA
ATOM     12  C   UNL     1       3.586  -5.378  -0.602  1.00  0.00     0.148 C 
ATOM     13  C   UNL     1       3.776  -5.324  -2.120  1.00  0.00     0.181 C 
BRANCH  10  14
ATOM     14  C   UNL     1       1.949  -4.426   0.926  1.00  0.00     0.273 C 
ATOM     15  O   UNL     1       1.813  -5.586   1.335  1.00  0.00    -0.267 OA
BRANCH  14  16
ATOM     16  C   UNL     1       1.129  -3.394   1.588  1.00  0.00     0.139 A 
ATOM     17  C   UNL     1       0.698  -3.606   2.889  1.00  0.00     0.101 A 
ATOM     18  N   UNL     1       0.621  -2.215   1.030  1.00  0.00    -0.236 NA
ATOM     19  S   UNL     1      -0.293  -2.340   3.430  1.00  0.00    -0.126 S 
ATOM     20  C   UNL     1      -0.130  -1.558   1.906  1.00  0.00     0.098 A 
BRANCH  20  21
ATOM     21  C   UNL     1      -0.686  -0.163   1.692  1.00  0.00     0.103 C 
BRANCH  21  22
ATOM     22  C   UNL     1      -2.086   0.133   2.213  1.00  0.00    -0.041 A 
ATOM     23  C   UNL     1      -3.154   0.304   1.322  1.00  0.00     0.004 A 
ATOM     24  C   UNL     1      -2.340   0.305   3.585  1.00  0.00     0.004 A 
ATOM     25  C   UNL     1      -4.433   0.625   1.791  1.00  0.00     0.000 A 
ATOM     26  C   UNL     1      -3.621   0.602   4.056  1.00  0.00     0.000 A 
ATOM     27  C   UNL     1      -4.668   0.766   3.157  1.00  0.00     0.000 A 
ENDBRANCH  21  22
ENDBRANCH  20  21
ENDBRANCH  14  16
ENDBRANCH  10  14
ENDBRANCH   7   8
ENDBRANCH   5   7
ENDBRANCH   4   5
ENDBRANCH   3   4
ENDBRANCH   2   3
ENDBRANCH   1   2
BRANCH   1  28
ATOM     28  C   UNL     1       3.311   1.617   1.683  1.00  0.00     0.188 C 
BRANCH  28  29
ATOM     29  C   UNL     1       2.526   2.934   1.545  1.00  0.00     0.188 C 
BRANCH  29  30
ATOM     30  O   UNL     1       3.199   4.072   1.019  1.00  0.00    -0.376 OA
BRANCH  30  31
ATOM     31  C   UNL     1       4.442   4.465   1.602  1.00  0.00     0.202 C 
BRANCH  31  32
ATOM     32  C   UNL     1       4.523   4.600   3.131  1.00  0.00     0.261 C 
BRANCH  32  33
ATOM     33  O   UNL     1       4.250   3.382   3.860  1.00  0.00    -0.460 OA
BRANCH  33  34
ATOM     34  C   UNL     1       3.283   3.486   4.803  1.00  0.00     0.338 C 
ATOM     35  O   UNL     1       2.665   4.489   5.117  1.00  0.00    -0.246 OA
BRANCH  34  36
ATOM     36  C   UNL     1       2.921   2.170   5.370  1.00  0.00     0.060 A 
ATOM     37  C   UNL     1       1.610   1.722   5.167  1.00  0.00     0.016 A 
ATOM     38  C   UNL     1       3.759   1.510   6.273  1.00  0.00     0.016 A 
ATOM     39  C   UNL     1       1.108   0.668   5.929  1.00  0.00     0.010 A 
ATOM     40  C   UNL     1       3.245   0.458   7.050  1.00  0.00     0.010 A 
ATOM     41  C   UNL     1       1.898   0.075   6.923  1.00  0.00    -0.014 A 
BRANCH  41  42
ATOM     42  C   UNL     1       1.203  -0.714   7.977  1.00  0.00     0.031 A 
ATOM     43  C   UNL     1       0.675   0.022   9.183  1.00  0.00     0.074 A 
ATOM     44  C   UNL     1       0.926  -2.021   7.828  1.00  0.00     0.049 A 
ATOM     45  N   UNL     1      -0.039  -0.422  10.187  1.00  0.00    -0.248 NA
ATOM     46  C   UNL     1       0.989   1.458   9.259  1.00  0.00     0.031 C 
ATOM     47  C   UNL     1       1.325  -2.842   6.692  1.00  0.00     0.029 A 
ATOM     48  N   UNL     1       0.211  -2.878   8.631  1.00  0.00    -0.354 N 
ATOM     49  C   UNL     1      -0.246   0.672  11.016  1.00  0.00     0.074 A 
ATOM     50  C   UNL     1       0.420   1.801  10.404  1.00  0.00     0.031 C 
ATOM     51  C   UNL     1       0.814  -4.078   6.847  1.00  0.00     0.029 A 
ATOM     52  C   UNL     1       0.082  -4.143   8.111  1.00  0.00     0.049 A 
ATOM     53  H   UNL     1      -0.172  -2.611   9.498  1.00  0.00     0.167 HD
ATOM     54  C   UNL     1      -0.925   0.737  12.186  1.00  0.00     0.037 A 
ATOM     55  C   UNL     1      -0.555  -5.227   8.600  1.00  0.00     0.037 A 
ATOM     56  C   UNL     1      -1.589  -0.376  12.809  1.00  0.00     0.049 A 
ATOM     57  C   UNL     1      -1.264  -5.140   9.929  1.00  0.00     0.074 A 
ATOM     58  C   UNL     1      -2.274  -0.409  14.011  1.00  0.00     0.029 A 
ATOM     59  N   UNL     1      -1.648  -1.654  12.278  1.00  0.00    -0.354 N 
ATOM     60  N   UNL     1      -1.445  -4.103  10.709  1.00  0.00    -0.248 NA
ATOM     61  C   UNL     1      -1.849  -6.387  10.450  1.00  0.00     0.031 C 
ATOM     62  C   UNL     1      -2.717  -1.719  14.226  1.00  0.00     0.029 A 
ATOM     63  C   UNL     1      -2.345  -2.489  13.136  1.00  0.00     0.049 A 
ATOM     64  H   UNL     1      -1.254  -1.928  11.418  1.00  0.00     0.167 HD
ATOM     65  C   UNL     1      -2.179  -4.564  11.796  1.00  0.00     0.074 A 
ATOM     66  C   UNL     1      -2.428  -5.971  11.568  1.00  0.00     0.031 C 
ATOM     67  C   UNL     1      -2.601  -3.884  12.890  1.00  0.00     0.037 A 
BRANCH  54  68
ATOM     68  C   UNL     1      -0.935   2.057  12.894  1.00  0.00     0.064 A 
ATOM     69  C   UNL     1      -1.725   3.127  12.451  1.00  0.00     0.173 A 
ATOM     70  C   UNL     1      -0.141   2.250  14.034  1.00  0.00     0.173 A 
ATOM     71  F   UNL     1      -2.484   2.995  11.352  1.00  0.00    -0.203 F 
ATOM     72  C   UNL     1      -1.702   4.352  13.111  1.00  0.00     0.198 A 
ATOM     73  C   UNL     1      -0.137   3.469  14.705  1.00  0.00     0.198 A 
ATOM     74  F   UNL     1       0.634   1.256  14.495  1.00  0.00    -0.203 F 
ATOM     75  F   UNL     1      -2.429   5.377  12.645  1.00  0.00    -0.200 F 
ATOM     76  C   UNL     1      -0.912   4.521  14.239  1.00  0.00     0.200 A 
ATOM     77  F   UNL     1       0.622   3.628  15.798  1.00  0.00    -0.200 F 
ATOM     78  F   UNL     1      -0.888   5.701  14.873  1.00  0.00    -0.200 F 
ENDBRANCH  54  68
BRANCH  55  79
ATOM     79  C   UNL     1      -0.557  -6.506   7.840  1.00  0.00     0.064 A 
ATOM     80  C   UNL     1      -1.746  -7.026   7.306  1.00  0.00     0.173 A 
ATOM     81  C   UNL     1       0.613  -7.261   7.681  1.00  0.00     0.173 A 
ATOM     82  F   UNL     1      -2.898  -6.359   7.463  1.00  0.00    -0.203 F 
ATOM     83  C   UNL     1      -1.766  -8.262   6.662  1.00  0.00     0.198 A 
ATOM     84  C   UNL     1       0.596  -8.484   7.013  1.00  0.00     0.198 A 
ATOM     85  F   UNL     1       1.774  -6.815   8.183  1.00  0.00    -0.203 F 
ATOM     86  F   UNL     1      -2.926  -8.764   6.215  1.00  0.00    -0.200 F 
ATOM     87  C   UNL     1      -0.595  -8.989   6.513  1.00  0.00     0.200 A 
ATOM     88  F   UNL     1       1.732  -9.181   6.869  1.00  0.00    -0.200 F 
ATOM     89  F   UNL     1      -0.616 -10.182   5.904  1.00  0.00    -0.200 F 
ENDBRANCH  55  79
BRANCH  67  90
ATOM     90  C   UNL     1      -3.404  -4.639  13.910  1.00  0.00     0.064 A 
ATOM     91  C   UNL     1      -2.810  -5.579  14.765  1.00  0.00     0.173 A 
ATOM     92  C   UNL     1      -4.776  -4.386  14.063  1.00  0.00     0.173 A 
ATOM     93  F   UNL     1      -1.504  -5.865  14.650  1.00  0.00    -0.203 F 
ATOM     94  C   UNL     1      -3.565  -6.256  15.719  1.00  0.00     0.198 A 
ATOM     95  C   UNL     1      -5.522  -5.046  15.035  1.00  0.00     0.198 A 
ATOM     96  F   UNL     1      -5.390  -3.490  13.276  1.00  0.00    -0.203 F 
ATOM     97  F   UNL     1      -2.985  -7.181  16.497  1.00  0.00    -0.200 F 
ATOM     98  C   UNL     1      -4.918  -5.985  15.858  1.00  0.00     0.200 A 
ATOM     99  F   UNL     1      -6.827  -4.774  15.176  1.00  0.00    -0.200 F 
ATOM    100  F   UNL     1      -5.642  -6.634  16.780  1.00  0.00    -0.200 F 
ENDBRANCH  67  90
ENDBRANCH  41  42
ENDBRANCH  34  36
ENDBRANCH  33  34
ENDBRANCH  32  33
ENDBRANCH  31  32
ENDBRANCH  30  31
ENDBRANCH  29  30
ENDBRANCH  28  29
ENDBRANCH   1  28
TORSDOF 22
