REMARK SMILES O=C(OCCOCCOCCOC(=O)[C@H]1CC(=O)N(CCc2ccc3c(c2)OCO3)C1)c1ccc(-c2c3nc(c(-c4c(F)c(F)c(F)c(F)c4F)c4ccc([nH]4)c(-c4c(F)c(F)c(F)c(F)c4F)c4nc(c(-c5c(F)c(F)c(F)c(F)c5F)c5ccc2[nH]5)C=C4)C=C3)cc1
REMARK SMILES IDX 8 1 7 2 6 3 5 4 4 5 3 6 2 7 1 8 32 9 33 10 94 11 34 12 93 13
REMARK SMILES IDX 35 14 36 15 37 16 87 17 38 18 92 19 86 20 88 21 39 22 91 23
REMARK SMILES IDX 85 24 84 25 40 27 72 28 52 29 71 30 53 31 56 32 70 33 89 34
REMARK SMILES IDX 54 35 55 36 69 38 90 39 57 40 41 41 42 42 50 43 43 44 44 45
REMARK SMILES IDX 48 46 51 47 45 48 46 49 49 50 47 51 73 52 74 53 82 54 75 55
REMARK SMILES IDX 76 56 80 57 83 58 77 59 78 60 81 61 79 62 58 63 59 64 67 65
REMARK SMILES IDX 60 66 61 67 65 68 68 69 62 70 63 71 66 72 64 73 9 74 10 75
REMARK SMILES IDX 11 76 12 77 13 78 14 79 15 80 16 81 31 82 17 83 19 84 18 85
REMARK SMILES IDX 20 86 21 87 22 88 23 89 27 90 24 91 26 92 25 93 28 94 30 95
REMARK SMILES IDX 29 96
REMARK H PARENT 88 26 56 37
REMARK Flexibility Score: inf
ROOT
ATOM      1  C   UNL     1       3.713   3.543   1.961  1.00  0.00     0.188 C 
ENDROOT
BRANCH   1   2
ATOM      2  C   UNL     1       2.206   3.787   1.923  1.00  0.00     0.188 C 
BRANCH   2   3
ATOM      3  O   UNL     1       1.853   5.095   1.454  1.00  0.00    -0.376 OA
BRANCH   3   4
ATOM      4  C   UNL     1       1.641   6.024   2.522  1.00  0.00     0.202 C 
BRANCH   4   5
ATOM      5  C   UNL     1       0.188   6.036   3.023  1.00  0.00     0.261 C 
BRANCH   5   6
ATOM      6  O   UNL     1      -0.418   4.730   3.030  1.00  0.00    -0.460 OA
BRANCH   6   7
ATOM      7  C   UNL     1      -0.900   4.008   1.988  1.00  0.00     0.338 C 
ATOM      8  O   UNL     1      -1.118   2.810   2.170  1.00  0.00    -0.246 OA
BRANCH   7   9
ATOM      9  C   UNL     1      -1.273   4.583   0.653  1.00  0.00     0.060 A 
ATOM     10  C   UNL     1      -0.774   5.757   0.086  1.00  0.00     0.016 A 
ATOM     11  C   UNL     1      -2.211   3.845  -0.100  1.00  0.00     0.016 A 
ATOM     12  C   UNL     1      -1.273   6.246  -1.123  1.00  0.00     0.010 A 
ATOM     13  C   UNL     1      -2.705   4.318  -1.321  1.00  0.00     0.010 A 
ATOM     14  C   UNL     1      -2.280   5.556  -1.802  1.00  0.00    -0.014 A 
BRANCH  14  15
ATOM     15  C   UNL     1      -3.014   6.275  -2.865  1.00  0.00     0.031 A 
ATOM     16  C   UNL     1      -4.224   7.055  -2.474  1.00  0.00     0.074 A 
ATOM     17  C   UNL     1      -2.576   6.288  -4.133  1.00  0.00     0.049 A 
ATOM     18  N   UNL     1      -4.960   7.853  -3.198  1.00  0.00    -0.248 NA
ATOM     19  C   UNL     1      -4.700   6.873  -1.094  1.00  0.00     0.031 C 
ATOM     20  C   UNL     1      -1.493   5.461  -4.628  1.00  0.00     0.029 A 
ATOM     21  N   UNL     1      -2.949   7.038  -5.220  1.00  0.00    -0.354 N 
ATOM     22  C   UNL     1      -6.043   8.179  -2.399  1.00  0.00     0.074 A 
ATOM     23  C   UNL     1      -5.835   7.552  -1.113  1.00  0.00     0.031 C 
ATOM     24  C   UNL     1      -1.208   5.824  -5.888  1.00  0.00     0.029 A 
ATOM     25  C   UNL     1      -2.060   6.936  -6.268  1.00  0.00     0.049 A 
ATOM     26  H   UNL     1      -3.764   7.590  -5.249  1.00  0.00     0.167 HD
ATOM     27  C   UNL     1      -7.142   8.885  -2.751  1.00  0.00     0.037 A 
ATOM     28  C   UNL     1      -1.922   7.715  -7.359  1.00  0.00     0.037 A 
ATOM     29  C   UNL     1      -7.309   9.494  -4.043  1.00  0.00     0.049 A 
ATOM     30  C   UNL     1      -3.006   8.723  -7.617  1.00  0.00     0.074 A 
ATOM     31  C   UNL     1      -8.393  10.186  -4.548  1.00  0.00     0.029 A 
ATOM     32  N   UNL     1      -6.340   9.485  -5.040  1.00  0.00    -0.354 N 
ATOM     33  N   UNL     1      -4.041   9.023  -6.871  1.00  0.00    -0.248 NA
ATOM     34  C   UNL     1      -2.946   9.450  -8.892  1.00  0.00     0.031 C 
ATOM     35  C   UNL     1      -8.089  10.575  -5.859  1.00  0.00     0.029 A 
ATOM     36  C   UNL     1      -6.796  10.168  -6.154  1.00  0.00     0.049 A 
ATOM     37  H   UNL     1      -5.458   9.055  -4.964  1.00  0.00     0.167 HD
ATOM     38  C   UNL     1      -4.793   9.918  -7.611  1.00  0.00     0.074 A 
ATOM     39  C   UNL     1      -4.038  10.197  -8.818  1.00  0.00     0.031 C 
ATOM     40  C   UNL     1      -6.028  10.410  -7.348  1.00  0.00     0.037 A 
BRANCH  27  41
ATOM     41  C   UNL     1      -8.268   8.901  -1.762  1.00  0.00     0.064 A 
ATOM     42  C   UNL     1      -8.191   9.593  -0.545  1.00  0.00     0.173 A 
ATOM     43  C   UNL     1      -9.414   8.127  -2.005  1.00  0.00     0.173 A 
ATOM     44  F   UNL     1      -7.099  10.314  -0.247  1.00  0.00    -0.203 F 
ATOM     45  C   UNL     1      -9.198   9.476   0.410  1.00  0.00     0.198 A 
ATOM     46  C   UNL     1     -10.434   8.038  -1.063  1.00  0.00     0.198 A 
ATOM     47  F   UNL     1      -9.533   7.434  -3.147  1.00  0.00    -0.203 F 
ATOM     48  F   UNL     1      -9.065  10.079   1.599  1.00  0.00    -0.200 F 
ATOM     49  C   UNL     1     -10.319   8.700   0.149  1.00  0.00     0.200 A 
ATOM     50  F   UNL     1     -11.516   7.289  -1.317  1.00  0.00    -0.200 F 
ATOM     51  F   UNL     1     -11.279   8.574   1.076  1.00  0.00    -0.200 F 
ENDBRANCH  27  41
BRANCH  28  52
ATOM     52  C   UNL     1      -0.701   7.663  -8.216  1.00  0.00     0.064 A 
ATOM     53  C   UNL     1       0.141   8.789  -8.294  1.00  0.00     0.173 A 
ATOM     54  C   UNL     1      -0.321   6.533  -8.951  1.00  0.00     0.173 A 
ATOM     55  F   UNL     1      -0.172   9.906  -7.620  1.00  0.00    -0.203 F 
ATOM     56  C   UNL     1       1.297   8.787  -9.074  1.00  0.00     0.198 A 
ATOM     57  C   UNL     1       0.858   6.518  -9.700  1.00  0.00     0.198 A 
ATOM     58  F   UNL     1      -1.080   5.429  -8.928  1.00  0.00    -0.203 F 
ATOM     59  F   UNL     1       2.054   9.890  -9.152  1.00  0.00    -0.200 F 
ATOM     60  C   UNL     1       1.661   7.646  -9.768  1.00  0.00     0.200 A 
ATOM     61  F   UNL     1       1.222   5.403 -10.349  1.00  0.00    -0.200 F 
ATOM     62  F   UNL     1       2.786   7.631 -10.496  1.00  0.00    -0.200 F 
ENDBRANCH  28  52
BRANCH  40  63
ATOM     63  C   UNL     1      -6.646  11.250  -8.420  1.00  0.00     0.064 A 
ATOM     64  C   UNL     1      -7.102  10.674  -9.616  1.00  0.00     0.173 A 
ATOM     65  C   UNL     1      -6.801  12.631  -8.246  1.00  0.00     0.173 A 
ATOM     66  F   UNL     1      -6.959   9.357  -9.830  1.00  0.00    -0.203 F 
ATOM     67  C   UNL     1      -7.664  11.460 -10.616  1.00  0.00     0.198 A 
ATOM     68  C   UNL     1      -7.387  13.409  -9.239  1.00  0.00     0.198 A 
ATOM     69  F   UNL     1      -6.381  13.222  -7.118  1.00  0.00    -0.203 F 
ATOM     70  F   UNL     1      -8.045  10.899 -11.772  1.00  0.00    -0.200 F 
ATOM     71  C   UNL     1      -7.810  12.825 -10.424  1.00  0.00     0.200 A 
ATOM     72  F   UNL     1      -7.536  14.728  -9.052  1.00  0.00    -0.200 F 
ATOM     73  F   UNL     1      -8.350  13.582 -11.389  1.00  0.00    -0.200 F 
ENDBRANCH  40  63
ENDBRANCH  14  15
ENDBRANCH   7   9
ENDBRANCH   6   7
ENDBRANCH   5   6
ENDBRANCH   4   5
ENDBRANCH   3   4
ENDBRANCH   2   3
ENDBRANCH   1   2
BRANCH   1  74
ATOM     74  O   UNL     1       4.430   4.726   2.305  1.00  0.00    -0.376 OA
BRANCH  74  75
ATOM     75  C   UNL     1       5.321   5.162   1.275  1.00  0.00     0.202 C 
BRANCH  75  76
ATOM     76  C   UNL     1       4.619   5.807   0.072  1.00  0.00     0.261 C 
BRANCH  76  77
ATOM     77  O   UNL     1       3.757   4.940  -0.694  1.00  0.00    -0.463 OA
BRANCH  77  78
ATOM     78  C   UNL     1       4.363   3.960  -1.403  1.00  0.00     0.311 C 
ATOM     79  O   UNL     1       5.526   3.606  -1.255  1.00  0.00    -0.252 OA
BRANCH  78  80
ATOM     80  C   UNL     1       3.534   3.502  -2.561  1.00  0.00     0.128 C 
ATOM     81  C   UNL     1       2.048   3.220  -2.420  1.00  0.00     0.117 C 
ATOM     82  C   UNL     1       3.562   4.659  -3.530  1.00  0.00     0.135 C 
ATOM     83  C   UNL     1       1.570   3.512  -3.833  1.00  0.00     0.223 C 
ATOM     84  N   UNL     1       2.457   4.416  -4.400  1.00  0.00    -0.341 N 
ATOM     85  O   UNL     1       0.578   3.035  -4.357  1.00  0.00    -0.275 OA
BRANCH  84  86
ATOM     86  C   UNL     1       2.348   5.084  -5.688  1.00  0.00     0.124 C 
BRANCH  86  87
ATOM     87  C   UNL     1       2.018   6.591  -5.602  1.00  0.00     0.057 C 
BRANCH  87  88
ATOM     88  C   UNL     1       3.009   7.559  -4.989  1.00  0.00    -0.042 A 
ATOM     89  C   UNL     1       4.397   7.313  -4.949  1.00  0.00     0.008 A 
ATOM     90  C   UNL     1       2.514   8.755  -4.433  1.00  0.00     0.054 A 
ATOM     91  C   UNL     1       5.260   8.153  -4.238  1.00  0.00     0.051 A 
ATOM     92  C   UNL     1       3.395   9.592  -3.782  1.00  0.00     0.166 A 
ATOM     93  C   UNL     1       4.727   9.283  -3.662  1.00  0.00     0.165 A 
ATOM     94  O   UNL     1       3.080  10.769  -3.178  1.00  0.00    -0.454 OA
ATOM     95  O   UNL     1       5.413  10.207  -2.940  1.00  0.00    -0.454 OA
ATOM     96  C   UNL     1       4.379  11.185  -2.705  1.00  0.00     0.468 C 
ENDBRANCH  87  88
ENDBRANCH  86  87
ENDBRANCH  84  86
ENDBRANCH  78  80
ENDBRANCH  77  78
ENDBRANCH  76  77
ENDBRANCH  75  76
ENDBRANCH  74  75
ENDBRANCH   1  74
TORSDOF 20
