REMARK SMILES CC1=C(CCC(=O)OCCOCCOCCOC(=O)c2ccc(-c3c4nc(c(-c5c(F)c(F)c(F)c(F)c5F)c5ccc([nH]5)c(-c5c(F)c(F)c(F)c(F)c5F)c5nc(c(-c6c(F)c(F)c(F)c(F)c6F)c6ccc3[nH]6)C=C5)C=C4)cc2)N=N[C@H]1C
REMARK SMILES IDX 12 1 11 2 10 3 9 4 8 5 6 6 7 7 5 8 4 9 3 10 1 11 2 12 85 13
REMARK SMILES IDX 83 14 84 15 86 16 13 17 14 18 15 19 16 20 17 21 18 22 19 23
REMARK SMILES IDX 20 24 21 25 82 26 22 27 81 28 23 29 24 30 25 31 75 32 26 33
REMARK SMILES IDX 80 34 74 35 76 36 27 37 79 38 73 39 72 40 28 42 60 43 40 44
REMARK SMILES IDX 59 45 41 46 44 47 58 48 77 49 42 50 43 51 57 53 78 54 45 55
REMARK SMILES IDX 29 56 30 57 38 58 31 59 32 60 36 61 39 62 33 63 34 64 37 65
REMARK SMILES IDX 35 66 61 67 62 68 70 69 63 70 64 71 68 72 71 73 65 74 66 75
REMARK SMILES IDX 69 76 67 77 46 78 47 79 55 80 48 81 49 82 53 83 56 84 50 85
REMARK SMILES IDX 51 86 54 87 52 88
REMARK H PARENT 76 41 44 52
REMARK Flexibility Score: inf
ROOT
ATOM      1  C   UNL     1       1.033  -6.573  -1.927  1.00  0.00     0.188 C 
ENDROOT
BRANCH   1   2
ATOM      2  O   UNL     1       0.026  -7.250  -2.687  1.00  0.00    -0.376 OA
BRANCH   2   3
ATOM      3  C   UNL     1      -0.749  -6.428  -3.564  1.00  0.00     0.202 C 
BRANCH   3   4
ATOM      4  C   UNL     1      -1.744  -5.495  -2.864  1.00  0.00     0.261 C 
BRANCH   4   5
ATOM      5  O   UNL     1      -1.096  -4.608  -1.937  1.00  0.00    -0.463 OA
BRANCH   5   6
ATOM      6  C   UNL     1      -1.581  -4.539  -0.681  1.00  0.00     0.306 C 
ATOM      7  O   UNL     1      -2.577  -5.138  -0.287  1.00  0.00    -0.252 OA
BRANCH   6   8
ATOM      8  C   UNL     1      -0.738  -3.705   0.267  1.00  0.00     0.129 C 
BRANCH   8   9
ATOM      9  C   UNL     1       0.464  -2.925  -0.267  1.00  0.00     0.070 C 
BRANCH   9  10
ATOM     10  C   UNL     1       0.120  -1.761  -1.144  1.00  0.00     0.064 C 
ATOM     11  C   UNL     1       0.867   0.258   0.256  1.00  0.00     0.044 C 
ATOM     12  C   UNL     1       0.296  -0.457  -0.909  1.00  0.00    -0.024 C 
ATOM     13  C   UNL     1      -0.182   0.232  -2.143  1.00  0.00     0.153 C 
ATOM     14  N   UNL     1      -0.358  -1.988  -2.411  1.00  0.00    -0.160 NA
ATOM     15  N   UNL     1      -0.490  -0.907  -3.042  1.00  0.00    -0.181 NA
ATOM     16  C   UNL     1      -1.474   1.010  -1.938  1.00  0.00     0.040 C 
ENDBRANCH   9  10
ENDBRANCH   8   9
ENDBRANCH   6   8
ENDBRANCH   5   6
ENDBRANCH   4   5
ENDBRANCH   3   4
ENDBRANCH   2   3
ENDBRANCH   1   2
BRANCH   1  17
ATOM     17  C   UNL     1       1.945  -5.676  -2.770  1.00  0.00     0.188 C 
BRANCH  17  18
ATOM     18  O   UNL     1       1.313  -4.457  -3.110  1.00  0.00    -0.376 OA
BRANCH  18  19
ATOM     19  C   UNL     1       1.674  -3.661  -4.235  1.00  0.00     0.202 C 
BRANCH  19  20
ATOM     20  C   UNL     1       2.698  -4.075  -5.294  1.00  0.00     0.261 C 
BRANCH  20  21
ATOM     21  O   UNL     1       3.764  -4.878  -4.834  1.00  0.00    -0.460 OA
BRANCH  21  22
ATOM     22  C   UNL     1       4.456  -4.451  -3.759  1.00  0.00     0.338 C 
ATOM     23  O   UNL     1       4.475  -3.344  -3.268  1.00  0.00    -0.246 OA
BRANCH  22  24
ATOM     24  C   UNL     1       5.176  -5.644  -3.271  1.00  0.00     0.060 A 
ATOM     25  C   UNL     1       6.228  -5.438  -2.386  1.00  0.00     0.016 A 
ATOM     26  C   UNL     1       4.892  -6.919  -3.811  1.00  0.00     0.016 A 
ATOM     27  C   UNL     1       7.176  -6.428  -2.295  1.00  0.00     0.010 A 
ATOM     28  C   UNL     1       5.821  -7.915  -3.703  1.00  0.00     0.010 A 
ATOM     29  C   UNL     1       7.009  -7.578  -3.076  1.00  0.00    -0.014 A 
BRANCH  29  30
ATOM     30  C   UNL     1       8.210  -8.267  -3.479  1.00  0.00     0.031 A 
ATOM     31  C   UNL     1       8.727  -9.261  -2.533  1.00  0.00     0.074 A 
ATOM     32  C   UNL     1       8.755  -7.991  -4.679  1.00  0.00     0.049 A 
ATOM     33  N   UNL     1       9.865  -9.247  -1.927  1.00  0.00    -0.248 NA
ATOM     34  C   UNL     1       7.828 -10.351  -2.136  1.00  0.00     0.031 C 
ATOM     35  C   UNL     1       8.175  -7.238  -5.799  1.00  0.00     0.029 A 
ATOM     36  N   UNL     1       9.934  -8.428  -5.183  1.00  0.00    -0.354 N 
ATOM     37  C   UNL     1       9.895 -10.408  -1.170  1.00  0.00     0.074 A 
ATOM     38  C   UNL     1       8.575 -10.981  -1.230  1.00  0.00     0.031 C 
ATOM     39  C   UNL     1       8.907  -7.467  -6.911  1.00  0.00     0.029 A 
ATOM     40  C   UNL     1      10.055  -8.282  -6.553  1.00  0.00     0.049 A 
ATOM     41  H   UNL     1      10.644  -8.816  -4.622  1.00  0.00     0.167 HD
ATOM     42  C   UNL     1      11.064 -10.916  -0.701  1.00  0.00     0.037 A 
ATOM     43  C   UNL     1      10.975  -8.903  -7.328  1.00  0.00     0.037 A 
ATOM     44  C   UNL     1      12.113  -9.933  -0.695  1.00  0.00     0.049 A 
ATOM     45  C   UNL     1      12.091  -9.324  -6.434  1.00  0.00     0.074 A 
ATOM     46  C   UNL     1      12.284  -8.724  -0.047  1.00  0.00     0.029 A 
ATOM     47  N   UNL     1      13.037  -9.943  -1.711  1.00  0.00    -0.354 N 
ATOM     48  N   UNL     1      12.905  -8.493  -5.840  1.00  0.00    -0.248 NA
ATOM     49  C   UNL     1      12.019 -10.652  -5.837  1.00  0.00     0.031 C 
ATOM     50  C   UNL     1      12.965  -7.889  -0.979  1.00  0.00     0.029 A 
ATOM     51  C   UNL     1      13.193  -8.644  -2.131  1.00  0.00     0.049 A 
ATOM     52  H   UNL     1      13.502 -10.733  -2.071  1.00  0.00     0.167 HD
ATOM     53  C   UNL     1      13.129  -9.045  -4.584  1.00  0.00     0.074 A 
ATOM     54  C   UNL     1      12.636 -10.415  -4.676  1.00  0.00     0.031 C 
ATOM     55  C   UNL     1      13.424  -8.261  -3.505  1.00  0.00     0.037 A 
BRANCH  42  56
ATOM     56  C   UNL     1      11.304 -12.383  -0.511  1.00  0.00     0.064 A 
ATOM     57  C   UNL     1      12.411 -12.819   0.236  1.00  0.00     0.173 A 
ATOM     58  C   UNL     1      10.625 -13.380  -1.248  1.00  0.00     0.173 A 
ATOM     59  F   UNL     1      13.147 -11.944   0.937  1.00  0.00    -0.203 F 
ATOM     60  C   UNL     1      12.829 -14.151   0.216  1.00  0.00     0.198 A 
ATOM     61  C   UNL     1      11.007 -14.717  -1.216  1.00  0.00     0.198 A 
ATOM     62  F   UNL     1       9.639 -13.080  -2.104  1.00  0.00    -0.203 F 
ATOM     63  F   UNL     1      13.951 -14.504   0.857  1.00  0.00    -0.200 F 
ATOM     64  C   UNL     1      12.125 -15.099  -0.506  1.00  0.00     0.200 A 
ATOM     65  F   UNL     1      10.324 -15.615  -1.940  1.00  0.00    -0.200 F 
ATOM     66  F   UNL     1      12.550 -16.368  -0.559  1.00  0.00    -0.200 F 
ENDBRANCH  42  56
BRANCH  43  67
ATOM     67  C   UNL     1      10.760  -9.450  -8.690  1.00  0.00     0.064 A 
ATOM     68  C   UNL     1      11.844  -9.870  -9.476  1.00  0.00     0.173 A 
ATOM     69  C   UNL     1       9.477  -9.800  -9.165  1.00  0.00     0.173 A 
ATOM     70  F   UNL     1      13.100  -9.628  -9.075  1.00  0.00    -0.203 F 
ATOM     71  C   UNL     1      11.656 -10.603 -10.654  1.00  0.00     0.198 A 
ATOM     72  C   UNL     1       9.290 -10.513 -10.348  1.00  0.00     0.198 A 
ATOM     73  F   UNL     1       8.375  -9.541  -8.448  1.00  0.00    -0.203 F 
ATOM     74  F   UNL     1      12.718 -11.039 -11.345  1.00  0.00    -0.200 F 
ATOM     75  C   UNL     1      10.380 -10.926 -11.087  1.00  0.00     0.200 A 
ATOM     76  F   UNL     1       8.050 -10.846 -10.733  1.00  0.00    -0.200 F 
ATOM     77  F   UNL     1      10.202 -11.668 -12.188  1.00  0.00    -0.200 F 
ENDBRANCH  43  67
BRANCH  55  78
ATOM     78  C   UNL     1      13.737  -6.811  -3.757  1.00  0.00     0.064 A 
ATOM     79  C   UNL     1      12.808  -5.903  -4.296  1.00  0.00     0.173 A 
ATOM     80  C   UNL     1      14.951  -6.287  -3.294  1.00  0.00     0.173 A 
ATOM     81  F   UNL     1      11.582  -6.304  -4.651  1.00  0.00    -0.203 F 
ATOM     82  C   UNL     1      13.103  -4.546  -4.415  1.00  0.00     0.198 A 
ATOM     83  C   UNL     1      15.229  -4.924  -3.379  1.00  0.00     0.198 A 
ATOM     84  F   UNL     1      15.851  -7.091  -2.707  1.00  0.00    -0.203 F 
ATOM     85  F   UNL     1      12.201  -3.707  -4.944  1.00  0.00    -0.200 F 
ATOM     86  C   UNL     1      14.311  -4.057  -3.950  1.00  0.00     0.200 A 
ATOM     87  F   UNL     1      16.376  -4.444  -2.877  1.00  0.00    -0.200 F 
ATOM     88  F   UNL     1      14.578  -2.745  -4.023  1.00  0.00    -0.200 F 
ENDBRANCH  55  78
ENDBRANCH  29  30
ENDBRANCH  22  24
ENDBRANCH  21  22
ENDBRANCH  20  21
ENDBRANCH  19  20
ENDBRANCH  18  19
ENDBRANCH  17  18
ENDBRANCH   1  17
TORSDOF 19
