REMARK SMILES C[C@@H]1C(C(=O)OCCOCCOCCOC(=O)c2ccc(-c3c4nc(c(-c5c(F)c(F)c(F)c(F)c5F)c5ccc([nH]5)c(-c5c(F)c(F)c(F)c(F)c5F)c5nc(c(-c6c(F)c(F)c(F)c(F)c6F)c6ccc3[nH]6)C=C5)C=C4)cc2)=NC2=C1C(=O)C[C@H](c1ccccc1)C2
REMARK SMILES IDX 11 1 10 2 9 3 8 4 7 5 6 6 4 7 5 8 3 9 1 10 2 11 83 12 81 13
REMARK SMILES IDX 82 14 84 15 94 16 85 17 86 18 87 19 88 20 89 21 93 22 90 23
REMARK SMILES IDX 92 24 91 25 12 26 13 27 14 28 15 29 16 30 17 31 18 32 19 33
REMARK SMILES IDX 80 34 20 35 79 36 21 37 22 38 23 39 73 40 24 41 78 42 72 43
REMARK SMILES IDX 74 44 25 45 77 46 71 47 70 48 26 50 58 51 38 52 57 53 39 54
REMARK SMILES IDX 42 55 56 56 75 57 40 58 41 59 55 61 76 62 43 63 27 64 28 65
REMARK SMILES IDX 36 66 29 67 30 68 34 69 37 70 31 71 32 72 35 73 33 74 59 75
REMARK SMILES IDX 60 76 68 77 61 78 62 79 66 80 69 81 63 82 64 83 67 84 65 85
REMARK SMILES IDX 44 86 45 87 53 88 46 89 47 90 51 91 54 92 48 93 49 94 52 95
REMARK SMILES IDX 50 96
REMARK H PARENT 74 49 42 60
REMARK Flexibility Score: inf
ROOT
ATOM      1  C   UNL     1      -1.228  -2.806  -1.936  1.00  0.00     0.188 C 
ENDROOT
BRANCH   1   2
ATOM      2  C   UNL     1      -1.641  -1.415  -1.509  1.00  0.00     0.188 C 
BRANCH   2   3
ATOM      3  O   UNL     1      -2.853  -0.959  -2.083  1.00  0.00    -0.376 OA
BRANCH   3   4
ATOM      4  C   UNL     1      -3.168   0.420  -1.861  1.00  0.00     0.202 C 
BRANCH   4   5
ATOM      5  C   UNL     1      -2.100   1.418  -1.332  1.00  0.00     0.261 C 
BRANCH   5   6
ATOM      6  O   UNL     1      -1.173   0.895  -0.350  1.00  0.00    -0.459 OA
BRANCH   6   7
ATOM      7  C   UNL     1      -1.493   0.878   0.959  1.00  0.00     0.353 C 
ATOM      8  O   UNL     1      -2.417   1.476   1.478  1.00  0.00    -0.245 OA
BRANCH   7   9
ATOM      9  C   UNL     1      -0.648  -0.206   1.662  1.00  0.00     0.133 C 
ATOM     10  C   UNL     1       1.842  -0.012   1.541  1.00  0.00     0.020 C 
ATOM     11  C   UNL     1       0.618  -0.760   1.018  1.00  0.00     0.078 C 
ATOM     12  C   UNL     1       0.468  -2.079   1.686  1.00  0.00     0.026 C 
ATOM     13  N   UNL     1      -1.013  -0.794   2.775  1.00  0.00    -0.249 NA
ATOM     14  C   UNL     1      -0.305  -1.977   2.766  1.00  0.00     0.049 C 
ATOM     15  C   UNL     1       0.652  -3.416   1.105  1.00  0.00     0.161 C 
ATOM     16  C   UNL     1      -0.728  -3.206   3.512  1.00  0.00     0.065 C 
ATOM     17  O   UNL     1       1.600  -3.623   0.353  1.00  0.00    -0.294 OA
ATOM     18  C   UNL     1      -0.417  -4.490   1.398  1.00  0.00     0.089 C 
ATOM     19  C   UNL     1      -1.460  -4.128   2.511  1.00  0.00     0.033 C 
BRANCH  19  20
ATOM     20  C   UNL     1      -2.804  -3.521   2.062  1.00  0.00    -0.044 A 
ATOM     21  C   UNL     1      -3.498  -2.611   2.888  1.00  0.00     0.004 A 
ATOM     22  C   UNL     1      -3.407  -3.836   0.843  1.00  0.00     0.004 A 
ATOM     23  C   UNL     1      -4.628  -1.918   2.453  1.00  0.00     0.000 A 
ATOM     24  C   UNL     1      -4.554  -3.153   0.409  1.00  0.00     0.000 A 
ATOM     25  C   UNL     1      -5.145  -2.173   1.197  1.00  0.00     0.000 A 
ENDBRANCH  19  20
ENDBRANCH   7   9
ENDBRANCH   6   7
ENDBRANCH   5   6
ENDBRANCH   4   5
ENDBRANCH   3   4
ENDBRANCH   2   3
ENDBRANCH   1   2
BRANCH   1  26
ATOM     26  O   UNL     1      -0.703  -2.886  -3.257  1.00  0.00    -0.376 OA
BRANCH  26  27
ATOM     27  C   UNL     1      -1.551  -2.469  -4.319  1.00  0.00     0.202 C 
BRANCH  27  28
ATOM     28  C   UNL     1      -2.582  -3.497  -4.750  1.00  0.00     0.261 C 
BRANCH  28  29
ATOM     29  O   UNL     1      -3.449  -3.873  -3.691  1.00  0.00    -0.460 OA
BRANCH  29  30
ATOM     30  C   UNL     1      -3.083  -5.005  -3.051  1.00  0.00     0.338 C 
ATOM     31  O   UNL     1      -2.024  -5.604  -3.122  1.00  0.00    -0.246 OA
BRANCH  30  32
ATOM     32  C   UNL     1      -4.243  -5.519  -2.325  1.00  0.00     0.060 A 
ATOM     33  C   UNL     1      -4.038  -6.694  -1.598  1.00  0.00     0.016 A 
ATOM     34  C   UNL     1      -5.520  -5.056  -2.680  1.00  0.00     0.016 A 
ATOM     35  C   UNL     1      -5.089  -7.566  -1.502  1.00  0.00     0.010 A 
ATOM     36  C   UNL     1      -6.566  -5.929  -2.594  1.00  0.00     0.010 A 
ATOM     37  C   UNL     1      -6.283  -7.209  -2.133  1.00  0.00    -0.014 A 
BRANCH  37  38
ATOM     38  C   UNL     1      -7.198  -8.276  -2.435  1.00  0.00     0.031 A 
ATOM     39  C   UNL     1      -8.003  -8.701  -1.282  1.00  0.00     0.074 A 
ATOM     40  C   UNL     1      -7.267  -8.766  -3.686  1.00  0.00     0.049 A 
ATOM     41  N   UNL     1      -7.954  -9.831  -0.664  1.00  0.00    -0.248 NA
ATOM     42  C   UNL     1      -8.835  -7.679  -0.631  1.00  0.00     0.031 C 
ATOM     43  C   UNL     1      -6.676  -8.232  -4.919  1.00  0.00     0.029 A 
ATOM     44  N   UNL     1      -7.989  -9.825  -4.126  1.00  0.00    -0.354 N 
ATOM     45  C   UNL     1      -8.900  -9.732   0.345  1.00  0.00     0.074 A 
ATOM     46  C   UNL     1      -9.270  -8.344   0.437  1.00  0.00     0.031 C 
ATOM     47  C   UNL     1      -7.258  -8.829  -5.984  1.00  0.00     0.029 A 
ATOM     48  C   UNL     1      -8.156  -9.862  -5.503  1.00  0.00     0.049 A 
ATOM     49  H   UNL     1      -8.362 -10.508  -3.522  1.00  0.00     0.167 HD
ATOM     50  C   UNL     1      -9.506 -10.843   0.838  1.00  0.00     0.037 A 
ATOM     51  C   UNL     1      -9.096 -10.607  -6.133  1.00  0.00     0.037 A 
ATOM     52  C   UNL     1      -8.733 -12.030   0.577  1.00  0.00     0.049 A 
ATOM     53  C   UNL     1      -9.498 -11.691  -5.187  1.00  0.00     0.074 A 
ATOM     54  C   UNL     1      -7.453 -12.431   0.915  1.00  0.00     0.029 A 
ATOM     55  N   UNL     1      -9.113 -12.847  -0.461  1.00  0.00    -0.354 N 
ATOM     56  N   UNL     1      -8.697 -12.657  -4.819  1.00  0.00    -0.248 NA
ATOM     57  C   UNL     1     -10.596 -11.412  -4.268  1.00  0.00     0.031 C 
ATOM     58  C   UNL     1      -6.959 -13.107  -0.239  1.00  0.00     0.029 A 
ATOM     59  C   UNL     1      -7.982 -13.130  -1.187  1.00  0.00     0.049 A 
ATOM     60  H   UNL     1     -10.024 -13.169  -0.648  1.00  0.00     0.167 HD
ATOM     61  C   UNL     1      -8.940 -12.829  -3.461  1.00  0.00     0.074 A 
ATOM     62  C   UNL     1     -10.161 -12.075  -3.192  1.00  0.00     0.031 C 
ATOM     63  C   UNL     1      -7.978 -13.313  -2.619  1.00  0.00     0.037 A 
BRANCH  50  64
ATOM     64  C   UNL     1     -10.963 -10.872   1.202  1.00  0.00     0.064 A 
ATOM     65  C   UNL     1     -11.476 -11.986   1.887  1.00  0.00     0.173 A 
ATOM     66  C   UNL     1     -11.924  -9.992   0.652  1.00  0.00     0.173 A 
ATOM     67  F   UNL     1     -10.649 -12.897   2.422  1.00  0.00    -0.203 F 
ATOM     68  C   UNL     1     -12.849 -12.234   1.956  1.00  0.00     0.198 A 
ATOM     69  C   UNL     1     -13.292 -10.211   0.774  1.00  0.00     0.198 A 
ATOM     70  F   UNL     1     -11.586  -8.954  -0.122  1.00  0.00    -0.203 F 
ATOM     71  F   UNL     1     -13.290 -13.372   2.508  1.00  0.00    -0.200 F 
ATOM     72  C   UNL     1     -13.754 -11.350   1.396  1.00  0.00     0.200 A 
ATOM     73  F   UNL     1     -14.149  -9.351   0.206  1.00  0.00    -0.200 F 
ATOM     74  F   UNL     1     -15.066 -11.618   1.408  1.00  0.00    -0.200 F 
ENDBRANCH  50  64
BRANCH  51  75
ATOM     75  C   UNL     1      -9.928 -10.170  -7.281  1.00  0.00     0.064 A 
ATOM     76  C   UNL     1     -10.667 -11.093  -8.035  1.00  0.00     0.173 A 
ATOM     77  C   UNL     1     -10.210  -8.807  -7.513  1.00  0.00     0.173 A 
ATOM     78  F   UNL     1     -10.501 -12.409  -7.837  1.00  0.00    -0.203 F 
ATOM     79  C   UNL     1     -11.633 -10.678  -8.960  1.00  0.00     0.198 A 
ATOM     80  C   UNL     1     -11.164  -8.394  -8.443  1.00  0.00     0.198 A 
ATOM     81  F   UNL     1      -9.633  -7.844  -6.780  1.00  0.00    -0.203 F 
ATOM     82  F   UNL     1     -12.357 -11.589  -9.625  1.00  0.00    -0.200 F 
ATOM     83  C   UNL     1     -11.884  -9.329  -9.159  1.00  0.00     0.200 A 
ATOM     84  F   UNL     1     -11.419  -7.087  -8.596  1.00  0.00    -0.200 F 
ATOM     85  F   UNL     1     -12.842  -8.933 -10.007  1.00  0.00    -0.200 F 
ENDBRANCH  51  75
BRANCH  63  86
ATOM     86  C   UNL     1      -6.710 -13.842  -3.230  1.00  0.00     0.064 A 
ATOM     87  C   UNL     1      -5.809 -13.044  -3.958  1.00  0.00     0.173 A 
ATOM     88  C   UNL     1      -6.313 -15.151  -2.933  1.00  0.00     0.173 A 
ATOM     89  F   UNL     1      -6.065 -11.750  -4.182  1.00  0.00    -0.203 F 
ATOM     90  C   UNL     1      -4.591 -13.552  -4.409  1.00  0.00     0.198 A 
ATOM     91  C   UNL     1      -5.081 -15.646  -3.354  1.00  0.00     0.198 A 
ATOM     92  F   UNL     1      -7.103 -15.939  -2.186  1.00  0.00    -0.203 F 
ATOM     93  F   UNL     1      -3.755 -12.771  -5.109  1.00  0.00    -0.200 F 
ATOM     94  C   UNL     1      -4.226 -14.851  -4.101  1.00  0.00     0.200 A 
ATOM     95  F   UNL     1      -4.708 -16.886  -3.008  1.00  0.00    -0.200 F 
ATOM     96  F   UNL     1      -3.037 -15.328  -4.497  1.00  0.00    -0.200 F 
ENDBRANCH  63  86
ENDBRANCH  37  38
ENDBRANCH  30  32
ENDBRANCH  29  30
ENDBRANCH  28  29
ENDBRANCH  27  28
ENDBRANCH  26  27
ENDBRANCH   1  26
TORSDOF 18
