REMARK SMILES O=C(Cc1ccn[nH]1)Nc1cc(C(=O)OCCOCCOCCOC(=O)c2ccc(-c3c4nc(c(-c5c(F)c(F)c(F)c(F)c5F)c5ccc([nH]5)c(-c5c(F)c(F)c(F)c(F)c5F)c5nc(c(-c6c(F)c(F)c(F)c(F)c6F)c6ccc3[nH]6)C=C5)C=C4)cc2)c(F)cc1F
REMARK SMILES IDX 19 1 18 2 17 3 16 4 15 5 13 6 14 7 12 8 10 9 11 10 93 11
REMARK SMILES IDX 92 12 94 13 90 14 91 15 9 16 1 17 2 18 3 20 4 21 5 22 8 23
REMARK SMILES IDX 6 24 7 25 20 27 21 28 22 29 23 30 24 31 25 32 26 33 27 34
REMARK SMILES IDX 28 35 89 36 29 37 88 38 30 39 31 40 32 41 82 42 33 43 87 44
REMARK SMILES IDX 81 45 83 46 34 47 86 48 80 49 79 50 35 52 67 53 47 54 66 55
REMARK SMILES IDX 48 56 51 57 65 58 84 59 49 60 50 61 64 63 85 64 52 65 36 66
REMARK SMILES IDX 37 67 45 68 38 69 39 70 43 71 46 72 40 73 41 74 44 75 42 76
REMARK SMILES IDX 68 77 69 78 77 79 70 80 71 81 75 82 78 83 72 84 73 85 76 86
REMARK SMILES IDX 74 87 53 88 54 89 62 90 55 91 56 92 60 93 63 94 57 95 58 96
REMARK SMILES IDX 61 97 59 98
REMARK H PARENT 9 19 8 26 83 51 51 62
REMARK Flexibility Score: inf
ROOT
ATOM      1  C   UNL     1      -2.274  -3.647  -0.386  1.00  0.00     0.188 C 
ENDROOT
BRANCH   1   2
ATOM      2  O   UNL     1      -3.109  -4.585  -1.038  1.00  0.00    -0.376 OA
BRANCH   2   3
ATOM      3  C   UNL     1      -2.943  -5.978  -0.817  1.00  0.00     0.202 C 
BRANCH   3   4
ATOM      4  C   UNL     1      -1.555  -6.615  -0.771  1.00  0.00     0.261 C 
BRANCH   4   5
ATOM      5  O   UNL     1      -0.653  -5.968   0.136  1.00  0.00    -0.460 OA
BRANCH   5   6
ATOM      6  C   UNL     1       0.504  -5.536  -0.415  1.00  0.00     0.341 C 
ATOM      7  O   UNL     1       0.858  -5.649  -1.580  1.00  0.00    -0.246 OA
BRANCH   6   8
ATOM      8  C   UNL     1       1.261  -4.727   0.547  1.00  0.00     0.098 A 
ATOM      9  C   UNL     1       2.545  -2.730   0.992  1.00  0.00     0.078 A 
ATOM     10  C   UNL     1       1.722  -3.464   0.140  1.00  0.00     0.048 A 
ATOM     11  C   UNL     1       2.908  -3.276   2.229  1.00  0.00     0.149 A 
ATOM     12  C   UNL     1       2.398  -4.494   2.664  1.00  0.00     0.081 A 
ATOM     13  F   UNL     1       3.736  -2.590   3.032  1.00  0.00    -0.205 F 
ATOM     14  C   UNL     1       1.571  -5.219   1.815  1.00  0.00     0.140 A 
ATOM     15  F   UNL     1       1.115  -6.409   2.225  1.00  0.00    -0.206 F 
BRANCH   9  16
ATOM     16  N   UNL     1       3.075  -1.470   0.660  1.00  0.00    -0.323 N 
ATOM     17  O   UNL     1       1.290  -0.582  -0.496  1.00  0.00    -0.274 OA
ATOM     18  C   UNL     1       2.450  -0.497  -0.092  1.00  0.00     0.230 C 
ATOM     19  H   UNL     1       3.976  -1.262   0.997  1.00  0.00     0.170 HD
BRANCH  18  20
ATOM     20  C   UNL     1       3.326   0.700  -0.458  1.00  0.00     0.155 C 
BRANCH  20  21
ATOM     21  C   UNL     1       3.995   1.376   0.700  1.00  0.00     0.044 A 
ATOM     22  C   UNL     1       4.982   0.991   1.588  1.00  0.00     0.045 A 
ATOM     23  N   UNL     1       3.751   2.696   0.995  1.00  0.00    -0.282 N 
ATOM     24  C   UNL     1       5.225   2.122   2.387  1.00  0.00     0.135 A 
ATOM     25  N   UNL     1       4.474   3.161   2.026  1.00  0.00    -0.184 NA
ATOM     26  H   UNL     1       3.106   3.248   0.497  1.00  0.00     0.190 HD
ENDBRANCH  20  21
ENDBRANCH  18  20
ENDBRANCH   9  16
ENDBRANCH   6   8
ENDBRANCH   5   6
ENDBRANCH   4   5
ENDBRANCH   3   4
ENDBRANCH   2   3
ENDBRANCH   1   2
BRANCH   1  27
ATOM     27  C   UNL     1      -2.206  -3.573   1.155  1.00  0.00     0.188 C 
BRANCH  27  28
ATOM     28  O   UNL     1      -2.998  -4.416   1.967  1.00  0.00    -0.376 OA
BRANCH  28  29
ATOM     29  C   UNL     1      -4.410  -4.408   1.829  1.00  0.00     0.202 C 
BRANCH  29  30
ATOM     30  C   UNL     1      -5.191  -3.093   1.814  1.00  0.00     0.261 C 
BRANCH  30  31
ATOM     31  O   UNL     1      -4.734  -2.156   0.831  1.00  0.00    -0.460 OA
BRANCH  31  32
ATOM     32  C   UNL     1      -4.293  -0.977   1.331  1.00  0.00     0.338 C 
ATOM     33  O   UNL     1      -4.250  -0.627   2.497  1.00  0.00    -0.246 OA
BRANCH  32  34
ATOM     34  C   UNL     1      -3.711  -0.177   0.243  1.00  0.00     0.060 A 
ATOM     35  C   UNL     1      -2.340   0.106   0.278  1.00  0.00     0.016 A 
ATOM     36  C   UNL     1      -4.528   0.354  -0.754  1.00  0.00     0.016 A 
ATOM     37  C   UNL     1      -1.780   0.946  -0.681  1.00  0.00     0.010 A 
ATOM     38  C   UNL     1      -3.970   1.217  -1.698  1.00  0.00     0.010 A 
ATOM     39  C   UNL     1      -2.601   1.537  -1.648  1.00  0.00    -0.014 A 
BRANCH  39  40
ATOM     40  C   UNL     1      -2.081   2.625  -2.505  1.00  0.00     0.031 A 
ATOM     41  C   UNL     1      -2.337   4.043  -2.084  1.00  0.00     0.074 A 
ATOM     42  C   UNL     1      -1.421   2.359  -3.644  1.00  0.00     0.049 A 
ATOM     43  N   UNL     1      -2.173   5.151  -2.758  1.00  0.00    -0.248 NA
ATOM     44  C   UNL     1      -2.848   4.238  -0.717  1.00  0.00     0.031 C 
ATOM     45  C   UNL     1      -1.045   1.028  -4.112  1.00  0.00     0.029 A 
ATOM     46  N   UNL     1      -0.976   3.205  -4.630  1.00  0.00    -0.354 N 
ATOM     47  C   UNL     1      -2.588   6.168  -1.911  1.00  0.00     0.074 A 
ATOM     48  C   UNL     1      -3.003   5.553  -0.670  1.00  0.00     0.031 C 
ATOM     49  C   UNL     1      -0.464   1.141  -5.320  1.00  0.00     0.029 A 
ATOM     50  C   UNL     1      -0.474   2.546  -5.725  1.00  0.00     0.049 A 
ATOM     51  H   UNL     1      -1.014   4.186  -4.559  1.00  0.00     0.167 HD
ATOM     52  C   UNL     1      -2.627   7.497  -2.158  1.00  0.00     0.037 A 
ATOM     53  C   UNL     1      -0.117   3.023  -6.934  1.00  0.00     0.037 A 
ATOM     54  C   UNL     1      -2.204   8.101  -3.393  1.00  0.00     0.049 A 
ATOM     55  C   UNL     1      -0.234   4.502  -7.207  1.00  0.00     0.074 A 
ATOM     56  C   UNL     1      -2.204   9.440  -3.740  1.00  0.00     0.029 A 
ATOM     57  N   UNL     1      -1.707   7.402  -4.482  1.00  0.00    -0.354 N 
ATOM     58  N   UNL     1      -0.647   5.462  -6.415  1.00  0.00    -0.248 NA
ATOM     59  C   UNL     1       0.158   4.964  -8.547  1.00  0.00     0.031 C 
ATOM     60  C   UNL     1      -1.747   9.549  -5.056  1.00  0.00     0.029 A 
ATOM     61  C   UNL     1      -1.411   8.283  -5.508  1.00  0.00     0.049 A 
ATOM     62  H   UNL     1      -1.583   6.427  -4.519  1.00  0.00     0.167 HD
ATOM     63  C   UNL     1      -0.544   6.638  -7.149  1.00  0.00     0.074 A 
ATOM     64  C   UNL     1      -0.011   6.275  -8.444  1.00  0.00     0.031 C 
ATOM     65  C   UNL     1      -0.866   7.903  -6.786  1.00  0.00     0.037 A 
BRANCH  52  66
ATOM     66  C   UNL     1      -3.171   8.397  -1.092  1.00  0.00     0.064 A 
ATOM     67  C   UNL     1      -4.422   9.009  -1.260  1.00  0.00     0.173 A 
ATOM     68  C   UNL     1      -2.421   8.726   0.045  1.00  0.00     0.173 A 
ATOM     69  F   UNL     1      -5.176   8.723  -2.332  1.00  0.00    -0.203 F 
ATOM     70  C   UNL     1      -4.891   9.941  -0.340  1.00  0.00     0.198 A 
ATOM     71  C   UNL     1      -2.904   9.644   0.975  1.00  0.00     0.198 A 
ATOM     72  F   UNL     1      -1.227   8.153   0.256  1.00  0.00    -0.203 F 
ATOM     73  F   UNL     1      -6.071  10.544  -0.541  1.00  0.00    -0.200 F 
ATOM     74  C   UNL     1      -4.131  10.259   0.775  1.00  0.00     0.200 A 
ATOM     75  F   UNL     1      -2.178   9.937   2.063  1.00  0.00    -0.200 F 
ATOM     76  F   UNL     1      -4.581  11.162   1.657  1.00  0.00    -0.200 F 
ENDBRANCH  52  66
BRANCH  53  77
ATOM     77  C   UNL     1       0.334   2.091  -8.001  1.00  0.00     0.064 A 
ATOM     78  C   UNL     1      -0.553   1.177  -8.590  1.00  0.00     0.173 A 
ATOM     79  C   UNL     1       1.651   2.119  -8.481  1.00  0.00     0.173 A 
ATOM     80  F   UNL     1      -1.827   1.113  -8.174  1.00  0.00    -0.203 F 
ATOM     81  C   UNL     1      -0.138   0.322  -9.609  1.00  0.00     0.198 A 
ATOM     82  C   UNL     1       2.057   1.287  -9.522  1.00  0.00     0.198 A 
ATOM     83  F   UNL     1       2.529   2.996  -7.972  1.00  0.00    -0.203 F 
ATOM     84  F   UNL     1      -1.002  -0.554 -10.140  1.00  0.00    -0.200 F 
ATOM     85  C   UNL     1       1.164   0.385 -10.082  1.00  0.00     0.200 A 
ATOM     86  F   UNL     1       3.305   1.376 -10.000  1.00  0.00    -0.200 F 
ATOM     87  F   UNL     1       1.554  -0.414 -11.084  1.00  0.00    -0.200 F 
ENDBRANCH  53  77
BRANCH  65  88
ATOM     88  C   UNL     1      -0.620   8.998  -7.783  1.00  0.00     0.064 A 
ATOM     89  C   UNL     1       0.389   9.948  -7.556  1.00  0.00     0.173 A 
ATOM     90  C   UNL     1      -1.421   9.150  -8.923  1.00  0.00     0.173 A 
ATOM     91  F   UNL     1       1.176   9.854  -6.473  1.00  0.00    -0.203 F 
ATOM     92  C   UNL     1       0.579  11.014  -8.430  1.00  0.00     0.198 A 
ATOM     93  C   UNL     1      -1.208  10.201  -9.812  1.00  0.00     0.198 A 
ATOM     94  F   UNL     1      -2.391   8.263  -9.189  1.00  0.00    -0.203 F 
ATOM     95  F   UNL     1       1.526  11.927  -8.175  1.00  0.00    -0.200 F 
ATOM     96  C   UNL     1      -0.215  11.136  -9.560  1.00  0.00     0.200 A 
ATOM     97  F   UNL     1      -1.959  10.303 -10.917  1.00  0.00    -0.200 F 
ATOM     98  F   UNL     1      -0.022  12.155 -10.409  1.00  0.00    -0.200 F 
ENDBRANCH  65  88
ENDBRANCH  39  40
ENDBRANCH  32  34
ENDBRANCH  31  32
ENDBRANCH  30  31
ENDBRANCH  29  30
ENDBRANCH  28  29
ENDBRANCH  27  28
ENDBRANCH   1  27
TORSDOF 20
