REMARK SMILES CC(C)C[C@H](NC(=O)[C@](C)([NH3+])C(F)(F)F)C(=O)OCCOCCOCCOC(=O)c1ccc(-c2c3nc(c(-c4c(F)c(F)c(F)c(F)c4F)c4ccc([nH]4)c(-c4c(F)c(F)c(F)c(F)c4F)c4nc(c(-c5c(F)c(F)c(F)c(F)c5F)c5ccc2[nH]5)C=C4)C=C3)cc1
REMARK SMILES IDX 22 1 21 2 20 3 19 4 18 5 16 6 17 7 5 8 4 9 2 10 1 11 3 12
REMARK SMILES IDX 6 13 7 14 8 16 9 17 10 18 11 19 12 23 13 24 14 25 15 26
REMARK SMILES IDX 23 27 24 28 25 29 26 30 27 31 28 32 29 33 30 34 31 35 92 36
REMARK SMILES IDX 32 37 91 38 33 39 34 40 35 41 85 42 36 43 90 44 84 45 86 46
REMARK SMILES IDX 37 47 89 48 83 49 82 50 38 52 70 53 50 54 69 55 51 56 54 57
REMARK SMILES IDX 68 58 87 59 52 60 53 61 67 63 88 64 55 65 39 66 40 67 48 68
REMARK SMILES IDX 41 69 42 70 46 71 49 72 43 73 44 74 47 75 45 76 71 77 72 78
REMARK SMILES IDX 80 79 73 80 74 81 78 82 81 83 75 84 76 85 79 86 77 87 56 88
REMARK SMILES IDX 57 89 65 90 58 91 59 92 63 93 66 94 60 95 61 96 64 97 62 98
REMARK H PARENT 6 15 11 20 11 21 11 22 86 51 54 62
REMARK Flexibility Score: inf
ROOT
ATOM      1  C   UNL     1       4.015  -0.399   6.305  1.00  0.00     0.188 C 
ENDROOT
BRANCH   1   2
ATOM      2  O   UNL     1       4.816   0.225   7.285  1.00  0.00    -0.376 OA
BRANCH   2   3
ATOM      3  C   UNL     1       5.934   0.975   6.843  1.00  0.00     0.202 C 
BRANCH   3   4
ATOM      4  C   UNL     1       5.824   2.041   5.729  1.00  0.00     0.261 C 
BRANCH   4   5
ATOM      5  O   UNL     1       4.787   1.931   4.738  1.00  0.00    -0.462 OA
BRANCH   5   6
ATOM      6  C   UNL     1       5.029   1.053   3.733  1.00  0.00     0.328 C 
ATOM      7  O   UNL     1       5.991   0.292   3.730  1.00  0.00    -0.250 OA
BRANCH   6   8
ATOM      8  C   UNL     1       4.060   1.212   2.526  1.00  0.00     0.192 C 
BRANCH   8   9
ATOM      9  C   UNL     1       4.810   2.133   1.556  1.00  0.00     0.040 C 
BRANCH   9  10
ATOM     10  C   UNL     1       6.171   1.609   1.055  1.00  0.00    -0.015 C 
ATOM     11  C   UNL     1       6.184   0.134   0.638  1.00  0.00     0.007 C 
ATOM     12  C   UNL     1       6.638   2.473  -0.113  1.00  0.00     0.007 C 
ENDBRANCH   9  10
ENDBRANCH   8   9
BRANCH   8  13
ATOM     13  N   UNL     1       2.721   1.772   2.802  1.00  0.00    -0.337 N 
ATOM     14  C   UNL     1       1.500   1.675   2.200  1.00  0.00     0.291 C 
ATOM     15  H   UNL     1       2.706   2.345   3.602  1.00  0.00     0.164 HD
ATOM     16  O   UNL     1       0.582   2.191   2.860  1.00  0.00    -0.267 OA
BRANCH  14  17
ATOM     17  C   UNL     1       1.123   0.870   0.906  1.00  0.00     0.267 C 
ATOM     18  C   UNL     1      -0.191   1.481   0.349  1.00  0.00     0.100 C 
BRANCH  17  19
ATOM     19  N   UNL     1       0.788  -0.539   1.318  1.00  0.00    -0.337 N 
ATOM     20  H   UNL     1       0.539  -1.085   0.493  1.00  0.00     0.345 HD
ATOM     21  H   UNL     1       0.001  -0.525   1.967  1.00  0.00     0.345 HD
ATOM     22  H   UNL     1       1.596  -0.962   1.774  1.00  0.00     0.345 HD
ENDBRANCH  17  19
BRANCH  17  23
ATOM     23  C   UNL     1       2.140   0.988  -0.239  1.00  0.00     0.453 C 
ATOM     24  F   UNL     1       1.679   0.429  -1.387  1.00  0.00    -0.164 F 
ATOM     25  F   UNL     1       2.429   2.275  -0.528  1.00  0.00    -0.164 F 
ATOM     26  F   UNL     1       3.292   0.343   0.042  1.00  0.00    -0.164 F 
ENDBRANCH  17  23
ENDBRANCH  14  17
ENDBRANCH   8  13
ENDBRANCH   6   8
ENDBRANCH   5   6
ENDBRANCH   4   5
ENDBRANCH   3   4
ENDBRANCH   2   3
ENDBRANCH   1   2
BRANCH   1  27
ATOM     27  C   UNL     1       2.741   0.403   5.985  1.00  0.00     0.188 C 
BRANCH  27  28
ATOM     28  O   UNL     1       2.558   1.685   6.560  1.00  0.00    -0.376 OA
BRANCH  28  29
ATOM     29  C   UNL     1       2.708   1.826   7.969  1.00  0.00     0.202 C 
BRANCH  29  30
ATOM     30  C   UNL     1       2.212   0.755   8.974  1.00  0.00     0.261 C 
BRANCH  30  31
ATOM     31  O   UNL     1       2.210  -0.619   8.545  1.00  0.00    -0.460 OA
BRANCH  31  32
ATOM     32  C   UNL     1       1.010  -1.137   8.189  1.00  0.00     0.338 C 
ATOM     33  O   UNL     1      -0.080  -0.584   8.242  1.00  0.00    -0.246 OA
BRANCH  32  34
ATOM     34  C   UNL     1       1.223  -2.428   7.493  1.00  0.00     0.060 A 
ATOM     35  C   UNL     1       0.889  -2.527   6.131  1.00  0.00     0.016 A 
ATOM     36  C   UNL     1       1.732  -3.536   8.168  1.00  0.00     0.016 A 
ATOM     37  C   UNL     1       1.062  -3.727   5.442  1.00  0.00     0.010 A 
ATOM     38  C   UNL     1       1.861  -4.753   7.488  1.00  0.00     0.010 A 
ATOM     39  C   UNL     1       1.506  -4.861   6.130  1.00  0.00    -0.014 A 
BRANCH  39  40
ATOM     40  C   UNL     1       1.403  -6.197   5.490  1.00  0.00     0.031 A 
ATOM     41  C   UNL     1       0.198  -7.043   5.800  1.00  0.00     0.074 A 
ATOM     42  C   UNL     1       2.343  -6.649   4.642  1.00  0.00     0.049 A 
ATOM     43  N   UNL     1      -0.070  -8.274   5.447  1.00  0.00    -0.248 NA
ATOM     44  C   UNL     1      -0.844  -6.413   6.627  1.00  0.00     0.031 C 
ATOM     45  C   UNL     1       3.525  -5.906   4.212  1.00  0.00     0.029 A 
ATOM     46  N   UNL     1       2.456  -7.861   4.004  1.00  0.00    -0.354 N 
ATOM     47  C   UNL     1      -1.301  -8.569   6.020  1.00  0.00     0.074 A 
ATOM     48  C   UNL     1      -1.717  -7.399   6.761  1.00  0.00     0.031 C 
ATOM     49  C   UNL     1       4.257  -6.687   3.398  1.00  0.00     0.029 A 
ATOM     50  C   UNL     1       3.617  -7.997   3.283  1.00  0.00     0.049 A 
ATOM     51  H   UNL     1       1.769  -8.564   4.057  1.00  0.00     0.167 HD
ATOM     52  C   UNL     1      -2.020  -9.713   5.932  1.00  0.00     0.037 A 
ATOM     53  C   UNL     1       4.120  -9.069   2.638  1.00  0.00     0.037 A 
ATOM     54  C   UNL     1      -1.604 -10.876   5.193  1.00  0.00     0.049 A 
ATOM     55  C   UNL     1       3.338 -10.362   2.628  1.00  0.00     0.074 A 
ATOM     56  C   UNL     1      -2.271 -12.077   5.030  1.00  0.00     0.029 A 
ATOM     57  N   UNL     1      -0.408 -10.986   4.500  1.00  0.00    -0.354 N 
ATOM     58  N   UNL     1       2.168 -10.631   3.156  1.00  0.00    -0.248 NA
ATOM     59  C   UNL     1       3.951 -11.503   1.931  1.00  0.00     0.031 C 
ATOM     60  C   UNL     1      -1.451 -12.937   4.294  1.00  0.00     0.029 A 
ATOM     61  C   UNL     1      -0.304 -12.247   3.935  1.00  0.00     0.049 A 
ATOM     62  H   UNL     1       0.268 -10.274   4.421  1.00  0.00     0.167 HD
ATOM     63  C   UNL     1       1.890 -11.952   2.823  1.00  0.00     0.074 A 
ATOM     64  C   UNL     1       3.007 -12.427   2.036  1.00  0.00     0.031 C 
ATOM     65  C   UNL     1       0.807 -12.704   3.140  1.00  0.00     0.037 A 
BRANCH  52  66
ATOM     66  C   UNL     1      -3.318  -9.781   6.682  1.00  0.00     0.064 A 
ATOM     67  C   UNL     1      -4.443  -9.044   6.285  1.00  0.00     0.173 A 
ATOM     68  C   UNL     1      -3.451 -10.637   7.787  1.00  0.00     0.173 A 
ATOM     69  F   UNL     1      -4.365  -8.200   5.245  1.00  0.00    -0.203 F 
ATOM     70  C   UNL     1      -5.648  -9.147   6.976  1.00  0.00     0.198 A 
ATOM     71  C   UNL     1      -4.665 -10.762   8.455  1.00  0.00     0.198 A 
ATOM     72  F   UNL     1      -2.406 -11.366   8.207  1.00  0.00    -0.203 F 
ATOM     73  F   UNL     1      -6.698  -8.402   6.605  1.00  0.00    -0.200 F 
ATOM     74  C   UNL     1      -5.761 -10.013   8.054  1.00  0.00     0.200 A 
ATOM     75  F   UNL     1      -4.776 -11.611   9.487  1.00  0.00    -0.200 F 
ATOM     76  F   UNL     1      -6.925 -10.123   8.709  1.00  0.00    -0.200 F 
ENDBRANCH  52  66
BRANCH  53  77
ATOM     77  C   UNL     1       5.447  -8.990   1.968  1.00  0.00     0.064 A 
ATOM     78  C   UNL     1       5.566  -9.120   0.576  1.00  0.00     0.173 A 
ATOM     79  C   UNL     1       6.628  -8.835   2.709  1.00  0.00     0.173 A 
ATOM     80  F   UNL     1       4.471  -9.301  -0.175  1.00  0.00    -0.203 F 
ATOM     81  C   UNL     1       6.815  -9.127  -0.043  1.00  0.00     0.198 A 
ATOM     82  C   UNL     1       7.874  -8.807   2.085  1.00  0.00     0.198 A 
ATOM     83  F   UNL     1       6.574  -8.713   4.043  1.00  0.00    -0.203 F 
ATOM     84  F   UNL     1       6.902  -9.319  -1.366  1.00  0.00    -0.200 F 
ATOM     85  C   UNL     1       7.967  -8.965   0.711  1.00  0.00     0.200 A 
ATOM     86  F   UNL     1       8.984  -8.639   2.817  1.00  0.00    -0.200 F 
ATOM     87  F   UNL     1       9.168  -8.975   0.115  1.00  0.00    -0.200 F 
ENDBRANCH  53  77
BRANCH  65  88
ATOM     88  C   UNL     1       0.745 -14.103   2.592  1.00  0.00     0.064 A 
ATOM     89  C   UNL     1       1.596 -15.119   3.050  1.00  0.00     0.173 A 
ATOM     90  C   UNL     1      -0.215 -14.441   1.623  1.00  0.00     0.173 A 
ATOM     91  F   UNL     1       2.539 -14.849   3.966  1.00  0.00    -0.203 F 
ATOM     92  C   UNL     1       1.510 -16.412   2.537  1.00  0.00     0.198 A 
ATOM     93  C   UNL     1      -0.322 -15.742   1.140  1.00  0.00     0.198 A 
ATOM     94  F   UNL     1      -1.063 -13.511   1.157  1.00  0.00    -0.203 F 
ATOM     95  F   UNL     1       2.371 -17.352   2.950  1.00  0.00    -0.200 F 
ATOM     96  C   UNL     1       0.547 -16.724   1.590  1.00  0.00     0.200 A 
ATOM     97  F   UNL     1      -1.267 -16.045   0.239  1.00  0.00    -0.200 F 
ATOM     98  F   UNL     1       0.460 -17.970   1.105  1.00  0.00    -0.200 F 
ENDBRANCH  65  88
ENDBRANCH  39  40
ENDBRANCH  32  34
ENDBRANCH  31  32
ENDBRANCH  30  31
ENDBRANCH  29  30
ENDBRANCH  28  29
ENDBRANCH  27  28
ENDBRANCH   1  27
TORSDOF 23
