REMARK SMILES O=C(OCCOCCOCCOC(=O)[C@H]1CC(=O)N(Cc2ccccc2CN2CCCC2=O)C1)c1ccc(-c2c3nc(c(-c4c(F)c(F)c(F)c(F)c4F)c4ccc([nH]4)c(-c4c(F)c(F)c(F)c(F)c4F)c4nc(c(-c5c(F)c(F)c(F)c(F)c5F)c5ccc2[nH]5)C=C4)C=C3)cc1
REMARK SMILES IDX 8 1 7 2 6 3 5 4 4 5 3 6 2 7 1 8 35 9 36 10 97 11 37 12 96 13
REMARK SMILES IDX 38 14 39 15 40 16 90 17 41 18 95 19 89 20 91 21 42 22 94 23
REMARK SMILES IDX 88 24 87 25 43 27 75 28 55 29 74 30 56 31 59 32 73 33 92 34
REMARK SMILES IDX 57 35 58 36 72 38 93 39 60 40 44 41 45 42 53 43 46 44 47 45
REMARK SMILES IDX 51 46 54 47 48 48 49 49 52 50 50 51 76 52 77 53 85 54 78 55
REMARK SMILES IDX 79 56 83 57 86 58 80 59 81 60 84 61 82 62 61 63 62 64 70 65
REMARK SMILES IDX 63 66 64 67 68 68 71 69 65 70 66 71 69 72 67 73 9 74 10 75
REMARK SMILES IDX 11 76 12 77 13 78 14 79 15 80 16 81 34 82 17 83 19 84 18 85
REMARK SMILES IDX 20 86 21 87 22 88 26 89 23 90 25 91 24 92 27 93 28 94 29 95
REMARK SMILES IDX 32 96 30 97 31 98 33 99
REMARK H PARENT 91 26 59 37
REMARK Flexibility Score: inf
ROOT
ATOM      1  C   UNL     1       4.144  -2.946  -2.065  1.00  0.00     0.188 C 
ENDROOT
BRANCH   1   2
ATOM      2  C   UNL     1       4.324  -1.526  -1.528  1.00  0.00     0.188 C 
BRANCH   2   3
ATOM      3  O   UNL     1       3.082  -0.945  -1.125  1.00  0.00    -0.376 OA
BRANCH   3   4
ATOM      4  C   UNL     1       2.971   0.468  -1.329  1.00  0.00     0.202 C 
BRANCH   4   5
ATOM      5  C   UNL     1       3.940   1.369  -0.540  1.00  0.00     0.261 C 
BRANCH   5   6
ATOM      6  O   UNL     1       5.121   0.708  -0.053  1.00  0.00    -0.460 OA
BRANCH   6   7
ATOM      7  C   UNL     1       5.347   0.151   1.162  1.00  0.00     0.338 C 
ATOM      8  O   UNL     1       6.486  -0.216   1.445  1.00  0.00    -0.246 OA
BRANCH   7   9
ATOM      9  C   UNL     1       4.272  -0.100   2.166  1.00  0.00     0.060 A 
ATOM     10  C   UNL     1       2.932  -0.296   1.847  1.00  0.00     0.016 A 
ATOM     11  C   UNL     1       4.657  -0.276   3.506  1.00  0.00     0.016 A 
ATOM     12  C   UNL     1       1.983  -0.597   2.807  1.00  0.00     0.010 A 
ATOM     13  C   UNL     1       3.716  -0.624   4.482  1.00  0.00     0.010 A 
ATOM     14  C   UNL     1       2.372  -0.775   4.128  1.00  0.00    -0.014 A 
BRANCH  14  15
ATOM     15  C   UNL     1       1.310  -1.047   5.107  1.00  0.00     0.031 A 
ATOM     16  C   UNL     1       0.866   0.058   6.001  1.00  0.00     0.074 A 
ATOM     17  C   UNL     1       0.672  -2.230   5.077  1.00  0.00     0.049 A 
ATOM     18  N   UNL     1      -0.019   0.030   6.957  1.00  0.00    -0.248 NA
ATOM     19  C   UNL     1       1.493   1.373   5.787  1.00  0.00     0.031 C 
ATOM     20  C   UNL     1       0.990  -3.323   4.158  1.00  0.00     0.029 A 
ATOM     21  N   UNL     1      -0.378  -2.710   5.815  1.00  0.00    -0.354 N 
ATOM     22  C   UNL     1      -0.017   1.305   7.497  1.00  0.00     0.074 A 
ATOM     23  C   UNL     1       0.933   2.095   6.746  1.00  0.00     0.031 C 
ATOM     24  C   UNL     1       0.146  -4.338   4.387  1.00  0.00     0.029 A 
ATOM     25  C   UNL     1      -0.724  -4.000   5.496  1.00  0.00     0.049 A 
ATOM     26  H   UNL     1      -0.839  -2.181   6.506  1.00  0.00     0.167 HD
ATOM     27  C   UNL     1      -0.734   1.747   8.552  1.00  0.00     0.037 A 
ATOM     28  C   UNL     1      -1.605  -4.840   6.068  1.00  0.00     0.037 A 
ATOM     29  C   UNL     1      -1.675   0.927   9.265  1.00  0.00     0.049 A 
ATOM     30  C   UNL     1      -2.351  -4.335   7.266  1.00  0.00     0.074 A 
ATOM     31  C   UNL     1      -2.445   1.256  10.364  1.00  0.00     0.029 A 
ATOM     32  N   UNL     1      -1.966  -0.395   8.948  1.00  0.00    -0.354 N 
ATOM     33  N   UNL     1      -2.315  -3.140   7.809  1.00  0.00    -0.248 NA
ATOM     34  C   UNL     1      -3.224  -5.289   7.957  1.00  0.00     0.031 C 
ATOM     35  C   UNL     1      -3.151   0.113  10.753  1.00  0.00     0.029 A 
ATOM     36  C   UNL     1      -2.872  -0.910   9.858  1.00  0.00     0.049 A 
ATOM     37  H   UNL     1      -1.583  -0.891   8.189  1.00  0.00     0.167 HD
ATOM     38  C   UNL     1      -3.143  -3.202   8.915  1.00  0.00     0.074 A 
ATOM     39  C   UNL     1      -3.710  -4.538   8.935  1.00  0.00     0.031 C 
ATOM     40  C   UNL     1      -3.396  -2.252   9.847  1.00  0.00     0.037 A 
BRANCH  27  41
ATOM     41  C   UNL     1      -0.447   3.128   9.050  1.00  0.00     0.064 A 
ATOM     42  C   UNL     1      -0.851   4.279   8.359  1.00  0.00     0.173 A 
ATOM     43  C   UNL     1       0.251   3.295  10.256  1.00  0.00     0.173 A 
ATOM     44  F   UNL     1      -1.486   4.173   7.182  1.00  0.00    -0.203 F 
ATOM     45  C   UNL     1      -0.561   5.547   8.856  1.00  0.00     0.198 A 
ATOM     46  C   UNL     1       0.516   4.562  10.763  1.00  0.00     0.198 A 
ATOM     47  F   UNL     1       0.678   2.224  10.942  1.00  0.00    -0.203 F 
ATOM     48  F   UNL     1      -0.917   6.636   8.160  1.00  0.00    -0.200 F 
ATOM     49  C   UNL     1       0.112   5.688  10.062  1.00  0.00     0.200 A 
ATOM     50  F   UNL     1       1.167   4.693  11.927  1.00  0.00    -0.200 F 
ATOM     51  F   UNL     1       0.383   6.909  10.542  1.00  0.00    -0.200 F 
ENDBRANCH  27  41
BRANCH  28  52
ATOM     52  C   UNL     1      -1.745  -6.247   5.594  1.00  0.00     0.064 A 
ATOM     53  C   UNL     1      -2.953  -6.728   5.072  1.00  0.00     0.173 A 
ATOM     54  C   UNL     1      -0.678  -7.156   5.694  1.00  0.00     0.173 A 
ATOM     55  F   UNL     1      -4.016  -5.914   4.985  1.00  0.00    -0.203 F 
ATOM     56  C   UNL     1      -3.095  -8.064   4.693  1.00  0.00     0.198 A 
ATOM     57  C   UNL     1      -0.810  -8.482   5.285  1.00  0.00     0.198 A 
ATOM     58  F   UNL     1       0.499  -6.754   6.200  1.00  0.00    -0.203 F 
ATOM     59  F   UNL     1      -4.285  -8.513   4.270  1.00  0.00    -0.200 F 
ATOM     60  C   UNL     1      -2.023  -8.938   4.795  1.00  0.00     0.200 A 
ATOM     61  F   UNL     1       0.229  -9.322   5.396  1.00  0.00    -0.200 F 
ATOM     62  F   UNL     1      -2.171 -10.226   4.454  1.00  0.00    -0.200 F 
ENDBRANCH  28  52
BRANCH  40  63
ATOM     63  C   UNL     1      -4.316  -2.642  10.961  1.00  0.00     0.064 A 
ATOM     64  C   UNL     1      -3.907  -3.532  11.965  1.00  0.00     0.173 A 
ATOM     65  C   UNL     1      -5.601  -2.091  11.043  1.00  0.00     0.173 A 
ATOM     66  F   UNL     1      -2.692  -4.099  11.912  1.00  0.00    -0.203 F 
ATOM     67  C   UNL     1      -4.766  -3.874  13.003  1.00  0.00     0.198 A 
ATOM     68  C   UNL     1      -6.444  -2.407  12.103  1.00  0.00     0.198 A 
ATOM     69  F   UNL     1      -6.031  -1.232  10.106  1.00  0.00    -0.203 F 
ATOM     70  F   UNL     1      -4.377  -4.764  13.925  1.00  0.00    -0.200 F 
ATOM     71  C   UNL     1      -6.028  -3.303  13.077  1.00  0.00     0.200 A 
ATOM     72  F   UNL     1      -7.656  -1.843  12.182  1.00  0.00    -0.200 F 
ATOM     73  F   UNL     1      -6.850  -3.623  14.086  1.00  0.00    -0.200 F 
ENDBRANCH  40  63
ENDBRANCH  14  15
ENDBRANCH   7   9
ENDBRANCH   6   7
ENDBRANCH   5   6
ENDBRANCH   4   5
ENDBRANCH   3   4
ENDBRANCH   2   3
ENDBRANCH   1   2
BRANCH   1  74
ATOM     74  O   UNL     1       3.478  -3.082  -3.317  1.00  0.00    -0.376 OA
BRANCH  74  75
ATOM     75  C   UNL     1       2.261  -2.368  -3.498  1.00  0.00     0.202 C 
BRANCH  75  76
ATOM     76  C   UNL     1       1.022  -2.869  -2.744  1.00  0.00     0.261 C 
BRANCH  76  77
ATOM     77  O   UNL     1       1.230  -3.166  -1.355  1.00  0.00    -0.463 OA
BRANCH  77  78
ATOM     78  C   UNL     1       1.277  -4.490  -1.052  1.00  0.00     0.311 C 
ATOM     79  O   UNL     1       1.179  -5.405  -1.858  1.00  0.00    -0.252 OA
BRANCH  78  80
ATOM     80  C   UNL     1       1.499  -4.704   0.423  1.00  0.00     0.128 C 
ATOM     81  C   UNL     1       0.404  -5.591   0.998  1.00  0.00     0.117 C 
ATOM     82  C   UNL     1       2.776  -5.495   0.613  1.00  0.00     0.135 C 
ATOM     83  C   UNL     1       1.130  -6.619   1.831  1.00  0.00     0.223 C 
ATOM     84  N   UNL     1       2.485  -6.503   1.596  1.00  0.00    -0.337 N 
ATOM     85  O   UNL     1       0.578  -7.403   2.587  1.00  0.00    -0.275 OA
BRANCH  84  86
ATOM     86  C   UNL     1       3.490  -7.445   2.087  1.00  0.00     0.155 C 
BRANCH  86  87
ATOM     87  C   UNL     1       3.747  -8.587   1.118  1.00  0.00    -0.024 A 
ATOM     88  C   UNL     1       3.073  -9.804   1.365  1.00  0.00     0.006 A 
ATOM     89  C   UNL     1       4.557  -8.476  -0.042  1.00  0.00    -0.024 A 
ATOM     90  C   UNL     1       3.154 -10.876   0.477  1.00  0.00     0.000 A 
ATOM     91  C   UNL     1       4.588  -9.562  -0.939  1.00  0.00     0.006 A 
ATOM     92  C   UNL     1       3.897 -10.747  -0.686  1.00  0.00     0.000 A 
BRANCH  89  93
ATOM     93  C   UNL     1       5.282  -7.206  -0.443  1.00  0.00     0.155 C 
BRANCH  93  94
ATOM     94  N   UNL     1       6.724  -7.271  -0.531  1.00  0.00    -0.338 N 
ATOM     95  C   UNL     1       7.577  -6.637   0.446  1.00  0.00     0.120 C 
ATOM     96  C   UNL     1       7.434  -7.725  -1.629  1.00  0.00     0.222 C 
ATOM     97  C   UNL     1       8.868  -6.402  -0.316  1.00  0.00     0.031 C 
ATOM     98  C   UNL     1       8.896  -7.538  -1.327  1.00  0.00     0.102 C 
ATOM     99  O   UNL     1       6.986  -8.206  -2.660  1.00  0.00    -0.275 OA
ENDBRANCH  93  94
ENDBRANCH  89  93
ENDBRANCH  86  87
ENDBRANCH  84  86
ENDBRANCH  78  80
ENDBRANCH  77  78
ENDBRANCH  76  77
ENDBRANCH  75  76
ENDBRANCH  74  75
ENDBRANCH   1  74
TORSDOF 21
