REMARK SMILES Cc1cccc([C@@H](CC(=O)OCCOCCOCCOC(=O)c2ccc(-c3c4nc(c(-c5c(F)c(F)c(F)c(F)c5F)c5ccc([nH]5)c(-c5c(F)c(F)c(F)c(F)c5F)c5nc(c(-c6c(F)c(F)c(F)c(F)c6F)c6ccc3[nH]6)C=C5)C=C4)cc2)NC(=O)OC(C)(C)C)c1
REMARK SMILES IDX 15 1 14 2 13 3 12 4 11 5 9 6 10 7 8 8 7 9 6 10 1 11 2 12
REMARK SMILES IDX 3 13 94 14 4 15 5 16 86 17 87 18 88 20 89 21 90 22 91 23
REMARK SMILES IDX 92 24 93 25 16 26 17 27 18 28 19 29 20 30 21 31 22 32 23 33
REMARK SMILES IDX 24 34 85 35 25 36 84 37 26 38 27 39 28 40 78 41 29 42 83 43
REMARK SMILES IDX 77 44 79 45 30 46 82 47 76 48 75 49 31 51 63 52 43 53 62 54
REMARK SMILES IDX 44 55 47 56 61 57 80 58 45 59 46 60 60 62 81 63 48 64 32 65
REMARK SMILES IDX 33 66 41 67 34 68 35 69 39 70 42 71 36 72 37 73 40 74 38 75
REMARK SMILES IDX 64 76 65 77 73 78 66 79 67 80 71 81 74 82 68 83 69 84 72 85
REMARK SMILES IDX 70 86 49 87 50 88 58 89 51 90 52 91 56 92 59 93 53 94 54 95
REMARK SMILES IDX 57 96 55 97
REMARK H PARENT 86 19 79 50 47 61
REMARK Flexibility Score: inf
ROOT
ATOM      1  C   UNL     1      -7.415   0.514   2.651  1.00  0.00     0.188 C 
ENDROOT
BRANCH   1   2
ATOM      2  O   UNL     1      -7.910   0.057   1.404  1.00  0.00    -0.376 OA
BRANCH   2   3
ATOM      3  C   UNL     1      -6.925  -0.380   0.497  1.00  0.00     0.202 C 
BRANCH   3   4
ATOM      4  C   UNL     1      -5.588   0.419   0.527  1.00  0.00     0.261 C 
BRANCH   4   5
ATOM      5  O   UNL     1      -5.210   1.868  -0.241  1.00  0.00    -0.463 OA
BRANCH   5   6
ATOM      6  C   UNL     1      -4.285   2.719  -0.949  1.00  0.00     0.308 C 
ATOM      7  O   UNL     1      -4.854   3.615  -1.590  1.00  0.00    -0.252 OA
BRANCH   6   8
ATOM      8  C   UNL     1      -2.533   2.717  -1.193  1.00  0.00     0.152 C 
BRANCH   8   9
ATOM      9  C   UNL     1      -1.027   2.732  -0.328  1.00  0.00     0.127 C 
BRANCH   9  10
ATOM     10  C   UNL     1       0.043   1.523  -0.398  1.00  0.00    -0.025 A 
ATOM     11  C   UNL     1       3.773   0.701  -1.019  1.00  0.00     0.044 C 
ATOM     12  C   UNL     1       2.298   0.548  -0.761  1.00  0.00    -0.051 A 
ATOM     13  C   UNL     1       1.945  -0.666  -0.164  1.00  0.00     0.003 A 
ATOM     14  C   UNL     1       1.336   1.604  -0.949  1.00  0.00     0.009 A 
ATOM     15  C   UNL     1       0.754  -0.724   0.493  1.00  0.00     0.001 A 
ATOM     16  C   UNL     1      -0.091   0.387   0.430  1.00  0.00     0.006 A 
ENDBRANCH   9  10
BRANCH   9  17
ATOM     17  N   UNL     1      -1.144   2.979   1.114  1.00  0.00    -0.314 N 
ATOM     18  C   UNL     1      -1.175   3.908   2.065  1.00  0.00     0.408 C 
ATOM     19  H   UNL     1      -1.238   2.104   1.555  1.00  0.00     0.167 HD
ATOM     20  O   UNL     1      -1.369   3.463   3.202  1.00  0.00    -0.225 OA
BRANCH  18  21
ATOM     21  O   UNL     1      -0.965   5.182   1.735  1.00  0.00    -0.444 OA
BRANCH  21  22
ATOM     22  C   UNL     1      -1.021   6.178   2.805  1.00  0.00     0.106 C 
ATOM     23  C   UNL     1      -2.446   6.736   2.839  1.00  0.00     0.056 C 
ATOM     24  C   UNL     1      -0.621   5.716   4.228  1.00  0.00     0.056 C 
ATOM     25  C   UNL     1      -0.020   7.257   2.391  1.00  0.00     0.056 C 
ENDBRANCH  21  22
ENDBRANCH  18  21
ENDBRANCH   9  17
ENDBRANCH   8   9
ENDBRANCH   6   8
ENDBRANCH   5   6
ENDBRANCH   4   5
ENDBRANCH   3   4
ENDBRANCH   2   3
ENDBRANCH   1   2
BRANCH   1  26
ATOM     26  C   UNL     1      -6.867  -0.585   3.571  1.00  0.00     0.188 C 
BRANCH  26  27
ATOM     27  O   UNL     1      -5.717  -1.281   3.074  1.00  0.00    -0.376 OA
BRANCH  27  28
ATOM     28  C   UNL     1      -5.259  -2.315   3.970  1.00  0.00     0.202 C 
BRANCH  28  29
ATOM     29  C   UNL     1      -4.534  -1.772   5.213  1.00  0.00     0.261 C 
BRANCH  29  30
ATOM     30  O   UNL     1      -3.217  -1.359   4.829  1.00  0.00    -0.460 OA
BRANCH  30  31
ATOM     31  C   UNL     1      -3.229  -0.110   4.331  1.00  0.00     0.338 C 
ATOM     32  O   UNL     1      -3.695   0.873   4.887  1.00  0.00    -0.246 OA
BRANCH  31  33
ATOM     33  C   UNL     1      -2.885  -0.185   2.891  1.00  0.00     0.060 A 
ATOM     34  C   UNL     1      -3.067   0.976   2.227  1.00  0.00     0.016 A 
ATOM     35  C   UNL     1      -2.636  -1.333   2.109  1.00  0.00     0.016 A 
ATOM     36  C   UNL     1      -3.054   0.941   0.823  1.00  0.00     0.010 A 
ATOM     37  C   UNL     1      -2.718  -1.338   0.667  1.00  0.00     0.010 A 
ATOM     38  C   UNL     1      -2.974  -0.175  -0.069  1.00  0.00    -0.014 A 
BRANCH  38  39
ATOM     39  C   UNL     1      -3.408  -0.296  -1.614  1.00  0.00     0.031 A 
ATOM     40  C   UNL     1      -2.342  -0.416  -2.650  1.00  0.00     0.074 A 
ATOM     41  C   UNL     1      -4.649  -0.275  -2.254  1.00  0.00     0.049 A 
ATOM     42  N   UNL     1      -2.408   0.133  -3.829  1.00  0.00    -0.248 NA
ATOM     43  C   UNL     1      -1.083  -1.096  -2.402  1.00  0.00     0.031 C 
ATOM     44  C   UNL     1      -5.045  -0.972  -3.494  1.00  0.00     0.029 A 
ATOM     45  N   UNL     1      -5.859   0.352  -1.957  1.00  0.00    -0.354 N 
ATOM     46  C   UNL     1      -1.367  -0.395  -4.551  1.00  0.00     0.074 A 
ATOM     47  C   UNL     1      -0.454  -0.932  -3.568  1.00  0.00     0.031 C 
ATOM     48  C   UNL     1      -6.329  -0.691  -3.821  1.00  0.00     0.029 A 
ATOM     49  C   UNL     1      -6.867   0.289  -2.892  1.00  0.00     0.049 A 
ATOM     50  H   UNL     1      -5.988   0.825  -1.103  1.00  0.00     0.167 HD
ATOM     51  C   UNL     1      -1.463  -0.648  -5.888  1.00  0.00     0.037 A 
ATOM     52  C   UNL     1      -7.804   1.275  -3.064  1.00  0.00     0.037 A 
ATOM     53  C   UNL     1      -2.803  -0.407  -6.413  1.00  0.00     0.049 A 
ATOM     54  C   UNL     1      -7.556   1.879  -4.409  1.00  0.00     0.074 A 
ATOM     55  C   UNL     1      -3.841  -1.281  -6.701  1.00  0.00     0.029 A 
ATOM     56  N   UNL     1      -3.362   0.870  -6.443  1.00  0.00    -0.354 N 
ATOM     57  N   UNL     1      -6.449   1.645  -5.049  1.00  0.00    -0.248 NA
ATOM     58  C   UNL     1      -8.452   2.766  -5.136  1.00  0.00     0.031 C 
ATOM     59  C   UNL     1      -5.004  -0.532  -6.974  1.00  0.00     0.029 A 
ATOM     60  C   UNL     1      -4.685   0.807  -6.849  1.00  0.00     0.049 A 
ATOM     61  H   UNL     1      -2.884   1.699  -6.208  1.00  0.00     0.167 HD
ATOM     62  C   UNL     1      -6.497   2.223  -6.273  1.00  0.00     0.074 A 
ATOM     63  C   UNL     1      -7.757   2.945  -6.277  1.00  0.00     0.031 C 
ATOM     64  C   UNL     1      -5.481   1.994  -7.150  1.00  0.00     0.037 A 
BRANCH  51  65
ATOM     65  C   UNL     1      -0.423  -1.532  -6.550  1.00  0.00     0.064 A 
ATOM     66  C   UNL     1      -0.759  -2.620  -7.380  1.00  0.00     0.173 A 
ATOM     67  C   UNL     1       0.957  -1.368  -6.310  1.00  0.00     0.173 A 
ATOM     68  F   UNL     1      -2.016  -2.850  -7.771  1.00  0.00    -0.203 F 
ATOM     69  C   UNL     1       0.191  -3.542  -7.827  1.00  0.00     0.198 A 
ATOM     70  C   UNL     1       1.903  -2.313  -6.723  1.00  0.00     0.198 A 
ATOM     71  F   UNL     1       1.407  -0.300  -5.631  1.00  0.00    -0.203 F 
ATOM     72  F   UNL     1      -0.197  -4.579  -8.583  1.00  0.00    -0.200 F 
ATOM     73  C   UNL     1       1.516  -3.408  -7.470  1.00  0.00     0.200 A 
ATOM     74  F   UNL     1       3.187  -2.172  -6.365  1.00  0.00    -0.200 F 
ATOM     75  F   UNL     1       2.414  -4.327  -7.848  1.00  0.00    -0.200 F 
ENDBRANCH  51  65
BRANCH  52  76
ATOM     76  C   UNL     1      -8.343   2.045  -1.885  1.00  0.00     0.064 A 
ATOM     77  C   UNL     1      -9.253   1.431  -1.003  1.00  0.00     0.173 A 
ATOM     78  C   UNL     1      -7.872   3.304  -1.487  1.00  0.00     0.173 A 
ATOM     79  F   UNL     1      -9.820   0.262  -1.340  1.00  0.00    -0.203 F 
ATOM     80  C   UNL     1      -9.547   1.968   0.261  1.00  0.00     0.198 A 
ATOM     81  C   UNL     1      -8.088   3.797  -0.188  1.00  0.00     0.198 A 
ATOM     82  F   UNL     1      -7.196   4.065  -2.354  1.00  0.00    -0.203 F 
ATOM     83  F   UNL     1     -10.377   1.321   1.095  1.00  0.00    -0.200 F 
ATOM     84  C   UNL     1      -8.897   3.108   0.698  1.00  0.00     0.200 A 
ATOM     85  F   UNL     1      -7.491   4.928   0.217  1.00  0.00    -0.200 F 
ATOM     86  F   UNL     1      -9.038   3.528   1.965  1.00  0.00    -0.200 F 
ENDBRANCH  52  76
BRANCH  64  87
ATOM     87  C   UNL     1      -5.244   2.699  -8.450  1.00  0.00     0.064 A 
ATOM     88  C   UNL     1      -5.765   3.961  -8.766  1.00  0.00     0.173 A 
ATOM     89  C   UNL     1      -4.341   2.154  -9.396  1.00  0.00     0.173 A 
ATOM     90  F   UNL     1      -6.532   4.642  -7.907  1.00  0.00    -0.203 F 
ATOM     91  C   UNL     1      -5.457   4.601  -9.966  1.00  0.00     0.198 A 
ATOM     92  C   UNL     1      -3.981   2.826 -10.556  1.00  0.00     0.198 A 
ATOM     93  F   UNL     1      -3.749   0.964  -9.218  1.00  0.00    -0.203 F 
ATOM     94  F   UNL     1      -6.019   5.784 -10.245  1.00  0.00    -0.200 F 
ATOM     95  C   UNL     1      -4.553   4.043 -10.851  1.00  0.00     0.200 A 
ATOM     96  F   UNL     1      -3.060   2.294 -11.370  1.00  0.00    -0.200 F 
ATOM     97  F   UNL     1      -4.216   4.689 -11.973  1.00  0.00    -0.200 F 
ENDBRANCH  64  87
ENDBRANCH  38  39
ENDBRANCH  31  33
ENDBRANCH  30  31
ENDBRANCH  29  30
ENDBRANCH  28  29
ENDBRANCH  27  28
ENDBRANCH  26  27
ENDBRANCH   1  26
TORSDOF 22
