REMARK SMILES CC(C)(C)OC(=O)N1CC[N@H+](Cc2ccc(Cl)nc2)[C@H](C(=O)OCCOCCOCCOC(=O)c2ccc(-c3c4nc(c(-c5c(F)c(F)c(F)c(F)c5F)c5ccc([nH]5)c(-c5c(F)c(F)c(F)c(F)c5F)c5nc(c(-c6c(F)c(F)c(F)c(F)c6F)c6ccc3[nH]6)C=C5)C=C4)cc2)C1
REMARK SMILES IDX 27 1 26 2 25 3 24 4 23 5 21 6 22 7 20 8 8 9 9 10 98 11 10 12
REMARK SMILES IDX 11 13 6 15 7 16 5 17 2 18 1 19 3 20 4 21 12 22 13 23 14 24
REMARK SMILES IDX 19 25 15 26 18 27 16 28 17 29 28 30 29 31 30 32 31 33 32 34
REMARK SMILES IDX 33 35 34 36 35 37 36 38 97 39 37 40 96 41 38 42 39 43 40 44
REMARK SMILES IDX 90 45 41 46 95 47 89 48 91 49 42 50 94 51 88 52 87 53 43 55
REMARK SMILES IDX 75 56 55 57 74 58 56 59 59 60 73 61 92 62 57 63 58 64 72 66
REMARK SMILES IDX 93 67 60 68 44 69 45 70 53 71 46 72 47 73 51 74 54 75 48 76
REMARK SMILES IDX 49 77 52 78 50 79 76 80 77 81 85 82 78 83 79 84 83 85 86 86
REMARK SMILES IDX 80 87 81 88 84 89 82 90 61 91 62 92 70 93 63 94 64 95 68 96
REMARK SMILES IDX 71 97 65 98 66 99 69 100 67 101
REMARK H PARENT 11 14 91 54 59 65
REMARK Flexibility Score: inf
ROOT
ATOM      1  C   UNL     1       5.697   4.779   4.181  1.00  0.00     0.188 C 
ENDROOT
BRANCH   1   2
ATOM      2  O   UNL     1       6.626   4.285   5.115  1.00  0.00    -0.376 OA
BRANCH   2   3
ATOM      3  C   UNL     1       6.553   2.968   5.612  1.00  0.00     0.202 C 
BRANCH   3   4
ATOM      4  C   UNL     1       5.259   2.150   5.758  1.00  0.00     0.261 C 
BRANCH   4   5
ATOM      5  O   UNL     1       4.065   2.575   5.089  1.00  0.00    -0.459 OA
BRANCH   5   6
ATOM      6  C   UNL     1       3.146   3.213   5.867  1.00  0.00     0.366 C 
ATOM      7  O   UNL     1       3.402   3.660   6.980  1.00  0.00    -0.245 OA
BRANCH   6   8
ATOM      8  C   UNL     1       1.735   3.189   5.233  1.00  0.00     0.315 C 
ATOM      9  N   UNL     1       0.350   3.153   3.095  1.00  0.00    -0.296 N 
ATOM     10  C   UNL     1      -0.654   3.971   3.762  1.00  0.00     0.184 C 
ATOM     11  C   UNL     1       1.683   2.994   3.698  1.00  0.00     0.200 C 
ATOM     12  C   UNL     1      -0.513   4.068   5.285  1.00  0.00     0.285 C 
ATOM     13  N   UNL     1       0.856   4.270   5.768  1.00  0.00    -0.316 N 
ATOM     14  H   UNL     1       0.893   4.145   6.779  1.00  0.00     0.349 HD
BRANCH   9  15
ATOM     15  C   UNL     1       0.121   2.929   1.743  1.00  0.00     0.410 C 
ATOM     16  O   UNL     1      -0.733   3.539   1.113  1.00  0.00    -0.224 OA
BRANCH  15  17
ATOM     17  O   UNL     1       0.860   1.904   1.246  1.00  0.00    -0.444 OA
BRANCH  17  18
ATOM     18  C   UNL     1       0.493   1.334  -0.044  1.00  0.00     0.106 C 
ATOM     19  C   UNL     1       1.184  -0.037  -0.083  1.00  0.00     0.056 C 
ATOM     20  C   UNL     1       1.031   2.203  -1.184  1.00  0.00     0.056 C 
ATOM     21  C   UNL     1      -1.021   1.092  -0.189  1.00  0.00     0.056 C 
ENDBRANCH  17  18
ENDBRANCH  15  17
ENDBRANCH   9  15
BRANCH  13  22
ATOM     22  C   UNL     1       1.327   5.663   5.761  1.00  0.00     0.301 C 
BRANCH  22  23
ATOM     23  C   UNL     1       1.200   6.438   4.476  1.00  0.00     0.025 A 
ATOM     24  C   UNL     1       0.112   7.278   4.207  1.00  0.00     0.014 A 
ATOM     25  C   UNL     1       2.144   6.304   3.470  1.00  0.00     0.122 A 
ATOM     26  C   UNL     1      -0.018   7.866   2.948  1.00  0.00     0.041 A 
ATOM     27  N   UNL     1       2.042   6.838   2.236  1.00  0.00    -0.244 NA
ATOM     28  C   UNL     1       0.954   7.596   2.003  1.00  0.00     0.129 A 
ATOM     29  Cl  UNL     1       0.886   8.269   0.430  1.00  0.00    -0.062 Cl
ENDBRANCH  22  23
ENDBRANCH  13  22
ENDBRANCH   6   8
ENDBRANCH   5   6
ENDBRANCH   4   5
ENDBRANCH   3   4
ENDBRANCH   2   3
ENDBRANCH   1   2
BRANCH   1  30
ATOM     30  C   UNL     1       5.439   4.025   2.863  1.00  0.00     0.188 C 
BRANCH  30  31
ATOM     31  O   UNL     1       6.385   3.061   2.432  1.00  0.00    -0.376 OA
BRANCH  31  32
ATOM     32  C   UNL     1       7.722   3.509   2.219  1.00  0.00     0.202 C 
BRANCH  32  33
ATOM     33  C   UNL     1       7.894   4.702   1.274  1.00  0.00     0.261 C 
BRANCH  33  34
ATOM     34  O   UNL     1       7.365   5.894   1.881  1.00  0.00    -0.460 OA
BRANCH  34  35
ATOM     35  C   UNL     1       7.352   6.988   1.085  1.00  0.00     0.338 C 
ATOM     36  O   UNL     1       7.856   7.100  -0.015  1.00  0.00    -0.246 OA
BRANCH  35  37
ATOM     37  C   UNL     1       6.596   8.062   1.766  1.00  0.00     0.060 A 
ATOM     38  C   UNL     1       5.257   7.863   2.106  1.00  0.00     0.016 A 
ATOM     39  C   UNL     1       7.188   9.308   1.976  1.00  0.00     0.016 A 
ATOM     40  C   UNL     1       4.512   8.908   2.656  1.00  0.00     0.010 A 
ATOM     41  C   UNL     1       6.433  10.356   2.526  1.00  0.00     0.010 A 
ATOM     42  C   UNL     1       5.080  10.168   2.851  1.00  0.00    -0.014 A 
BRANCH  42  43
ATOM     43  C   UNL     1       4.194  11.311   3.199  1.00  0.00     0.031 A 
ATOM     44  C   UNL     1       3.808  12.275   2.112  1.00  0.00     0.074 A 
ATOM     45  C   UNL     1       3.632  11.445   4.415  1.00  0.00     0.049 A 
ATOM     46  N   UNL     1       3.210  13.435   2.201  1.00  0.00    -0.248 NA
ATOM     47  C   UNL     1       4.122  11.859   0.737  1.00  0.00     0.031 C 
ATOM     48  C   UNL     1       3.754  10.497   5.519  1.00  0.00     0.029 A 
ATOM     49  N   UNL     1       2.829  12.443   4.917  1.00  0.00    -0.354 N 
ATOM     50  C   UNL     1       3.123  13.910   0.899  1.00  0.00     0.074 A 
ATOM     51  C   UNL     1       3.704  12.904   0.038  1.00  0.00     0.031 C 
ATOM     52  C   UNL     1       3.054  10.959   6.570  1.00  0.00     0.029 A 
ATOM     53  C   UNL     1       2.499  12.271   6.239  1.00  0.00     0.049 A 
ATOM     54  H   UNL     1       2.520  13.207   4.379  1.00  0.00     0.167 HD
ATOM     55  C   UNL     1       2.616  15.088   0.465  1.00  0.00     0.037 A 
ATOM     56  C   UNL     1       1.871  13.103   7.095  1.00  0.00     0.037 A 
ATOM     57  C   UNL     1       2.005  16.074   1.314  1.00  0.00     0.049 A 
ATOM     58  C   UNL     1       1.432  14.468   6.621  1.00  0.00     0.074 A 
ATOM     59  C   UNL     1       1.520  17.326   0.976  1.00  0.00     0.029 A 
ATOM     60  N   UNL     1       1.776  15.909   2.671  1.00  0.00    -0.354 N 
ATOM     61  N   UNL     1       1.469  14.980   5.416  1.00  0.00    -0.248 NA
ATOM     62  C   UNL     1       0.889  15.382   7.639  1.00  0.00     0.031 C 
ATOM     63  C   UNL     1       1.029  17.933   2.137  1.00  0.00     0.029 A 
ATOM     64  C   UNL     1       1.169  17.042   3.188  1.00  0.00     0.049 A 
ATOM     65  H   UNL     1       2.011  15.106   3.190  1.00  0.00     0.167 HD
ATOM     66  C   UNL     1       0.943  16.262   5.527  1.00  0.00     0.074 A 
ATOM     67  C   UNL     1       0.574  16.445   6.914  1.00  0.00     0.031 C 
ATOM     68  C   UNL     1       0.789  17.207   4.567  1.00  0.00     0.037 A 
BRANCH  55  69
ATOM     69  C   UNL     1       2.776  15.405  -0.989  1.00  0.00     0.064 A 
ATOM     70  C   UNL     1       1.980  14.807  -1.975  1.00  0.00     0.173 A 
ATOM     71  C   UNL     1       3.739  16.341  -1.395  1.00  0.00     0.173 A 
ATOM     72  F   UNL     1       1.059  13.893  -1.636  1.00  0.00    -0.203 F 
ATOM     73  C   UNL     1       2.156  15.122  -3.320  1.00  0.00     0.198 A 
ATOM     74  C   UNL     1       3.896  16.671  -2.737  1.00  0.00     0.198 A 
ATOM     75  F   UNL     1       4.524  16.940  -0.486  1.00  0.00    -0.203 F 
ATOM     76  F   UNL     1       1.413  14.511  -4.253  1.00  0.00    -0.200 F 
ATOM     77  C   UNL     1       3.109  16.057  -3.699  1.00  0.00     0.200 A 
ATOM     78  F   UNL     1       4.811  17.582  -3.099  1.00  0.00    -0.200 F 
ATOM     79  F   UNL     1       3.274  16.362  -4.993  1.00  0.00    -0.200 F 
ENDBRANCH  55  69
BRANCH  56  80
ATOM     80  C   UNL     1       1.688  12.719   8.521  1.00  0.00     0.064 A 
ATOM     81  C   UNL     1       0.408  12.548   9.068  1.00  0.00     0.173 A 
ATOM     82  C   UNL     1       2.786  12.582   9.384  1.00  0.00     0.173 A 
ATOM     83  F   UNL     1      -0.677  12.704   8.294  1.00  0.00    -0.203 F 
ATOM     84  C   UNL     1       0.234  12.275  10.424  1.00  0.00     0.198 A 
ATOM     85  C   UNL     1       2.613  12.277  10.732  1.00  0.00     0.198 A 
ATOM     86  F   UNL     1       4.032  12.752   8.917  1.00  0.00    -0.203 F 
ATOM     87  F   UNL     1      -1.002  12.175  10.931  1.00  0.00    -0.200 F 
ATOM     88  C   UNL     1       1.336  12.134  11.253  1.00  0.00     0.200 A 
ATOM     89  F   UNL     1       3.682  12.137  11.527  1.00  0.00    -0.200 F 
ATOM     90  F   UNL     1       1.168  11.877  12.557  1.00  0.00    -0.200 F 
ENDBRANCH  56  80
BRANCH  68  91
ATOM     91  C   UNL     1       0.163  18.511   4.966  1.00  0.00     0.064 A 
ATOM     92  C   UNL     1       0.864  19.462   5.723  1.00  0.00     0.173 A 
ATOM     93  C   UNL     1      -1.134  18.836   4.540  1.00  0.00     0.173 A 
ATOM     94  F   UNL     1       2.100  19.192   6.167  1.00  0.00    -0.203 F 
ATOM     95  C   UNL     1       0.282  20.683   6.053  1.00  0.00     0.198 A 
ATOM     96  C   UNL     1      -1.703  20.069   4.850  1.00  0.00     0.198 A 
ATOM     97  F   UNL     1      -1.844  17.964   3.809  1.00  0.00    -0.203 F 
ATOM     98  F   UNL     1       0.955  21.562   6.809  1.00  0.00    -0.200 F 
ATOM     99  C   UNL     1      -0.997  20.989   5.610  1.00  0.00     0.200 A 
ATOM    100  F   UNL     1      -2.933  20.367   4.411  1.00  0.00    -0.200 F 
ATOM    101  F   UNL     1      -1.551  22.169   5.921  1.00  0.00    -0.200 F 
ENDBRANCH  68  91
ENDBRANCH  42  43
ENDBRANCH  35  37
ENDBRANCH  34  35
ENDBRANCH  33  34
ENDBRANCH  32  33
ENDBRANCH  31  32
ENDBRANCH  30  31
ENDBRANCH   1  30
TORSDOF 22
