REMARK SMILES Cc1ccc([C@@H](C)Nc2ccc(N)cc2C(=O)OCCOCCOCCOC(=O)c2ccc(-c3c4nc(c(-c5c(F)c(F)c(F)c(F)c5F)c5ccc([nH]5)c(-c5c(F)c(F)c(F)c(F)c5F)c5nc(c(-c6c(F)c(F)c(F)c(F)c6F)c6ccc3[nH]6)C=C5)C=C4)cc2)cc1F
REMARK SMILES IDX 22 1 21 2 20 3 19 4 18 5 16 6 17 7 15 8 9 9 10 10 11 11
REMARK SMILES IDX 14 12 12 13 8 14 6 16 7 17 5 18 1 19 2 20 3 21 94 22 4 23
REMARK SMILES IDX 93 24 95 25 13 26 23 29 24 30 25 31 26 32 27 33 28 34 29 35
REMARK SMILES IDX 30 36 31 37 92 38 32 39 91 40 33 41 34 42 35 43 85 44 36 45
REMARK SMILES IDX 90 46 84 47 86 48 37 49 89 50 83 51 82 52 38 54 70 55 50 56
REMARK SMILES IDX 69 57 51 58 54 59 68 60 87 61 52 62 53 63 67 65 88 66 55 67
REMARK SMILES IDX 39 68 40 69 48 70 41 71 42 72 46 73 49 74 43 75 44 76 47 77
REMARK SMILES IDX 45 78 71 79 72 80 80 81 73 82 74 83 78 84 81 85 75 86 76 87
REMARK SMILES IDX 79 88 77 89 56 90 57 91 65 92 58 93 59 94 63 95 66 96 60 97
REMARK SMILES IDX 61 98 64 99 62 100
REMARK H PARENT 8 15 13 27 13 28 86 53 54 64
REMARK Flexibility Score: inf
ROOT
ATOM      1  C   UNL     1      -1.939  -4.128  -2.601  1.00  0.00     0.188 C 
ENDROOT
BRANCH   1   2
ATOM      2  O   UNL     1      -2.326  -3.723  -3.912  1.00  0.00    -0.376 OA
BRANCH   2   3
ATOM      3  C   UNL     1      -3.097  -2.522  -3.993  1.00  0.00     0.202 C 
BRANCH   3   4
ATOM      4  C   UNL     1      -4.291  -2.384  -3.026  1.00  0.00     0.261 C 
BRANCH   4   5
ATOM      5  O   UNL     1      -3.986  -2.766  -1.662  1.00  0.00    -0.460 OA
BRANCH   5   6
ATOM      6  C   UNL     1      -4.750  -3.722  -1.076  1.00  0.00     0.340 C 
ATOM      7  O   UNL     1      -5.777  -4.178  -1.556  1.00  0.00    -0.246 OA
BRANCH   6   8
ATOM      8  C   UNL     1      -4.049  -4.394   0.072  1.00  0.00     0.085 A 
ATOM      9  C   UNL     1      -3.498  -3.830   1.238  1.00  0.00     0.049 A 
ATOM     10  C   UNL     1      -3.034  -4.780   2.197  1.00  0.00     0.029 A 
ATOM     11  C   UNL     1      -3.009  -6.165   2.001  1.00  0.00     0.027 A 
ATOM     12  C   UNL     1      -3.979  -5.815  -0.128  1.00  0.00     0.043 A 
ATOM     13  C   UNL     1      -3.420  -6.695   0.798  1.00  0.00     0.032 A 
BRANCH   9  14
ATOM     14  N   UNL     1      -3.335  -2.533   1.665  1.00  0.00    -0.378 N 
ATOM     15  H   UNL     1      -3.007  -2.541   2.593  1.00  0.00     0.161 HD
BRANCH  14  16
ATOM     16  C   UNL     1      -3.477  -1.147   1.224  1.00  0.00     0.106 C 
ATOM     17  C   UNL     1      -4.602  -0.851   0.251  1.00  0.00     0.036 C 
BRANCH  16  18
ATOM     18  C   UNL     1      -2.147  -0.449   0.918  1.00  0.00    -0.023 A 
ATOM     19  C   UNL     1       1.530   1.728   0.100  1.00  0.00     0.047 C 
ATOM     20  C   UNL     1       0.262   1.000   0.426  1.00  0.00    -0.015 A 
ATOM     21  C   UNL     1      -0.980   1.595   0.208  1.00  0.00     0.007 A 
ATOM     22  C   UNL     1       0.288  -0.315   0.895  1.00  0.00     0.126 A 
ATOM     23  C   UNL     1      -2.160   0.886   0.465  1.00  0.00     0.006 A 
ATOM     24  C   UNL     1      -0.888  -1.032   1.142  1.00  0.00     0.045 A 
ATOM     25  F   UNL     1       1.469  -0.921   1.093  1.00  0.00    -0.207 F 
ENDBRANCH  16  18
ENDBRANCH  14  16
ENDBRANCH   9  14
BRANCH  13  26
ATOM     26  N   UNL     1      -3.394  -8.062   0.588  1.00  0.00    -0.399 N 
ATOM     27  H   UNL     1      -2.992  -8.656   1.262  1.00  0.00     0.156 HD
ATOM     28  H   UNL     1      -3.778  -8.440  -0.236  1.00  0.00     0.156 HD
ENDBRANCH  13  26
ENDBRANCH   6   8
ENDBRANCH   5   6
ENDBRANCH   4   5
ENDBRANCH   3   4
ENDBRANCH   2   3
ENDBRANCH   1   2
BRANCH   1  29
ATOM     29  C   UNL     1      -1.207  -3.115  -1.681  1.00  0.00     0.188 C 
BRANCH  29  30
ATOM     30  O   UNL     1      -1.110  -1.822  -2.246  1.00  0.00    -0.376 OA
BRANCH  30  31
ATOM     31  C   UNL     1       0.153  -1.318  -2.633  1.00  0.00     0.202 C 
BRANCH  31  32
ATOM     32  C   UNL     1       1.090  -2.119  -3.537  1.00  0.00     0.261 C 
BRANCH  32  33
ATOM     33  O   UNL     1       0.506  -3.230  -4.205  1.00  0.00    -0.460 OA
BRANCH  33  34
ATOM     34  C   UNL     1       0.736  -4.386  -3.562  1.00  0.00     0.338 C 
ATOM     35  O   UNL     1       1.288  -4.505  -2.456  1.00  0.00    -0.246 OA
BRANCH  34  36
ATOM     36  C   UNL     1       0.374  -5.586  -4.363  1.00  0.00     0.060 A 
ATOM     37  C   UNL     1       0.450  -6.734  -3.538  1.00  0.00     0.016 A 
ATOM     38  C   UNL     1       1.134  -5.500  -5.522  1.00  0.00     0.016 A 
ATOM     39  C   UNL     1       1.661  -7.377  -3.466  1.00  0.00     0.010 A 
ATOM     40  C   UNL     1       2.365  -6.086  -5.439  1.00  0.00     0.010 A 
ATOM     41  C   UNL     1       2.634  -6.951  -4.360  1.00  0.00    -0.014 A 
BRANCH  41  42
ATOM     42  C   UNL     1       3.901  -7.607  -4.448  1.00  0.00     0.031 A 
ATOM     43  C   UNL     1       3.828  -8.893  -5.146  1.00  0.00     0.074 A 
ATOM     44  C   UNL     1       5.003  -6.934  -4.074  1.00  0.00     0.049 A 
ATOM     45  N   UNL     1       4.626  -9.876  -4.944  1.00  0.00    -0.248 NA
ATOM     46  C   UNL     1       2.703  -9.239  -6.029  1.00  0.00     0.031 C 
ATOM     47  C   UNL     1       6.357  -7.128  -4.554  1.00  0.00     0.029 A 
ATOM     48  N   UNL     1       5.116  -5.939  -3.095  1.00  0.00    -0.354 N 
ATOM     49  C   UNL     1       4.379 -10.757  -5.973  1.00  0.00     0.074 A 
ATOM     50  C   UNL     1       3.049 -10.460  -6.431  1.00  0.00     0.031 C 
ATOM     51  C   UNL     1       7.203  -6.457  -3.754  1.00  0.00     0.029 A 
ATOM     52  C   UNL     1       6.446  -5.960  -2.618  1.00  0.00     0.049 A 
ATOM     53  H   UNL     1       4.399  -5.336  -2.794  1.00  0.00     0.167 HD
ATOM     54  C   UNL     1       5.436 -11.419  -6.518  1.00  0.00     0.037 A 
ATOM     55  C   UNL     1       6.700  -6.324  -1.320  1.00  0.00     0.037 A 
ATOM     56  C   UNL     1       6.669 -11.023  -5.829  1.00  0.00     0.049 A 
ATOM     57  C   UNL     1       7.258  -7.717  -1.168  1.00  0.00     0.074 A 
ATOM     58  C   UNL     1       7.670 -10.107  -6.113  1.00  0.00     0.029 A 
ATOM     59  N   UNL     1       6.777 -11.273  -4.473  1.00  0.00    -0.354 N 
ATOM     60  N   UNL     1       7.475  -8.537  -2.156  1.00  0.00    -0.248 NA
ATOM     61  C   UNL     1       7.519  -8.322   0.133  1.00  0.00     0.031 C 
ATOM     62  C   UNL     1       8.404  -9.858  -4.914  1.00  0.00     0.029 A 
ATOM     63  C   UNL     1       7.856 -10.628  -3.905  1.00  0.00     0.049 A 
ATOM     64  H   UNL     1       6.154 -11.846  -3.971  1.00  0.00     0.167 HD
ATOM     65  C   UNL     1       7.843  -9.760  -1.666  1.00  0.00     0.074 A 
ATOM     66  C   UNL     1       7.828  -9.579  -0.223  1.00  0.00     0.031 C 
ATOM     67  C   UNL     1       8.098 -10.827  -2.484  1.00  0.00     0.037 A 
BRANCH  54  68
ATOM     68  C   UNL     1       5.403 -12.124  -7.853  1.00  0.00     0.064 A 
ATOM     69  C   UNL     1       6.597 -12.307  -8.581  1.00  0.00     0.173 A 
ATOM     70  C   UNL     1       4.248 -12.633  -8.483  1.00  0.00     0.173 A 
ATOM     71  F   UNL     1       7.787 -11.968  -8.069  1.00  0.00    -0.203 F 
ATOM     72  C   UNL     1       6.620 -12.859  -9.862  1.00  0.00     0.198 A 
ATOM     73  C   UNL     1       4.264 -13.141  -9.787  1.00  0.00     0.198 A 
ATOM     74  F   UNL     1       3.077 -12.723  -7.844  1.00  0.00    -0.203 F 
ATOM     75  F   UNL     1       7.791 -13.006 -10.497  1.00  0.00    -0.200 F 
ATOM     76  C   UNL     1       5.451 -13.250 -10.478  1.00  0.00     0.200 A 
ATOM     77  F   UNL     1       3.118 -13.539 -10.360  1.00  0.00    -0.200 F 
ATOM     78  F   UNL     1       5.473 -13.761 -11.716  1.00  0.00    -0.200 F 
ENDBRANCH  54  68
BRANCH  55  79
ATOM     79  C   UNL     1       5.750  -5.692  -0.361  1.00  0.00     0.064 A 
ATOM     80  C   UNL     1       5.849  -4.295  -0.267  1.00  0.00     0.173 A 
ATOM     81  C   UNL     1       4.496  -6.286  -0.170  1.00  0.00     0.173 A 
ATOM     82  F   UNL     1       7.052  -3.701  -0.328  1.00  0.00    -0.203 F 
ATOM     83  C   UNL     1       4.705  -3.514  -0.318  1.00  0.00     0.198 A 
ATOM     84  C   UNL     1       3.348  -5.500  -0.204  1.00  0.00     0.198 A 
ATOM     85  F   UNL     1       4.381  -7.622  -0.121  1.00  0.00    -0.203 F 
ATOM     86  F   UNL     1       4.812  -2.187  -0.478  1.00  0.00    -0.200 F 
ATOM     87  C   UNL     1       3.458  -4.117  -0.335  1.00  0.00     0.200 A 
ATOM     88  F   UNL     1       2.145  -6.091  -0.214  1.00  0.00    -0.200 F 
ATOM     89  F   UNL     1       2.372  -3.352  -0.501  1.00  0.00    -0.200 F 
ENDBRANCH  55  79
BRANCH  67  90
ATOM     90  C   UNL     1       8.542 -12.187  -1.995  1.00  0.00     0.064 A 
ATOM     91  C   UNL     1       9.332 -12.361  -0.850  1.00  0.00     0.173 A 
ATOM     92  C   UNL     1       8.257 -13.378  -2.708  1.00  0.00     0.173 A 
ATOM     93  F   UNL     1       9.854 -11.312  -0.200  1.00  0.00    -0.203 F 
ATOM     94  C   UNL     1       9.657 -13.629  -0.362  1.00  0.00     0.198 A 
ATOM     95  C   UNL     1       8.630 -14.637  -2.252  1.00  0.00     0.198 A 
ATOM     96  F   UNL     1       7.606 -13.387  -3.877  1.00  0.00    -0.203 F 
ATOM     97  F   UNL     1      10.334 -13.739   0.789  1.00  0.00    -0.200 F 
ATOM     98  C   UNL     1       9.296 -14.766  -1.057  1.00  0.00     0.200 A 
ATOM     99  F   UNL     1       8.326 -15.719  -2.983  1.00  0.00    -0.200 F 
ATOM    100  F   UNL     1       9.610 -15.981  -0.591  1.00  0.00    -0.200 F 
ENDBRANCH  67  90
ENDBRANCH  41  42
ENDBRANCH  34  36
ENDBRANCH  33  34
ENDBRANCH  32  33
ENDBRANCH  31  32
ENDBRANCH  30  31
ENDBRANCH  29  30
ENDBRANCH   1  29
TORSDOF 21
