REMARK SMILES O=C(CN1C(=O)c2ccccc2[C@@H]1O)OCCOCCOCCOC(=O)c1ccc(-c2c3nc(c(-c4c(F)c(F)c(F)c(F)c4F)c4ccc([nH]4)c(-c4c(F)c(F)c(F)c(F)c4F)c4nc(c(-c5c(F)c(F)c(F)c(F)c5F)c5ccc2[nH]5)C=C4)C=C3)cc1
REMARK SMILES IDX 19 1 18 2 17 3 16 4 15 5 2 6 1 7 3 8 4 9 5 10 13 11 6 12
REMARK SMILES IDX 7 13 12 14 8 15 11 16 9 17 10 18 14 19 20 21 21 22 22 23
REMARK SMILES IDX 23 24 24 25 25 26 26 27 27 28 28 29 89 30 29 31 88 32 30 33
REMARK SMILES IDX 31 34 32 35 82 36 33 37 87 38 81 39 83 40 34 41 86 42 80 43
REMARK SMILES IDX 79 44 35 46 67 47 47 48 66 49 48 50 51 51 65 52 84 53 49 54
REMARK SMILES IDX 50 55 64 57 85 58 52 59 36 60 37 61 45 62 38 63 39 64 43 65
REMARK SMILES IDX 46 66 40 67 41 68 44 69 42 70 68 71 69 72 77 73 70 74 71 75
REMARK SMILES IDX 75 76 78 77 72 78 73 79 76 80 74 81 53 82 54 83 62 84 55 85
REMARK SMILES IDX 56 86 60 87 63 88 57 89 58 90 61 91 59 92
REMARK H PARENT 14 20 83 45 51 56
REMARK Flexibility Score: inf
ROOT
ATOM      1  C   UNL     1       3.186   1.534  -1.374  1.00  0.00     0.188 C 
ENDROOT
BRANCH   1   2
ATOM      2  O   UNL     1       4.561   1.228  -1.424  1.00  0.00    -0.376 OA
BRANCH   2   3
ATOM      3  C   UNL     1       5.080   0.383  -0.419  1.00  0.00     0.202 C 
BRANCH   3   4
ATOM      4  C   UNL     1       4.484  -1.021  -0.325  1.00  0.00     0.261 C 
BRANCH   4   5
ATOM      5  O   UNL     1       3.047  -1.155  -0.230  1.00  0.00    -0.462 OA
BRANCH   5   6
ATOM      6  C   UNL     1       2.178  -0.731   0.709  1.00  0.00     0.325 C 
ATOM      7  O   UNL     1       0.968  -0.855   0.500  1.00  0.00    -0.250 OA
BRANCH   6   8
ATOM      8  C   UNL     1       2.645   0.107   1.888  1.00  0.00     0.245 C 
BRANCH   8   9
ATOM      9  N   UNL     1       3.772  -0.361   2.649  1.00  0.00    -0.298 N 
ATOM     10  C   UNL     1       4.730   0.478   3.181  1.00  0.00     0.257 C 
ATOM     11  C   UNL     1       3.729  -1.641   3.304  1.00  0.00     0.247 C 
ATOM     12  O   UNL     1       4.913   1.660   2.945  1.00  0.00    -0.269 OA
ATOM     13  C   UNL     1       5.508  -0.322   4.125  1.00  0.00     0.047 A 
ATOM     14  C   UNL     1       4.940  -1.595   4.169  1.00  0.00     0.014 A 
ATOM     15  C   UNL     1       6.606   0.035   4.879  1.00  0.00     0.014 A 
ATOM     16  C   UNL     1       5.485  -2.580   4.967  1.00  0.00     0.009 A 
ATOM     17  C   UNL     1       7.154  -0.952   5.698  1.00  0.00     0.001 A 
ATOM     18  C   UNL     1       6.604  -2.249   5.733  1.00  0.00     0.001 A 
BRANCH  11  19
ATOM     19  O   UNL     1       3.781  -2.649   2.330  1.00  0.00    -0.369 OA
ATOM     20  H   UNL     1       4.566  -2.522   1.775  1.00  0.00     0.213 HD
ENDBRANCH  11  19
ENDBRANCH   8   9
ENDBRANCH   6   8
ENDBRANCH   5   6
ENDBRANCH   4   5
ENDBRANCH   3   4
ENDBRANCH   2   3
ENDBRANCH   1   2
BRANCH   1  21
ATOM     21  C   UNL     1       2.366   0.986  -2.554  1.00  0.00     0.188 C 
BRANCH  21  22
ATOM     22  O   UNL     1       3.015   0.277  -3.599  1.00  0.00    -0.376 OA
BRANCH  22  23
ATOM     23  C   UNL     1       4.287   0.713  -4.054  1.00  0.00     0.202 C 
BRANCH  23  24
ATOM     24  C   UNL     1       4.497   2.188  -4.456  1.00  0.00     0.261 C 
BRANCH  24  25
ATOM     25  O   UNL     1       4.094   3.190  -3.495  1.00  0.00    -0.460 OA
BRANCH  25  26
ATOM     26  C   UNL     1       3.004   3.929  -3.821  1.00  0.00     0.338 C 
ATOM     27  O   UNL     1       2.353   3.858  -4.851  1.00  0.00    -0.246 OA
BRANCH  26  28
ATOM     28  C   UNL     1       2.556   4.761  -2.677  1.00  0.00     0.060 A 
ATOM     29  C   UNL     1       1.280   4.520  -2.146  1.00  0.00     0.016 A 
ATOM     30  C   UNL     1       3.324   5.817  -2.182  1.00  0.00     0.016 A 
ATOM     31  C   UNL     1       0.751   5.354  -1.158  1.00  0.00     0.010 A 
ATOM     32  C   UNL     1       2.779   6.672  -1.207  1.00  0.00     0.010 A 
ATOM     33  C   UNL     1       1.474   6.470  -0.719  1.00  0.00    -0.014 A 
BRANCH  33  34
ATOM     34  C   UNL     1       0.778   7.502   0.101  1.00  0.00     0.031 A 
ATOM     35  C   UNL     1       0.253   8.742  -0.578  1.00  0.00     0.074 A 
ATOM     36  C   UNL     1       0.541   7.315   1.413  1.00  0.00     0.049 A 
ATOM     37  N   UNL     1      -0.402   9.759  -0.073  1.00  0.00    -0.248 NA
ATOM     38  C   UNL     1       0.496   8.847  -2.026  1.00  0.00     0.031 C 
ATOM     39  C   UNL     1       0.956   6.149   2.188  1.00  0.00     0.029 A 
ATOM     40  N   UNL     1      -0.112   8.111   2.325  1.00  0.00    -0.354 N 
ATOM     41  C   UNL     1      -0.653  10.615  -1.138  1.00  0.00     0.074 A 
ATOM     42  C   UNL     1      -0.043  10.023  -2.309  1.00  0.00     0.031 C 
ATOM     43  C   UNL     1       0.558   6.309   3.463  1.00  0.00     0.029 A 
ATOM     44  C   UNL     1      -0.116   7.600   3.601  1.00  0.00     0.049 A 
ATOM     45  H   UNL     1      -0.537   8.966   2.087  1.00  0.00     0.167 HD
ATOM     46  C   UNL     1      -1.345  11.781  -1.146  1.00  0.00     0.037 A 
ATOM     47  C   UNL     1      -0.590   8.123   4.750  1.00  0.00     0.037 A 
ATOM     48  C   UNL     1      -1.946  12.382   0.017  1.00  0.00     0.049 A 
ATOM     49  C   UNL     1      -1.288   9.461   4.726  1.00  0.00     0.074 A 
ATOM     50  C   UNL     1      -2.664  13.563   0.106  1.00  0.00     0.029 A 
ATOM     51  N   UNL     1      -1.896  11.852   1.297  1.00  0.00    -0.354 N 
ATOM     52  N   UNL     1      -1.541  10.251   3.711  1.00  0.00    -0.248 NA
ATOM     53  C   UNL     1      -1.777   9.976   6.014  1.00  0.00     0.031 C 
ATOM     54  C   UNL     1      -2.997  13.777   1.447  1.00  0.00     0.029 A 
ATOM     55  C   UNL     1      -2.548  12.695   2.186  1.00  0.00     0.049 A 
ATOM     56  H   UNL     1      -1.461  11.002   1.540  1.00  0.00     0.167 HD
ATOM     57  C   UNL     1      -2.239  11.335   4.231  1.00  0.00     0.074 A 
ATOM     58  C   UNL     1      -2.399  11.086   5.647  1.00  0.00     0.031 C 
ATOM     59  C   UNL     1      -2.701  12.441   3.595  1.00  0.00     0.037 A 
BRANCH  46  60
ATOM     60  C   UNL     1      -1.481  12.502  -2.459  1.00  0.00     0.064 A 
ATOM     61  C   UNL     1      -2.289  12.002  -3.492  1.00  0.00     0.173 A 
ATOM     62  C   UNL     1      -0.844  13.735  -2.665  1.00  0.00     0.173 A 
ATOM     63  F   UNL     1      -2.912  10.822  -3.352  1.00  0.00    -0.203 F 
ATOM     64  C   UNL     1      -2.437  12.700  -4.688  1.00  0.00     0.198 A 
ATOM     65  C   UNL     1      -1.021  14.446  -3.849  1.00  0.00     0.198 A 
ATOM     66  F   UNL     1      -0.065  14.262  -1.708  1.00  0.00    -0.203 F 
ATOM     67  F   UNL     1      -3.182  12.184  -5.676  1.00  0.00    -0.200 F 
ATOM     68  C   UNL     1      -1.812  13.926  -4.862  1.00  0.00     0.200 A 
ATOM     69  F   UNL     1      -0.430  15.638  -4.007  1.00  0.00    -0.200 F 
ATOM     70  F   UNL     1      -1.970  14.605  -6.006  1.00  0.00    -0.200 F 
ENDBRANCH  46  60
BRANCH  47  71
ATOM     71  C   UNL     1      -0.400   7.399   6.039  1.00  0.00     0.064 A 
ATOM     72  C   UNL     1      -1.492   6.922   6.779  1.00  0.00     0.173 A 
ATOM     73  C   UNL     1       0.880   7.224   6.586  1.00  0.00     0.173 A 
ATOM     74  F   UNL     1      -2.740   7.091   6.318  1.00  0.00    -0.203 F 
ATOM     75  C   UNL     1      -1.313   6.330   8.029  1.00  0.00     0.198 A 
ATOM     76  C   UNL     1       1.061   6.596   7.817  1.00  0.00     0.198 A 
ATOM     77  F   UNL     1       1.960   7.666   5.926  1.00  0.00    -0.203 F 
ATOM     78  F   UNL     1      -2.379   5.950   8.746  1.00  0.00    -0.200 F 
ATOM     79  C   UNL     1      -0.036   6.162   8.544  1.00  0.00     0.200 A 
ATOM     80  F   UNL     1       2.297   6.426   8.305  1.00  0.00    -0.200 F 
ATOM     81  F   UNL     1       0.135   5.597   9.746  1.00  0.00    -0.200 F 
ENDBRANCH  47  71
BRANCH  59  82
ATOM     82  C   UNL     1      -3.454  13.448   4.424  1.00  0.00     0.064 A 
ATOM     83  C   UNL     1      -2.823  14.207   5.422  1.00  0.00     0.173 A 
ATOM     84  C   UNL     1      -4.827  13.658   4.217  1.00  0.00     0.173 A 
ATOM     85  F   UNL     1      -1.514  14.043   5.669  1.00  0.00    -0.203 F 
ATOM     86  C   UNL     1      -3.546  15.096   6.215  1.00  0.00     0.198 A 
ATOM     87  C   UNL     1      -5.539  14.577   4.984  1.00  0.00     0.198 A 
ATOM     88  F   UNL     1      -5.482  12.972   3.269  1.00  0.00    -0.203 F 
ATOM     89  F   UNL     1      -2.935  15.750   7.212  1.00  0.00    -0.200 F 
ATOM     90  C   UNL     1      -4.902  15.283   5.993  1.00  0.00     0.200 A 
ATOM     91  F   UNL     1      -6.845  14.770   4.755  1.00  0.00    -0.200 F 
ATOM     92  F   UNL     1      -5.597  16.134   6.759  1.00  0.00    -0.200 F 
ENDBRANCH  59  82
ENDBRANCH  33  34
ENDBRANCH  26  28
ENDBRANCH  25  26
ENDBRANCH  24  25
ENDBRANCH  23  24
ENDBRANCH  22  23
ENDBRANCH  21  22
ENDBRANCH   1  21
TORSDOF 19
