REMARK SMILES CC(C)[C@H](NC(=O)c1cc2cc(Cl)ccc2n1C)C(=O)N[C@@H](C(=O)OCCOCCOCCOC(=O)c1ccc(-c2c3nc(c(-c4c(F)c(F)c(F)c(F)c4F)c4ccc([nH]4)c(-c4c(F)c(F)c(F)c(F)c4F)c4nc(c(-c5c(F)c(F)c(F)c(F)c5F)c5ccc2[nH]5)C=C4)C=C3)cc1)c1ccccc1
REMARK SMILES IDX 29 1 28 2 27 3 26 4 25 5 23 6 24 7 22 8 21 9 19 10 20 11
REMARK SMILES IDX 4 13 2 14 1 15 3 16 5 17 6 18 7 20 8 21 9 22 17 23 10 24
REMARK SMILES IDX 16 25 18 26 11 27 15 28 12 29 14 30 13 31 100 32 101 33
REMARK SMILES IDX 105 34 102 35 104 36 103 37 30 38 31 39 32 40 33 41 34 42
REMARK SMILES IDX 35 43 36 44 37 45 38 46 99 47 39 48 98 49 40 50 41 51 42 52
REMARK SMILES IDX 92 53 43 54 97 55 91 56 93 57 44 58 96 59 90 60 89 61 45 63
REMARK SMILES IDX 77 64 57 65 76 66 58 67 61 68 75 69 94 70 59 71 60 72 74 74
REMARK SMILES IDX 95 75 62 76 46 77 47 78 55 79 48 80 49 81 53 82 56 83 50 84
REMARK SMILES IDX 51 85 54 86 52 87 78 88 79 89 87 90 80 91 81 92 85 93 88 94
REMARK SMILES IDX 82 95 83 96 86 97 84 98 63 99 64 100 72 101 65 102 66 103
REMARK SMILES IDX 70 104 73 105 67 106 68 107 71 108 69 109
REMARK H PARENT 21 12 5 19 93 62 61 73
REMARK Flexibility Score: inf
ROOT
ATOM      1  C   UNL     1       2.567  -3.617   5.614  1.00  0.00     0.188 C 
ENDROOT
BRANCH   1   2
ATOM      2  O   UNL     1       3.881  -3.115   5.724  1.00  0.00    -0.376 OA
BRANCH   2   3
ATOM      3  C   UNL     1       3.967  -1.712   5.442  1.00  0.00     0.202 C 
BRANCH   3   4
ATOM      4  C   UNL     1       3.287  -1.247   4.125  1.00  0.00     0.261 C 
BRANCH   4   5
ATOM      5  O   UNL     1       1.824  -1.084   4.205  1.00  0.00    -0.461 OA
BRANCH   5   6
ATOM      6  C   UNL     1       1.165  -1.043   3.001  1.00  0.00     0.333 C 
ATOM      7  O   UNL     1       1.785  -1.102   1.935  1.00  0.00    -0.249 OA
BRANCH   6   8
ATOM      8  C   UNL     1      -0.482  -1.061   3.034  1.00  0.00     0.223 C 
BRANCH   8   9
ATOM      9  N   UNL     1      -1.643  -0.254   2.539  1.00  0.00    -0.337 N 
ATOM     10  C   UNL     1      -1.897   0.719   1.650  1.00  0.00     0.243 C 
ATOM     11  O   UNL     1      -3.054   1.085   1.416  1.00  0.00    -0.273 OA
ATOM     12  H   UNL     1      -2.468  -0.516   3.007  1.00  0.00     0.164 HD
BRANCH  10  13
ATOM     13  C   UNL     1      -0.769   1.145   0.839  1.00  0.00     0.174 C 
BRANCH  13  14
ATOM     14  C   UNL     1      -0.839   0.084  -0.391  1.00  0.00     0.015 C 
ATOM     15  C   UNL     1       0.438  -0.523  -0.958  1.00  0.00     0.010 C 
ATOM     16  C   UNL     1      -1.874  -1.099  -0.315  1.00  0.00     0.010 C 
ENDBRANCH  13  14
BRANCH  13  17
ATOM     17  N   UNL     1       0.269   1.268   1.889  1.00  0.00    -0.339 N 
ATOM     18  C   UNL     1       0.252   1.923   3.167  1.00  0.00     0.268 C 
ATOM     19  H   UNL     1       1.120   0.822   1.673  1.00  0.00     0.164 HD
ATOM     20  O   UNL     1       1.319   2.541   3.324  1.00  0.00    -0.268 OA
BRANCH  18  21
ATOM     21  C   UNL     1      -0.632   1.715   4.426  1.00  0.00     0.107 A 
ATOM     22  C   UNL     1      -0.049   1.951   5.694  1.00  0.00     0.042 A 
ATOM     23  N   UNL     1      -1.951   1.344   4.821  1.00  0.00    -0.340 N 
ATOM     24  C   UNL     1      -0.871   1.512   6.767  1.00  0.00     0.002 A 
ATOM     25  C   UNL     1      -1.997   0.971   6.182  1.00  0.00     0.048 A 
ATOM     26  C   UNL     1      -3.243   1.549   4.187  1.00  0.00     0.150 C 
ATOM     27  C   UNL     1      -0.776   1.506   8.176  1.00  0.00     0.030 A 
ATOM     28  C   UNL     1      -2.987   0.309   6.958  1.00  0.00     0.028 A 
ATOM     29  C   UNL     1      -1.751   0.847   8.941  1.00  0.00     0.041 A 
ATOM     30  C   UNL     1      -2.813   0.196   8.337  1.00  0.00     0.023 A 
ATOM     31  Cl  UNL     1      -1.637   0.851  10.661  1.00  0.00    -0.084 Cl
ENDBRANCH  18  21
ENDBRANCH  13  17
ENDBRANCH  10  13
ENDBRANCH   8   9
BRANCH   8  32
ATOM     32  C   UNL     1      -1.071  -1.767   4.365  1.00  0.00    -0.014 A 
ATOM     33  C   UNL     1      -0.623  -3.014   4.298  1.00  0.00     0.006 A 
ATOM     34  C   UNL     1      -2.469  -1.820   4.571  1.00  0.00     0.006 A 
ATOM     35  C   UNL     1      -1.303  -3.653   3.304  1.00  0.00     0.000 A 
ATOM     36  C   UNL     1      -3.286  -2.492   3.671  1.00  0.00     0.000 A 
ATOM     37  C   UNL     1      -2.613  -3.357   2.870  1.00  0.00     0.000 A 
ENDBRANCH   8  32
ENDBRANCH   6   8
ENDBRANCH   5   6
ENDBRANCH   4   5
ENDBRANCH   3   4
ENDBRANCH   2   3
ENDBRANCH   1   2
BRANCH   1  38
ATOM     38  C   UNL     1       1.653  -3.145   6.730  1.00  0.00     0.188 C 
BRANCH  38  39
ATOM     39  O   UNL     1       1.479  -1.762   6.995  1.00  0.00    -0.376 OA
BRANCH  39  40
ATOM     40  C   UNL     1       1.452  -1.509   8.406  1.00  0.00     0.202 C 
BRANCH  40  41
ATOM     41  C   UNL     1       0.437  -2.322   9.270  1.00  0.00     0.261 C 
BRANCH  41  42
ATOM     42  O   UNL     1       0.140  -3.656   8.755  1.00  0.00    -0.460 OA
BRANCH  42  43
ATOM     43  C   UNL     1      -1.155  -3.926   8.440  1.00  0.00     0.338 C 
ATOM     44  O   UNL     1      -2.115  -3.338   8.923  1.00  0.00    -0.246 OA
BRANCH  43  45
ATOM     45  C   UNL     1      -1.304  -4.864   7.250  1.00  0.00     0.060 A 
ATOM     46  C   UNL     1      -0.340  -5.740   6.706  1.00  0.00     0.016 A 
ATOM     47  C   UNL     1      -2.481  -4.717   6.526  1.00  0.00     0.016 A 
ATOM     48  C   UNL     1      -0.478  -6.301   5.382  1.00  0.00     0.010 A 
ATOM     49  C   UNL     1      -2.631  -5.313   5.260  1.00  0.00     0.010 A 
ATOM     50  C   UNL     1      -1.597  -6.017   4.582  1.00  0.00    -0.014 A 
BRANCH  50  51
ATOM     51  C   UNL     1      -1.943  -6.512   3.135  1.00  0.00     0.031 A 
ATOM     52  C   UNL     1      -2.758  -7.680   3.398  1.00  0.00     0.074 A 
ATOM     53  C   UNL     1      -1.784  -6.189   1.778  1.00  0.00     0.049 A 
ATOM     54  N   UNL     1      -2.179  -8.801   3.674  1.00  0.00    -0.248 NA
ATOM     55  C   UNL     1      -4.193  -7.636   3.684  1.00  0.00     0.031 C 
ATOM     56  C   UNL     1      -0.931  -5.183   1.092  1.00  0.00     0.029 A 
ATOM     57  N   UNL     1      -2.552  -6.569   0.659  1.00  0.00    -0.354 N 
ATOM     58  C   UNL     1      -3.221  -9.672   3.615  1.00  0.00     0.074 A 
ATOM     59  C   UNL     1      -4.377  -8.916   4.039  1.00  0.00     0.031 C 
ATOM     60  C   UNL     1      -1.443  -4.760  -0.078  1.00  0.00     0.029 A 
ATOM     61  C   UNL     1      -2.528  -5.653  -0.429  1.00  0.00     0.049 A 
ATOM     62  H   UNL     1      -3.068  -7.407   0.632  1.00  0.00     0.167 HD
ATOM     63  C   UNL     1      -3.130 -10.636   2.661  1.00  0.00     0.037 A 
ATOM     64  C   UNL     1      -2.770  -5.787  -1.765  1.00  0.00     0.037 A 
ATOM     65  C   UNL     1      -1.800 -10.699   2.057  1.00  0.00     0.049 A 
ATOM     66  C   UNL     1      -2.179  -7.082  -2.159  1.00  0.00     0.074 A 
ATOM     67  C   UNL     1      -0.513 -10.860   2.538  1.00  0.00     0.029 A 
ATOM     68  N   UNL     1      -1.672 -10.143   0.804  1.00  0.00    -0.354 N 
ATOM     69  N   UNL     1      -0.905  -7.366  -2.079  1.00  0.00    -0.248 NA
ATOM     70  C   UNL     1      -3.081  -8.220  -2.241  1.00  0.00     0.031 C 
ATOM     71  C   UNL     1       0.379 -10.316   1.570  1.00  0.00     0.029 A 
ATOM     72  C   UNL     1      -0.358  -9.877   0.477  1.00  0.00     0.049 A 
ATOM     73  H   UNL     1      -2.433  -9.956   0.208  1.00  0.00     0.167 HD
ATOM     74  C   UNL     1      -0.903  -8.664  -1.601  1.00  0.00     0.074 A 
ATOM     75  C   UNL     1      -2.237  -9.183  -1.870  1.00  0.00     0.031 C 
ATOM     76  C   UNL     1       0.012  -9.068  -0.674  1.00  0.00     0.037 A 
BRANCH  63  77
ATOM     77  C   UNL     1      -4.329 -11.211   1.989  1.00  0.00     0.064 A 
ATOM     78  C   UNL     1      -4.228 -12.508   1.475  1.00  0.00     0.173 A 
ATOM     79  C   UNL     1      -5.500 -10.492   1.664  1.00  0.00     0.173 A 
ATOM     80  F   UNL     1      -3.118 -13.231   1.682  1.00  0.00    -0.203 F 
ATOM     81  C   UNL     1      -5.239 -13.053   0.690  1.00  0.00     0.198 A 
ATOM     82  C   UNL     1      -6.536 -11.064   0.940  1.00  0.00     0.198 A 
ATOM     83  F   UNL     1      -5.638  -9.188   1.931  1.00  0.00    -0.203 F 
ATOM     84  F   UNL     1      -5.066 -14.260   0.138  1.00  0.00    -0.200 F 
ATOM     85  C   UNL     1      -6.399 -12.339   0.437  1.00  0.00     0.200 A 
ATOM     86  F   UNL     1      -7.633 -10.340   0.677  1.00  0.00    -0.200 F 
ATOM     87  F   UNL     1      -7.360 -12.856  -0.337  1.00  0.00    -0.200 F 
ENDBRANCH  63  77
BRANCH  64  88
ATOM     88  C   UNL     1      -3.330  -4.772  -2.713  1.00  0.00     0.064 A 
ATOM     89  C   UNL     1      -3.281  -4.914  -4.114  1.00  0.00     0.173 A 
ATOM     90  C   UNL     1      -4.138  -3.716  -2.239  1.00  0.00     0.173 A 
ATOM     91  F   UNL     1      -2.548  -5.889  -4.668  1.00  0.00    -0.203 F 
ATOM     92  C   UNL     1      -4.026  -4.089  -4.975  1.00  0.00     0.198 A 
ATOM     93  C   UNL     1      -4.881  -2.894  -3.098  1.00  0.00     0.198 A 
ATOM     94  F   UNL     1      -4.265  -3.502  -0.921  1.00  0.00    -0.203 F 
ATOM     95  F   UNL     1      -3.990  -4.295  -6.300  1.00  0.00    -0.200 F 
ATOM     96  C   UNL     1      -4.839  -3.092  -4.465  1.00  0.00     0.200 A 
ATOM     97  F   UNL     1      -5.676  -1.942  -2.588  1.00  0.00    -0.200 F 
ATOM     98  F   UNL     1      -5.600  -2.347  -5.282  1.00  0.00    -0.200 F 
ENDBRANCH  64  88
BRANCH  76  99
ATOM     99  C   UNL     1       1.417  -8.533  -0.768  1.00  0.00     0.064 A 
ATOM    100  C   UNL     1       1.807  -7.247  -0.390  1.00  0.00     0.173 A 
ATOM    101  C   UNL     1       2.449  -9.396  -1.156  1.00  0.00     0.173 A 
ATOM    102  F   UNL     1       0.907  -6.379   0.044  1.00  0.00    -0.203 F 
ATOM    103  C   UNL     1       3.135  -6.823  -0.397  1.00  0.00     0.198 A 
ATOM    104  C   UNL     1       3.787  -8.988  -1.152  1.00  0.00     0.198 A 
ATOM    105  F   UNL     1       2.164 -10.661  -1.503  1.00  0.00    -0.203 F 
ATOM    106  F   UNL     1       3.444  -5.579  -0.000  1.00  0.00    -0.200 F 
ATOM    107  C   UNL     1       4.130  -7.699  -0.777  1.00  0.00     0.200 A 
ATOM    108  F   UNL     1       4.750  -9.858  -1.483  1.00  0.00    -0.200 F 
ATOM    109  F   UNL     1       5.412  -7.311  -0.758  1.00  0.00    -0.200 F 
ENDBRANCH  76  99
ENDBRANCH  50  51
ENDBRANCH  43  45
ENDBRANCH  42  43
ENDBRANCH  41  42
ENDBRANCH  40  41
ENDBRANCH  39  40
ENDBRANCH  38  39
ENDBRANCH   1  38
TORSDOF 23
