REMARK SMILES C#Cc1cccc(N(C)S(=O)(=O)c2cc(F)c(F)c(C(=O)OCCOCCOCCOC(=O)c3ccc(-c4c5nc(c(-c6c(F)c(F)c(F)c(F)c6F)c6ccc([nH]6)c(-c6c(F)c(F)c(F)c(F)c6F)c6nc(c(-c7c(F)c(F)c(F)c(F)c7F)c7ccc4[nH]7)C=C6)C=C5)cc3)c2)c1
REMARK SMILES IDX 26 1 25 2 24 3 23 4 22 5 20 6 21 7 19 8 13 9 14 10 97 11
REMARK SMILES IDX 15 12 16 13 17 14 18 15 10 16 11 17 12 18 8 19 9 20 7 21
REMARK SMILES IDX 3 22 4 23 98 24 5 25 6 26 2 27 1 28 27 29 28 30 29 31 30 32
REMARK SMILES IDX 31 33 32 34 33 35 34 36 35 37 96 38 36 39 95 40 37 41 38 42
REMARK SMILES IDX 39 43 89 44 40 45 94 46 88 47 90 48 41 49 93 50 87 51 86 52
REMARK SMILES IDX 42 54 74 55 54 56 73 57 55 58 58 59 72 60 91 61 56 62 57 63
REMARK SMILES IDX 71 65 92 66 59 67 43 68 44 69 52 70 45 71 46 72 50 73 53 74
REMARK SMILES IDX 47 75 48 76 51 77 49 78 75 79 76 80 84 81 77 82 78 83 82 84
REMARK SMILES IDX 85 85 79 86 80 87 83 88 81 89 60 90 61 91 69 92 62 93 63 94
REMARK SMILES IDX 67 95 70 96 64 97 65 98 68 99 66 100
REMARK H PARENT 90 53 58 64
REMARK Flexibility Score: inf
ROOT
ATOM      1  C   UNL     1       7.552  -6.567   1.417  1.00  0.00     0.188 C 
ENDROOT
BRANCH   1   2
ATOM      2  O   UNL     1       8.873  -6.130   1.182  1.00  0.00    -0.376 OA
BRANCH   2   3
ATOM      3  C   UNL     1       9.133  -5.046   0.308  1.00  0.00     0.202 C 
BRANCH   3   4
ATOM      4  C   UNL     1       8.202  -4.587  -0.834  1.00  0.00     0.261 C 
BRANCH   4   5
ATOM      5  O   UNL     1       6.801  -4.859  -0.713  1.00  0.00    -0.460 OA
BRANCH   5   6
ATOM      6  C   UNL     1       6.305  -5.858  -1.490  1.00  0.00     0.341 C 
ATOM      7  O   UNL     1       6.918  -6.554  -2.275  1.00  0.00    -0.246 OA
BRANCH   6   8
ATOM      8  C   UNL     1       4.897  -6.065  -1.098  1.00  0.00     0.100 A 
ATOM      9  C   UNL     1       2.758  -5.155  -0.439  1.00  0.00     0.091 A 
ATOM     10  C   UNL     1       2.339  -6.441  -0.057  1.00  0.00     0.064 A 
ATOM     11  C   UNL     1       4.023  -4.970  -0.995  1.00  0.00     0.041 A 
ATOM     12  C   UNL     1       3.199  -7.522  -0.215  1.00  0.00     0.161 A 
ATOM     13  F   UNL     1       2.793  -8.742   0.164  1.00  0.00    -0.204 F 
ATOM     14  C   UNL     1       4.480  -7.341  -0.720  1.00  0.00     0.173 A 
ATOM     15  F   UNL     1       5.320  -8.386  -0.758  1.00  0.00    -0.203 F 
BRANCH   9  16
ATOM     16  S   UNL     1       1.601  -3.828  -0.145  1.00  0.00     0.264 S 
ATOM     17  O   UNL     1       1.137  -4.023   1.215  1.00  0.00    -0.201 OA
ATOM     18  O   UNL     1       0.684  -3.905  -1.265  1.00  0.00    -0.201 OA
BRANCH  16  19
ATOM     19  N   UNL     1       2.395  -2.306  -0.202  1.00  0.00    -0.269 N 
ATOM     20  C   UNL     1       3.728  -2.201   0.448  1.00  0.00     0.164 C 
BRANCH  19  21
ATOM     21  C   UNL     1       1.535  -1.105  -0.073  1.00  0.00     0.053 A 
ATOM     22  C   UNL     1      -0.637   0.031   0.010  1.00  0.00     0.026 A 
ATOM     23  C   UNL     1      -0.013   1.275  -0.011  1.00  0.00     0.017 A 
ATOM     24  C   UNL     1       0.130  -1.145  -0.016  1.00  0.00     0.044 A 
ATOM     25  C   UNL     1       1.373   1.344  -0.068  1.00  0.00     0.003 A 
ATOM     26  C   UNL     1       2.132   0.168  -0.121  1.00  0.00     0.027 A 
BRANCH  22  27
ATOM     27  C   UNL     1      -2.070  -0.032   0.034  1.00  0.00    -0.070 C 
ATOM     28  C   UNL     1      -3.268  -0.054   0.041  1.00  0.00     0.010 C 
ENDBRANCH  22  27
ENDBRANCH  19  21
ENDBRANCH  16  19
ENDBRANCH   9  16
ENDBRANCH   6   8
ENDBRANCH   5   6
ENDBRANCH   4   5
ENDBRANCH   3   4
ENDBRANCH   2   3
ENDBRANCH   1   2
BRANCH   1  29
ATOM     29  C   UNL     1       6.558  -5.598   2.091  1.00  0.00     0.188 C 
BRANCH  29  30
ATOM     30  O   UNL     1       6.974  -4.260   2.216  1.00  0.00    -0.376 OA
BRANCH  30  31
ATOM     31  C   UNL     1       7.845  -3.898   3.278  1.00  0.00     0.202 C 
BRANCH  31  32
ATOM     32  C   UNL     1       8.451  -4.848   4.342  1.00  0.00     0.261 C 
BRANCH  32  33
ATOM     33  O   UNL     1       8.265  -6.261   4.208  1.00  0.00    -0.460 OA
BRANCH  33  34
ATOM     34  C   UNL     1       7.302  -6.821   4.982  1.00  0.00     0.338 C 
ATOM     35  O   UNL     1       6.553  -6.250   5.754  1.00  0.00    -0.246 OA
BRANCH  34  36
ATOM     36  C   UNL     1       7.153  -8.243   4.603  1.00  0.00     0.060 A 
ATOM     37  C   UNL     1       6.013  -8.644   3.890  1.00  0.00     0.016 A 
ATOM     38  C   UNL     1       8.122  -9.179   4.965  1.00  0.00     0.016 A 
ATOM     39  C   UNL     1       5.837  -9.983   3.538  1.00  0.00     0.010 A 
ATOM     40  C   UNL     1       7.928 -10.526   4.638  1.00  0.00     0.010 A 
ATOM     41  C   UNL     1       6.775 -10.940   3.944  1.00  0.00    -0.014 A 
BRANCH  41  42
ATOM     42  C   UNL     1       6.485 -12.387   3.780  1.00  0.00     0.031 A 
ATOM     43  C   UNL     1       6.027 -13.174   4.977  1.00  0.00     0.074 A 
ATOM     44  C   UNL     1       6.616 -12.995   2.587  1.00  0.00     0.049 A 
ATOM     45  N   UNL     1       5.797 -14.457   5.092  1.00  0.00    -0.248 NA
ATOM     46  C   UNL     1       5.803 -12.409   6.214  1.00  0.00     0.031 C 
ATOM     47  C   UNL     1       6.998 -12.334   1.342  1.00  0.00     0.029 A 
ATOM     48  N   UNL     1       6.449 -14.313   2.232  1.00  0.00    -0.354 N 
ATOM     49  C   UNL     1       5.410 -14.653   6.411  1.00  0.00     0.074 A 
ATOM     50  C   UNL     1       5.472 -13.366   7.069  1.00  0.00     0.031 C 
ATOM     51  C   UNL     1       7.045 -13.250   0.359  1.00  0.00     0.029 A 
ATOM     52  C   UNL     1       6.737 -14.569   0.914  1.00  0.00     0.049 A 
ATOM     53  H   UNL     1       6.151 -15.007   2.863  1.00  0.00     0.167 HD
ATOM     54  C   UNL     1       5.025 -15.803   7.014  1.00  0.00     0.037 A 
ATOM     55  C   UNL     1       6.773 -15.736   0.238  1.00  0.00     0.037 A 
ATOM     56  C   UNL     1       4.960 -17.080   6.352  1.00  0.00     0.049 A 
ATOM     57  C   UNL     1       6.427 -17.018   0.954  1.00  0.00     0.074 A 
ATOM     58  C   UNL     1       4.567 -18.299   6.876  1.00  0.00     0.029 A 
ATOM     59  N   UNL     1       5.299 -17.305   5.026  1.00  0.00    -0.354 N 
ATOM     60  N   UNL     1       6.046 -17.196   2.196  1.00  0.00    -0.248 NA
ATOM     61  C   UNL     1       6.513 -18.262   0.174  1.00  0.00     0.031 C 
ATOM     62  C   UNL     1       4.738 -19.273   5.890  1.00  0.00     0.029 A 
ATOM     63  C   UNL     1       5.159 -18.651   4.726  1.00  0.00     0.049 A 
ATOM     64  H   UNL     1       5.596 -16.613   4.392  1.00  0.00     0.167 HD
ATOM     65  C   UNL     1       5.818 -18.559   2.338  1.00  0.00     0.074 A 
ATOM     66  C   UNL     1       6.089 -19.163   1.051  1.00  0.00     0.031 C 
ATOM     67  C   UNL     1       5.419 -19.245   3.438  1.00  0.00     0.037 A 
BRANCH  54  68
ATOM     68  C   UNL     1       4.652 -15.748   8.468  1.00  0.00     0.064 A 
ATOM     69  C   UNL     1       5.431 -16.416   9.426  1.00  0.00     0.173 A 
ATOM     70  C   UNL     1       3.481 -15.112   8.906  1.00  0.00     0.173 A 
ATOM     71  F   UNL     1       6.559 -17.045   9.062  1.00  0.00    -0.203 F 
ATOM     72  C   UNL     1       5.039 -16.470  10.761  1.00  0.00     0.198 A 
ATOM     73  C   UNL     1       3.110 -15.137  10.249  1.00  0.00     0.198 A 
ATOM     74  F   UNL     1       2.705 -14.449   8.035  1.00  0.00    -0.203 F 
ATOM     75  F   UNL     1       5.776 -17.154  11.647  1.00  0.00    -0.200 F 
ATOM     76  C   UNL     1       3.882 -15.827  11.172  1.00  0.00     0.200 A 
ATOM     77  F   UNL     1       2.005 -14.493  10.649  1.00  0.00    -0.200 F 
ATOM     78  F   UNL     1       3.509 -15.873  12.458  1.00  0.00    -0.200 F 
ENDBRANCH  54  68
BRANCH  55  79
ATOM     79  C   UNL     1       7.144 -15.740  -1.204  1.00  0.00     0.064 A 
ATOM     80  C   UNL     1       8.435 -15.389  -1.629  1.00  0.00     0.173 A 
ATOM     81  C   UNL     1       6.208 -16.080  -2.190  1.00  0.00     0.173 A 
ATOM     82  F   UNL     1       9.375 -15.065  -0.728  1.00  0.00    -0.203 F 
ATOM     83  C   UNL     1       8.764 -15.347  -2.982  1.00  0.00     0.198 A 
ATOM     84  C   UNL     1       6.547 -16.070  -3.542  1.00  0.00     0.198 A 
ATOM     85  F   UNL     1       4.969 -16.454  -1.836  1.00  0.00    -0.203 F 
ATOM     86  F   UNL     1       9.993 -14.969  -3.360  1.00  0.00    -0.200 F 
ATOM     87  C   UNL     1       7.821 -15.691  -3.938  1.00  0.00     0.200 A 
ATOM     88  F   UNL     1       5.642 -16.437  -4.460  1.00  0.00    -0.200 F 
ATOM     89  F   UNL     1       8.141 -15.665  -5.239  1.00  0.00    -0.200 F 
ENDBRANCH  55  79
BRANCH  67  90
ATOM     90  C   UNL     1       5.217 -20.731   3.313  1.00  0.00     0.064 A 
ATOM     91  C   UNL     1       3.934 -21.287   3.458  1.00  0.00     0.173 A 
ATOM     92  C   UNL     1       6.296 -21.613   3.155  1.00  0.00     0.173 A 
ATOM     93  F   UNL     1       2.866 -20.492   3.623  1.00  0.00    -0.203 F 
ATOM     94  C   UNL     1       3.746 -22.667   3.475  1.00  0.00     0.198 A 
ATOM     95  C   UNL     1       6.099 -22.991   3.135  1.00  0.00     0.198 A 
ATOM     96  F   UNL     1       7.541 -21.136   3.004  1.00  0.00    -0.203 F 
ATOM     97  F   UNL     1       2.520 -23.172   3.669  1.00  0.00    -0.200 F 
ATOM     98  C   UNL     1       4.827 -23.517   3.309  1.00  0.00     0.200 A 
ATOM     99  F   UNL     1       7.142 -23.812   2.949  1.00  0.00    -0.200 F 
ATOM    100  F   UNL     1       4.645 -24.845   3.319  1.00  0.00    -0.200 F 
ENDBRANCH  67  90
ENDBRANCH  41  42
ENDBRANCH  34  36
ENDBRANCH  33  34
ENDBRANCH  32  33
ENDBRANCH  31  32
ENDBRANCH  30  31
ENDBRANCH  29  30
ENDBRANCH   1  29
TORSDOF 21
