REMARK SMILES Cc1ccc(-c2cc(C(=O)OCCOCCOCCOC(=O)c3ccc(-c4c5nc(c(-c6c(F)c(F)c(F)c(F)c6F)c6ccc([nH]6)c(-c6c(F)c(F)c(F)c(F)c6F)c6nc(c(-c7c(F)c(F)c(F)c(F)c7F)c7ccc4[nH]7)C=C6)C=C5)cc3)c3cc(C)ccc3n2)c(C)c1
REMARK SMILES IDX 16 1 15 2 14 3 13 4 12 5 11 6 9 7 10 8 8 9 6 10 7 11 93 12
REMARK SMILES IDX 92 13 86 14 91 15 87 16 90 17 88 18 89 19 5 20 1 21 2 22
REMARK SMILES IDX 3 23 96 24 4 25 94 26 95 27 17 28 18 29 19 30 20 31 21 32
REMARK SMILES IDX 22 33 23 34 24 35 85 36 25 37 84 38 26 39 27 40 28 41 78 42
REMARK SMILES IDX 29 43 83 44 77 45 79 46 30 47 82 48 76 49 75 50 31 52 63 53
REMARK SMILES IDX 43 54 62 55 44 56 47 57 61 58 80 59 45 60 46 61 60 63 81 64
REMARK SMILES IDX 48 65 32 66 33 67 41 68 34 69 35 70 39 71 42 72 36 73 37 74
REMARK SMILES IDX 40 75 38 76 64 77 65 78 73 79 66 80 67 81 71 82 74 83 68 84
REMARK SMILES IDX 69 85 72 86 70 87 49 88 50 89 58 90 51 91 52 92 56 93 59 94
REMARK SMILES IDX 53 95 54 96 57 97 55 98
REMARK H PARENT 79 51 47 62
REMARK Flexibility Score: inf
ROOT
ATOM      1  C   UNL     1      -3.545  -6.214   1.237  1.00  0.00     0.188 C 
ENDROOT
BRANCH   1   2
ATOM      2  C   UNL     1      -2.972  -5.862   2.627  1.00  0.00     0.188 C 
BRANCH   2   3
ATOM      3  O   UNL     1      -3.536  -6.470   3.786  1.00  0.00    -0.376 OA
BRANCH   3   4
ATOM      4  C   UNL     1      -4.950  -6.425   3.974  1.00  0.00     0.202 C 
BRANCH   4   5
ATOM      5  C   UNL     1      -5.642  -5.059   3.900  1.00  0.00     0.261 C 
BRANCH   5   6
ATOM      6  O   UNL     1      -5.448  -4.405   2.633  1.00  0.00    -0.460 OA
BRANCH   6   7
ATOM      7  C   UNL     1      -5.028  -3.119   2.685  1.00  0.00     0.338 C 
ATOM      8  O   UNL     1      -4.876  -2.444   3.691  1.00  0.00    -0.246 OA
BRANCH   7   9
ATOM      9  C   UNL     1      -4.548  -2.670   1.356  1.00  0.00     0.071 A 
ATOM     10  C   UNL     1      -2.769  -1.610   0.164  1.00  0.00     0.072 A 
ATOM     11  C   UNL     1      -3.281  -2.079   1.358  1.00  0.00     0.045 A 
ATOM     12  N   UNL     1      -3.455  -1.696  -0.995  1.00  0.00    -0.248 NA
ATOM     13  C   UNL     1      -4.674  -2.259  -0.998  1.00  0.00     0.072 A 
ATOM     14  C   UNL     1      -5.285  -2.794   0.155  1.00  0.00     0.015 A 
ATOM     15  C   UNL     1      -5.354  -2.304  -2.205  1.00  0.00     0.029 A 
ATOM     16  C   UNL     1      -6.563  -3.397   0.025  1.00  0.00     0.014 A 
ATOM     17  C   UNL     1      -6.614  -2.894  -2.323  1.00  0.00     0.005 A 
ATOM     18  C   UNL     1      -7.226  -3.456  -1.207  1.00  0.00    -0.050 A 
ATOM     19  C   UNL     1      -8.539  -4.170  -1.329  1.00  0.00     0.044 C 
BRANCH  10  20
ATOM     20  C   UNL     1      -1.468  -0.936   0.094  1.00  0.00     0.003 A 
ATOM     21  C   UNL     1       2.430   0.958  -0.000  1.00  0.00     0.044 C 
ATOM     22  C   UNL     1       1.088   0.287   0.029  1.00  0.00    -0.051 A 
ATOM     23  C   UNL     1       0.973  -1.104   0.012  1.00  0.00     0.004 A 
ATOM     24  C   UNL     1      -0.077   1.062   0.063  1.00  0.00     0.007 A 
ATOM     25  C   UNL     1      -0.290  -1.705   0.041  1.00  0.00     0.011 A 
ATOM     26  C   UNL     1      -1.353   0.469   0.098  1.00  0.00    -0.041 A 
ATOM     27  C   UNL     1      -2.550   1.383   0.100  1.00  0.00     0.045 C 
ENDBRANCH  10  20
ENDBRANCH   7   9
ENDBRANCH   6   7
ENDBRANCH   5   6
ENDBRANCH   4   5
ENDBRANCH   3   4
ENDBRANCH   2   3
ENDBRANCH   1   2
BRANCH   1  28
ATOM     28  O   UNL     1      -4.635  -7.104   1.293  1.00  0.00    -0.376 OA
BRANCH  28  29
ATOM     29  C   UNL     1      -4.439  -8.462   0.943  1.00  0.00     0.202 C 
BRANCH  29  30
ATOM     30  C   UNL     1      -3.189  -9.266   1.355  1.00  0.00     0.261 C 
BRANCH  30  31
ATOM     31  O   UNL     1      -1.987  -8.542   1.636  1.00  0.00    -0.460 OA
BRANCH  31  32
ATOM     32  C   UNL     1      -1.122  -8.367   0.611  1.00  0.00     0.338 C 
ATOM     33  O   UNL     1      -1.270  -8.703  -0.548  1.00  0.00    -0.246 OA
BRANCH  32  34
ATOM     34  C   UNL     1      -0.003  -7.532   1.095  1.00  0.00     0.060 A 
ATOM     35  C   UNL     1       0.174  -6.256   0.546  1.00  0.00     0.016 A 
ATOM     36  C   UNL     1       0.876  -8.012   2.070  1.00  0.00     0.016 A 
ATOM     37  C   UNL     1       1.249  -5.465   0.956  1.00  0.00     0.010 A 
ATOM     38  C   UNL     1       1.963  -7.225   2.466  1.00  0.00     0.010 A 
ATOM     39  C   UNL     1       2.169  -5.957   1.893  1.00  0.00    -0.014 A 
BRANCH  39  40
ATOM     40  C   UNL     1       3.437  -5.225   2.134  1.00  0.00     0.031 A 
ATOM     41  C   UNL     1       4.661  -5.642   1.365  1.00  0.00     0.074 A 
ATOM     42  C   UNL     1       3.500  -4.189   2.989  1.00  0.00     0.049 A 
ATOM     43  N   UNL     1       5.890  -5.201   1.450  1.00  0.00    -0.248 NA
ATOM     44  C   UNL     1       4.469  -6.697   0.355  1.00  0.00     0.031 C 
ATOM     45  C   UNL     1       2.375  -3.644   3.745  1.00  0.00     0.029 A 
ATOM     46  N   UNL     1       4.569  -3.413   3.369  1.00  0.00    -0.354 N 
ATOM     47  C   UNL     1       6.613  -5.916   0.505  1.00  0.00     0.074 A 
ATOM     48  C   UNL     1       5.695  -6.843  -0.122  1.00  0.00     0.031 C 
ATOM     49  C   UNL     1       2.816  -2.632   4.513  1.00  0.00     0.029 A 
ATOM     50  C   UNL     1       4.259  -2.482   4.331  1.00  0.00     0.049 A 
ATOM     51  H   UNL     1       5.471  -3.515   2.988  1.00  0.00     0.167 HD
ATOM     52  C   UNL     1       7.922  -5.803   0.179  1.00  0.00     0.037 A 
ATOM     53  C   UNL     1       5.059  -1.631   5.004  1.00  0.00     0.037 A 
ATOM     54  C   UNL     1       8.841  -4.894   0.810  1.00  0.00     0.049 A 
ATOM     55  C   UNL     1       6.539  -1.609   4.702  1.00  0.00     0.074 A 
ATOM     56  C   UNL     1      10.194  -4.730   0.571  1.00  0.00     0.029 A 
ATOM     57  N   UNL     1       8.498  -3.997   1.809  1.00  0.00    -0.354 N 
ATOM     58  N   UNL     1       7.215  -2.288   3.808  1.00  0.00    -0.248 NA
ATOM     59  C   UNL     1       7.367  -0.698   5.508  1.00  0.00     0.031 C 
ATOM     60  C   UNL     1      10.679  -3.759   1.453  1.00  0.00     0.029 A 
ATOM     61  C   UNL     1       9.618  -3.284   2.206  1.00  0.00     0.049 A 
ATOM     62  H   UNL     1       7.594  -3.882   2.182  1.00  0.00     0.167 HD
ATOM     63  C   UNL     1       8.533  -1.858   3.916  1.00  0.00     0.074 A 
ATOM     64  C   UNL     1       8.560  -0.851   4.954  1.00  0.00     0.031 C 
ATOM     65  C   UNL     1       9.623  -2.261   3.218  1.00  0.00     0.037 A 
BRANCH  52  66
ATOM     66  C   UNL     1       8.445  -6.696  -0.905  1.00  0.00     0.064 A 
ATOM     67  C   UNL     1       8.124  -6.474  -2.252  1.00  0.00     0.173 A 
ATOM     68  C   UNL     1       9.318  -7.751  -0.601  1.00  0.00     0.173 A 
ATOM     69  F   UNL     1       7.280  -5.487  -2.591  1.00  0.00    -0.203 F 
ATOM     70  C   UNL     1       8.648  -7.285  -3.256  1.00  0.00     0.198 A 
ATOM     71  C   UNL     1       9.860  -8.543  -1.609  1.00  0.00     0.198 A 
ATOM     72  F   UNL     1       9.656  -8.003   0.672  1.00  0.00    -0.203 F 
ATOM     73  F   UNL     1       8.301  -7.076  -4.533  1.00  0.00    -0.200 F 
ATOM     74  C   UNL     1       9.522  -8.312  -2.934  1.00  0.00     0.200 A 
ATOM     75  F   UNL     1      10.713  -9.529  -1.298  1.00  0.00    -0.200 F 
ATOM     76  F   UNL     1      10.037  -9.083  -3.902  1.00  0.00    -0.200 F 
ENDBRANCH  52  66
BRANCH  53  77
ATOM     77  C   UNL     1       4.503  -0.742   6.060  1.00  0.00     0.064 A 
ATOM     78  C   UNL     1       4.521   0.653   5.917  1.00  0.00     0.173 A 
ATOM     79  C   UNL     1       4.017  -1.265   7.268  1.00  0.00     0.173 A 
ATOM     80  F   UNL     1       5.007   1.204   4.794  1.00  0.00    -0.203 F 
ATOM     81  C   UNL     1       4.109   1.490   6.953  1.00  0.00     0.198 A 
ATOM     82  C   UNL     1       3.575  -0.428   8.291  1.00  0.00     0.198 A 
ATOM     83  F   UNL     1       3.987  -2.592   7.462  1.00  0.00    -0.203 F 
ATOM     84  F   UNL     1       4.208   2.819   6.816  1.00  0.00    -0.200 F 
ATOM     85  C   UNL     1       3.635   0.949   8.138  1.00  0.00     0.200 A 
ATOM     86  F   UNL     1       3.114  -0.956   9.433  1.00  0.00    -0.200 F 
ATOM     87  F   UNL     1       3.255   1.753   9.140  1.00  0.00    -0.200 F 
ENDBRANCH  53  77
BRANCH  65  88
ATOM     88  C   UNL     1      10.926  -1.571   3.504  1.00  0.00     0.064 A 
ATOM     89  C   UNL     1      11.633  -1.788   4.695  1.00  0.00     0.173 A 
ATOM     90  C   UNL     1      11.495  -0.713   2.549  1.00  0.00     0.173 A 
ATOM     91  F   UNL     1      11.126  -2.588   5.645  1.00  0.00    -0.203 F 
ATOM     92  C   UNL     1      12.850  -1.153   4.931  1.00  0.00     0.198 A 
ATOM     93  C   UNL     1      12.726  -0.104   2.775  1.00  0.00     0.198 A 
ATOM     94  F   UNL     1      10.864  -0.478   1.389  1.00  0.00    -0.203 F 
ATOM     95  F   UNL     1      13.486  -1.338   6.096  1.00  0.00    -0.200 F 
ATOM     96  C   UNL     1      13.399  -0.318   3.969  1.00  0.00     0.200 A 
ATOM     97  F   UNL     1      13.262   0.690   1.838  1.00  0.00    -0.200 F 
ATOM     98  F   UNL     1      14.573   0.286   4.194  1.00  0.00    -0.200 F 
ENDBRANCH  65  88
ENDBRANCH  39  40
ENDBRANCH  32  34
ENDBRANCH  31  32
ENDBRANCH  30  31
ENDBRANCH  29  30
ENDBRANCH  28  29
ENDBRANCH   1  28
TORSDOF 18
