REMARK SMILES COC(=O)[C@@H]1CCN(S(=O)(=O)N2CCC(C(=O)OCCOCCOCCOC(=O)c3ccc(-c4c5nc(c(-c6c(F)c(F)c(F)c(F)c6F)c6ccc([nH]6)c(-c6c(F)c(F)c(F)c(F)c6F)c6nc(c(-c7c(F)c(F)c(F)c(F)c7F)c7ccc4[nH]7)C=C6)C=C5)cc3)CC2)C1
REMARK SMILES IDX 22 1 21 2 20 3 19 4 18 5 16 6 17 7 15 8 12 9 13 10 94 11
REMARK SMILES IDX 14 12 93 13 9 14 10 15 11 16 8 17 5 18 6 19 95 20 7 21 3 22
REMARK SMILES IDX 4 23 2 24 1 25 23 26 24 27 25 28 26 29 27 30 28 31 29 32
REMARK SMILES IDX 30 33 31 34 92 35 32 36 91 37 33 38 34 39 35 40 85 41 36 42
REMARK SMILES IDX 90 43 84 44 86 45 37 46 89 47 83 48 82 49 38 51 70 52 50 53
REMARK SMILES IDX 69 54 51 55 54 56 68 57 87 58 52 59 53 60 67 62 88 63 55 64
REMARK SMILES IDX 39 65 40 66 48 67 41 68 42 69 46 70 49 71 43 72 44 73 47 74
REMARK SMILES IDX 45 75 71 76 72 77 80 78 73 79 74 80 78 81 81 82 75 83 76 84
REMARK SMILES IDX 79 85 77 86 56 87 57 88 65 89 58 90 59 91 63 92 66 93 60 94
REMARK SMILES IDX 61 95 64 96 62 97
REMARK H PARENT 86 50 54 61
REMARK Flexibility Score: inf
ROOT
ATOM      1  C   UNL     1      -0.763 -10.691   3.225  1.00  0.00     0.188 C 
ENDROOT
BRANCH   1   2
ATOM      2  O   UNL     1      -1.872 -11.339   3.838  1.00  0.00    -0.376 OA
BRANCH   2   3
ATOM      3  C   UNL     1      -2.794 -12.017   2.984  1.00  0.00     0.202 C 
BRANCH   3   4
ATOM      4  C   UNL     1      -3.561 -11.165   1.961  1.00  0.00     0.261 C 
BRANCH   4   5
ATOM      5  O   UNL     1      -2.733 -10.395   1.065  1.00  0.00    -0.463 OA
BRANCH   5   6
ATOM      6  C   UNL     1      -2.692  -9.074   1.343  1.00  0.00     0.309 C 
ATOM      7  O   UNL     1      -3.312  -8.530   2.256  1.00  0.00    -0.252 OA
BRANCH   6   8
ATOM      8  C   UNL     1      -1.794  -8.255   0.451  1.00  0.00     0.102 C 
ATOM      9  N   UNL     1      -0.856  -6.788  -1.842  1.00  0.00    -0.189 NA
ATOM     10  C   UNL     1       0.062  -7.774  -1.223  1.00  0.00     0.104 C 
ATOM     11  C   UNL     1      -1.904  -6.279  -0.952  1.00  0.00     0.104 C 
ATOM     12  C   UNL     1      -0.727  -8.873  -0.457  1.00  0.00     0.032 C 
ATOM     13  C   UNL     1      -2.728  -7.401  -0.394  1.00  0.00     0.032 C 
BRANCH   9  14
ATOM     14  S   UNL     1      -0.265  -5.731  -3.014  1.00  0.00     0.281 S 
ATOM     15  O   UNL     1      -1.397  -5.144  -3.688  1.00  0.00    -0.195 OA
ATOM     16  O   UNL     1       0.760  -6.421  -3.771  1.00  0.00    -0.195 OA
BRANCH  14  17
ATOM     17  N   UNL     1       0.514  -4.477  -2.148  1.00  0.00    -0.188 NA
ATOM     18  C   UNL     1       0.327  -2.131  -2.874  1.00  0.00     0.116 C 
ATOM     19  C   UNL     1      -0.869  -2.553  -2.039  1.00  0.00     0.033 C 
ATOM     20  C   UNL     1       1.131  -3.430  -3.077  1.00  0.00     0.118 C 
ATOM     21  C   UNL     1      -0.262  -3.649  -1.197  1.00  0.00     0.104 C 
BRANCH  18  22
ATOM     22  C   UNL     1       1.153  -1.046  -2.200  1.00  0.00     0.310 C 
ATOM     23  O   UNL     1       2.048  -0.427  -2.758  1.00  0.00    -0.252 OA
BRANCH  22  24
ATOM     24  O   UNL     1       0.751  -0.839  -0.915  1.00  0.00    -0.469 OA
ATOM     25  C   UNL     1       1.335   0.267  -0.230  1.00  0.00     0.282 C 
ENDBRANCH  22  24
ENDBRANCH  18  22
ENDBRANCH  14  17
ENDBRANCH   9  14
ENDBRANCH   6   8
ENDBRANCH   5   6
ENDBRANCH   4   5
ENDBRANCH   3   4
ENDBRANCH   2   3
ENDBRANCH   1   2
BRANCH   1  26
ATOM     26  C   UNL     1       0.071 -11.540   2.271  1.00  0.00     0.188 C 
BRANCH  26  27
ATOM     27  O   UNL     1      -0.654 -12.294   1.319  1.00  0.00    -0.376 OA
BRANCH  27  28
ATOM     28  C   UNL     1       0.009 -13.392   0.690  1.00  0.00     0.202 C 
BRANCH  28  29
ATOM     29  C   UNL     1       0.913 -14.334   1.526  1.00  0.00     0.261 C 
BRANCH  29  30
ATOM     30  O   UNL     1       1.927 -13.732   2.364  1.00  0.00    -0.460 OA
BRANCH  30  31
ATOM     31  C   UNL     1       2.771 -12.840   1.796  1.00  0.00     0.338 C 
ATOM     32  O   UNL     1       2.929 -12.668   0.600  1.00  0.00    -0.246 OA
BRANCH  31  33
ATOM     33  C   UNL     1       3.275 -11.897   2.843  1.00  0.00     0.060 A 
ATOM     34  C   UNL     1       3.395 -10.542   2.494  1.00  0.00     0.016 A 
ATOM     35  C   UNL     1       3.574 -12.292   4.152  1.00  0.00     0.016 A 
ATOM     36  C   UNL     1       3.883  -9.604   3.410  1.00  0.00     0.010 A 
ATOM     37  C   UNL     1       4.083 -11.353   5.067  1.00  0.00     0.010 A 
ATOM     38  C   UNL     1       4.293 -10.014   4.685  1.00  0.00    -0.014 A 
BRANCH  38  39
ATOM     39  C   UNL     1       5.183  -9.125   5.487  1.00  0.00     0.031 A 
ATOM     40  C   UNL     1       6.670  -9.380   5.423  1.00  0.00     0.074 A 
ATOM     41  C   UNL     1       4.726  -8.082   6.206  1.00  0.00     0.049 A 
ATOM     42  N   UNL     1       7.654  -8.780   6.044  1.00  0.00    -0.248 NA
ATOM     43  C   UNL     1       7.101 -10.469   4.531  1.00  0.00     0.031 C 
ATOM     44  C   UNL     1       3.329  -7.671   6.316  1.00  0.00     0.029 A 
ATOM     45  N   UNL     1       5.405  -7.174   6.988  1.00  0.00    -0.354 N 
ATOM     46  C   UNL     1       8.813  -9.422   5.624  1.00  0.00     0.074 A 
ATOM     47  C   UNL     1       8.409 -10.483   4.729  1.00  0.00     0.031 C 
ATOM     48  C   UNL     1       3.252  -6.598   7.127  1.00  0.00     0.029 A 
ATOM     49  C   UNL     1       4.590  -6.266   7.620  1.00  0.00     0.049 A 
ATOM     50  H   UNL     1       6.384  -7.176   7.086  1.00  0.00     0.167 HD
ATOM     51  C   UNL     1      10.102  -9.149   5.939  1.00  0.00     0.037 A 
ATOM     52  C   UNL     1       4.887  -5.293   8.508  1.00  0.00     0.037 A 
ATOM     53  C   UNL     1      10.516  -8.097   6.828  1.00  0.00     0.049 A 
ATOM     54  C   UNL     1       6.325  -5.068   8.919  1.00  0.00     0.074 A 
ATOM     55  C   UNL     1      11.799  -7.747   7.213  1.00  0.00     0.029 A 
ATOM     56  N   UNL     1       9.654  -7.227   7.478  1.00  0.00    -0.354 N 
ATOM     57  N   UNL     1       7.414  -5.673   8.510  1.00  0.00    -0.248 NA
ATOM     58  C   UNL     1       6.573  -4.013   9.916  1.00  0.00     0.031 C 
ATOM     59  C   UNL     1      11.710  -6.705   8.140  1.00  0.00     0.029 A 
ATOM     60  C   UNL     1      10.377  -6.355   8.277  1.00  0.00     0.049 A 
ATOM     61  H   UNL     1       8.674  -7.229   7.386  1.00  0.00     0.167 HD
ATOM     62  C   UNL     1       8.472  -5.044   9.159  1.00  0.00     0.074 A 
ATOM     63  C   UNL     1       7.897  -4.004   9.983  1.00  0.00     0.031 C 
ATOM     64  C   UNL     1       9.801  -5.303   9.075  1.00  0.00     0.037 A 
BRANCH  51  65
ATOM     65  C   UNL     1      11.163 -10.024   5.334  1.00  0.00     0.064 A 
ATOM     66  C   UNL     1      11.460  -9.987   3.963  1.00  0.00     0.173 A 
ATOM     67  C   UNL     1      11.912 -10.892   6.143  1.00  0.00     0.173 A 
ATOM     68  F   UNL     1      10.762  -9.188   3.142  1.00  0.00    -0.203 F 
ATOM     69  C   UNL     1      12.446 -10.808   3.420  1.00  0.00     0.198 A 
ATOM     70  C   UNL     1      12.922 -11.684   5.603  1.00  0.00     0.198 A 
ATOM     71  F   UNL     1      11.672 -10.965   7.461  1.00  0.00    -0.203 F 
ATOM     72  F   UNL     1      12.673 -10.796   2.100  1.00  0.00    -0.200 F 
ATOM     73  C   UNL     1      13.182 -11.648   4.242  1.00  0.00     0.200 A 
ATOM     74  F   UNL     1      13.642 -12.484   6.401  1.00  0.00    -0.200 F 
ATOM     75  F   UNL     1      14.137 -12.430   3.720  1.00  0.00    -0.200 F 
ENDBRANCH  51  65
BRANCH  52  76
ATOM     76  C   UNL     1       3.808  -4.449   9.094  1.00  0.00     0.064 A 
ATOM     77  C   UNL     1       3.746  -3.070   8.842  1.00  0.00     0.173 A 
ATOM     78  C   UNL     1       2.853  -4.990   9.969  1.00  0.00     0.173 A 
ATOM     79  F   UNL     1       4.654  -2.495   8.040  1.00  0.00    -0.203 F 
ATOM     80  C   UNL     1       2.792  -2.264   9.462  1.00  0.00     0.198 A 
ATOM     81  C   UNL     1       1.878  -4.189  10.560  1.00  0.00     0.198 A 
ATOM     82  F   UNL     1       2.870  -6.300  10.254  1.00  0.00    -0.203 F 
ATOM     83  F   UNL     1       2.799  -0.940   9.253  1.00  0.00    -0.200 F 
ATOM     84  C   UNL     1       1.855  -2.824  10.316  1.00  0.00     0.200 A 
ATOM     85  F   UNL     1       0.969  -4.737  11.378  1.00  0.00    -0.200 F 
ATOM     86  F   UNL     1       0.941  -2.049  10.914  1.00  0.00    -0.200 F 
ENDBRANCH  52  76
BRANCH  64  87
ATOM     87  C   UNL     1      10.741  -4.402   9.831  1.00  0.00     0.064 A 
ATOM     88  C   UNL     1      10.811  -4.400  11.232  1.00  0.00     0.173 A 
ATOM     89  C   UNL     1      11.614  -3.551   9.132  1.00  0.00     0.173 A 
ATOM     90  F   UNL     1       9.996  -5.186  11.950  1.00  0.00    -0.203 F 
ATOM     91  C   UNL     1      11.691  -3.554  11.905  1.00  0.00     0.198 A 
ATOM     92  C   UNL     1      12.518  -2.736   9.807  1.00  0.00     0.198 A 
ATOM     93  F   UNL     1      11.600  -3.520   7.791  1.00  0.00    -0.203 F 
ATOM     94  F   UNL     1      11.697  -3.527  13.245  1.00  0.00    -0.200 F 
ATOM     95  C   UNL     1      12.549  -2.729  11.192  1.00  0.00     0.200 A 
ATOM     96  F   UNL     1      13.359  -1.954   9.115  1.00  0.00    -0.200 F 
ATOM     97  F   UNL     1      13.398  -1.921  11.842  1.00  0.00    -0.200 F 
ENDBRANCH  64  87
ENDBRANCH  38  39
ENDBRANCH  31  33
ENDBRANCH  30  31
ENDBRANCH  29  30
ENDBRANCH  28  29
ENDBRANCH  27  28
ENDBRANCH  26  27
ENDBRANCH   1  26
TORSDOF 21
