REMARK SMILES Cc1ccc(CNC(=O)NC[C@@H](CC(C)C)C(=O)OCCOCCOCCOC(=O)c2ccc(-c3c4nc(c(-c5c(F)c(F)c(F)c(F)c5F)c5ccc([nH]5)c(-c5c(F)c(F)c(F)c(F)c5F)c5nc(c(-c6c(F)c(F)c(F)c(F)c6F)c6ccc3[nH]6)C=C5)C=C4)cc2)s1
REMARK SMILES IDX 23 1 22 2 21 3 20 4 19 5 17 6 18 7 12 8 11 9 10 10 7 11 8 12
REMARK SMILES IDX 9 14 6 16 5 17 1 18 2 19 3 20 94 21 4 22 13 23 14 24 15 25
REMARK SMILES IDX 16 26 24 27 25 28 26 29 27 30 28 31 29 32 30 33 31 34 32 35
REMARK SMILES IDX 93 36 33 37 92 38 34 39 35 40 36 41 86 42 37 43 91 44 85 45
REMARK SMILES IDX 87 46 38 47 90 48 84 49 83 50 39 52 71 53 51 54 70 55 52 56
REMARK SMILES IDX 55 57 69 58 88 59 53 60 54 61 68 63 89 64 56 65 40 66 41 67
REMARK SMILES IDX 49 68 42 69 43 70 47 71 50 72 44 73 45 74 48 75 46 76 72 77
REMARK SMILES IDX 73 78 81 79 74 80 75 81 79 82 82 83 76 84 77 85 80 86 78 87
REMARK SMILES IDX 57 88 58 89 66 90 59 91 60 92 64 93 67 94 61 95 62 96 65 97
REMARK SMILES IDX 63 98
REMARK H PARENT 7 13 10 15 87 51 55 62
REMARK Flexibility Score: inf
ROOT
ATOM      1  C   UNL     1      -5.170  -0.423  -4.130  1.00  0.00     0.188 C 
ENDROOT
BRANCH   1   2
ATOM      2  O   UNL     1      -5.272  -0.421  -5.544  1.00  0.00    -0.376 OA
BRANCH   2   3
ATOM      3  C   UNL     1      -4.391   0.452  -6.246  1.00  0.00     0.202 C 
BRANCH   3   4
ATOM      4  C   UNL     1      -4.475   1.948  -5.914  1.00  0.00     0.261 C 
BRANCH   4   5
ATOM      5  O   UNL     1      -4.206   2.315  -4.536  1.00  0.00    -0.463 OA
BRANCH   5   6
ATOM      6  C   UNL     1      -5.259   2.869  -3.880  1.00  0.00     0.310 C 
ATOM      7  O   UNL     1      -6.410   2.874  -4.310  1.00  0.00    -0.252 OA
BRANCH   6   8
ATOM      8  C   UNL     1      -4.919   3.581  -2.581  1.00  0.00     0.119 C 
BRANCH   8   9
ATOM      9  C   UNL     1      -3.697   3.114  -1.771  1.00  0.00     0.133 C 
BRANCH   9  10
ATOM     10  N   UNL     1      -3.729   3.713  -0.422  1.00  0.00    -0.337 N 
ATOM     11  N   UNL     1      -2.580   2.414   1.198  1.00  0.00    -0.333 N 
ATOM     12  C   UNL     1      -3.232   3.500   0.796  1.00  0.00     0.315 C 
ATOM     13  H   UNL     1      -2.095   2.541   2.045  1.00  0.00     0.165 HD
ATOM     14  O   UNL     1      -3.400   4.398   1.626  1.00  0.00    -0.249 OA
ATOM     15  H   UNL     1      -4.292   4.521  -0.423  1.00  0.00     0.165 HD
BRANCH  11  16
ATOM     16  C   UNL     1      -2.438   1.099   0.652  1.00  0.00     0.164 C 
BRANCH  16  17
ATOM     17  C   UNL     1      -1.078   0.540   0.913  1.00  0.00     0.024 A 
ATOM     18  C   UNL     1       2.721  -0.069   0.183  1.00  0.00     0.056 C 
ATOM     19  C   UNL     1       1.306  -0.037   0.645  1.00  0.00     0.002 A 
ATOM     20  C   UNL     1       0.627  -0.973   1.395  1.00  0.00     0.015 A 
ATOM     21  S   UNL     1       0.302   1.278   0.218  1.00  0.00    -0.144 S 
ATOM     22  C   UNL     1      -0.744  -0.626   1.577  1.00  0.00     0.017 A 
ENDBRANCH  16  17
ENDBRANCH  11  16
ENDBRANCH   9  10
ENDBRANCH   8   9
BRANCH   8  23
ATOM     23  C   UNL     1      -5.037   5.101  -2.827  1.00  0.00     0.020 C 
BRANCH  23  24
ATOM     24  C   UNL     1      -3.859   5.848  -3.484  1.00  0.00    -0.017 C 
ATOM     25  C   UNL     1      -3.351   5.230  -4.784  1.00  0.00     0.007 C 
ATOM     26  C   UNL     1      -4.303   7.289  -3.767  1.00  0.00     0.007 C 
ENDBRANCH  23  24
ENDBRANCH   8  23
ENDBRANCH   6   8
ENDBRANCH   5   6
ENDBRANCH   4   5
ENDBRANCH   3   4
ENDBRANCH   2   3
ENDBRANCH   1   2
BRANCH   1  27
ATOM     27  C   UNL     1      -3.822  -0.831  -3.536  1.00  0.00     0.188 C 
BRANCH  27  28
ATOM     28  O   UNL     1      -2.662  -0.343  -4.195  1.00  0.00    -0.376 OA
BRANCH  28  29
ATOM     29  C   UNL     1      -1.418  -0.772  -3.624  1.00  0.00     0.202 C 
BRANCH  29  30
ATOM     30  C   UNL     1      -1.178  -2.300  -3.652  1.00  0.00     0.261 C 
BRANCH  30  31
ATOM     31  O   UNL     1      -2.112  -3.064  -2.854  1.00  0.00    -0.460 OA
BRANCH  31  32
ATOM     32  C   UNL     1      -2.129  -2.742  -1.539  1.00  0.00     0.338 C 
ATOM     33  O   UNL     1      -1.294  -2.094  -0.956  1.00  0.00    -0.246 OA
BRANCH  32  34
ATOM     34  C   UNL     1      -3.458  -3.049  -0.957  1.00  0.00     0.060 A 
ATOM     35  C   UNL     1      -4.120  -2.011  -0.289  1.00  0.00     0.016 A 
ATOM     36  C   UNL     1      -4.042  -4.309  -1.029  1.00  0.00     0.016 A 
ATOM     37  C   UNL     1      -5.325  -2.229   0.369  1.00  0.00     0.010 A 
ATOM     38  C   UNL     1      -5.253  -4.537  -0.361  1.00  0.00     0.010 A 
ATOM     39  C   UNL     1      -5.879  -3.510   0.375  1.00  0.00    -0.014 A 
BRANCH  39  40
ATOM     40  C   UNL     1      -6.989  -3.818   1.310  1.00  0.00     0.031 A 
ATOM     41  C   UNL     1      -6.665  -4.545   2.585  1.00  0.00     0.074 A 
ATOM     42  C   UNL     1      -8.248  -3.406   1.078  1.00  0.00     0.049 A 
ATOM     43  N   UNL     1      -7.466  -5.031   3.497  1.00  0.00    -0.248 NA
ATOM     44  C   UNL     1      -5.235  -4.743   2.871  1.00  0.00     0.031 C 
ATOM     45  C   UNL     1      -8.681  -2.595  -0.057  1.00  0.00     0.029 A 
ATOM     46  N   UNL     1      -9.398  -3.621   1.798  1.00  0.00    -0.354 N 
ATOM     47  C   UNL     1      -6.641  -5.619   4.447  1.00  0.00     0.074 A 
ATOM     48  C   UNL     1      -5.278  -5.437   3.998  1.00  0.00     0.031 C 
ATOM     49  C   UNL     1     -10.006  -2.385   0.039  1.00  0.00     0.029 A 
ATOM     50  C   UNL     1     -10.520  -3.092   1.212  1.00  0.00     0.049 A 
ATOM     51  H   UNL     1      -9.415  -4.107   2.654  1.00  0.00     0.167 HD
ATOM     52  C   UNL     1      -6.989  -6.255   5.590  1.00  0.00     0.037 A 
ATOM     53  C   UNL     1     -11.817  -3.199   1.563  1.00  0.00     0.037 A 
ATOM     54  C   UNL     1      -8.343  -6.423   6.045  1.00  0.00     0.049 A 
ATOM     55  C   UNL     1     -12.190  -4.000   2.785  1.00  0.00     0.074 A 
ATOM     56  C   UNL     1      -8.801  -7.076   7.175  1.00  0.00     0.029 A 
ATOM     57  N   UNL     1      -9.460  -5.926   5.389  1.00  0.00    -0.354 N 
ATOM     58  N   UNL     1     -11.413  -4.608   3.649  1.00  0.00    -0.248 NA
ATOM     59  C   UNL     1     -13.625  -4.139   3.072  1.00  0.00     0.031 C 
ATOM     60  C   UNL     1     -10.199  -7.010   7.182  1.00  0.00     0.029 A 
ATOM     61  C   UNL     1     -10.608  -6.272   6.083  1.00  0.00     0.049 A 
ATOM     62  H   UNL     1      -9.439  -5.404   4.555  1.00  0.00     0.167 HD
ATOM     63  C   UNL     1     -12.259  -5.173   4.595  1.00  0.00     0.074 A 
ATOM     64  C   UNL     1     -13.610  -4.830   4.204  1.00  0.00     0.031 C 
ATOM     65  C   UNL     1     -11.945  -5.910   5.689  1.00  0.00     0.037 A 
BRANCH  52  66
ATOM     66  C   UNL     1      -5.881  -6.861   6.399  1.00  0.00     0.064 A 
ATOM     67  C   UNL     1      -4.981  -6.074   7.132  1.00  0.00     0.173 A 
ATOM     68  C   UNL     1      -5.717  -8.254   6.434  1.00  0.00     0.173 A 
ATOM     69  F   UNL     1      -5.080  -4.737   7.110  1.00  0.00    -0.203 F 
ATOM     70  C   UNL     1      -3.938  -6.659   7.846  1.00  0.00     0.198 A 
ATOM     71  C   UNL     1      -4.691  -8.836   7.173  1.00  0.00     0.198 A 
ATOM     72  F   UNL     1      -6.550  -9.051   5.748  1.00  0.00    -0.203 F 
ATOM     73  F   UNL     1      -3.054  -5.885   8.492  1.00  0.00    -0.200 F 
ATOM     74  C   UNL     1      -3.797  -8.039   7.871  1.00  0.00     0.200 A 
ATOM     75  F   UNL     1      -4.561 -10.170   7.200  1.00  0.00    -0.200 F 
ATOM     76  F   UNL     1      -2.791  -8.599   8.556  1.00  0.00    -0.200 F 
ENDBRANCH  52  66
BRANCH  53  77
ATOM     77  C   UNL     1     -12.870  -2.562   0.730  1.00  0.00     0.064 A 
ATOM     78  C   UNL     1     -13.626  -1.487   1.218  1.00  0.00     0.173 A 
ATOM     79  C   UNL     1     -13.163  -3.033  -0.558  1.00  0.00     0.173 A 
ATOM     80  F   UNL     1     -13.406  -1.023   2.457  1.00  0.00    -0.203 F 
ATOM     81  C   UNL     1     -14.642  -0.916   0.454  1.00  0.00     0.198 A 
ATOM     82  C   UNL     1     -14.161  -2.444  -1.332  1.00  0.00     0.198 A 
ATOM     83  F   UNL     1     -12.477  -4.067  -1.067  1.00  0.00    -0.203 F 
ATOM     84  F   UNL     1     -15.381   0.079   0.963  1.00  0.00    -0.200 F 
ATOM     85  C   UNL     1     -14.905  -1.391  -0.822  1.00  0.00     0.200 A 
ATOM     86  F   UNL     1     -14.407  -2.903  -2.566  1.00  0.00    -0.200 F 
ATOM     87  F   UNL     1     -15.882  -0.842  -1.556  1.00  0.00    -0.200 F 
ENDBRANCH  53  77
BRANCH  65  88
ATOM     88  C   UNL     1     -13.076  -6.353   6.572  1.00  0.00     0.064 A 
ATOM     89  C   UNL     1     -13.962  -7.369   6.184  1.00  0.00     0.173 A 
ATOM     90  C   UNL     1     -13.249  -5.780   7.841  1.00  0.00     0.173 A 
ATOM     91  F   UNL     1     -13.847  -7.939   4.975  1.00  0.00    -0.203 F 
ATOM     92  C   UNL     1     -14.994  -7.778   7.025  1.00  0.00     0.198 A 
ATOM     93  C   UNL     1     -14.265  -6.211   8.690  1.00  0.00     0.198 A 
ATOM     94  F   UNL     1     -12.424  -4.811   8.264  1.00  0.00    -0.203 F 
ATOM     95  F   UNL     1     -15.856  -8.719   6.616  1.00  0.00    -0.200 F 
ATOM     96  C   UNL     1     -15.140  -7.203   8.279  1.00  0.00     0.200 A 
ATOM     97  F   UNL     1     -14.396  -5.664   9.907  1.00  0.00    -0.200 F 
ATOM     98  F   UNL     1     -16.131  -7.603   9.089  1.00  0.00    -0.200 F 
ENDBRANCH  65  88
ENDBRANCH  39  40
ENDBRANCH  32  34
ENDBRANCH  31  32
ENDBRANCH  30  31
ENDBRANCH  29  30
ENDBRANCH  28  29
ENDBRANCH  27  28
ENDBRANCH   1  27
TORSDOF 23
