REMARK SMILES O=C(CCc1cc(Cl)cs1)OCCOCCOCCOC(=O)c1ccc(-c2c3nc(c(-c4c(F)c(F)c(F)c(F)c4F)c4ccc([nH]4)c(-c4c(F)c(F)c(F)c(F)c4F)c4nc(c(-c5c(F)c(F)c(F)c(F)c5F)c5ccc2[nH]5)C=C4)C=C3)cc1
REMARK SMILES IDX 15 1 14 2 13 3 12 4 11 5 2 6 1 7 3 8 4 9 5 10 6 11 10 12
REMARK SMILES IDX 7 13 9 14 8 15 16 16 17 17 18 18 19 19 20 20 21 21 22 22
REMARK SMILES IDX 23 23 24 24 85 25 25 26 84 27 26 28 27 29 28 30 78 31 29 32
REMARK SMILES IDX 83 33 77 34 79 35 30 36 82 37 76 38 75 39 31 41 63 42 43 43
REMARK SMILES IDX 62 44 44 45 47 46 61 47 80 48 45 49 46 50 60 52 81 53 48 54
REMARK SMILES IDX 32 55 33 56 41 57 34 58 35 59 39 60 42 61 36 62 37 63 40 64
REMARK SMILES IDX 38 65 64 66 65 67 73 68 66 69 67 70 71 71 74 72 68 73 69 74
REMARK SMILES IDX 72 75 70 76 49 77 50 78 58 79 51 80 52 81 56 82 59 83 53 84
REMARK SMILES IDX 54 85 57 86 55 87
REMARK H PARENT 79 40 47 51
REMARK Flexibility Score: inf
ROOT
ATOM      1  C   UNL     1       2.346   1.592  -0.993  1.00  0.00     0.188 C 
ENDROOT
BRANCH   1   2
ATOM      2  O   UNL     1       3.691   1.608  -0.549  1.00  0.00    -0.376 OA
BRANCH   2   3
ATOM      3  C   UNL     1       4.505   0.470  -0.796  1.00  0.00     0.202 C 
BRANCH   3   4
ATOM      4  C   UNL     1       3.874  -0.923  -0.785  1.00  0.00     0.261 C 
BRANCH   4   5
ATOM      5  O   UNL     1       2.707  -1.185   0.027  1.00  0.00    -0.463 OA
BRANCH   5   6
ATOM      6  C   UNL     1       2.460  -0.994   1.333  1.00  0.00     0.306 C 
ATOM      7  O   UNL     1       1.459  -1.504   1.838  1.00  0.00    -0.252 OA
BRANCH   6   8
ATOM      8  C   UNL     1       3.348  -0.118   2.166  1.00  0.00     0.128 C 
BRANCH   8   9
ATOM      9  C   UNL     1       4.284  -0.913   3.064  1.00  0.00     0.058 C 
BRANCH   9  10
ATOM     10  C   UNL     1       5.410  -1.530   2.289  1.00  0.00     0.007 A 
ATOM     11  C   UNL     1       6.528  -0.908   1.766  1.00  0.00     0.036 A 
ATOM     12  S   UNL     1       5.396  -3.205   1.924  1.00  0.00    -0.147 S 
ATOM     13  C   UNL     1       7.277  -1.776   0.923  1.00  0.00     0.052 A 
ATOM     14  C   UNL     1       6.773  -3.055   0.918  1.00  0.00     0.085 A 
ATOM     15  Cl  UNL     1       8.608  -1.241  -0.002  1.00  0.00    -0.083 Cl
ENDBRANCH   9  10
ENDBRANCH   8   9
ENDBRANCH   6   8
ENDBRANCH   5   6
ENDBRANCH   4   5
ENDBRANCH   3   4
ENDBRANCH   2   3
ENDBRANCH   1   2
BRANCH   1  16
ATOM     16  C   UNL     1       2.078   1.372  -2.485  1.00  0.00     0.188 C 
BRANCH  16  17
ATOM     17  O   UNL     1       3.217   0.934  -3.214  1.00  0.00    -0.376 OA
BRANCH  17  18
ATOM     18  C   UNL     1       3.708   1.881  -4.162  1.00  0.00     0.202 C 
BRANCH  18  19
ATOM     19  C   UNL     1       4.561   3.016  -3.571  1.00  0.00     0.261 C 
BRANCH  19  20
ATOM     20  O   UNL     1       3.950   3.796  -2.527  1.00  0.00    -0.460 OA
BRANCH  20  21
ATOM     21  C   UNL     1       2.932   4.604  -2.875  1.00  0.00     0.338 C 
ATOM     22  O   UNL     1       2.431   4.719  -3.987  1.00  0.00    -0.246 OA
BRANCH  21  23
ATOM     23  C   UNL     1       2.400   5.257  -1.662  1.00  0.00     0.060 A 
ATOM     24  C   UNL     1       1.071   5.015  -1.296  1.00  0.00     0.016 A 
ATOM     25  C   UNL     1       3.187   6.135  -0.909  1.00  0.00     0.016 A 
ATOM     26  C   UNL     1       0.521   5.660  -0.187  1.00  0.00     0.010 A 
ATOM     27  C   UNL     1       2.625   6.803   0.188  1.00  0.00     0.010 A 
ATOM     28  C   UNL     1       1.280   6.591   0.538  1.00  0.00    -0.014 A 
BRANCH  28  29
ATOM     29  C   UNL     1       0.596   7.455   1.536  1.00  0.00     0.031 A 
ATOM     30  C   UNL     1       0.109   8.812   1.103  1.00  0.00     0.074 A 
ATOM     31  C   UNL     1       0.343   7.023   2.784  1.00  0.00     0.049 A 
ATOM     32  N   UNL     1      -0.574   9.707   1.773  1.00  0.00    -0.248 NA
ATOM     33  C   UNL     1       0.432   9.212  -0.275  1.00  0.00     0.031 C 
ATOM     34  C   UNL     1       0.739   5.726   3.326  1.00  0.00     0.029 A 
ATOM     35  N   UNL     1      -0.317   7.635   3.823  1.00  0.00    -0.354 N 
ATOM     36  C   UNL     1      -0.780  10.761   0.893  1.00  0.00     0.074 A 
ATOM     37  C   UNL     1      -0.107  10.420  -0.342  1.00  0.00     0.031 C 
ATOM     38  C   UNL     1       0.322   5.641   4.602  1.00  0.00     0.029 A 
ATOM     39  C   UNL     1      -0.359   6.882   4.971  1.00  0.00     0.049 A 
ATOM     40  H   UNL     1      -0.722   8.530   3.751  1.00  0.00     0.167 HD
ATOM     41  C   UNL     1      -1.485  11.902   1.086  1.00  0.00     0.037 A 
ATOM     42  C   UNL     1      -0.880   7.167   6.182  1.00  0.00     0.037 A 
ATOM     43  C   UNL     1      -2.137  12.260   2.319  1.00  0.00     0.049 A 
ATOM     44  C   UNL     1      -1.601   8.477   6.392  1.00  0.00     0.074 A 
ATOM     45  C   UNL     1      -2.868  13.399   2.611  1.00  0.00     0.029 A 
ATOM     46  N   UNL     1      -2.128  11.486   3.470  1.00  0.00    -0.354 N 
ATOM     47  N   UNL     1      -1.825   9.449   5.542  1.00  0.00    -0.248 NA
ATOM     48  C   UNL     1      -2.156   8.719   7.732  1.00  0.00     0.031 C 
ATOM     49  C   UNL     1      -3.258  13.338   3.954  1.00  0.00     0.029 A 
ATOM     50  C   UNL     1      -2.823  12.133   4.481  1.00  0.00     0.049 A 
ATOM     51  H   UNL     1      -1.693  10.608   3.557  1.00  0.00     0.167 HD
ATOM     52  C   UNL     1      -2.564  10.402   6.233  1.00  0.00     0.074 A 
ATOM     53  C   UNL     1      -2.777   9.878   7.565  1.00  0.00     0.031 C 
ATOM     54  C   UNL     1      -3.024  11.605   5.806  1.00  0.00     0.037 A 
BRANCH  41  55
ATOM     55  C   UNL     1      -1.579  12.858  -0.068  1.00  0.00     0.064 A 
ATOM     56  C   UNL     1      -2.348  12.562  -1.204  1.00  0.00     0.173 A 
ATOM     57  C   UNL     1      -0.927  14.100  -0.023  1.00  0.00     0.173 A 
ATOM     58  F   UNL     1      -2.979  11.382  -1.303  1.00  0.00    -0.203 F 
ATOM     59  C   UNL     1      -2.444  13.464  -2.261  1.00  0.00     0.198 A 
ATOM     60  C   UNL     1      -1.050  15.011  -1.069  1.00  0.00     0.198 A 
ATOM     61  F   UNL     1      -0.181  14.434   1.040  1.00  0.00    -0.203 F 
ATOM     62  F   UNL     1      -3.149  13.141  -3.354  1.00  0.00    -0.200 F 
ATOM     63  C   UNL     1      -1.802  14.691  -2.188  1.00  0.00     0.200 A 
ATOM     64  F   UNL     1      -0.439  16.202  -0.992  1.00  0.00    -0.200 F 
ATOM     65  F   UNL     1      -1.903  15.562  -3.201  1.00  0.00    -0.200 F 
ENDBRANCH  41  55
BRANCH  42  66
ATOM     66  C   UNL     1      -0.734   6.201   7.305  1.00  0.00     0.064 A 
ATOM     67  C   UNL     1      -1.845   5.554   7.863  1.00  0.00     0.173 A 
ATOM     68  C   UNL     1       0.522   5.944   7.875  1.00  0.00     0.173 A 
ATOM     69  F   UNL     1      -3.072   5.788   7.375  1.00  0.00    -0.203 F 
ATOM     70  C   UNL     1      -1.710   4.711   8.965  1.00  0.00     0.198 A 
ATOM     71  C   UNL     1       0.661   5.075   8.955  1.00  0.00     0.198 A 
ATOM     72  F   UNL     1       1.618   6.541   7.383  1.00  0.00    -0.203 F 
ATOM     73  F   UNL     1      -2.797   4.156   9.519  1.00  0.00    -0.200 F 
ATOM     74  C   UNL     1      -0.457   4.468   9.507  1.00  0.00     0.200 A 
ATOM     75  F   UNL     1       1.875   4.837   9.468  1.00  0.00    -0.200 F 
ATOM     76  F   UNL     1      -0.327   3.661  10.568  1.00  0.00    -0.200 F 
ENDBRANCH  42  66
BRANCH  54  77
ATOM     77  C   UNL     1      -3.825  12.423   6.782  1.00  0.00     0.064 A 
ATOM     78  C   UNL     1      -3.236  13.004   7.916  1.00  0.00     0.173 A 
ATOM     79  C   UNL     1      -5.197  12.636   6.577  1.00  0.00     0.173 A 
ATOM     80  F   UNL     1      -1.930  12.823   8.166  1.00  0.00    -0.203 F 
ATOM     81  C   UNL     1      -3.998  13.728   8.830  1.00  0.00     0.198 A 
ATOM     82  C   UNL     1      -5.949  13.391   7.474  1.00  0.00     0.198 A 
ATOM     83  F   UNL     1      -5.810  12.115   5.504  1.00  0.00    -0.203 F 
ATOM     84  F   UNL     1      -3.426  14.214   9.940  1.00  0.00    -0.200 F 
ATOM     85  C   UNL     1      -5.353  13.924   8.606  1.00  0.00     0.200 A 
ATOM     86  F   UNL     1      -7.254  13.594   7.247  1.00  0.00    -0.200 F 
ATOM     87  F   UNL     1      -6.085  14.618   9.488  1.00  0.00    -0.200 F 
ENDBRANCH  54  77
ENDBRANCH  28  29
ENDBRANCH  21  23
ENDBRANCH  20  21
ENDBRANCH  19  20
ENDBRANCH  18  19
ENDBRANCH  17  18
ENDBRANCH  16  17
ENDBRANCH   1  16
TORSDOF 19
