REMARK SMILES O=C(N[C@@H](C(=O)OCCOCCOCCOC(=O)c1ccc(-c2c3nc(c(-c4c(F)c(F)c(F)c(F)c4F)c4ccc([nH]4)c(-c4c(F)c(F)c(F)c(F)c4F)c4nc(c(-c5c(F)c(F)c(F)c(F)c5F)c5ccc2[nH]5)C=C4)C=C3)cc1)c1ccccc1)c1ccc(Br)nc1
REMARK SMILES IDX 11 1 10 2 9 3 8 4 7 5 5 6 6 7 4 8 3 9 1 10 2 11 88 13 89 14
REMARK SMILES IDX 94 15 90 16 93 17 91 18 92 19 82 20 83 21 87 22 84 23 86 24
REMARK SMILES IDX 85 25 12 26 13 27 14 28 15 29 16 30 17 31 18 32 19 33 20 34
REMARK SMILES IDX 81 35 21 36 80 37 22 38 23 39 24 40 74 41 25 42 79 43 73 44
REMARK SMILES IDX 75 45 26 46 78 47 72 48 71 49 27 51 59 52 39 53 58 54 40 55
REMARK SMILES IDX 43 56 57 57 76 58 41 59 42 60 56 62 77 63 44 64 28 65 29 66
REMARK SMILES IDX 37 67 30 68 31 69 35 70 38 71 32 72 33 73 36 74 34 75 60 76
REMARK SMILES IDX 61 77 69 78 62 79 63 80 67 81 70 82 64 83 65 84 68 85 66 86
REMARK SMILES IDX 45 87 46 88 54 89 47 90 48 91 52 92 55 93 49 94 50 95 53 96
REMARK SMILES IDX 51 97
REMARK H PARENT 3 12 75 50 43 61
REMARK Flexibility Score: inf
ROOT
ATOM      1  C   UNL     1       4.978  -1.893  -4.268  1.00  0.00     0.188 C 
ENDROOT
BRANCH   1   2
ATOM      2  O   UNL     1       5.565  -3.182  -4.317  1.00  0.00    -0.376 OA
BRANCH   2   3
ATOM      3  C   UNL     1       5.529  -3.999  -3.151  1.00  0.00     0.202 C 
BRANCH   3   4
ATOM      4  C   UNL     1       5.866  -3.406  -1.766  1.00  0.00     0.261 C 
BRANCH   4   5
ATOM      5  O   UNL     1       5.105  -2.239  -1.374  1.00  0.00    -0.461 OA
BRANCH   5   6
ATOM      6  C   UNL     1       5.822  -1.145  -0.994  1.00  0.00     0.333 C 
ATOM      7  O   UNL     1       7.049  -1.140  -0.915  1.00  0.00    -0.249 OA
BRANCH   6   8
ATOM      8  C   UNL     1       4.969   0.141  -0.750  1.00  0.00     0.223 C 
BRANCH   8   9
ATOM      9  N   UNL     1       3.502  -0.015  -0.626  1.00  0.00    -0.335 N 
ATOM     10  O   UNL     1       1.462  -0.114   0.314  1.00  0.00    -0.269 OA
ATOM     11  C   UNL     1       2.673   0.012   0.457  1.00  0.00     0.253 C 
ATOM     12  H   UNL     1       3.040  -0.166  -1.483  1.00  0.00     0.165 HD
BRANCH  11  13
ATOM     13  C   UNL     1       3.224   0.150   1.804  1.00  0.00     0.058 A 
ATOM     14  C   UNL     1       2.929  -0.823   2.753  1.00  0.00     0.018 A 
ATOM     15  C   UNL     1       4.036   1.213   2.165  1.00  0.00     0.126 A 
ATOM     16  C   UNL     1       3.549  -0.753   3.997  1.00  0.00     0.037 A 
ATOM     17  N   UNL     1       4.666   1.294   3.357  1.00  0.00    -0.249 NA
ATOM     18  C   UNL     1       4.425   0.297   4.240  1.00  0.00     0.106 A 
ATOM     19  Br  UNL     1       5.379   0.331   5.877  1.00  0.00    -0.029 Br
ENDBRANCH  11  13
ENDBRANCH   8   9
BRANCH   8  20
ATOM     20  C   UNL     1       5.256   1.298  -1.731  1.00  0.00    -0.014 A 
ATOM     21  C   UNL     1       6.322   1.290  -2.647  1.00  0.00     0.006 A 
ATOM     22  C   UNL     1       4.471   2.470  -1.669  1.00  0.00     0.006 A 
ATOM     23  C   UNL     1       6.584   2.394  -3.467  1.00  0.00     0.000 A 
ATOM     24  C   UNL     1       4.739   3.574  -2.483  1.00  0.00     0.000 A 
ATOM     25  C   UNL     1       5.798   3.537  -3.381  1.00  0.00     0.000 A 
ENDBRANCH   8  20
ENDBRANCH   6   8
ENDBRANCH   5   6
ENDBRANCH   4   5
ENDBRANCH   3   4
ENDBRANCH   2   3
ENDBRANCH   1   2
BRANCH   1  26
ATOM     26  C   UNL     1       3.571  -1.737  -3.681  1.00  0.00     0.188 C 
BRANCH  26  27
ATOM     27  O   UNL     1       2.996  -2.882  -3.114  1.00  0.00    -0.376 OA
BRANCH  27  28
ATOM     28  C   UNL     1       2.061  -3.651  -3.850  1.00  0.00     0.202 C 
BRANCH  28  29
ATOM     29  C   UNL     1       1.919  -3.632  -5.387  1.00  0.00     0.261 C 
BRANCH  29  30
ATOM     30  O   UNL     1       2.485  -2.535  -6.112  1.00  0.00    -0.460 OA
BRANCH  30  31
ATOM     31  C   UNL     1       1.712  -1.427  -6.250  1.00  0.00     0.338 C 
ATOM     32  O   UNL     1       0.593  -1.248  -5.821  1.00  0.00    -0.246 OA
BRANCH  31  33
ATOM     33  C   UNL     1       2.578  -0.370  -6.824  1.00  0.00     0.060 A 
ATOM     34  C   UNL     1       2.871   0.774  -6.064  1.00  0.00     0.016 A 
ATOM     35  C   UNL     1       3.114  -0.530  -8.100  1.00  0.00     0.016 A 
ATOM     36  C   UNL     1       3.692   1.775  -6.589  1.00  0.00     0.010 A 
ATOM     37  C   UNL     1       3.904   0.485  -8.637  1.00  0.00     0.010 A 
ATOM     38  C   UNL     1       4.171   1.654  -7.897  1.00  0.00    -0.014 A 
BRANCH  38  39
ATOM     39  C   UNL     1       4.742   2.818  -8.614  1.00  0.00     0.031 A 
ATOM     40  C   UNL     1       3.823   3.588  -9.520  1.00  0.00     0.074 A 
ATOM     41  C   UNL     1       6.042   3.143  -8.530  1.00  0.00     0.049 A 
ATOM     42  N   UNL     1       4.104   4.475 -10.437  1.00  0.00    -0.248 NA
ATOM     43  C   UNL     1       2.386   3.296  -9.381  1.00  0.00     0.031 C 
ATOM     44  C   UNL     1       7.017   2.519  -7.641  1.00  0.00     0.029 A 
ATOM     45  N   UNL     1       6.771   4.065  -9.242  1.00  0.00    -0.354 N 
ATOM     46  C   UNL     1       2.886   4.822 -11.005  1.00  0.00     0.074 A 
ATOM     47  C   UNL     1       1.865   4.042 -10.342  1.00  0.00     0.031 C 
ATOM     48  C   UNL     1       8.229   3.051  -7.886  1.00  0.00     0.029 A 
ATOM     49  C   UNL     1       8.120   4.010  -8.986  1.00  0.00     0.049 A 
ATOM     50  H   UNL     1       6.367   4.703  -9.874  1.00  0.00     0.167 HD
ATOM     51  C   UNL     1       2.643   5.710 -11.997  1.00  0.00     0.037 A 
ATOM     52  C   UNL     1       9.146   4.626  -9.607  1.00  0.00     0.037 A 
ATOM     53  C   UNL     1       3.666   6.479 -12.652  1.00  0.00     0.049 A 
ATOM     54  C   UNL     1       8.863   5.545 -10.774  1.00  0.00     0.074 A 
ATOM     55  C   UNL     1       3.527   7.413 -13.663  1.00  0.00     0.029 A 
ATOM     56  N   UNL     1       5.020   6.393 -12.366  1.00  0.00    -0.354 N 
ATOM     57  N   UNL     1       7.713   5.874 -11.312  1.00  0.00    -0.248 NA
ATOM     58  C   UNL     1      10.023   6.172 -11.427  1.00  0.00     0.031 C 
ATOM     59  C   UNL     1       4.803   7.847 -14.031  1.00  0.00     0.029 A 
ATOM     60  C   UNL     1       5.731   7.241 -13.197  1.00  0.00     0.049 A 
ATOM     61  H   UNL     1       5.417   5.815 -11.674  1.00  0.00     0.167 HD
ATOM     62  C   UNL     1       8.006   6.779 -12.326  1.00  0.00     0.074 A 
ATOM     63  C   UNL     1       9.444   6.943 -12.337  1.00  0.00     0.031 C 
ATOM     64  C   UNL     1       7.160   7.422 -13.167  1.00  0.00     0.037 A 
BRANCH  51  65
ATOM     65  C   UNL     1       1.225   5.865 -12.461  1.00  0.00     0.064 A 
ATOM     66  C   UNL     1       0.242   6.459 -11.655  1.00  0.00     0.173 A 
ATOM     67  C   UNL     1       0.851   5.436 -13.744  1.00  0.00     0.173 A 
ATOM     68  F   UNL     1       0.543   6.871 -10.415  1.00  0.00    -0.203 F 
ATOM     69  C   UNL     1      -1.069   6.592 -12.107  1.00  0.00     0.198 A 
ATOM     70  C   UNL     1      -0.451   5.603 -14.205  1.00  0.00     0.198 A 
ATOM     71  F   UNL     1       1.752   4.863 -14.555  1.00  0.00    -0.203 F 
ATOM     72  F   UNL     1      -2.003   7.113 -11.300  1.00  0.00    -0.200 F 
ATOM     73  C   UNL     1      -1.412   6.172 -13.383  1.00  0.00     0.200 A 
ATOM     74  F   UNL     1      -0.776   5.210 -15.444  1.00  0.00    -0.200 F 
ATOM     75  F   UNL     1      -2.671   6.310 -13.819  1.00  0.00    -0.200 F 
ENDBRANCH  51  65
BRANCH  52  76
ATOM     76  C   UNL     1      10.545   4.379  -9.166  1.00  0.00     0.064 A 
ATOM     77  C   UNL     1      11.311   5.404  -8.593  1.00  0.00     0.173 A 
ATOM     78  C   UNL     1      11.158   3.129  -9.336  1.00  0.00     0.173 A 
ATOM     79  F   UNL     1      10.781   6.626  -8.434  1.00  0.00    -0.203 F 
ATOM     80  C   UNL     1      12.639   5.195  -8.228  1.00  0.00     0.198 A 
ATOM     81  C   UNL     1      12.476   2.911  -8.940  1.00  0.00     0.198 A 
ATOM     82  F   UNL     1      10.473   2.114  -9.884  1.00  0.00    -0.203 F 
ATOM     83  F   UNL     1      13.364   6.209  -7.734  1.00  0.00    -0.200 F 
ATOM     84  C   UNL     1      13.219   3.947  -8.396  1.00  0.00     0.200 A 
ATOM     85  F   UNL     1      13.029   1.700  -9.094  1.00  0.00    -0.200 F 
ATOM     86  F   UNL     1      14.497   3.746  -8.044  1.00  0.00    -0.200 F 
ENDBRANCH  52  76
BRANCH  64  87
ATOM     87  C   UNL     1       7.735   8.432 -14.119  1.00  0.00     0.064 A 
ATOM     88  C   UNL     1       8.469   8.056 -15.252  1.00  0.00     0.173 A 
ATOM     89  C   UNL     1       7.450   9.796 -13.944  1.00  0.00     0.173 A 
ATOM     90  F   UNL     1       8.779   6.767 -15.459  1.00  0.00    -0.203 F 
ATOM     91  C   UNL     1       8.901   9.009 -16.172  1.00  0.00     0.198 A 
ATOM     92  C   UNL     1       7.855  10.741 -14.882  1.00  0.00     0.198 A 
ATOM     93  F   UNL     1       6.742  10.208 -12.881  1.00  0.00    -0.203 F 
ATOM     94  F   UNL     1       9.624   8.631 -17.235  1.00  0.00    -0.200 F 
ATOM     95  C   UNL     1       8.582  10.347 -15.994  1.00  0.00     0.200 A 
ATOM     96  F   UNL     1       7.527  12.030 -14.717  1.00  0.00    -0.200 F 
ATOM     97  F   UNL     1       8.975  11.258 -16.895  1.00  0.00    -0.200 F 
ENDBRANCH  64  87
ENDBRANCH  38  39
ENDBRANCH  31  33
ENDBRANCH  30  31
ENDBRANCH  29  30
ENDBRANCH  28  29
ENDBRANCH  27  28
ENDBRANCH  26  27
ENDBRANCH   1  26
TORSDOF 20
