REMARK SMILES C[C@H](C(=O)OCCOCCOCCOC(=O)c1ccc(-c2c3nc(c(-c4c(F)c(F)c(F)c(F)c4F)c4ccc([nH]4)c(-c4c(F)c(F)c(F)c(F)c4F)c4nc(c(-c5c(F)c(F)c(F)c(F)c5F)c5ccc2[nH]5)C=C4)C=C3)cc1)N1C(=O)C[C@@H](N2C(=O)/C(=C/c3ccccc3)SC2=S)C1=O
REMARK SMILES IDX 9 1 8 2 7 3 6 4 5 5 3 6 4 7 2 8 1 9 80 10 81 11 99 12 82 13
REMARK SMILES IDX 83 14 84 15 100 16 85 17 86 18 97 19 87 20 88 21 96 22 98 23
REMARK SMILES IDX 89 24 90 25 91 26 95 27 92 28 94 29 93 30 10 31 11 32 12 33
REMARK SMILES IDX 13 34 14 35 15 36 16 37 17 38 18 39 79 40 19 41 78 42 20 43
REMARK SMILES IDX 21 44 22 45 72 46 23 47 77 48 71 49 73 50 24 51 76 52 70 53
REMARK SMILES IDX 69 54 25 56 57 57 37 58 56 59 38 60 41 61 55 62 74 63 39 64
REMARK SMILES IDX 40 65 54 67 75 68 42 69 26 70 27 71 35 72 28 73 29 74 33 75
REMARK SMILES IDX 36 76 30 77 31 78 34 79 32 80 58 81 59 82 67 83 60 84 61 85
REMARK SMILES IDX 65 86 68 87 62 88 63 89 66 90 64 91 43 92 44 93 52 94 45 95
REMARK SMILES IDX 46 96 50 97 53 98 47 99 48 100 51 101 49 102
REMARK H PARENT 73 55 41 66
REMARK Flexibility Score: inf
ROOT
ATOM      1  C   UNL     1       2.292   1.810   0.291  1.00  0.00     0.188 C 
ENDROOT
BRANCH   1   2
ATOM      2  O   UNL     1       2.686   1.420  -1.024  1.00  0.00    -0.376 OA
BRANCH   2   3
ATOM      3  C   UNL     1       1.708   1.358  -2.048  1.00  0.00     0.202 C 
BRANCH   3   4
ATOM      4  C   UNL     1       0.907   0.052  -2.115  1.00  0.00     0.261 C 
BRANCH   4   5
ATOM      5  O   UNL     1       0.290  -0.365  -0.880  1.00  0.00    -0.462 OA
BRANCH   5   6
ATOM      6  C   UNL     1       1.007  -1.240  -0.125  1.00  0.00     0.329 C 
ATOM      7  O   UNL     1       2.150  -1.602  -0.387  1.00  0.00    -0.250 OA
BRANCH   6   8
ATOM      8  C   UNL     1       0.289  -1.693   1.159  1.00  0.00     0.200 C 
ATOM      9  C   UNL     1       1.032  -1.183   2.391  1.00  0.00     0.044 C 
BRANCH   8  10
ATOM     10  N   UNL     1      -1.156  -1.454   1.213  1.00  0.00    -0.267 N 
ATOM     11  C   UNL     1      -1.787  -0.289   1.539  1.00  0.00     0.232 C 
ATOM     12  C   UNL     1      -2.048  -2.450   0.934  1.00  0.00     0.253 C 
ATOM     13  O   UNL     1      -1.284   0.702   2.047  1.00  0.00    -0.274 OA
ATOM     14  C   UNL     1      -3.256  -0.401   1.240  1.00  0.00     0.136 C 
ATOM     15  C   UNL     1      -3.453  -1.886   0.996  1.00  0.00     0.191 C 
ATOM     16  O   UNL     1      -1.782  -3.613   0.663  1.00  0.00    -0.272 OA
BRANCH  15  17
ATOM     17  N   UNL     1      -4.125  -2.273  -0.248  1.00  0.00    -0.280 N 
ATOM     18  C   UNL     1      -3.592  -1.840  -1.451  1.00  0.00     0.266 C 
ATOM     19  C   UNL     1      -5.175  -3.164  -0.332  1.00  0.00     0.149 C 
ATOM     20  O   UNL     1      -2.642  -1.079  -1.572  1.00  0.00    -0.268 OA
ATOM     21  C   UNL     1      -4.306  -2.454  -2.591  1.00  0.00     0.081 C 
ATOM     22  S   UNL     1      -5.564  -3.470  -2.020  1.00  0.00    -0.054 SA
ATOM     23  S   UNL     1      -6.032  -3.864   0.914  1.00  0.00    -0.052 S 
ATOM     24  C   UNL     1      -3.930  -2.208  -3.853  1.00  0.00     0.029 C 
BRANCH  24  25
ATOM     25  C   UNL     1      -4.591  -2.721  -5.054  1.00  0.00    -0.024 A 
ATOM     26  C   UNL     1      -3.875  -3.505  -5.965  1.00  0.00     0.008 A 
ATOM     27  C   UNL     1      -5.925  -2.394  -5.325  1.00  0.00     0.008 A 
ATOM     28  C   UNL     1      -4.499  -3.977  -7.122  1.00  0.00     0.001 A 
ATOM     29  C   UNL     1      -6.546  -2.870  -6.478  1.00  0.00     0.001 A 
ATOM     30  C   UNL     1      -5.834  -3.662  -7.375  1.00  0.00     0.000 A 
ENDBRANCH  24  25
ENDBRANCH  15  17
ENDBRANCH   8  10
ENDBRANCH   6   8
ENDBRANCH   5   6
ENDBRANCH   4   5
ENDBRANCH   3   4
ENDBRANCH   2   3
ENDBRANCH   1   2
BRANCH   1  31
ATOM     31  C   UNL     1       0.877   2.347   0.547  1.00  0.00     0.188 C 
BRANCH  31  32
ATOM     32  O   UNL     1       0.574   3.459  -0.291  1.00  0.00    -0.376 OA
BRANCH  32  33
ATOM     33  C   UNL     1       0.116   4.611   0.403  1.00  0.00     0.202 C 
BRANCH  33  34
ATOM     34  C   UNL     1       1.297   5.523   0.741  1.00  0.00     0.261 C 
BRANCH  34  35
ATOM     35  O   UNL     1       2.316   4.887   1.536  1.00  0.00    -0.460 OA
BRANCH  35  36
ATOM     36  C   UNL     1       1.994   4.592   2.811  1.00  0.00     0.338 C 
ATOM     37  O   UNL     1       0.936   4.831   3.379  1.00  0.00    -0.246 OA
BRANCH  36  38
ATOM     38  C   UNL     1       3.090   3.795   3.397  1.00  0.00     0.060 A 
ATOM     39  C   UNL     1       2.794   2.576   4.019  1.00  0.00     0.016 A 
ATOM     40  C   UNL     1       4.406   4.264   3.356  1.00  0.00     0.016 A 
ATOM     41  C   UNL     1       3.812   1.840   4.635  1.00  0.00     0.010 A 
ATOM     42  C   UNL     1       5.420   3.534   3.982  1.00  0.00     0.010 A 
ATOM     43  C   UNL     1       5.125   2.333   4.652  1.00  0.00    -0.014 A 
BRANCH  43  44
ATOM     44  C   UNL     1       6.165   1.699   5.503  1.00  0.00     0.031 A 
ATOM     45  C   UNL     1       6.456   2.299   6.852  1.00  0.00     0.074 A 
ATOM     46  C   UNL     1       6.858   0.625   5.088  1.00  0.00     0.049 A 
ATOM     47  N   UNL     1       7.380   1.985   7.725  1.00  0.00    -0.248 NA
ATOM     48  C   UNL     1       5.586   3.410   7.270  1.00  0.00     0.031 C 
ATOM     49  C   UNL     1       6.658  -0.074   3.822  1.00  0.00     0.029 A 
ATOM     50  N   UNL     1       7.891  -0.054   5.690  1.00  0.00    -0.354 N 
ATOM     51  C   UNL     1       7.206   2.860   8.790  1.00  0.00     0.074 A 
ATOM     52  C   UNL     1       6.109   3.737   8.443  1.00  0.00     0.031 C 
ATOM     53  C   UNL     1       7.553  -1.073   3.731  1.00  0.00     0.029 A 
ATOM     54  C   UNL     1       8.411  -1.062   4.916  1.00  0.00     0.049 A 
ATOM     55  H   UNL     1       8.225   0.162   6.590  1.00  0.00     0.167 HD
ATOM     56  C   UNL     1       7.894   2.923   9.955  1.00  0.00     0.037 A 
ATOM     57  C   UNL     1       9.476  -1.861   5.127  1.00  0.00     0.037 A 
ATOM     58  C   UNL     1       8.992   2.060  10.302  1.00  0.00     0.049 A 
ATOM     59  C   UNL     1      10.276  -1.721   6.399  1.00  0.00     0.074 A 
ATOM     60  C   UNL     1       9.745   2.045  11.463  1.00  0.00     0.029 A 
ATOM     61  N   UNL     1       9.500   1.063   9.483  1.00  0.00    -0.354 N 
ATOM     62  N   UNL     1      10.093  -0.907   7.410  1.00  0.00    -0.248 NA
ATOM     63  C   UNL     1      11.434  -2.615   6.558  1.00  0.00     0.031 C 
ATOM     64  C   UNL     1      10.739   1.071  11.328  1.00  0.00     0.029 A 
ATOM     65  C   UNL     1      10.572   0.442  10.105  1.00  0.00     0.049 A 
ATOM     66  H   UNL     1       9.152   0.831   8.592  1.00  0.00     0.167 HD
ATOM     67  C   UNL     1      11.088  -1.209   8.333  1.00  0.00     0.074 A 
ATOM     68  C   UNL     1      11.867  -2.290   7.768  1.00  0.00     0.031 C 
ATOM     69  C   UNL     1      11.334  -0.642   9.540  1.00  0.00     0.037 A 
BRANCH  56  70
ATOM     70  C   UNL     1       7.489   3.984  10.935  1.00  0.00     0.064 A 
ATOM     71  C   UNL     1       6.287   3.901  11.654  1.00  0.00     0.173 A 
ATOM     72  C   UNL     1       8.327   5.082  11.180  1.00  0.00     0.173 A 
ATOM     73  F   UNL     1       5.445   2.878  11.446  1.00  0.00    -0.203 F 
ATOM     74  C   UNL     1       5.927   4.893  12.563  1.00  0.00     0.198 A 
ATOM     75  C   UNL     1       7.977   6.057  12.110  1.00  0.00     0.198 A 
ATOM     76  F   UNL     1       9.490   5.207  10.522  1.00  0.00    -0.203 F 
ATOM     77  F   UNL     1       4.752   4.818  13.204  1.00  0.00    -0.200 F 
ATOM     78  C   UNL     1       6.775   5.966  12.795  1.00  0.00     0.200 A 
ATOM     79  F   UNL     1       8.803   7.087  12.342  1.00  0.00    -0.200 F 
ATOM     80  F   UNL     1       6.429   6.917  13.674  1.00  0.00    -0.200 F 
ENDBRANCH  56  70
BRANCH  57  81
ATOM     81  C   UNL     1       9.872  -2.861   4.100  1.00  0.00     0.064 A 
ATOM     82  C   UNL     1       9.751  -4.236   4.344  1.00  0.00     0.173 A 
ATOM     83  C   UNL     1      10.412  -2.462   2.868  1.00  0.00     0.173 A 
ATOM     84  F   UNL     1       9.273  -4.668   5.520  1.00  0.00    -0.203 F 
ATOM     85  C   UNL     1      10.173  -5.174   3.403  1.00  0.00     0.198 A 
ATOM     86  C   UNL     1      10.806  -3.400   1.916  1.00  0.00     0.198 A 
ATOM     87  F   UNL     1      10.558  -1.158   2.590  1.00  0.00    -0.203 F 
ATOM     88  F   UNL     1      10.098  -6.482   3.684  1.00  0.00    -0.200 F 
ATOM     89  C   UNL     1      10.694  -4.755   2.188  1.00  0.00     0.200 A 
ATOM     90  F   UNL     1      11.305  -2.991   0.742  1.00  0.00    -0.200 F 
ATOM     91  F   UNL     1      11.103  -5.657   1.285  1.00  0.00    -0.200 F 
ENDBRANCH  57  81
BRANCH  69  92
ATOM     92  C   UNL     1      12.463  -1.202  10.356  1.00  0.00     0.064 A 
ATOM     93  C   UNL     1      13.805  -0.986  10.009  1.00  0.00     0.173 A 
ATOM     94  C   UNL     1      12.198  -1.925  11.531  1.00  0.00     0.173 A 
ATOM     95  F   UNL     1      14.112  -0.313   8.890  1.00  0.00    -0.203 F 
ATOM     96  C   UNL     1      14.838  -1.491  10.795  1.00  0.00     0.198 A 
ATOM     97  C   UNL     1      13.234  -2.403  12.329  1.00  0.00     0.198 A 
ATOM     98  F   UNL     1      10.933  -2.153  11.913  1.00  0.00    -0.203 F 
ATOM     99  F   UNL     1      16.113  -1.309  10.420  1.00  0.00    -0.200 F 
ATOM    100  C   UNL     1      14.553  -2.192  11.957  1.00  0.00     0.200 A 
ATOM    101  F   UNL     1      12.956  -3.067  13.459  1.00  0.00    -0.200 F 
ATOM    102  F   UNL     1      15.549  -2.669  12.716  1.00  0.00    -0.200 F 
ENDBRANCH  69  92
ENDBRANCH  43  44
ENDBRANCH  36  38
ENDBRANCH  35  36
ENDBRANCH  34  35
ENDBRANCH  33  34
ENDBRANCH  32  33
ENDBRANCH  31  32
ENDBRANCH   1  31
TORSDOF 20
