REMARK SMILES O=C(C[C@H]1S/C(=[NH+]\N=C\c2cc(Br)ccc2OCc2ccccc2)NC1=O)OCCOCCOCCOC(=O)c1ccc(-c2c3nc(c(-c4c(F)c(F)c(F)c(F)c4F)c4ccc([nH]4)c(-c4c(F)c(F)c(F)c(F)c4F)c4nc(c(-c5c(F)c(F)c(F)c(F)c5F)c5ccc2[nH]5)C=C4)C=C3)cc1
REMARK SMILES IDX 30 1 29 2 28 3 2 4 1 5 3 6 4 7 5 8 26 9 6 10 25 11 27 12
REMARK SMILES IDX 7 13 8 16 9 17 10 18 11 19 16 20 12 21 15 22 13 23 14 24
REMARK SMILES IDX 17 25 18 26 19 27 20 28 24 29 21 30 23 31 22 32 31 33 32 34
REMARK SMILES IDX 33 35 34 36 35 37 36 38 37 39 38 40 39 41 40 42 41 43 102 44
REMARK SMILES IDX 42 45 101 46 43 47 44 48 45 49 95 50 46 51 100 52 94 53
REMARK SMILES IDX 96 54 47 55 99 56 93 57 92 58 48 60 80 61 60 62 79 63 61 64
REMARK SMILES IDX 64 65 78 66 97 67 62 68 63 69 77 71 98 72 65 73 49 74 50 75
REMARK SMILES IDX 58 76 51 77 52 78 56 79 59 80 53 81 54 82 57 83 55 84 81 85
REMARK SMILES IDX 82 86 90 87 83 88 84 89 88 90 91 91 85 92 86 93 89 94 87 95
REMARK SMILES IDX 66 96 67 97 75 98 68 99 69 100 73 101 76 102 70 103 71 104
REMARK SMILES IDX 74 105 72 106
REMARK H PARENT 25 14 7 15 96 59 64 70
REMARK Flexibility Score: inf
ROOT
ATOM      1  C   UNL     1       5.087   0.416   0.595  1.00  0.00     0.202 C 
ENDROOT
BRANCH   1   2
ATOM      2  C   UNL     1       4.463   1.330  -0.459  1.00  0.00     0.261 C 
BRANCH   2   3
ATOM      3  O   UNL     1       3.063   1.151  -0.758  1.00  0.00    -0.463 OA
BRANCH   3   4
ATOM      4  C   UNL     1       2.431   0.056  -1.212  1.00  0.00     0.307 C 
ATOM      5  O   UNL     1       1.264   0.128  -1.590  1.00  0.00    -0.252 OA
BRANCH   4   6
ATOM      6  C   UNL     1       3.108  -1.285  -1.136  1.00  0.00     0.150 C 
BRANCH   6   7
ATOM      7  C   UNL     1       4.224  -1.482  -2.144  1.00  0.00     0.184 C 
ATOM      8  S   UNL     1       4.327  -3.265  -2.461  1.00  0.00    -0.020 SA
ATOM      9  C   UNL     1       3.838  -0.899  -3.480  1.00  0.00     0.322 C 
ATOM     10  C   UNL     1       3.143  -3.080  -3.732  1.00  0.00     0.337 C 
ATOM     11  N   UNL     1       3.142  -1.814  -4.205  1.00  0.00    -0.202 N 
ATOM     12  O   UNL     1       4.047   0.258  -3.811  1.00  0.00    -0.246 OA
ATOM     13  N   UNL     1       2.345  -3.962  -4.213  1.00  0.00    -0.142 N 
ATOM     14  H   UNL     1       2.663  -1.568  -5.029  1.00  0.00     0.316 HD
ATOM     15  H   UNL     1       1.756  -3.782  -4.982  1.00  0.00     0.343 HD
BRANCH  13  16
ATOM     16  N   UNL     1       2.375  -5.191  -3.566  1.00  0.00    -0.093 NA
ATOM     17  C   UNL     1       3.140  -6.013  -4.205  1.00  0.00     0.170 C 
BRANCH  17  18
ATOM     18  C   UNL     1       3.210  -7.420  -3.845  1.00  0.00     0.040 A 
ATOM     19  C   UNL     1       3.472  -7.683  -2.493  1.00  0.00     0.029 A 
ATOM     20  C   UNL     1       3.079  -8.449  -4.780  1.00  0.00     0.128 A 
ATOM     21  C   UNL     1       3.731  -8.982  -2.088  1.00  0.00     0.018 A 
ATOM     22  C   UNL     1       3.312  -9.758  -4.331  1.00  0.00     0.048 A 
ATOM     23  Br  UNL     1       4.319  -9.271  -0.319  1.00  0.00    -0.051 Br
ATOM     24  C   UNL     1       3.648 -10.029  -2.999  1.00  0.00     0.019 A 
BRANCH  20  25
ATOM     25  O   UNL     1       2.698  -8.414  -6.088  1.00  0.00    -0.488 OA
BRANCH  25  26
ATOM     26  C   UNL     1       2.317  -7.242  -6.806  1.00  0.00     0.265 C 
BRANCH  26  27
ATOM     27  C   UNL     1       0.874  -6.794  -6.681  1.00  0.00    -0.011 A 
ATOM     28  C   UNL     1       0.192  -6.366  -7.833  1.00  0.00     0.007 A 
ATOM     29  C   UNL     1       0.215  -6.662  -5.452  1.00  0.00     0.007 A 
ATOM     30  C   UNL     1      -1.088  -5.808  -7.748  1.00  0.00     0.000 A 
ATOM     31  C   UNL     1      -1.044  -6.065  -5.360  1.00  0.00     0.000 A 
ATOM     32  C   UNL     1      -1.697  -5.638  -6.509  1.00  0.00     0.000 A 
ENDBRANCH  26  27
ENDBRANCH  25  26
ENDBRANCH  20  25
ENDBRANCH  17  18
ENDBRANCH  13  16
ENDBRANCH   6   7
ENDBRANCH   4   6
ENDBRANCH   3   4
ENDBRANCH   2   3
ENDBRANCH   1   2
BRANCH   1  33
ATOM     33  O   UNL     1       4.486   0.370   1.871  1.00  0.00    -0.376 OA
BRANCH  33  34
ATOM     34  C   UNL     1       3.094   0.179   1.998  1.00  0.00     0.188 C 
BRANCH  34  35
ATOM     35  C   UNL     1       2.310   1.385   2.535  1.00  0.00     0.188 C 
BRANCH  35  36
ATOM     36  O   UNL     1       2.992   2.594   2.821  1.00  0.00    -0.376 OA
BRANCH  36  37
ATOM     37  C   UNL     1       4.263   2.546   3.454  1.00  0.00     0.202 C 
BRANCH  37  38
ATOM     38  C   UNL     1       4.442   1.732   4.751  1.00  0.00     0.261 C 
BRANCH  38  39
ATOM     39  O   UNL     1       4.089   0.330   4.692  1.00  0.00    -0.460 OA
BRANCH  39  40
ATOM     40  C   UNL     1       2.995  -0.045   5.395  1.00  0.00     0.338 C 
ATOM     41  O   UNL     1       2.272   0.681   6.071  1.00  0.00    -0.246 OA
BRANCH  40  42
ATOM     42  C   UNL     1       2.652  -1.466   5.152  1.00  0.00     0.060 A 
ATOM     43  C   UNL     1       1.417  -1.770   4.557  1.00  0.00     0.016 A 
ATOM     44  C   UNL     1       3.473  -2.498   5.608  1.00  0.00     0.016 A 
ATOM     45  C   UNL     1       0.979  -3.096   4.459  1.00  0.00     0.010 A 
ATOM     46  C   UNL     1       3.020  -3.826   5.534  1.00  0.00     0.010 A 
ATOM     47  C   UNL     1       1.751  -4.131   5.001  1.00  0.00    -0.014 A 
BRANCH  47  48
ATOM     48  C   UNL     1       1.131  -5.466   5.251  1.00  0.00     0.031 A 
ATOM     49  C   UNL     1       0.604  -5.755   6.639  1.00  0.00     0.074 A 
ATOM     50  C   UNL     1       1.006  -6.405   4.294  1.00  0.00     0.049 A 
ATOM     51  N   UNL     1       0.082  -6.854   7.130  1.00  0.00    -0.248 NA
ATOM     52  C   UNL     1       0.691  -4.651   7.608  1.00  0.00     0.031 C 
ATOM     53  C   UNL     1       1.425  -6.276   2.900  1.00  0.00     0.029 A 
ATOM     54  N   UNL     1       0.488  -7.678   4.369  1.00  0.00    -0.354 N 
ATOM     55  C   UNL     1      -0.201  -6.577   8.464  1.00  0.00     0.074 A 
ATOM     56  C   UNL     1       0.236  -5.220   8.713  1.00  0.00     0.031 C 
ATOM     57  C   UNL     1       1.165  -7.431   2.255  1.00  0.00     0.029 A 
ATOM     58  C   UNL     1       0.574  -8.383   3.193  1.00  0.00     0.049 A 
ATOM     59  H   UNL     1       0.092  -8.049   5.191  1.00  0.00     0.167 HD
ATOM     60  C   UNL     1      -0.776  -7.373   9.399  1.00  0.00     0.037 A 
ATOM     61  C   UNL     1       0.232  -9.657   2.921  1.00  0.00     0.037 A 
ATOM     62  C   UNL     1      -1.217  -8.723   9.166  1.00  0.00     0.049 A 
ATOM     63  C   UNL     1      -0.344 -10.540   3.996  1.00  0.00     0.074 A 
ATOM     64  C   UNL     1      -1.845  -9.592  10.043  1.00  0.00     0.029 A 
ATOM     65  N   UNL     1      -1.063  -9.409   7.972  1.00  0.00    -0.354 N 
ATOM     66  N   UNL     1      -0.595 -10.276   5.252  1.00  0.00    -0.248 NA
ATOM     67  C   UNL     1      -0.688 -11.914   3.592  1.00  0.00     0.031 C 
ATOM     68  C   UNL     1      -2.008 -10.825   9.403  1.00  0.00     0.029 A 
ATOM     69  C   UNL     1      -1.553 -10.700   8.101  1.00  0.00     0.049 A 
ATOM     70  H   UNL     1      -0.665  -9.035   7.152  1.00  0.00     0.167 HD
ATOM     71  C   UNL     1      -1.137 -11.439   5.783  1.00  0.00     0.074 A 
ATOM     72  C   UNL     1      -1.186 -12.411   4.713  1.00  0.00     0.031 C 
ATOM     73  C   UNL     1      -1.571 -11.676   7.044  1.00  0.00     0.037 A 
BRANCH  60  74
ATOM     74  C   UNL     1      -0.924  -6.813  10.787  1.00  0.00     0.064 A 
ATOM     75  C   UNL     1      -1.807  -5.761  11.077  1.00  0.00     0.173 A 
ATOM     76  C   UNL     1      -0.181  -7.354  11.849  1.00  0.00     0.173 A 
ATOM     77  F   UNL     1      -2.535  -5.202  10.100  1.00  0.00    -0.203 F 
ATOM     78  C   UNL     1      -1.908  -5.245  12.367  1.00  0.00     0.198 A 
ATOM     79  C   UNL     1      -0.314  -6.861  13.144  1.00  0.00     0.198 A 
ATOM     80  F   UNL     1       0.670  -8.368  11.632  1.00  0.00    -0.203 F 
ATOM     81  F   UNL     1      -2.709  -4.197  12.607  1.00  0.00    -0.200 F 
ATOM     82  C   UNL     1      -1.167  -5.799  13.400  1.00  0.00     0.200 A 
ATOM     83  F   UNL     1       0.389  -7.412  14.143  1.00  0.00    -0.200 F 
ATOM     84  F   UNL     1      -1.267  -5.303  14.640  1.00  0.00    -0.200 F 
ENDBRANCH  60  74
BRANCH  61  85
ATOM     85  C   UNL     1       0.443 -10.247   1.577  1.00  0.00     0.064 A 
ATOM     86  C   UNL     1      -0.593 -10.296   0.636  1.00  0.00     0.173 A 
ATOM     87  C   UNL     1       1.627 -10.937   1.292  1.00  0.00     0.173 A 
ATOM     88  F   UNL     1      -1.774  -9.725   0.911  1.00  0.00    -0.203 F 
ATOM     89  C   UNL     1      -0.446 -11.009  -0.553  1.00  0.00     0.198 A 
ATOM     90  C   UNL     1       1.770 -11.652   0.104  1.00  0.00     0.198 A 
ATOM     91  F   UNL     1       2.620 -10.961   2.193  1.00  0.00    -0.203 F 
ATOM     92  F   UNL     1      -1.468 -11.090  -1.415  1.00  0.00    -0.200 F 
ATOM     93  C   UNL     1       0.738 -11.681  -0.820  1.00  0.00     0.200 A 
ATOM     94  F   UNL     1       2.901 -12.329  -0.138  1.00  0.00    -0.200 F 
ATOM     95  F   UNL     1       0.875 -12.383  -1.953  1.00  0.00    -0.200 F 
ENDBRANCH  61  85
BRANCH  73  96
ATOM     96  C   UNL     1      -2.167 -13.026   7.323  1.00  0.00     0.064 A 
ATOM     97  C   UNL     1      -1.389 -14.194   7.346  1.00  0.00     0.173 A 
ATOM     98  C   UNL     1      -3.544 -13.152   7.564  1.00  0.00     0.173 A 
ATOM     99  F   UNL     1      -0.072 -14.133   7.099  1.00  0.00    -0.203 F 
ATOM    100  C   UNL     1      -1.974 -15.440   7.563  1.00  0.00     0.198 A 
ATOM    101  C   UNL     1      -4.119 -14.395   7.816  1.00  0.00     0.198 A 
ATOM    102  F   UNL     1      -4.335 -12.069   7.552  1.00  0.00    -0.203 F 
ATOM    103  F   UNL     1      -1.222 -16.548   7.513  1.00  0.00    -0.200 F 
ATOM    104  C   UNL     1      -3.336 -15.538   7.803  1.00  0.00     0.200 A 
ATOM    105  F   UNL     1      -5.434 -14.486   8.058  1.00  0.00    -0.200 F 
ATOM    106  F   UNL     1      -3.897 -16.738   8.010  1.00  0.00    -0.200 F 
ENDBRANCH  73  96
ENDBRANCH  47  48
ENDBRANCH  40  42
ENDBRANCH  39  40
ENDBRANCH  38  39
ENDBRANCH  37  38
ENDBRANCH  36  37
ENDBRANCH  35  36
ENDBRANCH  34  35
ENDBRANCH  33  34
ENDBRANCH   1  33
TORSDOF 23
