REMARK SMILES COc1ccc2c(c1)c(CC(=O)OCCOCCOCCOC(=O)c1ccc(-c3c4nc(c(-c5c(F)c(F)c(F)c(F)c5F)c5ccc([nH]5)c(-c5c(F)c(F)c(F)c(F)c5F)c5nc(c(-c6c(F)c(F)c(F)c(F)c6F)c6ccc3[nH]6)C=C5)C=C4)cc1)c(C)n2Cc1ccn(C(F)F)c(=O)c1
REMARK SMILES IDX 17 1 16 2 15 3 14 4 13 5 11 6 12 7 10 8 9 9 3 10 4 11 8 12
REMARK SMILES IDX 5 13 7 14 6 15 90 16 88 17 89 18 2 19 1 20 91 21 92 22 93 23
REMARK SMILES IDX 101 24 94 25 99 26 95 27 100 28 96 29 97 30 98 31 18 32
REMARK SMILES IDX 19 33 20 34 21 35 22 36 23 37 24 38 25 39 26 40 87 41 27 42
REMARK SMILES IDX 86 43 28 44 29 45 30 46 80 47 31 48 85 49 79 50 81 51 32 52
REMARK SMILES IDX 84 53 78 54 77 55 33 57 65 58 45 59 64 60 46 61 49 62 63 63
REMARK SMILES IDX 82 64 47 65 48 66 62 68 83 69 50 70 34 71 35 72 43 73 36 74
REMARK SMILES IDX 37 75 41 76 44 77 38 78 39 79 42 80 40 81 66 82 67 83 75 84
REMARK SMILES IDX 68 85 69 86 73 87 76 88 70 89 71 90 74 91 72 92 51 93 52 94
REMARK SMILES IDX 60 95 53 96 54 97 58 98 61 99 55 100 56 101 59 102 57 103
REMARK H PARENT 81 56 49 67
REMARK Flexibility Score: inf
ROOT
ATOM      1  C   UNL     1      -1.998   1.061  -5.443  1.00  0.00     0.188 C 
ENDROOT
BRANCH   1   2
ATOM      2  O   UNL     1      -2.468   1.121  -6.772  1.00  0.00    -0.376 OA
BRANCH   2   3
ATOM      3  C   UNL     1      -1.588   1.508  -7.804  1.00  0.00     0.202 C 
BRANCH   3   4
ATOM      4  C   UNL     1      -1.313   3.011  -7.899  1.00  0.00     0.261 C 
BRANCH   4   5
ATOM      5  O   UNL     1      -0.563   3.561  -6.777  1.00  0.00    -0.463 OA
BRANCH   5   6
ATOM      6  C   UNL     1      -1.341   4.227  -5.897  1.00  0.00     0.310 C 
ATOM      7  O   UNL     1      -2.533   4.408  -6.151  1.00  0.00    -0.252 OA
BRANCH   6   8
ATOM      8  C   UNL     1      -0.802   4.636  -4.529  1.00  0.00     0.160 C 
BRANCH   8   9
ATOM      9  C   UNL     1       0.627   4.819  -4.094  1.00  0.00    -0.008 A 
ATOM     10  C   UNL     1       2.256   2.130  -1.834  1.00  0.00     0.119 A 
ATOM     11  C   UNL     1       3.463   2.774  -1.650  1.00  0.00     0.048 A 
ATOM     12  C   UNL     1       1.281   2.716  -2.646  1.00  0.00     0.057 A 
ATOM     13  C   UNL     1       3.684   4.029  -2.236  1.00  0.00     0.031 A 
ATOM     14  C   UNL     1       1.452   3.967  -3.266  1.00  0.00     0.007 A 
ATOM     15  C   UNL     1       2.656   4.621  -3.004  1.00  0.00     0.049 A 
ATOM     16  N   UNL     1       2.559   5.841  -3.637  1.00  0.00    -0.340 N 
ATOM     17  C   UNL     1       1.252   6.059  -4.021  1.00  0.00     0.020 A 
ATOM     18  C   UNL     1       0.651   7.404  -4.245  1.00  0.00     0.065 C 
BRANCH  10  19
ATOM     19  O   UNL     1       1.988   0.880  -1.350  1.00  0.00    -0.497 OA
ATOM     20  C   UNL     1       2.120   0.751   0.066  1.00  0.00     0.278 C 
ENDBRANCH  10  19
BRANCH  16  21
ATOM     21  C   UNL     1       3.683   6.723  -3.935  1.00  0.00     0.158 C 
BRANCH  21  22
ATOM     22  C   UNL     1       3.965   6.677  -5.417  1.00  0.00    -0.021 A 
ATOM     23  C   UNL     1       3.206   7.552  -6.287  1.00  0.00     0.024 A 
ATOM     24  C   UNL     1       4.800   5.777  -5.959  1.00  0.00     0.077 A 
ATOM     25  C   UNL     1       3.205   7.353  -7.610  1.00  0.00     0.095 A 
ATOM     26  C   UNL     1       4.901   5.615  -7.442  1.00  0.00     0.255 A 
ATOM     27  N   UNL     1       4.007   6.388  -8.180  1.00  0.00    -0.258 N 
ATOM     28  O   UNL     1       5.708   4.835  -7.889  1.00  0.00    -0.269 OA
BRANCH  27  29
ATOM     29  C   UNL     1       4.020   6.212  -9.608  1.00  0.00     0.451 C 
ATOM     30  F   UNL     1       5.181   6.668 -10.135  1.00  0.00    -0.185 F 
ATOM     31  F   UNL     1       3.879   4.910  -9.954  1.00  0.00    -0.185 F 
ENDBRANCH  27  29
ENDBRANCH  21  22
ENDBRANCH  16  21
ENDBRANCH   8   9
ENDBRANCH   6   8
ENDBRANCH   5   6
ENDBRANCH   4   5
ENDBRANCH   3   4
ENDBRANCH   2   3
ENDBRANCH   1   2
BRANCH   1  32
ATOM     32  C   UNL     1      -0.524   1.224  -5.050  1.00  0.00     0.188 C 
BRANCH  32  33
ATOM     33  O   UNL     1       0.496   0.601  -5.789  1.00  0.00    -0.376 OA
BRANCH  33  34
ATOM     34  C   UNL     1       0.524  -0.816  -5.754  1.00  0.00     0.202 C 
BRANCH  34  35
ATOM     35  C   UNL     1       0.327  -1.505  -4.382  1.00  0.00     0.261 C 
BRANCH  35  36
ATOM     36  O   UNL     1      -0.981  -1.228  -3.804  1.00  0.00    -0.460 OA
BRANCH  36  37
ATOM     37  C   UNL     1      -1.034  -1.091  -2.445  1.00  0.00     0.338 C 
ATOM     38  O   UNL     1      -0.247  -1.583  -1.654  1.00  0.00    -0.246 OA
BRANCH  37  39
ATOM     39  C   UNL     1      -1.952   0.052  -2.099  1.00  0.00     0.060 A 
ATOM     40  C   UNL     1      -3.239   0.250  -2.606  1.00  0.00     0.016 A 
ATOM     41  C   UNL     1      -1.368   1.099  -1.392  1.00  0.00     0.016 A 
ATOM     42  C   UNL     1      -3.854   1.532  -2.533  1.00  0.00     0.010 A 
ATOM     43  C   UNL     1      -1.925   2.384  -1.413  1.00  0.00     0.010 A 
ATOM     44  C   UNL     1      -3.164   2.641  -2.014  1.00  0.00    -0.014 A 
BRANCH  44  45
ATOM     45  C   UNL     1      -3.781   3.961  -1.708  1.00  0.00     0.031 A 
ATOM     46  C   UNL     1      -4.401   3.946  -0.385  1.00  0.00     0.074 A 
ATOM     47  C   UNL     1      -3.883   5.154  -2.347  1.00  0.00     0.049 A 
ATOM     48  N   UNL     1      -5.669   3.782  -0.226  1.00  0.00    -0.248 NA
ATOM     49  C   UNL     1      -3.606   3.948   0.840  1.00  0.00     0.031 C 
ATOM     50  C   UNL     1      -3.568   5.441  -3.717  1.00  0.00     0.029 A 
ATOM     51  N   UNL     1      -4.308   6.397  -1.910  1.00  0.00    -0.354 N 
ATOM     52  C   UNL     1      -5.873   3.868   1.128  1.00  0.00     0.074 A 
ATOM     53  C   UNL     1      -4.571   3.771   1.745  1.00  0.00     0.031 C 
ATOM     54  C   UNL     1      -3.510   6.770  -3.964  1.00  0.00     0.029 A 
ATOM     55  C   UNL     1      -4.009   7.456  -2.782  1.00  0.00     0.049 A 
ATOM     56  H   UNL     1      -4.782   6.528  -1.057  1.00  0.00     0.167 HD
ATOM     57  C   UNL     1      -7.073   4.285   1.598  1.00  0.00     0.037 A 
ATOM     58  C   UNL     1      -4.553   8.698  -2.896  1.00  0.00     0.037 A 
ATOM     59  C   UNL     1      -8.109   4.229   0.591  1.00  0.00     0.049 A 
ATOM     60  C   UNL     1      -5.940   8.601  -2.412  1.00  0.00     0.074 A 
ATOM     61  C   UNL     1      -8.621   3.225  -0.212  1.00  0.00     0.029 A 
ATOM     62  N   UNL     1      -8.516   5.401   0.002  1.00  0.00    -0.354 N 
ATOM     63  N   UNL     1      -6.896   8.006  -3.067  1.00  0.00    -0.248 NA
ATOM     64  C   UNL     1      -6.172   8.810  -0.996  1.00  0.00     0.031 C 
ATOM     65  C   UNL     1      -8.908   3.842  -1.467  1.00  0.00     0.029 A 
ATOM     66  C   UNL     1      -8.606   5.198  -1.355  1.00  0.00     0.049 A 
ATOM     67  H   UNL     1      -8.710   6.244   0.472  1.00  0.00     0.167 HD
ATOM     68  C   UNL     1      -7.620   7.356  -2.083  1.00  0.00     0.074 A 
ATOM     69  C   UNL     1      -7.194   7.971  -0.829  1.00  0.00     0.031 C 
ATOM     70  C   UNL     1      -8.301   6.205  -2.351  1.00  0.00     0.037 A 
BRANCH  57  71
ATOM     71  C   UNL     1      -7.181   5.048   2.876  1.00  0.00     0.064 A 
ATOM     72  C   UNL     1      -8.411   5.122   3.540  1.00  0.00     0.173 A 
ATOM     73  C   UNL     1      -6.154   5.886   3.365  1.00  0.00     0.173 A 
ATOM     74  F   UNL     1      -9.465   4.419   3.100  1.00  0.00    -0.203 F 
ATOM     75  C   UNL     1      -8.597   5.974   4.630  1.00  0.00     0.198 A 
ATOM     76  C   UNL     1      -6.320   6.682   4.492  1.00  0.00     0.198 A 
ATOM     77  F   UNL     1      -4.993   6.040   2.712  1.00  0.00    -0.203 F 
ATOM     78  F   UNL     1      -9.811   6.087   5.183  1.00  0.00    -0.200 F 
ATOM     79  C   UNL     1      -7.549   6.740   5.114  1.00  0.00     0.200 A 
ATOM     80  F   UNL     1      -5.301   7.437   4.923  1.00  0.00    -0.200 F 
ATOM     81  F   UNL     1      -7.735   7.574   6.144  1.00  0.00    -0.200 F 
ENDBRANCH  57  71
BRANCH  58  82
ATOM     82  C   UNL     1      -3.849   9.998  -3.075  1.00  0.00     0.064 A 
ATOM     83  C   UNL     1      -4.562  11.195  -3.281  1.00  0.00     0.173 A 
ATOM     84  C   UNL     1      -2.471  10.136  -2.828  1.00  0.00     0.173 A 
ATOM     85  F   UNL     1      -5.880  11.163  -3.522  1.00  0.00    -0.203 F 
ATOM     86  C   UNL     1      -3.947  12.450  -3.186  1.00  0.00     0.198 A 
ATOM     87  C   UNL     1      -1.856  11.389  -2.737  1.00  0.00     0.198 A 
ATOM     88  F   UNL     1      -1.711   9.058  -2.597  1.00  0.00    -0.203 F 
ATOM     89  F   UNL     1      -4.676  13.567  -3.327  1.00  0.00    -0.200 F 
ATOM     90  C   UNL     1      -2.597  12.546  -2.896  1.00  0.00     0.200 A 
ATOM     91  F   UNL     1      -0.549  11.470  -2.445  1.00  0.00    -0.200 F 
ATOM     92  F   UNL     1      -2.019  13.746  -2.741  1.00  0.00    -0.200 F 
ENDBRANCH  58  82
BRANCH  70  93
ATOM     93  C   UNL     1      -8.552   5.848  -3.798  1.00  0.00     0.064 A 
ATOM     94  C   UNL     1      -7.545   5.572  -4.739  1.00  0.00     0.173 A 
ATOM     95  C   UNL     1      -9.876   5.653  -4.216  1.00  0.00     0.173 A 
ATOM     96  F   UNL     1      -6.255   5.668  -4.408  1.00  0.00    -0.203 F 
ATOM     97  C   UNL     1      -7.847   5.141  -6.032  1.00  0.00     0.198 A 
ATOM     98  C   UNL     1     -10.177   5.193  -5.497  1.00  0.00     0.198 A 
ATOM     99  F   UNL     1     -10.887   5.871  -3.360  1.00  0.00    -0.203 F 
ATOM    100  F   UNL     1      -6.862   4.890  -6.908  1.00  0.00    -0.200 F 
ATOM    101  C   UNL     1      -9.164   4.940  -6.407  1.00  0.00     0.200 A 
ATOM    102  F   UNL     1     -11.453   4.970  -5.842  1.00  0.00    -0.200 F 
ATOM    103  F   UNL     1      -9.456   4.484  -7.633  1.00  0.00    -0.200 F 
ENDBRANCH  70  93
ENDBRANCH  44  45
ENDBRANCH  37  39
ENDBRANCH  36  37
ENDBRANCH  35  36
ENDBRANCH  34  35
ENDBRANCH  33  34
ENDBRANCH  32  33
ENDBRANCH   1  32
TORSDOF 22
