REMARK SMILES CC(=O)OCC1=C(C(=O)OCCOCCOCCOC(=O)c2ccc(-c3c4nc(c(-c5c(F)c(F)c(F)c(F)c5F)c5ccc([nH]5)c(-c5c(F)c(F)c(F)c(F)c5F)c5nc(c(-c6c(F)c(F)c(F)c(F)c6F)c6ccc3[nH]6)C=C5)C=C4)cc2)N2C(=O)[C@H](NC(=O)C3CCCCC3)[C@@H]2SC1
REMARK SMILES IDX 14 1 13 2 12 3 11 4 10 5 8 6 9 7 7 8 6 9 100 10 85 11 99 12
REMARK SMILES IDX 86 13 98 14 87 15 88 16 5 17 4 18 2 19 1 20 3 21 89 22 90 23
REMARK SMILES IDX 91 25 92 26 93 27 97 28 94 29 96 30 95 31 15 32 16 33 17 34
REMARK SMILES IDX 18 35 19 36 20 37 21 38 22 39 23 40 84 41 24 42 83 43 25 44
REMARK SMILES IDX 26 45 27 46 77 47 28 48 82 49 76 50 78 51 29 52 81 53 75 54
REMARK SMILES IDX 74 55 30 57 62 58 42 59 61 60 43 61 46 62 60 63 79 64 44 65
REMARK SMILES IDX 45 66 59 68 80 69 47 70 31 71 32 72 40 73 33 74 34 75 38 76
REMARK SMILES IDX 41 77 35 78 36 79 39 80 37 81 63 82 64 83 72 84 65 85 66 86
REMARK SMILES IDX 70 87 73 88 67 89 68 90 71 91 69 92 48 93 49 94 57 95 50 96
REMARK SMILES IDX 51 97 55 98 58 99 52 100 53 101 56 102 54 103
REMARK H PARENT 89 24 78 56 46 67
REMARK Flexibility Score: inf
ROOT
ATOM      1  C   UNL     1      -0.438   0.391   3.345  1.00  0.00     0.188 C 
ENDROOT
BRANCH   1   2
ATOM      2  O   UNL     1      -0.709   1.457   2.465  1.00  0.00    -0.376 OA
BRANCH   2   3
ATOM      3  C   UNL     1       0.177   1.689   1.382  1.00  0.00     0.202 C 
BRANCH   3   4
ATOM      4  C   UNL     1       1.020   0.580   0.722  1.00  0.00     0.261 C 
BRANCH   4   5
ATOM      5  O   UNL     1       0.979  -0.713   1.337  1.00  0.00    -0.459 OA
BRANCH   5   6
ATOM      6  C   UNL     1       2.140  -1.217   1.831  1.00  0.00     0.355 C 
ATOM      7  O   UNL     1       3.239  -0.692   1.775  1.00  0.00    -0.244 OA
BRANCH   6   8
ATOM      8  C   UNL     1       1.858  -2.515   2.537  1.00  0.00     0.134 C 
ATOM      9  C   UNL     1       1.330  -3.590   1.896  1.00  0.00     0.008 C 
ATOM     10  C   UNL     1       1.125  -4.941   2.559  1.00  0.00     0.108 C 
ATOM     11  N   UNL     1       2.171  -2.578   3.861  1.00  0.00    -0.289 N 
ATOM     12  S   UNL     1       2.199  -5.215   4.006  1.00  0.00    -0.129 SA
ATOM     13  C   UNL     1       2.694  -1.778   4.815  1.00  0.00     0.253 C 
ATOM     14  C   UNL     1       1.753  -3.638   4.754  1.00  0.00     0.181 C 
ATOM     15  O   UNL     1       2.995  -0.613   4.844  1.00  0.00    -0.272 OA
ATOM     16  C   UNL     1       2.710  -3.003   5.812  1.00  0.00     0.205 C 
BRANCH   9  17
ATOM     17  C   UNL     1       0.877  -3.572   0.446  1.00  0.00     0.267 C 
BRANCH  17  18
ATOM     18  O   UNL     1       1.851  -2.892  -0.349  1.00  0.00    -0.461 OA
BRANCH  18  19
ATOM     19  C   UNL     1       1.353  -2.155  -1.377  1.00  0.00     0.302 C 
ATOM     20  C   UNL     1       2.439  -1.298  -1.952  1.00  0.00     0.139 C 
ATOM     21  O   UNL     1       0.189  -2.142  -1.751  1.00  0.00    -0.253 OA
ENDBRANCH  18  19
ENDBRANCH  17  18
ENDBRANCH   9  17
BRANCH  16  22
ATOM     22  N   UNL     1       4.037  -3.643   5.992  1.00  0.00    -0.342 N 
ATOM     23  C   UNL     1       4.633  -4.109   7.129  1.00  0.00     0.223 C 
ATOM     24  H   UNL     1       4.567  -3.747   5.168  1.00  0.00     0.164 HD
ATOM     25  O   UNL     1       5.725  -4.667   7.029  1.00  0.00    -0.275 OA
BRANCH  23  26
ATOM     26  C   UNL     1       3.951  -3.878   8.471  1.00  0.00     0.078 C 
ATOM     27  C   UNL     1       4.351  -4.960   9.484  1.00  0.00     0.013 C 
ATOM     28  C   UNL     1       4.323  -2.486   8.997  1.00  0.00     0.013 C 
ATOM     29  C   UNL     1       3.717  -4.702  10.849  1.00  0.00     0.001 C 
ATOM     30  C   UNL     1       3.725  -2.223  10.376  1.00  0.00     0.001 C 
ATOM     31  C   UNL     1       4.080  -3.318  11.376  1.00  0.00     0.000 C 
ENDBRANCH  23  26
ENDBRANCH  16  22
ENDBRANCH   6   8
ENDBRANCH   5   6
ENDBRANCH   4   5
ENDBRANCH   3   4
ENDBRANCH   2   3
ENDBRANCH   1   2
BRANCH   1  32
ATOM     32  C   UNL     1      -1.278  -0.879   3.065  1.00  0.00     0.188 C 
BRANCH  32  33
ATOM     33  O   UNL     1      -2.021  -1.004   1.862  1.00  0.00    -0.376 OA
BRANCH  33  34
ATOM     34  C   UNL     1      -2.927   0.035   1.497  1.00  0.00     0.202 C 
BRANCH  34  35
ATOM     35  C   UNL     1      -3.937   0.586   2.523  1.00  0.00     0.261 C 
BRANCH  35  36
ATOM     36  O   UNL     1      -3.369   0.978   3.785  1.00  0.00    -0.460 OA
BRANCH  36  37
ATOM     37  C   UNL     1      -3.739   0.232   4.855  1.00  0.00     0.338 C 
ATOM     38  O   UNL     1      -4.551  -0.677   4.882  1.00  0.00    -0.246 OA
BRANCH  37  39
ATOM     39  C   UNL     1      -2.807   0.494   5.973  1.00  0.00     0.060 A 
ATOM     40  C   UNL     1      -2.092  -0.597   6.497  1.00  0.00     0.016 A 
ATOM     41  C   UNL     1      -2.616   1.777   6.486  1.00  0.00     0.016 A 
ATOM     42  C   UNL     1      -1.197  -0.412   7.546  1.00  0.00     0.010 A 
ATOM     43  C   UNL     1      -1.749   1.956   7.569  1.00  0.00     0.010 A 
ATOM     44  C   UNL     1      -1.062   0.858   8.120  1.00  0.00    -0.014 A 
BRANCH  44  45
ATOM     45  C   UNL     1      -0.418   0.973   9.449  1.00  0.00     0.031 A 
ATOM     46  C   UNL     1      -1.301   0.857  10.662  1.00  0.00     0.074 A 
ATOM     47  C   UNL     1       0.908   1.140   9.584  1.00  0.00     0.049 A 
ATOM     48  N   UNL     1      -0.993   0.939  11.930  1.00  0.00    -0.248 NA
ATOM     49  C   UNL     1      -2.729   0.610  10.403  1.00  0.00     0.031 C 
ATOM     50  C   UNL     1       1.871   1.215   8.489  1.00  0.00     0.029 A 
ATOM     51  N   UNL     1       1.669   1.286  10.717  1.00  0.00    -0.354 N 
ATOM     52  C   UNL     1      -2.187   0.759  12.616  1.00  0.00     0.074 A 
ATOM     53  C   UNL     1      -3.228   0.589  11.628  1.00  0.00     0.031 C 
ATOM     54  C   UNL     1       3.097   1.417   9.004  1.00  0.00     0.029 A 
ATOM     55  C   UNL     1       2.999   1.508  10.460  1.00  0.00     0.049 A 
ATOM     56  H   UNL     1       1.297   1.235  11.627  1.00  0.00     0.167 HD
ATOM     57  C   UNL     1      -2.397   0.732  13.953  1.00  0.00     0.037 A 
ATOM     58  C   UNL     1       4.012   1.768  11.311  1.00  0.00     0.037 A 
ATOM     59  C   UNL     1      -1.364   0.920  14.934  1.00  0.00     0.049 A 
ATOM     60  C   UNL     1       3.740   1.810  12.796  1.00  0.00     0.074 A 
ATOM     61  C   UNL     1      -1.470   0.906  16.313  1.00  0.00     0.029 A 
ATOM     62  N   UNL     1      -0.033   1.172  14.636  1.00  0.00    -0.354 N 
ATOM     63  N   UNL     1       2.616   1.604  13.441  1.00  0.00    -0.248 NA
ATOM     64  C   UNL     1       4.881   2.117  13.670  1.00  0.00     0.031 C 
ATOM     65  C   UNL     1      -0.213   1.206  16.849  1.00  0.00     0.029 A 
ATOM     66  C   UNL     1       0.689   1.343  15.805  1.00  0.00     0.049 A 
ATOM     67  H   UNL     1       0.343   1.222  13.727  1.00  0.00     0.167 HD
ATOM     68  C   UNL     1       2.921   1.725  14.792  1.00  0.00     0.074 A 
ATOM     69  C   UNL     1       4.338   2.008  14.875  1.00  0.00     0.031 C 
ATOM     70  C   UNL     1       2.103   1.612  15.869  1.00  0.00     0.037 A 
BRANCH  57  71
ATOM     71  C   UNL     1      -3.807   0.527  14.424  1.00  0.00     0.064 A 
ATOM     72  C   UNL     1      -4.462  -0.705  14.281  1.00  0.00     0.173 A 
ATOM     73  C   UNL     1      -4.507   1.576  15.039  1.00  0.00     0.173 A 
ATOM     74  F   UNL     1      -3.843  -1.733  13.681  1.00  0.00    -0.203 F 
ATOM     75  C   UNL     1      -5.776  -0.872  14.711  1.00  0.00     0.198 A 
ATOM     76  C   UNL     1      -5.810   1.397  15.496  1.00  0.00     0.198 A 
ATOM     77  F   UNL     1      -3.928   2.775  15.197  1.00  0.00    -0.203 F 
ATOM     78  F   UNL     1      -6.400  -2.042  14.516  1.00  0.00    -0.200 F 
ATOM     79  C   UNL     1      -6.446   0.176  15.325  1.00  0.00     0.200 A 
ATOM     80  F   UNL     1      -6.452   2.408  16.097  1.00  0.00    -0.200 F 
ATOM     81  F   UNL     1      -7.708   0.013  15.742  1.00  0.00    -0.200 F 
ENDBRANCH  57  71
BRANCH  58  82
ATOM     82  C   UNL     1       5.383   2.010  10.788  1.00  0.00     0.064 A 
ATOM     83  C   UNL     1       6.427   1.109  11.044  1.00  0.00     0.173 A 
ATOM     84  C   UNL     1       5.687   3.164  10.051  1.00  0.00     0.173 A 
ATOM     85  F   UNL     1       6.196   0.006  11.772  1.00  0.00    -0.203 F 
ATOM     86  C   UNL     1       7.725   1.365  10.604  1.00  0.00     0.198 A 
ATOM     87  C   UNL     1       6.978   3.404   9.585  1.00  0.00     0.198 A 
ATOM     88  F   UNL     1       4.727   4.063   9.786  1.00  0.00    -0.203 F 
ATOM     89  F   UNL     1       8.714   0.516  10.915  1.00  0.00    -0.200 F 
ATOM     90  C   UNL     1       7.998   2.509   9.870  1.00  0.00     0.200 A 
ATOM     91  F   UNL     1       7.237   4.509   8.873  1.00  0.00    -0.200 F 
ATOM     92  F   UNL     1       9.247   2.758   9.453  1.00  0.00    -0.200 F 
ENDBRANCH  58  82
BRANCH  70  93
ATOM     93  C   UNL     1       2.722   1.749  17.231  1.00  0.00     0.064 A 
ATOM     94  C   UNL     1       3.183   2.982  17.715  1.00  0.00     0.173 A 
ATOM     95  C   UNL     1       2.807   0.637  18.085  1.00  0.00     0.173 A 
ATOM     96  F   UNL     1       3.134   4.074  16.936  1.00  0.00    -0.203 F 
ATOM     97  C   UNL     1       3.731   3.092  18.991  1.00  0.00     0.198 A 
ATOM     98  C   UNL     1       3.325   0.757  19.371  1.00  0.00     0.198 A 
ATOM     99  F   UNL     1       2.370  -0.564  17.677  1.00  0.00    -0.203 F 
ATOM    100  F   UNL     1       4.210   4.270  19.413  1.00  0.00    -0.200 F 
ATOM    101  C   UNL     1       3.794   1.982  19.820  1.00  0.00     0.200 A 
ATOM    102  F   UNL     1       3.366  -0.312  20.177  1.00  0.00    -0.200 F 
ATOM    103  F   UNL     1       4.312   2.092  21.051  1.00  0.00    -0.200 F 
ENDBRANCH  70  93
ENDBRANCH  44  45
ENDBRANCH  37  39
ENDBRANCH  36  37
ENDBRANCH  35  36
ENDBRANCH  34  35
ENDBRANCH  33  34
ENDBRANCH  32  33
ENDBRANCH   1  32
TORSDOF 22
