REMARK SMILES CC(C)(C)c1cc(Nc2ccccc2C(=O)OCCOCCOCCOC(=O)c2ccc(-c3c4nc(c(-c5c(F)c(F)c(F)c(F)c5F)c5ccc([nH]5)c(-c5c(F)c(F)c(F)c(F)c5F)c5nc(c(-c6c(F)c(F)c(F)c(F)c6F)c6ccc3[nH]6)C=C5)C=C4)cc2)cc2c1OCC2(C)C
REMARK SMILES IDX 21 1 20 2 19 3 18 4 17 5 15 6 16 7 14 8 9 9 10 10 11 11
REMARK SMILES IDX 13 12 12 13 8 14 7 16 5 17 6 18 94 19 93 20 95 21 92 22
REMARK SMILES IDX 97 23 96 24 98 25 99 26 2 27 1 28 3 29 4 30 22 31 23 32
REMARK SMILES IDX 24 33 25 34 26 35 27 36 28 37 29 38 30 39 91 40 31 41 90 42
REMARK SMILES IDX 32 43 33 44 34 45 84 46 35 47 89 48 83 49 85 50 36 51 88 52
REMARK SMILES IDX 82 53 81 54 37 56 69 57 49 58 68 59 50 60 53 61 67 62 86 63
REMARK SMILES IDX 51 64 52 65 66 67 87 68 54 69 38 70 39 71 47 72 40 73 41 74
REMARK SMILES IDX 45 75 48 76 42 77 43 78 46 79 44 80 70 81 71 82 79 83 72 84
REMARK SMILES IDX 73 85 77 86 80 87 74 88 75 89 78 90 76 91 55 92 56 93 64 94
REMARK SMILES IDX 57 95 58 96 62 97 65 98 59 99 60 100 63 101 61 102
REMARK H PARENT 8 15 85 55 53 66
REMARK Flexibility Score: inf
ROOT
ATOM      1  C   UNL     1      -1.337   4.480   7.752  1.00  0.00     0.188 C 
ENDROOT
BRANCH   1   2
ATOM      2  O   UNL     1      -2.348   5.371   7.307  1.00  0.00    -0.376 OA
BRANCH   2   3
ATOM      3  C   UNL     1      -2.324   5.862   5.973  1.00  0.00     0.202 C 
BRANCH   3   4
ATOM      4  C   UNL     1      -1.040   6.467   5.385  1.00  0.00     0.261 C 
BRANCH   4   5
ATOM      5  O   UNL     1       0.134   5.651   5.532  1.00  0.00    -0.460 OA
BRANCH   5   6
ATOM      6  C   UNL     1       1.102   6.160   6.334  1.00  0.00     0.340 C 
ATOM      7  O   UNL     1       1.097   7.266   6.853  1.00  0.00    -0.246 OA
BRANCH   6   8
ATOM      8  C   UNL     1       2.121   5.137   6.684  1.00  0.00     0.083 A 
ATOM      9  C   UNL     1       2.631   4.167   5.801  1.00  0.00     0.053 A 
ATOM     10  C   UNL     1       3.680   3.354   6.274  1.00  0.00     0.027 A 
ATOM     11  C   UNL     1       4.085   3.369   7.611  1.00  0.00     0.002 A 
ATOM     12  C   UNL     1       2.538   5.152   8.033  1.00  0.00     0.018 A 
ATOM     13  C   UNL     1       3.484   4.244   8.503  1.00  0.00     0.001 A 
BRANCH   9  14
ATOM     14  N   UNL     1       2.029   3.878   4.552  1.00  0.00    -0.355 N 
ATOM     15  H   UNL     1       1.798   4.658   3.998  1.00  0.00     0.167 HD
BRANCH  14  16
ATOM     16  C   UNL     1       1.715   2.612   3.994  1.00  0.00     0.039 A 
ATOM     17  C   UNL     1       1.008   1.284   2.007  1.00  0.00     0.002 A 
ATOM     18  C   UNL     1       1.278   2.522   2.654  1.00  0.00     0.034 A 
ATOM     19  C   UNL     1       1.218   0.141   2.782  1.00  0.00     0.127 A 
ATOM     20  C   UNL     1       1.653   0.208   4.094  1.00  0.00     0.006 A 
ATOM     21  O   UNL     1       1.026  -1.149   2.365  1.00  0.00    -0.492 OA
ATOM     22  C   UNL     1       1.876   1.425   4.710  1.00  0.00     0.034 A 
ATOM     23  C   UNL     1       1.863  -1.151   4.668  1.00  0.00     0.028 C 
ATOM     24  C   UNL     1       1.387  -2.001   3.476  1.00  0.00     0.240 C 
ATOM     25  C   UNL     1       3.347  -1.387   4.977  1.00  0.00     0.020 C 
ATOM     26  C   UNL     1       1.016  -1.398   5.920  1.00  0.00     0.020 C 
BRANCH  17  27
ATOM     27  C   UNL     1       0.464   1.237   0.567  1.00  0.00    -0.009 C 
ATOM     28  C   UNL     1       0.923  -0.006  -0.232  1.00  0.00     0.016 C 
ATOM     29  C   UNL     1       0.901   2.462  -0.273  1.00  0.00     0.016 C 
ATOM     30  C   UNL     1      -1.077   1.227   0.640  1.00  0.00     0.016 C 
ENDBRANCH  17  27
ENDBRANCH  14  16
ENDBRANCH   9  14
ENDBRANCH   6   8
ENDBRANCH   5   6
ENDBRANCH   4   5
ENDBRANCH   3   4
ENDBRANCH   2   3
ENDBRANCH   1   2
BRANCH   1  31
ATOM     31  C   UNL     1      -0.957   3.239   6.918  1.00  0.00     0.188 C 
BRANCH  31  32
ATOM     32  O   UNL     1      -1.583   3.139   5.665  1.00  0.00    -0.376 OA
BRANCH  32  33
ATOM     33  C   UNL     1      -2.785   2.407   5.511  1.00  0.00     0.202 C 
BRANCH  33  34
ATOM     34  C   UNL     1      -3.702   1.919   6.651  1.00  0.00     0.261 C 
BRANCH  34  35
ATOM     35  O   UNL     1      -3.365   2.258   7.996  1.00  0.00    -0.460 OA
BRANCH  35  36
ATOM     36  C   UNL     1      -2.794   1.276   8.736  1.00  0.00     0.338 C 
ATOM     37  O   UNL     1      -2.473   0.158   8.370  1.00  0.00    -0.246 OA
BRANCH  36  38
ATOM     38  C   UNL     1      -2.444   1.845  10.052  1.00  0.00     0.060 A 
ATOM     39  C   UNL     1      -3.442   2.349  10.886  1.00  0.00     0.016 A 
ATOM     40  C   UNL     1      -1.098   1.892  10.440  1.00  0.00     0.016 A 
ATOM     41  C   UNL     1      -3.089   2.892  12.123  1.00  0.00     0.010 A 
ATOM     42  C   UNL     1      -0.748   2.443  11.675  1.00  0.00     0.010 A 
ATOM     43  C   UNL     1      -1.743   2.933  12.532  1.00  0.00    -0.014 A 
BRANCH  43  44
ATOM     44  C   UNL     1      -1.419   3.355  13.918  1.00  0.00     0.031 A 
ATOM     45  C   UNL     1      -0.864   4.711  14.227  1.00  0.00     0.074 A 
ATOM     46  C   UNL     1      -1.675   2.490  14.917  1.00  0.00     0.049 A 
ATOM     47  N   UNL     1      -0.689   5.278  15.395  1.00  0.00    -0.248 NA
ATOM     48  C   UNL     1      -0.443   5.533  13.086  1.00  0.00     0.031 C 
ATOM     49  C   UNL     1      -2.182   1.130  14.731  1.00  0.00     0.029 A 
ATOM     50  N   UNL     1      -1.576   2.630  16.277  1.00  0.00    -0.354 N 
ATOM     51  C   UNL     1      -0.176   6.540  15.131  1.00  0.00     0.074 A 
ATOM     52  C   UNL     1      -0.000   6.627  13.695  1.00  0.00     0.031 C 
ATOM     53  C   UNL     1      -2.404   0.580  15.933  1.00  0.00     0.029 A 
ATOM     54  C   UNL     1      -2.036   1.539  16.972  1.00  0.00     0.049 A 
ATOM     55  H   UNL     1      -1.212   3.434  16.713  1.00  0.00     0.167 HD
ATOM     56  C   UNL     1       0.091   7.540  16.007  1.00  0.00     0.037 A 
ATOM     57  C   UNL     1      -2.171   1.339  18.297  1.00  0.00     0.037 A 
ATOM     58  C   UNL     1      -0.062   7.434  17.438  1.00  0.00     0.049 A 
ATOM     59  C   UNL     1      -1.805   2.441  19.251  1.00  0.00     0.074 A 
ATOM     60  C   UNL     1       0.162   8.401  18.404  1.00  0.00     0.029 A 
ATOM     61  N   UNL     1      -0.462   6.288  18.112  1.00  0.00    -0.354 N 
ATOM     62  N   UNL     1      -1.404   3.661  18.989  1.00  0.00    -0.248 NA
ATOM     63  C   UNL     1      -1.916   2.140  20.685  1.00  0.00     0.031 C 
ATOM     64  C   UNL     1      -0.049   7.826  19.661  1.00  0.00     0.029 A 
ATOM     65  C   UNL     1      -0.459   6.515  19.480  1.00  0.00     0.049 A 
ATOM     66  H   UNL     1      -0.712   5.438  17.681  1.00  0.00     0.167 HD
ATOM     67  C   UNL     1      -1.233   4.279  20.220  1.00  0.00     0.074 A 
ATOM     68  C   UNL     1      -1.592   3.305  21.230  1.00  0.00     0.031 C 
ATOM     69  C   UNL     1      -0.814   5.541  20.483  1.00  0.00     0.037 A 
BRANCH  56  70
ATOM     70  C   UNL     1       0.557   8.853  15.446  1.00  0.00     0.064 A 
ATOM     71  C   UNL     1      -0.312   9.679  14.716  1.00  0.00     0.173 A 
ATOM     72  C   UNL     1       1.852   9.330  15.700  1.00  0.00     0.173 A 
ATOM     73  F   UNL     1      -1.562   9.272  14.447  1.00  0.00    -0.203 F 
ATOM     74  C   UNL     1       0.105  10.920  14.241  1.00  0.00     0.198 A 
ATOM     75  C   UNL     1       2.256  10.585  15.249  1.00  0.00     0.198 A 
ATOM     76  F   UNL     1       2.720   8.589  16.406  1.00  0.00    -0.203 F 
ATOM     77  F   UNL     1      -0.733  11.674  13.516  1.00  0.00    -0.200 F 
ATOM     78  C   UNL     1       1.385  11.375  14.515  1.00  0.00     0.200 A 
ATOM     79  F   UNL     1       3.487  11.032  15.533  1.00  0.00    -0.200 F 
ATOM     80  F   UNL     1       1.780  12.577  14.072  1.00  0.00    -0.200 F 
ENDBRANCH  56  70
BRANCH  57  81
ATOM     81  C   UNL     1      -2.747   0.060  18.784  1.00  0.00     0.064 A 
ATOM     82  C   UNL     1      -4.029   0.023  19.348  1.00  0.00     0.173 A 
ATOM     83  C   UNL     1      -2.053  -1.151  18.654  1.00  0.00     0.173 A 
ATOM     84  F   UNL     1      -4.724   1.159  19.506  1.00  0.00    -0.203 F 
ATOM     85  C   UNL     1      -4.595  -1.179  19.766  1.00  0.00     0.198 A 
ATOM     86  C   UNL     1      -2.631  -2.356  19.048  1.00  0.00     0.198 A 
ATOM     87  F   UNL     1      -0.825  -1.168  18.114  1.00  0.00    -0.203 F 
ATOM     88  F   UNL     1      -5.813  -1.184  20.326  1.00  0.00    -0.200 F 
ATOM     89  C   UNL     1      -3.900  -2.368  19.607  1.00  0.00     0.200 A 
ATOM     90  F   UNL     1      -1.964  -3.505  18.875  1.00  0.00    -0.200 F 
ATOM     91  F   UNL     1      -4.453  -3.526  19.993  1.00  0.00    -0.200 F 
ENDBRANCH  57  81
BRANCH  69  92
ATOM     92  C   UNL     1      -0.716   5.959  21.923  1.00  0.00     0.064 A 
ATOM     93  C   UNL     1       0.296   5.467  22.760  1.00  0.00     0.173 A 
ATOM     94  C   UNL     1      -1.590   6.923  22.449  1.00  0.00     0.173 A 
ATOM     95  F   UNL     1       1.148   4.532  22.311  1.00  0.00    -0.203 F 
ATOM     96  C   UNL     1       0.427   5.920  24.070  1.00  0.00     0.198 A 
ATOM     97  C   UNL     1      -1.438   7.396  23.750  1.00  0.00     0.198 A 
ATOM     98  F   UNL     1      -2.574   7.430  21.691  1.00  0.00    -0.203 F 
ATOM     99  F   UNL     1       1.384   5.414  24.860  1.00  0.00    -0.200 F 
ATOM    100  C   UNL     1      -0.432   6.892  24.560  1.00  0.00     0.200 A 
ATOM    101  F   UNL     1      -2.260   8.347  24.217  1.00  0.00    -0.200 F 
ATOM    102  F   UNL     1      -0.290   7.343  25.814  1.00  0.00    -0.200 F 
ENDBRANCH  69  92
ENDBRANCH  43  44
ENDBRANCH  36  38
ENDBRANCH  35  36
ENDBRANCH  34  35
ENDBRANCH  33  34
ENDBRANCH  32  33
ENDBRANCH  31  32
ENDBRANCH   1  31
TORSDOF 20
