REMARK SMILES COc1cccc(C(=O)N2CCC(C(=O)N3CC[N@H+](C)[C@@H](C(=O)OCCOCCOCCOC(=O)c4ccc(-c5c6nc(c(-c7c(F)c(F)c(F)c(F)c7F)c7ccc([nH]7)c(-c7c(F)c(F)c(F)c(F)c7F)c7nc(c(-c8c(F)c(F)c(F)c(F)c8F)c8ccc5[nH]8)C=C7)C=C6)cc4)C3)CC2)c1
REMARK SMILES IDX 28 1 27 2 26 3 25 4 24 5 22 6 23 7 21 8 16 9 17 10 99 11
REMARK SMILES IDX 18 12 19 13 20 14 14 16 15 17 13 18 8 19 9 20 10 21 11 22
REMARK SMILES IDX 101 23 12 24 100 25 7 26 3 27 4 28 102 29 5 30 6 31 2 32
REMARK SMILES IDX 1 33 29 34 30 35 31 36 32 37 33 38 34 39 35 40 36 41 37 42
REMARK SMILES IDX 98 43 38 44 97 45 39 46 40 47 41 48 91 49 42 50 96 51 90 52
REMARK SMILES IDX 92 53 43 54 95 55 89 56 88 57 44 59 76 60 56 61 75 62 57 63
REMARK SMILES IDX 60 64 74 65 93 66 58 67 59 68 73 70 94 71 61 72 45 73 46 74
REMARK SMILES IDX 54 75 47 76 48 77 52 78 55 79 49 80 50 81 53 82 51 83 77 84
REMARK SMILES IDX 78 85 86 86 79 87 80 88 84 89 87 90 81 91 82 92 85 93 83 94
REMARK SMILES IDX 62 95 63 96 71 97 64 98 65 99 69 100 72 101 66 102 67 103
REMARK SMILES IDX 70 104 68 105
REMARK H PARENT 19 15 92 58 60 69
REMARK Flexibility Score: inf
ROOT
ATOM      1  C   UNL     1       9.309   3.788   2.701  1.00  0.00     0.188 C 
ENDROOT
BRANCH   1   2
ATOM      2  O   UNL     1      10.328   4.778   2.736  1.00  0.00    -0.376 OA
BRANCH   2   3
ATOM      3  C   UNL     1      10.608   5.534   1.573  1.00  0.00     0.202 C 
BRANCH   3   4
ATOM      4  C   UNL     1      11.658   4.919   0.631  1.00  0.00     0.261 C 
BRANCH   4   5
ATOM      5  O   UNL     1      11.418   3.564   0.185  1.00  0.00    -0.459 OA
BRANCH   5   6
ATOM      6  C   UNL     1      11.929   2.587   0.985  1.00  0.00     0.366 C 
ATOM      7  O   UNL     1      12.513   2.812   2.044  1.00  0.00    -0.245 OA
BRANCH   6   8
ATOM      8  C   UNL     1      11.799   1.140   0.426  1.00  0.00     0.314 C 
ATOM      9  N   UNL     1      10.442   0.736  -1.761  1.00  0.00    -0.330 N 
ATOM     10  C   UNL     1      11.731   0.677  -2.459  1.00  0.00     0.181 C 
ATOM     11  C   UNL     1      10.503   0.622  -0.294  1.00  0.00     0.197 C 
ATOM     12  C   UNL     1      12.921   1.285  -1.702  1.00  0.00     0.284 C 
ATOM     13  N   UNL     1      13.058   0.855  -0.304  1.00  0.00    -0.323 N 
ATOM     14  C   UNL     1      13.470  -0.536  -0.164  1.00  0.00     0.333 C 
ATOM     15  H   UNL     1      13.817   1.394   0.114  1.00  0.00     0.348 HD
BRANCH   9  16
ATOM     16  C   UNL     1       9.331   0.388  -2.552  1.00  0.00     0.226 C 
ATOM     17  O   UNL     1       9.501  -0.005  -3.712  1.00  0.00    -0.275 OA
BRANCH  16  18
ATOM     18  C   UNL     1       7.889   0.569  -2.025  1.00  0.00     0.082 C 
ATOM     19  C   UNL     1       4.234   2.520  -3.188  1.00  0.00     0.253 C 
ATOM     20  O   UNL     1       4.476   3.663  -3.582  1.00  0.00    -0.269 OA
ATOM     21  N   UNL     1       5.229   1.736  -2.603  1.00  0.00    -0.339 N 
ATOM     22  C   UNL     1       6.165   2.416  -1.735  1.00  0.00     0.120 C 
ATOM     23  C   UNL     1       5.379   0.286  -2.676  1.00  0.00     0.120 C 
ATOM     24  C   UNL     1       7.615   2.070  -1.999  1.00  0.00     0.035 C 
ATOM     25  C   UNL     1       6.843  -0.110  -2.958  1.00  0.00     0.035 C 
BRANCH  19  26
ATOM     26  C   UNL     1       2.800   2.093  -3.189  1.00  0.00     0.043 A 
ATOM     27  C   UNL     1       0.907   0.966  -2.167  1.00  0.00     0.119 A 
ATOM     28  C   UNL     1       0.035   1.647  -3.019  1.00  0.00     0.046 A 
ATOM     29  C   UNL     1       2.286   1.190  -2.249  1.00  0.00     0.060 A 
ATOM     30  C   UNL     1       0.529   2.572  -3.935  1.00  0.00     0.005 A 
ATOM     31  C   UNL     1       1.905   2.793  -4.019  1.00  0.00     0.014 A 
BRANCH  27  32
ATOM     32  O   UNL     1       0.309   0.079  -1.313  1.00  0.00    -0.497 OA
ATOM     33  C   UNL     1       0.913  -0.037  -0.029  1.00  0.00     0.278 C 
ENDBRANCH  27  32
ENDBRANCH  19  26
ENDBRANCH  16  18
ENDBRANCH   9  16
ENDBRANCH   6   8
ENDBRANCH   5   6
ENDBRANCH   4   5
ENDBRANCH   3   4
ENDBRANCH   2   3
ENDBRANCH   1   2
BRANCH   1  34
ATOM     34  C   UNL     1       8.739   3.284   1.374  1.00  0.00     0.188 C 
BRANCH  34  35
ATOM     35  O   UNL     1       8.301   4.160   0.363  1.00  0.00    -0.376 OA
BRANCH  35  36
ATOM     36  C   UNL     1       7.188   5.010   0.538  1.00  0.00     0.202 C 
BRANCH  36  37
ATOM     37  C   UNL     1       5.923   4.522   1.252  1.00  0.00     0.261 C 
BRANCH  37  38
ATOM     38  O   UNL     1       6.163   3.759   2.441  1.00  0.00    -0.460 OA
BRANCH  38  39
ATOM     39  C   UNL     1       5.798   2.458   2.396  1.00  0.00     0.338 C 
ATOM     40  O   UNL     1       5.279   1.843   1.471  1.00  0.00    -0.246 OA
BRANCH  39  41
ATOM     41  C   UNL     1       6.264   1.787   3.611  1.00  0.00     0.060 A 
ATOM     42  C   UNL     1       7.166   0.715   3.514  1.00  0.00     0.016 A 
ATOM     43  C   UNL     1       5.740   2.182   4.838  1.00  0.00     0.016 A 
ATOM     44  C   UNL     1       7.525   0.012   4.661  1.00  0.00     0.010 A 
ATOM     45  C   UNL     1       6.091   1.471   5.979  1.00  0.00     0.010 A 
ATOM     46  C   UNL     1       6.958   0.367   5.891  1.00  0.00    -0.014 A 
BRANCH  46  47
ATOM     47  C   UNL     1       7.137  -0.481   7.088  1.00  0.00     0.031 A 
ATOM     48  C   UNL     1       6.006  -1.371   7.514  1.00  0.00     0.074 A 
ATOM     49  C   UNL     1       8.262  -0.399   7.817  1.00  0.00     0.049 A 
ATOM     50  N   UNL     1       5.862  -2.066   8.611  1.00  0.00    -0.248 NA
ATOM     51  C   UNL     1       4.874  -1.476   6.579  1.00  0.00     0.031 C 
ATOM     52  C   UNL     1       9.429   0.413   7.481  1.00  0.00     0.029 A 
ATOM     53  N   UNL     1       8.586  -0.985   9.013  1.00  0.00    -0.354 N 
ATOM     54  C   UNL     1       4.618  -2.675   8.509  1.00  0.00     0.074 A 
ATOM     55  C   UNL     1       4.035  -2.245   7.257  1.00  0.00     0.031 C 
ATOM     56  C   UNL     1      10.337   0.293   8.464  1.00  0.00     0.029 A 
ATOM     57  C   UNL     1       9.794  -0.566   9.514  1.00  0.00     0.049 A 
ATOM     58  H   UNL     1       8.011  -1.642   9.468  1.00  0.00     0.167 HD
ATOM     59  C   UNL     1       4.022  -3.518   9.384  1.00  0.00     0.037 A 
ATOM     60  C   UNL     1      10.371  -0.821  10.704  1.00  0.00     0.037 A 
ATOM     61  C   UNL     1       4.614  -3.932  10.630  1.00  0.00     0.049 A 
ATOM     62  C   UNL     1       9.657  -1.710  11.690  1.00  0.00     0.074 A 
ATOM     63  C   UNL     1       4.109  -4.804  11.578  1.00  0.00     0.029 A 
ATOM     64  N   UNL     1       5.840  -3.490  11.106  1.00  0.00    -0.354 N 
ATOM     65  N   UNL     1       8.496  -2.310  11.579  1.00  0.00    -0.248 NA
ATOM     66  C   UNL     1      10.337  -1.957  12.969  1.00  0.00     0.031 C 
ATOM     67  C   UNL     1       5.000  -4.841  12.655  1.00  0.00     0.029 A 
ATOM     68  C   UNL     1       6.095  -4.049  12.348  1.00  0.00     0.049 A 
ATOM     69  H   UNL     1       6.440  -2.870  10.632  1.00  0.00     0.167 HD
ATOM     70  C   UNL     1       8.324  -3.034  12.752  1.00  0.00     0.074 A 
ATOM     71  C   UNL     1       9.506  -2.805  13.558  1.00  0.00     0.031 C 
ATOM     72  C   UNL     1       7.284  -3.819  13.130  1.00  0.00     0.037 A 
BRANCH  59  73
ATOM     73  C   UNL     1       2.651  -4.025   9.040  1.00  0.00     0.064 A 
ATOM     74  C   UNL     1       2.436  -4.919   7.981  1.00  0.00     0.173 A 
ATOM     75  C   UNL     1       1.539  -3.635   9.803  1.00  0.00     0.173 A 
ATOM     76  F   UNL     1       3.461  -5.312   7.209  1.00  0.00    -0.203 F 
ATOM     77  C   UNL     1       1.157  -5.382   7.681  1.00  0.00     0.198 A 
ATOM     78  C   UNL     1       0.267  -4.126   9.521  1.00  0.00     0.198 A 
ATOM     79  F   UNL     1       1.687  -2.782  10.828  1.00  0.00    -0.203 F 
ATOM     80  F   UNL     1       0.969  -6.193   6.630  1.00  0.00    -0.200 F 
ATOM     81  C   UNL     1       0.075  -4.992   8.456  1.00  0.00     0.200 A 
ATOM     82  F   UNL     1      -0.774  -3.757  10.280  1.00  0.00    -0.200 F 
ATOM     83  F   UNL     1      -1.153  -5.444   8.171  1.00  0.00    -0.200 F 
ENDBRANCH  59  73
BRANCH  60  84
ATOM     84  C   UNL     1      11.690  -0.221  11.034  1.00  0.00     0.064 A 
ATOM     85  C   UNL     1      12.830  -1.023  11.173  1.00  0.00     0.173 A 
ATOM     86  C   UNL     1      11.836   1.161  11.232  1.00  0.00     0.173 A 
ATOM     87  F   UNL     1      12.736  -2.352  11.017  1.00  0.00    -0.203 F 
ATOM     88  C   UNL     1      14.061  -0.471  11.522  1.00  0.00     0.198 A 
ATOM     89  C   UNL     1      13.075   1.716  11.548  1.00  0.00     0.198 A 
ATOM     90  F   UNL     1      10.777   1.974  11.110  1.00  0.00    -0.203 F 
ATOM     91  F   UNL     1      15.122  -1.269  11.703  1.00  0.00    -0.200 F 
ATOM     92  C   UNL     1      14.184   0.898  11.703  1.00  0.00     0.200 A 
ATOM     93  F   UNL     1      13.191   3.041  11.709  1.00  0.00    -0.200 F 
ATOM     94  F   UNL     1      15.368   1.428  12.037  1.00  0.00    -0.200 F 
ENDBRANCH  60  84
BRANCH  72  95
ATOM     95  C   UNL     1       7.399  -4.534  14.447  1.00  0.00     0.064 A 
ATOM     96  C   UNL     1       7.338  -3.852  15.671  1.00  0.00     0.173 A 
ATOM     97  C   UNL     1       7.528  -5.932  14.482  1.00  0.00     0.173 A 
ATOM     98  F   UNL     1       7.228  -2.515  15.694  1.00  0.00    -0.203 F 
ATOM     99  C   UNL     1       7.434  -4.538  16.879  1.00  0.00     0.198 A 
ATOM    100  C   UNL     1       7.586  -6.618  15.692  1.00  0.00     0.198 A 
ATOM    101  F   UNL     1       7.582  -6.636  13.341  1.00  0.00    -0.203 F 
ATOM    102  F   UNL     1       7.428  -3.859  18.035  1.00  0.00    -0.200 F 
ATOM    103  C   UNL     1       7.548  -5.920  16.889  1.00  0.00     0.200 A 
ATOM    104  F   UNL     1       7.678  -7.955  15.698  1.00  0.00    -0.200 F 
ATOM    105  F   UNL     1       7.629  -6.579  18.053  1.00  0.00    -0.200 F 
ENDBRANCH  72  95
ENDBRANCH  46  47
ENDBRANCH  39  41
ENDBRANCH  38  39
ENDBRANCH  37  38
ENDBRANCH  36  37
ENDBRANCH  35  36
ENDBRANCH  34  35
ENDBRANCH   1  34
TORSDOF 21
