REMARK SMILES C[C@@H](C(=O)OCCOCCOCCOC(=O)c1ccc(-c2c3nc(c(-c4c(F)c(F)c(F)c(F)c4F)c4ccc([nH]4)c(-c4c(F)c(F)c(F)c(F)c4F)c4nc(c(-c5c(F)c(F)c(F)c(F)c5F)c5ccc2[nH]5)C=C4)C=C3)cc1)n1ccc(C(=O)N2CC[NH+](Cc3cccc(F)c3)CC2)n1
REMARK SMILES IDX 9 1 8 2 7 3 6 4 5 5 3 6 4 7 2 8 1 9 80 10 81 11 100 12 82 13
REMARK SMILES IDX 83 14 84 15 85 16 86 17 87 18 99 19 88 20 98 21 89 22 90 24
REMARK SMILES IDX 91 25 92 26 97 27 93 28 95 29 94 30 96 31 10 32 11 33 12 34
REMARK SMILES IDX 13 35 14 36 15 37 16 38 17 39 18 40 79 41 19 42 78 43 20 44
REMARK SMILES IDX 21 45 22 46 72 47 23 48 77 49 71 50 73 51 24 52 76 53 70 54
REMARK SMILES IDX 69 55 25 57 57 58 37 59 56 60 38 61 41 62 55 63 74 64 39 65
REMARK SMILES IDX 40 66 54 68 75 69 42 70 26 71 27 72 35 73 28 74 29 75 33 76
REMARK SMILES IDX 36 77 30 78 31 79 34 80 32 81 58 82 59 83 67 84 60 85 61 86
REMARK SMILES IDX 65 87 68 88 62 89 63 90 66 91 64 92 43 93 44 94 52 95 45 96
REMARK SMILES IDX 46 97 50 98 53 99 47 100 48 101 51 102 49 103
REMARK H PARENT 89 23 73 56 41 67
REMARK Flexibility Score: inf
ROOT
ATOM      1  C   UNL     1       0.283  -0.823   3.678  1.00  0.00     0.188 C 
ENDROOT
BRANCH   1   2
ATOM      2  O   UNL     1       0.938  -1.623   4.657  1.00  0.00    -0.376 OA
BRANCH   2   3
ATOM      3  C   UNL     1       2.240  -2.124   4.371  1.00  0.00     0.202 C 
BRANCH   3   4
ATOM      4  C   UNL     1       2.478  -2.844   3.031  1.00  0.00     0.261 C 
BRANCH   4   5
ATOM      5  O   UNL     1       2.029  -2.123   1.859  1.00  0.00    -0.462 OA
BRANCH   5   6
ATOM      6  C   UNL     1       1.213  -2.797   1.006  1.00  0.00     0.330 C 
ATOM      7  O   UNL     1       0.928  -3.985   1.140  1.00  0.00    -0.250 OA
BRANCH   6   8
ATOM      8  C   UNL     1       0.637  -1.952  -0.133  1.00  0.00     0.213 C 
ATOM      9  C   UNL     1       1.405  -0.689  -0.535  1.00  0.00     0.046 C 
BRANCH   8  10
ATOM     10  N   UNL     1      -0.810  -1.776   0.038  1.00  0.00    -0.258 N 
ATOM     11  C   UNL     1      -1.720  -2.797   0.081  1.00  0.00     0.110 A 
ATOM     12  N   UNL     1      -1.396  -0.549   0.110  1.00  0.00    -0.167 NA
ATOM     13  C   UNL     1      -2.953  -2.212   0.157  1.00  0.00     0.056 A 
ATOM     14  C   UNL     1      -2.722  -0.807   0.150  1.00  0.00     0.150 A 
BRANCH  14  15
ATOM     15  C   UNL     1      -3.817   0.177   0.304  1.00  0.00     0.274 C 
ATOM     16  O   UNL     1      -4.946  -0.233   0.587  1.00  0.00    -0.267 OA
ATOM     17  N   UNL     1      -3.564   1.557   0.235  1.00  0.00    -0.326 N 
ATOM     18  C   UNL     1      -4.624   2.406   0.769  1.00  0.00     0.181 C 
ATOM     19  C   UNL     1      -2.786   2.142  -0.856  1.00  0.00     0.181 C 
ATOM     20  C   UNL     1      -4.197   3.862   1.004  1.00  0.00     0.284 C 
ATOM     21  C   UNL     1      -2.503   3.657  -0.698  1.00  0.00     0.284 C 
ATOM     22  N   UNL     1      -3.576   4.506  -0.157  1.00  0.00    -0.328 N 
ATOM     23  H   UNL     1      -3.108   5.355   0.161  1.00  0.00     0.348 HD
BRANCH  22  24
ATOM     24  C   UNL     1      -4.519   5.105  -1.116  1.00  0.00     0.299 C 
BRANCH  24  25
ATOM     25  C   UNL     1      -5.584   4.197  -1.688  1.00  0.00     0.009 A 
ATOM     26  C   UNL     1      -5.333   3.450  -2.848  1.00  0.00     0.010 A 
ATOM     27  C   UNL     1      -6.792   3.986  -0.998  1.00  0.00     0.048 A 
ATOM     28  C   UNL     1      -6.197   2.421  -3.232  1.00  0.00     0.004 A 
ATOM     29  C   UNL     1      -7.631   2.939  -1.373  1.00  0.00     0.123 A 
ATOM     30  C   UNL     1      -7.329   2.141  -2.469  1.00  0.00     0.039 A 
ATOM     31  F   UNL     1      -8.694   2.644  -0.614  1.00  0.00    -0.207 F 
ENDBRANCH  24  25
ENDBRANCH  22  24
ENDBRANCH  14  15
ENDBRANCH   8  10
ENDBRANCH   6   8
ENDBRANCH   5   6
ENDBRANCH   4   5
ENDBRANCH   3   4
ENDBRANCH   2   3
ENDBRANCH   1   2
BRANCH   1  32
ATOM     32  C   UNL     1       1.073   0.296   2.970  1.00  0.00     0.188 C 
BRANCH  32  33
ATOM     33  O   UNL     1       2.441   0.336   3.302  1.00  0.00    -0.376 OA
BRANCH  33  34
ATOM     34  C   UNL     1       2.938   1.497   3.941  1.00  0.00     0.202 C 
BRANCH  34  35
ATOM     35  C   UNL     1       2.217   2.100   5.165  1.00  0.00     0.261 C 
BRANCH  35  36
ATOM     36  O   UNL     1       0.785   1.984   5.215  1.00  0.00    -0.460 OA
BRANCH  36  37
ATOM     37  C   UNL     1       0.058   2.978   4.659  1.00  0.00     0.338 C 
ATOM     38  O   UNL     1       0.478   3.972   4.082  1.00  0.00    -0.246 OA
BRANCH  37  39
ATOM     39  C   UNL     1      -1.361   2.577   4.704  1.00  0.00     0.060 A 
ATOM     40  C   UNL     1      -1.910   1.936   3.597  1.00  0.00     0.016 A 
ATOM     41  C   UNL     1      -2.154   2.819   5.827  1.00  0.00     0.016 A 
ATOM     42  C   UNL     1      -3.231   1.509   3.631  1.00  0.00     0.010 A 
ATOM     43  C   UNL     1      -3.517   2.470   5.808  1.00  0.00     0.010 A 
ATOM     44  C   UNL     1      -4.083   1.849   4.683  1.00  0.00    -0.014 A 
BRANCH  44  45
ATOM     45  C   UNL     1      -5.563   1.753   4.473  1.00  0.00     0.031 A 
ATOM     46  C   UNL     1      -6.369   3.027   4.344  1.00  0.00     0.074 A 
ATOM     47  C   UNL     1      -6.182   0.585   4.207  1.00  0.00     0.049 A 
ATOM     48  N   UNL     1      -7.663   3.193   4.216  1.00  0.00    -0.248 NA
ATOM     49  C   UNL     1      -5.607   4.286   4.317  1.00  0.00     0.031 C 
ATOM     50  C   UNL     1      -5.528  -0.717   4.093  1.00  0.00     0.029 A 
ATOM     51  N   UNL     1      -7.509   0.313   3.955  1.00  0.00    -0.354 N 
ATOM     52  C   UNL     1      -7.869   4.564   4.123  1.00  0.00     0.074 A 
ATOM     53  C   UNL     1      -6.568   5.191   4.207  1.00  0.00     0.031 C 
ATOM     54  C   UNL     1      -6.451  -1.645   3.790  1.00  0.00     0.029 A 
ATOM     55  C   UNL     1      -7.773  -1.024   3.775  1.00  0.00     0.049 A 
ATOM     56  H   UNL     1      -8.203   1.010   3.909  1.00  0.00     0.167 HD
ATOM     57  C   UNL     1      -9.033   5.244   3.987  1.00  0.00     0.037 A 
ATOM     58  C   UNL     1      -8.944  -1.685   3.671  1.00  0.00     0.037 A 
ATOM     59  C   UNL     1     -10.334   4.634   3.902  1.00  0.00     0.049 A 
ATOM     60  C   UNL     1     -10.242  -0.918   3.707  1.00  0.00     0.074 A 
ATOM     61  C   UNL     1     -11.573   5.249   3.837  1.00  0.00     0.029 A 
ATOM     62  N   UNL     1     -10.568   3.268   3.864  1.00  0.00    -0.354 N 
ATOM     63  N   UNL     1     -10.441   0.377   3.738  1.00  0.00    -0.248 NA
ATOM     64  C   UNL     1     -11.483  -1.709   3.715  1.00  0.00     0.031 C 
ATOM     65  C   UNL     1     -12.558   4.257   3.835  1.00  0.00     0.029 A 
ATOM     66  C   UNL     1     -11.932   3.023   3.822  1.00  0.00     0.049 A 
ATOM     67  H   UNL     1      -9.868   2.575   3.868  1.00  0.00     0.167 HD
ATOM     68  C   UNL     1     -11.819   0.555   3.739  1.00  0.00     0.074 A 
ATOM     69  C   UNL     1     -12.412  -0.764   3.693  1.00  0.00     0.031 C 
ATOM     70  C   UNL     1     -12.526   1.711   3.774  1.00  0.00     0.037 A 
BRANCH  57  71
ATOM     71  C   UNL     1      -8.965   6.744   4.002  1.00  0.00     0.064 A 
ATOM     72  C   UNL     1      -8.470   7.481   2.917  1.00  0.00     0.173 A 
ATOM     73  C   UNL     1      -9.448   7.454   5.114  1.00  0.00     0.173 A 
ATOM     74  F   UNL     1      -7.976   6.850   1.841  1.00  0.00    -0.203 F 
ATOM     75  C   UNL     1      -8.446   8.874   2.952  1.00  0.00     0.198 A 
ATOM     76  C   UNL     1      -9.451   8.845   5.132  1.00  0.00     0.198 A 
ATOM     77  F   UNL     1      -9.934   6.796   6.177  1.00  0.00    -0.203 F 
ATOM     78  F   UNL     1      -7.929   9.559   1.923  1.00  0.00    -0.200 F 
ATOM     79  C   UNL     1      -8.944   9.554   4.054  1.00  0.00     0.200 A 
ATOM     80  F   UNL     1      -9.946   9.498   6.193  1.00  0.00    -0.200 F 
ATOM     81  F   UNL     1      -8.930  10.894   4.081  1.00  0.00    -0.200 F 
ENDBRANCH  57  71
BRANCH  58  82
ATOM     82  C   UNL     1      -8.952  -3.175   3.628  1.00  0.00     0.064 A 
ATOM     83  C   UNL     1      -9.455  -3.880   2.526  1.00  0.00     0.173 A 
ATOM     84  C   UNL     1      -8.494  -3.925   4.724  1.00  0.00     0.173 A 
ATOM     85  F   UNL     1      -9.949  -3.215   1.471  1.00  0.00    -0.203 F 
ATOM     86  C   UNL     1      -9.508  -5.274   2.527  1.00  0.00     0.198 A 
ATOM     87  C   UNL     1      -8.512  -5.317   4.708  1.00  0.00     0.198 A 
ATOM     88  F   UNL     1      -8.026  -3.304   5.817  1.00  0.00    -0.203 F 
ATOM     89  F   UNL     1     -10.050  -5.923   1.487  1.00  0.00    -0.200 F 
ATOM     90  C   UNL     1      -9.028  -5.991   3.613  1.00  0.00     0.200 A 
ATOM     91  F   UNL     1      -8.040  -6.003   5.758  1.00  0.00    -0.200 F 
ATOM     92  F   UNL     1      -9.077  -7.330   3.612  1.00  0.00    -0.200 F 
ENDBRANCH  58  82
BRANCH  70  93
ATOM     93  C   UNL     1     -14.026   1.617   3.730  1.00  0.00     0.064 A 
ATOM     94  C   UNL     1     -14.769   1.115   4.810  1.00  0.00     0.173 A 
ATOM     95  C   UNL     1     -14.735   2.078   2.609  1.00  0.00     0.173 A 
ATOM     96  F   UNL     1     -14.144   0.653   5.903  1.00  0.00    -0.203 F 
ATOM     97  C   UNL     1     -16.160   1.050   4.755  1.00  0.00     0.198 A 
ATOM     98  C   UNL     1     -16.126   2.043   2.572  1.00  0.00     0.198 A 
ATOM     99  F   UNL     1     -14.078   2.579   1.552  1.00  0.00    -0.203 F 
ATOM    100  F   UNL     1     -16.844   0.519   5.778  1.00  0.00    -0.200 F 
ATOM    101  C   UNL     1     -16.837   1.520   3.641  1.00  0.00     0.200 A 
ATOM    102  F   UNL     1     -16.779   2.516   1.501  1.00  0.00    -0.200 F 
ATOM    103  F   UNL     1     -18.175   1.465   3.594  1.00  0.00    -0.200 F 
ENDBRANCH  70  93
ENDBRANCH  44  45
ENDBRANCH  37  39
ENDBRANCH  36  37
ENDBRANCH  35  36
ENDBRANCH  34  35
ENDBRANCH  33  34
ENDBRANCH  32  33
ENDBRANCH   1  32
TORSDOF 21
