REMARK SMILES NC(=O)c1c(-c2ccc(Cl)cc2)csc1NC(=O)[C@H]1[C@@H](C(=O)OCCOCCOCCOC(=O)c2ccc(-c3c4nc(c(-c5c(F)c(F)c(F)c(F)c5F)c5ccc([nH]5)c(-c5c(F)c(F)c(F)c(F)c5F)c5nc(c(-c6c(F)c(F)c(F)c(F)c6F)c6ccc3[nH]6)C=C5)C=C4)cc2)[C@@H]2CC[C@H]1O2
REMARK SMILES IDX 27 1 26 2 25 3 24 4 23 5 21 6 22 7 20 8 19 9 101 10 98 11
REMARK SMILES IDX 100 12 102 13 99 14 17 15 16 16 18 18 15 19 4 20 5 21 13 22
REMARK SMILES IDX 14 23 2 24 1 25 3 28 6 29 7 30 12 31 8 32 11 33 9 34 10 35
REMARK SMILES IDX 28 36 29 37 30 38 31 39 32 40 33 41 34 42 35 43 36 44 97 45
REMARK SMILES IDX 37 46 96 47 38 48 39 49 40 50 90 51 41 52 95 53 89 54 91 55
REMARK SMILES IDX 42 56 94 57 88 58 87 59 43 61 75 62 55 63 74 64 56 65 59 66
REMARK SMILES IDX 73 67 92 68 57 69 58 70 72 72 93 73 60 74 44 75 45 76 53 77
REMARK SMILES IDX 46 78 47 79 51 80 54 81 48 82 49 83 52 84 50 85 76 86 77 87
REMARK SMILES IDX 85 88 78 89 79 90 83 91 86 92 80 93 81 94 84 95 82 96 61 97
REMARK SMILES IDX 62 98 70 99 63 100 64 101 68 102 71 103 65 104 66 105 69 106
REMARK SMILES IDX 67 107
REMARK H PARENT 16 17 1 26 1 27 91 60 59 71
REMARK Flexibility Score: inf
ROOT
ATOM      1  C   UNL     1       3.108   8.527   3.749  1.00  0.00     0.188 C 
ENDROOT
BRANCH   1   2
ATOM      2  O   UNL     1       3.898   7.525   4.381  1.00  0.00    -0.376 OA
BRANCH   2   3
ATOM      3  C   UNL     1       4.419   6.468   3.595  1.00  0.00     0.202 C 
BRANCH   3   4
ATOM      4  C   UNL     1       3.414   5.480   3.003  1.00  0.00     0.261 C 
BRANCH   4   5
ATOM      5  O   UNL     1       2.266   6.080   2.380  1.00  0.00    -0.463 OA
BRANCH   5   6
ATOM      6  C   UNL     1       1.084   5.860   3.001  1.00  0.00     0.312 C 
ATOM      7  O   UNL     1       0.968   5.409   4.137  1.00  0.00    -0.252 OA
BRANCH   6   8
ATOM      8  C   UNL     1      -0.133   6.288   2.211  1.00  0.00     0.143 C 
ATOM      9  C   UNL     1      -0.297   5.939   0.713  1.00  0.00     0.124 C 
ATOM     10  C   UNL     1      -0.858   7.251   0.193  1.00  0.00     0.132 C 
ATOM     11  C   UNL     1      -0.338   7.810   2.226  1.00  0.00     0.133 C 
ATOM     12  C   UNL     1      -2.218   7.610   0.817  1.00  0.00     0.035 C 
ATOM     13  O   UNL     1      -0.000   8.195   0.877  1.00  0.00    -0.373 OA
ATOM     14  C   UNL     1      -1.820   8.157   2.189  1.00  0.00     0.036 C 
BRANCH   9  15
ATOM     15  C   UNL     1       0.898   5.217   0.069  1.00  0.00     0.231 C 
ATOM     16  N   UNL     1       1.427   5.394  -1.172  1.00  0.00    -0.317 N 
ATOM     17  H   UNL     1       1.932   4.607  -1.480  1.00  0.00     0.170 HD
ATOM     18  O   UNL     1       1.298   4.194   0.655  1.00  0.00    -0.274 OA
BRANCH  16  19
ATOM     19  C   UNL     1       1.426   6.414  -2.100  1.00  0.00     0.108 A 
ATOM     20  C   UNL     1       1.707   6.342  -3.464  1.00  0.00     0.082 A 
ATOM     21  C   UNL     1       1.328   7.587  -4.117  1.00  0.00     0.007 A 
ATOM     22  C   UNL     1       1.044   8.558  -3.174  1.00  0.00     0.076 A 
ATOM     23  S   UNL     1       1.502   8.040  -1.619  1.00  0.00    -0.125 S 
BRANCH  20  24
ATOM     24  C   UNL     1       2.257   5.134  -4.071  1.00  0.00     0.252 C 
ATOM     25  N   UNL     1       3.121   5.351  -5.110  1.00  0.00    -0.365 N 
ATOM     26  H   UNL     1       3.535   4.587  -5.574  1.00  0.00     0.159 HD
ATOM     27  H   UNL     1       3.328   6.270  -5.394  1.00  0.00     0.159 HD
ATOM     28  O   UNL     1       2.060   4.011  -3.641  1.00  0.00    -0.269 OA
ENDBRANCH  20  24
BRANCH  21  29
ATOM     29  C   UNL     1       1.258   7.916  -5.543  1.00  0.00    -0.017 A 
ATOM     30  C   UNL     1       1.735   9.157  -5.996  1.00  0.00     0.010 A 
ATOM     31  C   UNL     1       0.746   7.008  -6.479  1.00  0.00     0.010 A 
ATOM     32  C   UNL     1       1.729   9.474  -7.355  1.00  0.00     0.021 A 
ATOM     33  C   UNL     1       0.755   7.319  -7.845  1.00  0.00     0.021 A 
ATOM     34  C   UNL     1       1.252   8.548  -8.276  1.00  0.00     0.041 A 
ATOM     35  Cl  UNL     1       1.294   8.920  -9.954  1.00  0.00    -0.084 Cl
ENDBRANCH  21  29
ENDBRANCH  16  19
ENDBRANCH   9  15
ENDBRANCH   6   8
ENDBRANCH   5   6
ENDBRANCH   4   5
ENDBRANCH   3   4
ENDBRANCH   2   3
ENDBRANCH   1   2
BRANCH   1  36
ATOM     36  C   UNL     1       3.323   8.872   2.262  1.00  0.00     0.188 C 
BRANCH  36  37
ATOM     37  O   UNL     1       4.690   8.776   1.881  1.00  0.00    -0.376 OA
BRANCH  37  38
ATOM     38  C   UNL     1       5.261   9.961   1.355  1.00  0.00     0.202 C 
BRANCH  38  39
ATOM     39  C   UNL     1       5.760  10.903   2.454  1.00  0.00     0.261 C 
BRANCH  39  40
ATOM     40  O   UNL     1       4.778  11.255   3.445  1.00  0.00    -0.460 OA
BRANCH  40  41
ATOM     41  C   UNL     1       3.789  12.092   3.064  1.00  0.00     0.338 C 
ATOM     42  O   UNL     1       3.626  12.583   1.962  1.00  0.00    -0.246 OA
BRANCH  41  43
ATOM     43  C   UNL     1       2.831  12.216   4.186  1.00  0.00     0.060 A 
ATOM     44  C   UNL     1       1.477  11.930   3.966  1.00  0.00     0.016 A 
ATOM     45  C   UNL     1       3.265  12.626   5.450  1.00  0.00     0.016 A 
ATOM     46  C   UNL     1       0.550  12.089   5.003  1.00  0.00     0.010 A 
ATOM     47  C   UNL     1       2.336  12.797   6.481  1.00  0.00     0.010 A 
ATOM     48  C   UNL     1       0.968  12.559   6.258  1.00  0.00    -0.014 A 
BRANCH  48  49
ATOM     49  C   UNL     1      -0.026  12.969   7.285  1.00  0.00     0.031 A 
ATOM     50  C   UNL     1      -0.383  14.428   7.400  1.00  0.00     0.074 A 
ATOM     51  C   UNL     1      -0.595  12.079   8.117  1.00  0.00     0.049 A 
ATOM     52  N   UNL     1      -1.157  15.033   8.265  1.00  0.00    -0.248 NA
ATOM     53  C   UNL     1       0.222  15.325   6.404  1.00  0.00     0.031 C 
ATOM     54  C   UNL     1      -0.369  10.636   8.098  1.00  0.00     0.029 A 
ATOM     55  N   UNL     1      -1.476  12.268   9.157  1.00  0.00    -0.354 N 
ATOM     56  C   UNL     1      -1.124  16.379   7.925  1.00  0.00     0.074 A 
ATOM     57  C   UNL     1      -0.236  16.507   6.790  1.00  0.00     0.031 C 
ATOM     58  C   UNL     1      -1.082  10.071   9.088  1.00  0.00     0.029 A 
ATOM     59  C   UNL     1      -1.787  11.114   9.833  1.00  0.00     0.049 A 
ATOM     60  H   UNL     1      -1.847  13.149   9.393  1.00  0.00     0.167 HD
ATOM     61  C   UNL     1      -1.777  17.416   8.502  1.00  0.00     0.037 A 
ATOM     62  C   UNL     1      -2.534  10.928  10.941  1.00  0.00     0.037 A 
ATOM     63  C   UNL     1      -2.662  17.298   9.630  1.00  0.00     0.049 A 
ATOM     64  C   UNL     1      -3.188  12.111  11.612  1.00  0.00     0.074 A 
ATOM     65  C   UNL     1      -3.392  18.290  10.262  1.00  0.00     0.029 A 
ATOM     66  N   UNL     1      -2.929  16.116  10.304  1.00  0.00    -0.354 N 
ATOM     67  N   UNL     1      -3.183  13.374  11.261  1.00  0.00    -0.248 NA
ATOM     68  C   UNL     1      -3.953  11.838  12.839  1.00  0.00     0.031 C 
ATOM     69  C   UNL     1      -4.057  17.719  11.352  1.00  0.00     0.029 A 
ATOM     70  C   UNL     1      -3.788  16.360  11.364  1.00  0.00     0.049 A 
ATOM     71  H   UNL     1      -2.562  15.234  10.066  1.00  0.00     0.167 HD
ATOM     72  C   UNL     1      -3.968  14.036  12.198  1.00  0.00     0.074 A 
ATOM     73  C   UNL     1      -4.442  13.036  13.129  1.00  0.00     0.031 C 
ATOM     74  C   UNL     1      -4.269  15.356  12.278  1.00  0.00     0.037 A 
BRANCH  61  75
ATOM     75  C   UNL     1      -1.537  18.785   7.936  1.00  0.00     0.064 A 
ATOM     76  C   UNL     1      -2.053  19.170   6.690  1.00  0.00     0.173 A 
ATOM     77  C   UNL     1      -0.813  19.737   8.671  1.00  0.00     0.173 A 
ATOM     78  F   UNL     1      -2.740  18.293   5.944  1.00  0.00    -0.203 F 
ATOM     79  C   UNL     1      -1.831  20.450   6.189  1.00  0.00     0.198 A 
ATOM     80  C   UNL     1      -0.618  21.024   8.180  1.00  0.00     0.198 A 
ATOM     81  F   UNL     1      -0.302  19.420   9.870  1.00  0.00    -0.203 F 
ATOM     82  F   UNL     1      -2.295  20.783   4.976  1.00  0.00    -0.200 F 
ATOM     83  C   UNL     1      -1.121  21.378   6.937  1.00  0.00     0.200 A 
ATOM     84  F   UNL     1       0.057  21.923   8.909  1.00  0.00    -0.200 F 
ATOM     85  F   UNL     1      -0.916  22.612   6.456  1.00  0.00    -0.200 F 
ENDBRANCH  61  75
BRANCH  62  86
ATOM     86  C   UNL     1      -2.702   9.563  11.509  1.00  0.00     0.064 A 
ATOM     87  C   UNL     1      -3.951   8.925  11.497  1.00  0.00     0.173 A 
ATOM     88  C   UNL     1      -1.633   8.890  12.119  1.00  0.00     0.173 A 
ATOM     89  F   UNL     1      -5.012   9.544  10.957  1.00  0.00    -0.203 F 
ATOM     90  C   UNL     1      -4.130   7.678  12.091  1.00  0.00     0.198 A 
ATOM     91  C   UNL     1      -1.806   7.629  12.687  1.00  0.00     0.198 A 
ATOM     92  F   UNL     1      -0.421   9.460  12.169  1.00  0.00    -0.203 F 
ATOM     93  F   UNL     1      -5.347   7.118  12.116  1.00  0.00    -0.200 F 
ATOM     94  C   UNL     1      -3.056   7.028  12.681  1.00  0.00     0.200 A 
ATOM     95  F   UNL     1      -0.765   7.003  13.253  1.00  0.00    -0.200 F 
ATOM     96  F   UNL     1      -3.229   5.831  13.258  1.00  0.00    -0.200 F 
ENDBRANCH  62  86
BRANCH  74  97
ATOM     97  C   UNL     1      -5.194  15.796  13.377  1.00  0.00     0.064 A 
ATOM     98  C   UNL     1      -4.788  15.826  14.720  1.00  0.00     0.173 A 
ATOM     99  C   UNL     1      -6.492  16.239  13.076  1.00  0.00     0.173 A 
ATOM    100  F   UNL     1      -3.562  15.402  15.063  1.00  0.00    -0.203 F 
ATOM    101  C   UNL     1      -5.653  16.260  15.721  1.00  0.00     0.198 A 
ATOM    102  C   UNL     1      -7.344  16.701  14.076  1.00  0.00     0.198 A 
ATOM    103  F   UNL     1      -6.930  16.240  11.808  1.00  0.00    -0.203 F 
ATOM    104  F   UNL     1      -5.259  16.237  17.002  1.00  0.00    -0.200 F 
ATOM    105  C   UNL     1      -6.927  16.704  15.398  1.00  0.00     0.200 A 
ATOM    106  F   UNL     1      -8.569  17.145  13.759  1.00  0.00    -0.200 F 
ATOM    107  F   UNL     1      -7.755  17.130  16.362  1.00  0.00    -0.200 F 
ENDBRANCH  74  97
ENDBRANCH  48  49
ENDBRANCH  41  43
ENDBRANCH  40  41
ENDBRANCH  39  40
ENDBRANCH  38  39
ENDBRANCH  37  38
ENDBRANCH  36  37
ENDBRANCH   1  36
TORSDOF 21
