REMARK SMILES CC(=O)N[C@@H](Cc1cc(Br)c(O)c(Br)c1)C(=O)OCCOCCOCCOC(=O)c1ccc(-c2c3nc(c(-c4c(F)c(F)c(F)c(F)c4F)c4ccc([nH]4)c(-c4c(F)c(F)c(F)c(F)c4F)c4nc(c(-c5c(F)c(F)c(F)c(F)c5F)c5ccc2[nH]5)C=C4)C=C3)cc1
REMARK SMILES IDX 22 1 21 2 20 3 19 4 18 5 16 6 17 7 5 8 4 9 1 10 2 11 3 12
REMARK SMILES IDX 6 14 7 15 8 16 15 17 9 18 13 19 10 20 11 21 14 22 12 23
REMARK SMILES IDX 23 25 24 26 25 27 26 28 27 29 28 30 29 31 30 32 31 33 92 34
REMARK SMILES IDX 32 35 91 36 33 37 34 38 35 39 85 40 36 41 90 42 84 43 86 44
REMARK SMILES IDX 37 45 89 46 83 47 82 48 38 50 70 51 50 52 69 53 51 54 54 55
REMARK SMILES IDX 68 56 87 57 52 58 53 59 67 61 88 62 55 63 39 64 40 65 48 66
REMARK SMILES IDX 41 67 42 68 46 69 49 70 43 71 44 72 47 73 45 74 71 75 72 76
REMARK SMILES IDX 80 77 73 78 74 79 78 80 81 81 75 82 76 83 79 84 77 85 56 86
REMARK SMILES IDX 57 87 65 88 58 89 59 90 63 91 66 92 60 93 61 94 64 95 62 96
REMARK H PARENT 4 13 12 24 86 49 54 60
REMARK Flexibility Score: inf
ROOT
ATOM      1  C   UNL     1      -1.034   3.377  -2.385  1.00  0.00     0.188 C 
ENDROOT
BRANCH   1   2
ATOM      2  O   UNL     1      -1.147   4.493  -3.261  1.00  0.00    -0.376 OA
BRANCH   2   3
ATOM      3  C   UNL     1      -0.864   4.322  -4.644  1.00  0.00     0.202 C 
BRANCH   3   4
ATOM      4  C   UNL     1       0.521   3.788  -5.021  1.00  0.00     0.261 C 
BRANCH   4   5
ATOM      5  O   UNL     1       0.907   2.567  -4.355  1.00  0.00    -0.462 OA
BRANCH   5   6
ATOM      6  C   UNL     1       2.053   2.605  -3.623  1.00  0.00     0.329 C 
ATOM      7  O   UNL     1       2.761   3.599  -3.494  1.00  0.00    -0.250 OA
BRANCH   6   8
ATOM      8  C   UNL     1       2.487   1.226  -3.080  1.00  0.00     0.196 C 
BRANCH   8   9
ATOM      9  N   UNL     1       1.462   0.178  -2.965  1.00  0.00    -0.343 N 
ATOM     10  C   UNL     1       1.569  -0.102  -0.514  1.00  0.00     0.114 C 
ATOM     11  C   UNL     1       1.020  -0.485  -1.859  1.00  0.00     0.217 C 
ATOM     12  O   UNL     1       0.163  -1.357  -1.978  1.00  0.00    -0.275 OA
ATOM     13  H   UNL     1       1.033  -0.083  -3.812  1.00  0.00     0.164 HD
ENDBRANCH   8   9
BRANCH   8  14
ATOM     14  C   UNL     1       3.663   0.722  -3.944  1.00  0.00     0.072 C 
BRANCH  14  15
ATOM     15  C   UNL     1       3.236   0.274  -5.330  1.00  0.00    -0.043 A 
ATOM     16  C   UNL     1       3.012  -1.084  -5.598  1.00  0.00     0.023 A 
ATOM     17  C   UNL     1       2.976   1.215  -6.338  1.00  0.00     0.023 A 
ATOM     18  C   UNL     1       2.513  -1.484  -6.841  1.00  0.00     0.061 A 
ATOM     19  C   UNL     1       2.447   0.815  -7.569  1.00  0.00     0.061 A 
ATOM     20  Br  UNL     1       2.228  -3.331  -7.156  1.00  0.00    -0.047 Br
ATOM     21  C   UNL     1       2.214  -0.537  -7.824  1.00  0.00     0.143 A 
ATOM     22  Br  UNL     1       2.025   2.156  -8.841  1.00  0.00    -0.047 Br
BRANCH  21  23
ATOM     23  O   UNL     1       1.691  -0.915  -9.032  1.00  0.00    -0.506 OA
ATOM     24  H   UNL     1       1.532  -1.821  -9.210  1.00  0.00     0.293 HD
ENDBRANCH  21  23
ENDBRANCH  14  15
ENDBRANCH   8  14
ENDBRANCH   6   8
ENDBRANCH   5   6
ENDBRANCH   4   5
ENDBRANCH   3   4
ENDBRANCH   2   3
ENDBRANCH   1   2
BRANCH   1  25
ATOM     25  C   UNL     1      -1.462   1.976  -2.866  1.00  0.00     0.188 C 
BRANCH  25  26
ATOM     26  O   UNL     1      -2.172   1.971  -4.087  1.00  0.00    -0.376 OA
BRANCH  26  27
ATOM     27  C   UNL     1      -3.499   1.480  -4.036  1.00  0.00     0.202 C 
BRANCH  27  28
ATOM     28  C   UNL     1      -4.486   2.337  -3.229  1.00  0.00     0.261 C 
BRANCH  28  29
ATOM     29  O   UNL     1      -4.055   2.696  -1.901  1.00  0.00    -0.460 OA
BRANCH  29  30
ATOM     30  C   UNL     1      -4.106   1.730  -0.955  1.00  0.00     0.338 C 
ATOM     31  O   UNL     1      -4.516   0.595  -1.089  1.00  0.00    -0.246 OA
BRANCH  30  32
ATOM     32  C   UNL     1      -3.381   2.222   0.243  1.00  0.00     0.060 A 
ATOM     33  C   UNL     1      -2.259   1.513   0.695  1.00  0.00     0.016 A 
ATOM     34  C   UNL     1      -3.805   3.369   0.919  1.00  0.00     0.016 A 
ATOM     35  C   UNL     1      -1.583   1.925   1.847  1.00  0.00     0.010 A 
ATOM     36  C   UNL     1      -3.142   3.767   2.087  1.00  0.00     0.010 A 
ATOM     37  C   UNL     1      -2.051   3.026   2.578  1.00  0.00    -0.014 A 
BRANCH  37  38
ATOM     38  C   UNL     1      -1.553   3.256   3.960  1.00  0.00     0.031 A 
ATOM     39  C   UNL     1      -2.357   2.700   5.106  1.00  0.00     0.074 A 
ATOM     40  C   UNL     1      -0.407   3.916   4.208  1.00  0.00     0.049 A 
ATOM     41  N   UNL     1      -2.158   2.801   6.395  1.00  0.00    -0.248 NA
ATOM     42  C   UNL     1      -3.553   1.923   4.741  1.00  0.00     0.031 C 
ATOM     43  C   UNL     1       0.488   4.470   3.197  1.00  0.00     0.029 A 
ATOM     44  N   UNL     1       0.193   4.237   5.403  1.00  0.00    -0.354 N 
ATOM     45  C   UNL     1      -3.206   2.112   6.993  1.00  0.00     0.074 A 
ATOM     46  C   UNL     1      -4.053   1.621   5.928  1.00  0.00     0.031 C 
ATOM     47  C   UNL     1       1.519   5.076   3.814  1.00  0.00     0.029 A 
ATOM     48  C   UNL     1       1.339   4.980   5.263  1.00  0.00     0.049 A 
ATOM     49  H   UNL     1      -0.166   3.960   6.277  1.00  0.00     0.167 HD
ATOM     50  C   UNL     1      -3.440   1.899   8.310  1.00  0.00     0.037 A 
ATOM     51  C   UNL     1       2.136   5.537   6.198  1.00  0.00     0.037 A 
ATOM     52  C   UNL     1      -2.601   2.385   9.373  1.00  0.00     0.049 A 
ATOM     53  C   UNL     1       1.819   5.344   7.661  1.00  0.00     0.074 A 
ATOM     54  C   UNL     1      -2.745   2.204  10.737  1.00  0.00     0.029 A 
ATOM     55  N   UNL     1      -1.464   3.157   9.190  1.00  0.00    -0.354 N 
ATOM     56  N   UNL     1       0.842   4.669   8.218  1.00  0.00    -0.248 NA
ATOM     57  C   UNL     1       2.721   5.990   8.627  1.00  0.00     0.031 C 
ATOM     58  C   UNL     1      -1.727   2.913  11.383  1.00  0.00     0.029 A 
ATOM     59  C   UNL     1      -0.912   3.483  10.418  1.00  0.00     0.049 A 
ATOM     60  H   UNL     1      -1.102   3.432   8.317  1.00  0.00     0.167 HD
ATOM     61  C   UNL     1       1.029   4.782   9.591  1.00  0.00     0.074 A 
ATOM     62  C   UNL     1       2.221   5.580   9.784  1.00  0.00     0.031 C 
ATOM     63  C   UNL     1       0.282   4.270  10.600  1.00  0.00     0.037 A 
BRANCH  50  64
ATOM     64  C   UNL     1      -4.678   1.133   8.675  1.00  0.00     0.064 A 
ATOM     65  C   UNL     1      -4.800  -0.242   8.422  1.00  0.00     0.173 A 
ATOM     66  C   UNL     1      -5.750   1.781   9.306  1.00  0.00     0.173 A 
ATOM     67  F   UNL     1      -3.809  -0.905   7.806  1.00  0.00    -0.203 F 
ATOM     68  C   UNL     1      -5.961  -0.932   8.761  1.00  0.00     0.198 A 
ATOM     69  C   UNL     1      -6.897   1.081   9.672  1.00  0.00     0.198 A 
ATOM     70  F   UNL     1      -5.685   3.094   9.573  1.00  0.00    -0.203 F 
ATOM     71  F   UNL     1      -6.076  -2.234   8.462  1.00  0.00    -0.200 F 
ATOM     72  C   UNL     1      -7.005  -0.272   9.391  1.00  0.00     0.200 A 
ATOM     73  F   UNL     1      -7.899   1.719  10.293  1.00  0.00    -0.200 F 
ATOM     74  F   UNL     1      -8.119  -0.939   9.722  1.00  0.00    -0.200 F 
ENDBRANCH  50  64
BRANCH  51  75
ATOM     75  C   UNL     1       3.313   6.350   5.786  1.00  0.00     0.064 A 
ATOM     76  C   UNL     1       4.622   5.916   6.042  1.00  0.00     0.173 A 
ATOM     77  C   UNL     1       3.151   7.595   5.160  1.00  0.00     0.173 A 
ATOM     78  F   UNL     1       4.829   4.748   6.667  1.00  0.00    -0.203 F 
ATOM     79  C   UNL     1       5.721   6.703   5.705  1.00  0.00     0.198 A 
ATOM     80  C   UNL     1       4.252   8.367   4.795  1.00  0.00     0.198 A 
ATOM     81  F   UNL     1       1.921   8.060   4.899  1.00  0.00    -0.203 F 
ATOM     82  F   UNL     1       6.958   6.287   6.008  1.00  0.00    -0.200 F 
ATOM     83  C   UNL     1       5.536   7.925   5.076  1.00  0.00     0.200 A 
ATOM     84  F   UNL     1       4.069   9.543   4.179  1.00  0.00    -0.200 F 
ATOM     85  F   UNL     1       6.593   8.681   4.750  1.00  0.00    -0.200 F 
ENDBRANCH  51  75
BRANCH  63  86
ATOM     86  C   UNL     1       0.751   4.514  12.008  1.00  0.00     0.064 A 
ATOM     87  C   UNL     1       0.684   5.783  12.602  1.00  0.00     0.173 A 
ATOM     88  C   UNL     1       1.236   3.451  12.787  1.00  0.00     0.173 A 
ATOM     89  F   UNL     1       0.240   6.835  11.899  1.00  0.00    -0.203 F 
ATOM     90  C   UNL     1       1.113   5.984  13.912  1.00  0.00     0.198 A 
ATOM     91  C   UNL     1       1.632   3.650  14.107  1.00  0.00     0.198 A 
ATOM     92  F   UNL     1       1.312   2.215  12.272  1.00  0.00    -0.203 F 
ATOM     93  F   UNL     1       1.089   7.215  14.441  1.00  0.00    -0.200 F 
ATOM     94  C   UNL     1       1.579   4.917  14.665  1.00  0.00     0.200 A 
ATOM     95  F   UNL     1       2.066   2.613  14.838  1.00  0.00    -0.200 F 
ATOM     96  F   UNL     1       1.985   5.112  15.928  1.00  0.00    -0.200 F 
ENDBRANCH  63  86
ENDBRANCH  37  38
ENDBRANCH  30  32
ENDBRANCH  29  30
ENDBRANCH  28  29
ENDBRANCH  27  28
ENDBRANCH  26  27
ENDBRANCH  25  26
ENDBRANCH   1  25
TORSDOF 21
