REMARK SMILES COc1ccc(-c2ncn(CC(=O)OCCOCCOCCOC(=O)c3ccc(-c4c5nc(c(-c6c(F)c(F)c(F)c(F)c6F)c6ccc([nH]6)c(-c6c(F)c(F)c(F)c(F)c6F)c6nc(c(-c7c(F)c(F)c(F)c(F)c7F)c7ccc4[nH]7)C=C6)C=C5)cc3)c2-c2ccc(OC)cc2)cc1
REMARK SMILES IDX 18 1 17 2 16 3 15 4 14 5 12 6 13 7 11 8 10 9 7 10 8 11 89 12
REMARK SMILES IDX 9 13 6 14 3 15 4 16 99 17 5 18 98 19 2 20 1 21 90 22 91 23
REMARK SMILES IDX 97 24 92 25 96 26 93 27 94 28 95 29 19 30 20 31 21 32 22 33
REMARK SMILES IDX 23 34 24 35 25 36 26 37 27 38 88 39 28 40 87 41 29 42 30 43
REMARK SMILES IDX 31 44 81 45 32 46 86 47 80 48 82 49 33 50 85 51 79 52 78 53
REMARK SMILES IDX 34 55 66 56 46 57 65 58 47 59 50 60 64 61 83 62 48 63 49 64
REMARK SMILES IDX 63 66 84 67 51 68 35 69 36 70 44 71 37 72 38 73 42 74 45 75
REMARK SMILES IDX 39 76 40 77 43 78 41 79 67 80 68 81 76 82 69 83 70 84 74 85
REMARK SMILES IDX 77 86 71 87 72 88 75 89 73 90 52 91 53 92 61 93 54 94 55 95
REMARK SMILES IDX 59 96 62 97 56 98 57 99 60 100 58 101
REMARK H PARENT 82 54 50 65
REMARK Flexibility Score: inf
ROOT
ATOM      1  C   UNL     1      -1.366   9.385  -2.490  1.00  0.00     0.188 C 
ENDROOT
BRANCH   1   2
ATOM      2  O   UNL     1      -2.007  10.573  -2.923  1.00  0.00    -0.376 OA
BRANCH   2   3
ATOM      3  C   UNL     1      -1.581  11.049  -4.182  1.00  0.00     0.202 C 
BRANCH   3   4
ATOM      4  C   UNL     1      -0.076  11.406  -4.278  1.00  0.00     0.261 C 
BRANCH   4   5
ATOM      5  O   UNL     1       0.880  10.404  -3.763  1.00  0.00    -0.462 OA
BRANCH   5   6
ATOM      6  C   UNL     1       1.504  10.606  -2.576  1.00  0.00     0.326 C 
ATOM      7  O   UNL     1       1.528  11.720  -2.053  1.00  0.00    -0.250 OA
BRANCH   6   8
ATOM      8  C   UNL     1       2.167   9.409  -1.844  1.00  0.00     0.246 C 
BRANCH   8   9
ATOM      9  N   UNL     1       2.108   7.979  -2.257  1.00  0.00    -0.319 N 
ATOM     10  C   UNL     1       2.332   5.774  -2.373  1.00  0.00     0.096 A 
ATOM     11  N   UNL     1       3.139   6.305  -3.340  1.00  0.00    -0.236 NA
ATOM     12  C   UNL     1       1.659   6.761  -1.612  1.00  0.00     0.076 A 
ATOM     13  C   UNL     1       2.976   7.595  -3.265  1.00  0.00     0.201 A 
BRANCH  10  14
ATOM     14  C   UNL     1       2.155   4.329  -2.307  1.00  0.00     0.003 A 
ATOM     15  C   UNL     1       1.377   1.675  -1.800  1.00  0.00     0.118 A 
ATOM     16  C   UNL     1       0.703   2.433  -2.756  1.00  0.00     0.047 A 
ATOM     17  C   UNL     1       2.534   2.193  -1.211  1.00  0.00     0.047 A 
ATOM     18  C   UNL     1       1.116   3.740  -3.038  1.00  0.00     0.014 A 
ATOM     19  C   UNL     1       2.921   3.523  -1.458  1.00  0.00     0.014 A 
BRANCH  15  20
ATOM     20  O   UNL     1       0.819   0.458  -1.515  1.00  0.00    -0.497 OA
ATOM     21  C   UNL     1       1.048  -0.031  -0.196  1.00  0.00     0.278 C 
ENDBRANCH  15  20
ENDBRANCH  10  14
BRANCH  12  22
ATOM     22  C   UNL     1       0.554   6.530  -0.553  1.00  0.00     0.001 A 
ATOM     23  C   UNL     1      -0.215   7.939   0.134  1.00  0.00     0.014 A 
ATOM     24  C   UNL     1      -0.126   4.901  -0.263  1.00  0.00     0.014 A 
ATOM     25  C   UNL     1      -1.675   7.954   1.075  1.00  0.00     0.047 A 
ATOM     26  C   UNL     1      -1.706   4.725   0.635  1.00  0.00     0.047 A 
ATOM     27  C   UNL     1      -2.520   6.407   1.405  1.00  0.00     0.118 A 
BRANCH  27  28
ATOM     28  O   UNL     1      -3.681   6.627   2.183  1.00  0.00    -0.497 OA
ATOM     29  C   UNL     1      -3.815   7.871   2.852  1.00  0.00     0.278 C 
ENDBRANCH  27  28
ENDBRANCH  12  22
ENDBRANCH   8   9
ENDBRANCH   6   8
ENDBRANCH   5   6
ENDBRANCH   4   5
ENDBRANCH   3   4
ENDBRANCH   2   3
ENDBRANCH   1   2
BRANCH   1  30
ATOM     30  C   UNL     1      -0.872   8.374  -3.573  1.00  0.00     0.188 C 
BRANCH  30  31
ATOM     31  O   UNL     1      -1.785   8.205  -4.646  1.00  0.00    -0.376 OA
BRANCH  31  32
ATOM     32  C   UNL     1      -2.380   6.924  -4.715  1.00  0.00     0.202 C 
BRANCH  32  33
ATOM     33  C   UNL     1      -3.327   6.704  -3.554  1.00  0.00     0.261 C 
BRANCH  33  34
ATOM     34  O   UNL     1      -2.728   7.014  -2.289  1.00  0.00    -0.460 OA
BRANCH  34  35
ATOM     35  C   UNL     1      -1.731   6.189  -1.866  1.00  0.00     0.338 C 
ATOM     36  O   UNL     1      -1.268   5.296  -2.550  1.00  0.00    -0.246 OA
BRANCH  35  37
ATOM     37  C   UNL     1      -1.773   6.307  -0.333  1.00  0.00     0.060 A 
ATOM     38  C   UNL     1      -0.681   6.082   1.351  1.00  0.00     0.016 A 
ATOM     39  C   UNL     1      -3.421   5.577  -0.371  1.00  0.00     0.016 A 
ATOM     40  C   UNL     1      -1.423   5.065   2.673  1.00  0.00     0.010 A 
ATOM     41  C   UNL     1      -3.964   4.691   0.897  1.00  0.00     0.010 A 
ATOM     42  C   UNL     1      -3.026   4.354   2.341  1.00  0.00    -0.014 A 
BRANCH  42  43
ATOM     43  C   UNL     1      -3.773   3.432   3.193  1.00  0.00     0.031 A 
ATOM     44  C   UNL     1      -3.713   3.821   4.605  1.00  0.00     0.074 A 
ATOM     45  C   UNL     1      -4.669   2.543   2.678  1.00  0.00     0.049 A 
ATOM     46  N   UNL     1      -3.129   3.175   5.556  1.00  0.00    -0.248 NA
ATOM     47  C   UNL     1      -4.176   5.159   4.989  1.00  0.00     0.031 C 
ATOM     48  C   UNL     1      -4.924   2.149   1.274  1.00  0.00     0.029 A 
ATOM     49  N   UNL     1      -5.700   1.909   3.311  1.00  0.00    -0.354 N 
ATOM     50  C   UNL     1      -3.403   3.916   6.694  1.00  0.00     0.074 A 
ATOM     51  C   UNL     1      -3.754   5.237   6.251  1.00  0.00     0.031 C 
ATOM     52  C   UNL     1      -6.181   1.673   1.132  1.00  0.00     0.029 A 
ATOM     53  C   UNL     1      -6.711   1.447   2.457  1.00  0.00     0.049 A 
ATOM     54  H   UNL     1      -5.731   1.787   4.288  1.00  0.00     0.167 HD
ATOM     55  C   UNL     1      -3.718   3.285   7.856  1.00  0.00     0.037 A 
ATOM     56  C   UNL     1      -7.868   0.827   2.801  1.00  0.00     0.037 A 
ATOM     57  C   UNL     1      -3.349   1.889   7.810  1.00  0.00     0.049 A 
ATOM     58  C   UNL     1      -7.631   0.253   4.145  1.00  0.00     0.074 A 
ATOM     59  C   UNL     1      -2.169   1.217   7.558  1.00  0.00     0.029 A 
ATOM     60  N   UNL     1      -4.353   0.975   7.599  1.00  0.00    -0.354 N 
ATOM     61  N   UNL     1      -6.766  -0.698   4.370  1.00  0.00    -0.248 NA
ATOM     62  C   UNL     1      -7.987   1.065   5.295  1.00  0.00     0.031 C 
ATOM     63  C   UNL     1      -2.541   0.087   6.771  1.00  0.00     0.029 A 
ATOM     64  C   UNL     1      -3.932   0.061   6.663  1.00  0.00     0.049 A 
ATOM     65  H   UNL     1      -5.231   0.975   8.045  1.00  0.00     0.167 HD
ATOM     66  C   UNL     1      -6.131  -0.318   5.542  1.00  0.00     0.074 A 
ATOM     67  C   UNL     1      -6.997   0.712   6.120  1.00  0.00     0.031 C 
ATOM     68  C   UNL     1      -4.819  -0.639   5.756  1.00  0.00     0.037 A 
BRANCH  55  69
ATOM     69  C   UNL     1      -4.720   3.834   8.835  1.00  0.00     0.064 A 
ATOM     70  C   UNL     1      -4.739   3.333  10.146  1.00  0.00     0.173 A 
ATOM     71  C   UNL     1      -5.817   4.651   8.474  1.00  0.00     0.173 A 
ATOM     72  F   UNL     1      -3.771   2.507  10.569  1.00  0.00    -0.203 F 
ATOM     73  C   UNL     1      -5.793   3.609  11.020  1.00  0.00     0.198 A 
ATOM     74  C   UNL     1      -6.832   4.977   9.367  1.00  0.00     0.198 A 
ATOM     75  F   UNL     1      -6.013   5.072   7.219  1.00  0.00    -0.203 F 
ATOM     76  F   UNL     1      -5.826   3.024  12.224  1.00  0.00    -0.200 F 
ATOM     77  C   UNL     1      -6.834   4.435  10.633  1.00  0.00     0.200 A 
ATOM     78  F   UNL     1      -7.843   5.757   8.960  1.00  0.00    -0.200 F 
ATOM     79  F   UNL     1      -7.865   4.665  11.456  1.00  0.00    -0.200 F 
ENDBRANCH  55  69
BRANCH  56  80
ATOM     80  C   UNL     1      -9.213   0.895   2.176  1.00  0.00     0.064 A 
ATOM     81  C   UNL     1     -10.211  -0.041   2.501  1.00  0.00     0.173 A 
ATOM     82  C   UNL     1      -9.643   2.045   1.484  1.00  0.00     0.173 A 
ATOM     83  F   UNL     1      -9.896  -1.149   3.186  1.00  0.00    -0.203 F 
ATOM     84  C   UNL     1     -11.560   0.181   2.196  1.00  0.00     0.198 A 
ATOM     85  C   UNL     1     -10.991   2.265   1.178  1.00  0.00     0.198 A 
ATOM     86  F   UNL     1      -8.775   3.020   1.175  1.00  0.00    -0.203 F 
ATOM     87  F   UNL     1     -12.488  -0.705   2.586  1.00  0.00    -0.200 F 
ATOM     88  C   UNL     1     -11.951   1.341   1.550  1.00  0.00     0.200 A 
ATOM     89  F   UNL     1     -11.362   3.407   0.582  1.00  0.00    -0.200 F 
ATOM     90  F   UNL     1     -13.249   1.587   1.324  1.00  0.00    -0.200 F 
ENDBRANCH  56  80
BRANCH  68  91
ATOM     91  C   UNL     1      -4.182  -1.654   4.830  1.00  0.00     0.064 A 
ATOM     92  C   UNL     1      -3.970  -1.460   3.452  1.00  0.00     0.173 A 
ATOM     93  C   UNL     1      -3.628  -2.811   5.390  1.00  0.00     0.173 A 
ATOM     94  F   UNL     1      -4.381  -0.349   2.841  1.00  0.00    -0.203 F 
ATOM     95  C   UNL     1      -3.273  -2.385   2.673  1.00  0.00     0.198 A 
ATOM     96  C   UNL     1      -2.904  -3.720   4.619  1.00  0.00     0.198 A 
ATOM     97  F   UNL     1      -3.744  -3.037   6.707  1.00  0.00    -0.203 F 
ATOM     98  F   UNL     1      -3.092  -2.161   1.362  1.00  0.00    -0.200 F 
ATOM     99  C   UNL     1      -2.733  -3.512   3.260  1.00  0.00     0.200 A 
ATOM    100  F   UNL     1      -2.342  -4.787   5.204  1.00  0.00    -0.200 F 
ATOM    101  F   UNL     1      -2.026  -4.382   2.525  1.00  0.00    -0.200 F 
ENDBRANCH  68  91
ENDBRANCH  42  43
ENDBRANCH  35  37
ENDBRANCH  34  35
ENDBRANCH  33  34
ENDBRANCH  32  33
ENDBRANCH  31  32
ENDBRANCH  30  31
ENDBRANCH   1  30
TORSDOF 22
