REMARK SMILES C[C@@H](CCC(=O)OCCOCCOCCOC(=O)c1ccc(-c2c3nc(c(-c4c(F)c(F)c(F)c(F)c4F)c4ccc([nH]4)c(-c4c(F)c(F)c(F)c(F)c4F)c4nc(c(-c5c(F)c(F)c(F)c(F)c5F)c5ccc2[nH]5)C=C4)C=C3)cc1)[C@@H]1CC[C@@H]2[C@H]3CC[C@@H]4CC(=O)CC[C@]4(C)[C@@H]3CC(=O)[C@]21C
REMARK SMILES IDX 11 1 10 2 9 3 8 4 7 5 5 6 6 7 4 8 3 9 2 10 1 11 82 12 83 13
REMARK SMILES IDX 101 14 84 15 85 16 99 17 102 18 86 19 98 20 100 21 87 22
REMARK SMILES IDX 97 23 88 24 95 25 89 26 94 27 96 28 90 29 93 30 91 31 92 32
REMARK SMILES IDX 12 33 13 34 14 35 15 36 16 37 17 38 18 39 19 40 20 41 81 42
REMARK SMILES IDX 21 43 80 44 22 45 23 46 24 47 74 48 25 49 79 50 73 51 75 52
REMARK SMILES IDX 26 53 78 54 72 55 71 56 27 58 59 59 39 60 58 61 40 62 43 63
REMARK SMILES IDX 57 64 76 65 41 66 42 67 56 69 77 70 44 71 28 72 29 73 37 74
REMARK SMILES IDX 30 75 31 76 35 77 38 78 32 79 33 80 36 81 34 82 60 83 61 84
REMARK SMILES IDX 69 85 62 86 63 87 67 88 70 89 64 90 65 91 68 92 66 93 45 94
REMARK SMILES IDX 46 95 54 96 47 97 48 98 52 99 55 100 49 101 50 102 53 103
REMARK SMILES IDX 51 104
REMARK H PARENT 75 57 43 68
REMARK Flexibility Score: inf
ROOT
ATOM      1  C   UNL     1       2.005   1.823  -1.430  1.00  0.00     0.188 C 
ENDROOT
BRANCH   1   2
ATOM      2  O   UNL     1       2.670   1.085  -2.449  1.00  0.00    -0.376 OA
BRANCH   2   3
ATOM      3  C   UNL     1       2.235  -0.271  -2.630  1.00  0.00     0.202 C 
BRANCH   3   4
ATOM      4  C   UNL     1       2.479  -1.190  -1.428  1.00  0.00     0.261 C 
BRANCH   4   5
ATOM      5  O   UNL     1       1.420  -0.996  -0.467  1.00  0.00    -0.463 OA
BRANCH   5   6
ATOM      6  C   UNL     1       1.741  -0.847   0.833  1.00  0.00     0.305 C 
ATOM      7  O   UNL     1       2.888  -0.897   1.268  1.00  0.00    -0.252 OA
BRANCH   6   8
ATOM      8  C   UNL     1       0.554  -0.532   1.734  1.00  0.00     0.123 C 
BRANCH   8   9
ATOM      9  C   UNL     1      -0.836  -0.130   1.177  1.00  0.00     0.015 C 
BRANCH   9  10
ATOM     10  C   UNL     1      -1.871  -1.242   0.772  1.00  0.00    -0.010 C 
ATOM     11  C   UNL     1      -1.882  -2.361   1.813  1.00  0.00     0.008 C 
BRANCH  10  12
ATOM     12  C   UNL     1      -1.623  -1.694  -0.677  1.00  0.00     0.005 C 
ATOM     13  C   UNL     1      -2.189  -0.769  -1.784  1.00  0.00     0.005 C 
ATOM     14  C   UNL     1      -1.988  -3.074  -1.253  1.00  0.00     0.032 C 
ATOM     15  C   UNL     1      -1.916  -1.537  -3.111  1.00  0.00     0.005 C 
ATOM     16  C   UNL     1      -1.304  -2.866  -2.638  1.00  0.00     0.006 C 
ATOM     17  C   UNL     1      -1.269  -4.282  -0.697  1.00  0.00     0.139 C 
ATOM     18  C   UNL     1      -3.508  -3.328  -1.303  1.00  0.00     0.020 C 
ATOM     19  C   UNL     1      -1.208  -4.089  -3.579  1.00  0.00    -0.003 C 
ATOM     20  C   UNL     1      -1.559  -5.567  -1.433  1.00  0.00     0.080 C 
ATOM     21  O   UNL     1      -0.363  -4.220   0.130  1.00  0.00    -0.299 OA
ATOM     22  C   UNL     1      -0.029  -3.900  -4.576  1.00  0.00     0.004 C 
ATOM     23  C   UNL     1      -0.899  -5.413  -2.804  1.00  0.00     0.006 C 
ATOM     24  C   UNL     1       0.385  -5.151  -5.373  1.00  0.00     0.005 C 
ATOM     25  C   UNL     1      -0.916  -6.668  -3.747  1.00  0.00    -0.025 C 
ATOM     26  C   UNL     1       0.375  -6.494  -4.591  1.00  0.00     0.002 C 
ATOM     27  C   UNL     1      -2.152  -6.821  -4.686  1.00  0.00     0.015 C 
ATOM     28  C   UNL     1      -0.872  -7.959  -2.887  1.00  0.00     0.012 C 
ATOM     29  C   UNL     1       0.604  -7.691  -5.505  1.00  0.00     0.079 C 
ATOM     30  C   UNL     1      -1.890  -7.279  -6.133  1.00  0.00     0.076 C 
ATOM     31  C   UNL     1      -0.532  -7.860  -6.473  1.00  0.00     0.133 C 
ATOM     32  O   UNL     1      -0.351  -8.445  -7.543  1.00  0.00    -0.300 OA
ENDBRANCH  10  12
ENDBRANCH   9  10
ENDBRANCH   8   9
ENDBRANCH   6   8
ENDBRANCH   5   6
ENDBRANCH   4   5
ENDBRANCH   3   4
ENDBRANCH   2   3
ENDBRANCH   1   2
BRANCH   1  33
ATOM     33  C   UNL     1       0.640   2.388  -1.815  1.00  0.00     0.188 C 
BRANCH  33  34
ATOM     34  O   UNL     1      -0.129   1.504  -2.617  1.00  0.00    -0.376 OA
BRANCH  34  35
ATOM     35  C   UNL     1      -0.436   1.986  -3.925  1.00  0.00     0.202 C 
BRANCH  35  36
ATOM     36  C   UNL     1      -1.821   2.639  -3.970  1.00  0.00     0.261 C 
BRANCH  36  37
ATOM     37  O   UNL     1      -1.791   3.845  -3.194  1.00  0.00    -0.460 OA
BRANCH  37  38
ATOM     38  C   UNL     1      -2.293   3.753  -1.940  1.00  0.00     0.338 C 
ATOM     39  O   UNL     1      -3.031   2.886  -1.500  1.00  0.00    -0.246 OA
BRANCH  38  40
ATOM     40  C   UNL     1      -1.630   4.779  -1.099  1.00  0.00     0.060 A 
ATOM     41  C   UNL     1      -1.524   4.535   0.278  1.00  0.00     0.016 A 
ATOM     42  C   UNL     1      -1.025   5.913  -1.657  1.00  0.00     0.016 A 
ATOM     43  C   UNL     1      -0.845   5.434   1.097  1.00  0.00     0.010 A 
ATOM     44  C   UNL     1      -0.333   6.805  -0.840  1.00  0.00     0.010 A 
ATOM     45  C   UNL     1      -0.272   6.588   0.545  1.00  0.00    -0.014 A 
BRANCH  45  46
ATOM     46  C   UNL     1       0.235   7.656   1.435  1.00  0.00     0.031 A 
ATOM     47  C   UNL     1      -0.634   8.861   1.660  1.00  0.00     0.074 A 
ATOM     48  C   UNL     1       1.429   7.542   2.042  1.00  0.00     0.049 A 
ATOM     49  N   UNL     1      -0.410   9.926   2.384  1.00  0.00    -0.248 NA
ATOM     50  C   UNL     1      -1.934   8.868   0.967  1.00  0.00     0.031 C 
ATOM     51  C   UNL     1       2.348   6.414   1.898  1.00  0.00     0.029 A 
ATOM     52  N   UNL     1       2.074   8.394   2.902  1.00  0.00    -0.354 N 
ATOM     53  C   UNL     1      -1.541  10.720   2.242  1.00  0.00     0.074 A 
ATOM     54  C   UNL     1      -2.425  10.046   1.318  1.00  0.00     0.031 C 
ATOM     55  C   UNL     1       3.444   6.647   2.642  1.00  0.00     0.029 A 
ATOM     56  C   UNL     1       3.312   7.949   3.293  1.00  0.00     0.049 A 
ATOM     57  H   UNL     1       1.685   9.245   3.210  1.00  0.00     0.167 HD
ATOM     58  C   UNL     1      -1.825  11.896   2.848  1.00  0.00     0.037 A 
ATOM     59  C   UNL     1       4.235   8.540   4.077  1.00  0.00     0.037 A 
ATOM     60  C   UNL     1      -0.934  12.565   3.757  1.00  0.00     0.049 A 
ATOM     61  C   UNL     1       3.915   9.880   4.692  1.00  0.00     0.074 A 
ATOM     62  C   UNL     1      -1.120  13.760   4.427  1.00  0.00     0.029 A 
ATOM     63  N   UNL     1       0.319  12.092   4.120  1.00  0.00    -0.354 N 
ATOM     64  N   UNL     1       2.828  10.607   4.582  1.00  0.00    -0.248 NA
ATOM     65  C   UNL     1       4.947  10.475   5.552  1.00  0.00     0.031 C 
ATOM     66  C   UNL     1       0.042  14.037   5.154  1.00  0.00     0.029 A 
ATOM     67  C   UNL     1       0.927  12.983   4.989  1.00  0.00     0.049 A 
ATOM     68  H   UNL     1       0.718  11.248   3.805  1.00  0.00     0.167 HD
ATOM     69  C   UNL     1       3.035  11.728   5.377  1.00  0.00     0.074 A 
ATOM     70  C   UNL     1       4.338  11.568   5.988  1.00  0.00     0.031 C 
ATOM     71  C   UNL     1       2.227  12.799   5.582  1.00  0.00     0.037 A 
BRANCH  58  72
ATOM     72  C   UNL     1      -3.149  12.533   2.540  1.00  0.00     0.064 A 
ATOM     73  C   UNL     1      -4.355  11.977   2.995  1.00  0.00     0.173 A 
ATOM     74  C   UNL     1      -3.213  13.731   1.814  1.00  0.00     0.173 A 
ATOM     75  F   UNL     1      -4.352  10.820   3.675  1.00  0.00    -0.203 F 
ATOM     76  C   UNL     1      -5.576  12.587   2.718  1.00  0.00     0.198 A 
ATOM     77  C   UNL     1      -4.433  14.355   1.567  1.00  0.00     0.198 A 
ATOM     78  F   UNL     1      -2.091  14.304   1.353  1.00  0.00    -0.203 F 
ATOM     79  F   UNL     1      -6.717  12.013   3.124  1.00  0.00    -0.200 F 
ATOM     80  C   UNL     1      -5.613  13.780   2.014  1.00  0.00     0.200 A 
ATOM     81  F   UNL     1      -4.467  15.514   0.894  1.00  0.00    -0.200 F 
ATOM     82  F   UNL     1      -6.788  14.374   1.759  1.00  0.00    -0.200 F 
ENDBRANCH  58  72
BRANCH  59  83
ATOM     83  C   UNL     1       5.551   7.886   4.319  1.00  0.00     0.064 A 
ATOM     84  C   UNL     1       5.928   7.456   5.599  1.00  0.00     0.173 A 
ATOM     85  C   UNL     1       6.479   7.721   3.280  1.00  0.00     0.173 A 
ATOM     86  F   UNL     1       5.088   7.612   6.633  1.00  0.00    -0.203 F 
ATOM     87  C   UNL     1       7.194   6.923   5.837  1.00  0.00     0.198 A 
ATOM     88  C   UNL     1       7.731   7.154   3.512  1.00  0.00     0.198 A 
ATOM     89  F   UNL     1       6.172   8.115   2.035  1.00  0.00    -0.203 F 
ATOM     90  F   UNL     1       7.553   6.587   7.084  1.00  0.00    -0.200 F 
ATOM     91  C   UNL     1       8.093   6.768   4.793  1.00  0.00     0.200 A 
ATOM     92  F   UNL     1       8.591   6.996   2.497  1.00  0.00    -0.200 F 
ATOM     93  F   UNL     1       9.312   6.262   5.024  1.00  0.00    -0.200 F 
ENDBRANCH  59  83
BRANCH  71  94
ATOM     94  C   UNL     1       2.723  13.858   6.527  1.00  0.00     0.064 A 
ATOM     95  C   UNL     1       3.814  14.680   6.207  1.00  0.00     0.173 A 
ATOM     96  C   UNL     1       2.091  14.058   7.764  1.00  0.00     0.173 A 
ATOM     97  F   UNL     1       4.460  14.523   5.041  1.00  0.00    -0.203 F 
ATOM     98  C   UNL     1       4.285  15.628   7.111  1.00  0.00     0.198 A 
ATOM     99  C   UNL     1       2.540  15.035   8.649  1.00  0.00     0.198 A 
ATOM    100  F   UNL     1       1.034  13.311   8.114  1.00  0.00    -0.203 F 
ATOM    101  F   UNL     1       5.375  16.350   6.814  1.00  0.00    -0.200 F 
ATOM    102  C   UNL     1       3.645  15.808   8.328  1.00  0.00     0.200 A 
ATOM    103  F   UNL     1       1.908  15.221   9.815  1.00  0.00    -0.200 F 
ATOM    104  F   UNL     1       4.101  16.720   9.198  1.00  0.00    -0.200 F 
ENDBRANCH  71  94
ENDBRANCH  45  46
ENDBRANCH  38  40
ENDBRANCH  37  38
ENDBRANCH  36  37
ENDBRANCH  35  36
ENDBRANCH  34  35
ENDBRANCH  33  34
ENDBRANCH   1  33
TORSDOF 20
