REMARK SMILES Cc1cc(NS(=O)(=O)c2ccc(NC(=O)[C@@H]3CCCC[C@@H]3C(=O)OCCOCCOCCOC(=O)c3ccc(-c4c5nc(c(-c6c(F)c(F)c(F)c(F)c6F)c6ccc([nH]6)c(-c6c(F)c(F)c(F)c(F)c6F)c6nc(c(-c7c(F)c(F)c(F)c(F)c7F)c7ccc4[nH]7)C=C6)C=C5)cc3)cc2)no1
REMARK SMILES IDX 27 1 26 2 25 3 24 4 22 5 23 6 21 7 16 8 17 9 18 10 20 11
REMARK SMILES IDX 19 12 14 13 13 14 15 16 12 17 9 18 10 19 100 20 11 21 99 22
REMARK SMILES IDX 6 23 7 24 8 25 5 26 4 28 1 29 2 30 3 31 102 32 101 33 28 34
REMARK SMILES IDX 29 35 30 36 31 37 32 38 33 39 34 40 35 41 36 42 37 43 98 44
REMARK SMILES IDX 38 45 97 46 39 47 40 48 41 49 91 50 42 51 96 52 90 53 92 54
REMARK SMILES IDX 43 55 95 56 89 57 88 58 44 60 76 61 56 62 75 63 57 64 60 65
REMARK SMILES IDX 74 66 93 67 58 68 59 69 73 71 94 72 61 73 45 74 46 75 54 76
REMARK SMILES IDX 47 77 48 78 52 79 55 80 49 81 50 82 53 83 51 84 77 85 78 86
REMARK SMILES IDX 86 87 79 88 80 89 84 90 87 91 81 92 82 93 85 94 83 95 62 96
REMARK SMILES IDX 63 97 71 98 64 99 65 100 69 101 72 102 66 103 67 104 70 105
REMARK SMILES IDX 68 106
REMARK H PARENT 13 15 5 27 92 59 60 70
REMARK Flexibility Score: inf
ROOT
ATOM      1  O   UNL     1      -5.984   5.137   4.411  1.00  0.00    -0.376 OA
ENDROOT
BRANCH   1   2
ATOM      2  C   UNL     1      -5.979   6.555   4.314  1.00  0.00     0.202 C 
BRANCH   2   3
ATOM      3  C   UNL     1      -4.665   7.328   4.528  1.00  0.00     0.261 C 
BRANCH   3   4
ATOM      4  O   UNL     1      -3.534   6.988   3.688  1.00  0.00    -0.463 OA
BRANCH   4   5
ATOM      5  C   UNL     1      -2.576   6.254   4.305  1.00  0.00     0.309 C 
ATOM      6  O   UNL     1      -2.733   5.808   5.439  1.00  0.00    -0.252 OA
BRANCH   5   7
ATOM      7  C   UNL     1      -1.237   6.131   3.541  1.00  0.00     0.111 C 
ATOM      8  C   UNL     1      -1.098   5.404   2.144  1.00  0.00     0.093 C 
ATOM      9  C   UNL     1      -0.990   3.882   2.279  1.00  0.00     0.014 C 
ATOM     10  C   UNL     1      -0.287   3.255   3.472  1.00  0.00     0.001 C 
ATOM     11  C   UNL     1      -0.260   5.462   4.554  1.00  0.00     0.016 C 
ATOM     12  C   UNL     1      -0.583   3.978   4.750  1.00  0.00     0.001 C 
BRANCH   8  13
ATOM     13  C   UNL     1      -1.909   6.080   0.967  1.00  0.00     0.228 C 
ATOM     14  N   UNL     1      -2.516   5.542  -0.145  1.00  0.00    -0.326 N 
ATOM     15  H   UNL     1      -2.956   6.247  -0.674  1.00  0.00     0.169 HD
ATOM     16  O   UNL     1      -2.003   7.321   1.020  1.00  0.00    -0.274 OA
BRANCH  14  17
ATOM     17  C   UNL     1      -2.696   4.280  -0.753  1.00  0.00     0.041 A 
ATOM     18  C   UNL     1      -3.180   1.673  -1.784  1.00  0.00     0.088 A 
ATOM     19  C   UNL     1      -2.273   1.898  -0.774  1.00  0.00     0.024 A 
ATOM     20  C   UNL     1      -3.870   2.770  -2.307  1.00  0.00     0.024 A 
ATOM     21  C   UNL     1      -1.936   3.193  -0.429  1.00  0.00     0.027 A 
ATOM     22  C   UNL     1      -3.659   4.064  -1.755  1.00  0.00     0.027 A 
BRANCH  18  23
ATOM     23  S   UNL     1      -3.312   0.041  -2.486  1.00  0.00     0.263 S 
ATOM     24  O   UNL     1      -3.069   0.131  -3.904  1.00  0.00    -0.201 OA
ATOM     25  O   UNL     1      -4.556  -0.510  -1.977  1.00  0.00    -0.201 OA
BRANCH  23  26
ATOM     26  N   UNL     1      -2.107  -0.913  -1.786  1.00  0.00    -0.261 N 
ATOM     27  H   UNL     1      -2.381  -1.786  -1.425  1.00  0.00     0.182 HD
BRANCH  26  28
ATOM     28  C   UNL     1      -0.761  -0.577  -1.671  1.00  0.00     0.183 A 
ATOM     29  C   UNL     1       2.473  -0.237   0.042  1.00  0.00     0.091 C 
ATOM     30  C   UNL     1       1.222  -0.322  -0.739  1.00  0.00     0.135 A 
ATOM     31  C   UNL     1       0.107  -1.125  -0.694  1.00  0.00     0.096 A 
ATOM     32  O   UNL     1       1.061   0.601  -1.724  1.00  0.00    -0.360 OA
ATOM     33  N   UNL     1      -0.171   0.424  -2.326  1.00  0.00    -0.061 NA
ENDBRANCH  26  28
ENDBRANCH  23  26
ENDBRANCH  18  23
ENDBRANCH  14  17
ENDBRANCH   8  13
ENDBRANCH   5   7
ENDBRANCH   4   5
ENDBRANCH   3   4
ENDBRANCH   2   3
ENDBRANCH   1   2
BRANCH   1  34
ATOM     34  C   UNL     1      -5.125   4.367   3.585  1.00  0.00     0.188 C 
BRANCH  34  35
ATOM     35  C   UNL     1      -4.757   4.873   2.184  1.00  0.00     0.188 C 
BRANCH  35  36
ATOM     36  O   UNL     1      -5.489   5.985   1.727  1.00  0.00    -0.376 OA
BRANCH  36  37
ATOM     37  C   UNL     1      -6.408   5.765   0.673  1.00  0.00     0.202 C 
BRANCH  37  38
ATOM     38  C   UNL     1      -7.409   4.607   0.820  1.00  0.00     0.261 C 
BRANCH  38  39
ATOM     39  O   UNL     1      -6.833   3.370   1.296  1.00  0.00    -0.460 OA
BRANCH  39  40
ATOM     40  C   UNL     1      -6.598   2.398   0.391  1.00  0.00     0.338 C 
ATOM     41  O   UNL     1      -6.858   2.435  -0.799  1.00  0.00    -0.246 OA
BRANCH  40  42
ATOM     42  C   UNL     1      -5.939   1.233   1.036  1.00  0.00     0.060 A 
ATOM     43  C   UNL     1      -4.609   1.302   1.457  1.00  0.00     0.016 A 
ATOM     44  C   UNL     1      -6.590   0.001   1.050  1.00  0.00     0.016 A 
ATOM     45  C   UNL     1      -3.901   0.140   1.774  1.00  0.00     0.010 A 
ATOM     46  C   UNL     1      -5.896  -1.158   1.435  1.00  0.00     0.010 A 
ATOM     47  C   UNL     1      -4.526  -1.113   1.739  1.00  0.00    -0.014 A 
BRANCH  47  48
ATOM     48  C   UNL     1      -3.723  -2.348   1.975  1.00  0.00     0.031 A 
ATOM     49  C   UNL     1      -3.510  -3.366   0.879  1.00  0.00     0.074 A 
ATOM     50  C   UNL     1      -3.082  -2.524   3.147  1.00  0.00     0.049 A 
ATOM     51  N   UNL     1      -2.658  -4.363   0.845  1.00  0.00    -0.248 NA
ATOM     52  C   UNL     1      -4.257  -3.194  -0.373  1.00  0.00     0.031 C 
ATOM     53  C   UNL     1      -3.098  -1.594   4.277  1.00  0.00     0.029 A 
ATOM     54  N   UNL     1      -2.305  -3.569   3.589  1.00  0.00    -0.354 N 
ATOM     55  C   UNL     1      -2.700  -4.861  -0.451  1.00  0.00     0.074 A 
ATOM     56  C   UNL     1      -3.669  -4.072  -1.175  1.00  0.00     0.031 C 
ATOM     57  C   UNL     1      -2.402  -2.126   5.292  1.00  0.00     0.029 A 
ATOM     58  C   UNL     1      -1.969  -3.467   4.916  1.00  0.00     0.049 A 
ATOM     59  H   UNL     1      -2.018  -4.314   3.012  1.00  0.00     0.167 HD
ATOM     60  C   UNL     1      -2.016  -5.900  -0.986  1.00  0.00     0.037 A 
ATOM     61  C   UNL     1      -1.463  -4.387   5.760  1.00  0.00     0.037 A 
ATOM     62  C   UNL     1      -1.307  -6.880  -0.208  1.00  0.00     0.049 A 
ATOM     63  C   UNL     1      -1.099  -5.745   5.231  1.00  0.00     0.074 A 
ATOM     64  C   UNL     1      -0.742  -8.071  -0.628  1.00  0.00     0.029 A 
ATOM     65  N   UNL     1      -1.177  -6.841   1.171  1.00  0.00    -0.354 N 
ATOM     66  N   UNL     1      -1.066  -6.164   3.990  1.00  0.00    -0.248 NA
ATOM     67  C   UNL     1      -0.722  -6.764   6.219  1.00  0.00     0.031 C 
ATOM     68  C   UNL     1      -0.391  -8.809   0.510  1.00  0.00     0.029 A 
ATOM     69  C   UNL     1      -0.644  -8.034   1.630  1.00  0.00     0.049 A 
ATOM     70  H   UNL     1      -1.427  -6.078   1.740  1.00  0.00     0.167 HD
ATOM     71  C   UNL     1      -0.642  -7.485   4.043  1.00  0.00     0.074 A 
ATOM     72  C   UNL     1      -0.424  -7.795   5.441  1.00  0.00     0.031 C 
ATOM     73  C   UNL     1      -0.444  -8.354   3.021  1.00  0.00     0.037 A 
BRANCH  60  74
ATOM     74  C   UNL     1      -2.113  -6.105  -2.467  1.00  0.00     0.064 A 
ATOM     75  C   UNL     1      -1.312  -5.370  -3.354  1.00  0.00     0.173 A 
ATOM     76  C   UNL     1      -2.966  -7.081  -3.001  1.00  0.00     0.173 A 
ATOM     77  F   UNL     1      -0.483  -4.424  -2.886  1.00  0.00    -0.203 F 
ATOM     78  C   UNL     1      -1.362  -5.609  -4.726  1.00  0.00     0.198 A 
ATOM     79  C   UNL     1      -3.008  -7.322  -4.371  1.00  0.00     0.198 A 
ATOM     80  F   UNL     1      -3.748  -7.806  -2.188  1.00  0.00    -0.203 F 
ATOM     81  F   UNL     1      -0.588  -4.900  -5.559  1.00  0.00    -0.200 F 
ATOM     82  C   UNL     1      -2.207  -6.587  -5.232  1.00  0.00     0.200 A 
ATOM     83  F   UNL     1      -3.820  -8.271  -4.856  1.00  0.00    -0.200 F 
ATOM     84  F   UNL     1      -2.249  -6.824  -6.551  1.00  0.00    -0.200 F 
ENDBRANCH  60  74
BRANCH  61  85
ATOM     85  C   UNL     1      -1.408  -4.086   7.215  1.00  0.00     0.064 A 
ATOM     86  C   UNL     1      -0.197  -4.025   7.912  1.00  0.00     0.173 A 
ATOM     87  C   UNL     1      -2.591  -3.859   7.941  1.00  0.00     0.173 A 
ATOM     88  F   UNL     1       0.956  -4.268   7.273  1.00  0.00    -0.203 F 
ATOM     89  C   UNL     1      -0.170  -3.746   9.278  1.00  0.00     0.198 A 
ATOM     90  C   UNL     1      -2.561  -3.545   9.295  1.00  0.00     0.198 A 
ATOM     91  F   UNL     1      -3.781  -3.924   7.324  1.00  0.00    -0.203 F 
ATOM     92  F   UNL     1       0.999  -3.732   9.932  1.00  0.00    -0.200 F 
ATOM     93  C   UNL     1      -1.349  -3.495   9.965  1.00  0.00     0.200 A 
ATOM     94  F   UNL     1      -3.703  -3.290   9.947  1.00  0.00    -0.200 F 
ATOM     95  F   UNL     1      -1.319  -3.213  11.275  1.00  0.00    -0.200 F 
ENDBRANCH  61  85
BRANCH  73  96
ATOM     96  C   UNL     1       0.061  -9.726   3.366  1.00  0.00     0.064 A 
ATOM     97  C   UNL     1      -0.741 -10.665   4.032  1.00  0.00     0.173 A 
ATOM     98  C   UNL     1       1.358 -10.115   2.997  1.00  0.00     0.173 A 
ATOM     99  F   UNL     1      -1.983 -10.338   4.420  1.00  0.00    -0.203 F 
ATOM    100  C   UNL     1      -0.251 -11.931   4.343  1.00  0.00     0.198 A 
ATOM    101  C   UNL     1       1.831 -11.393   3.278  1.00  0.00     0.198 A 
ATOM    102  F   UNL     1       2.164  -9.258   2.353  1.00  0.00    -0.203 F 
ATOM    103  F   UNL     1      -1.014 -12.792   5.030  1.00  0.00    -0.200 F 
ATOM    104  C   UNL     1       1.031 -12.297   3.959  1.00  0.00     0.200 A 
ATOM    105  F   UNL     1       3.064 -11.748   2.892  1.00  0.00    -0.200 F 
ATOM    106  F   UNL     1       1.498 -13.517   4.255  1.00  0.00    -0.200 F 
ENDBRANCH  73  96
ENDBRANCH  47  48
ENDBRANCH  40  42
ENDBRANCH  39  40
ENDBRANCH  38  39
ENDBRANCH  37  38
ENDBRANCH  36  37
ENDBRANCH  35  36
ENDBRANCH  34  35
ENDBRANCH   1  34
TORSDOF 22
