REMARK SMILES Cc1nn2c(nnc3c(=O)n(CCCC(=O)OCCOCCOCCOC(=O)c4ccc(-c5c6nc(c(-c7c(F)c(F)c(F)c(F)c7F)c7ccc([nH]7)c(-c7c(F)c(F)c(F)c(F)c7F)c7nc(c(-c8c(F)c(F)c(F)c(F)c8F)c8ccc5[nH]8)C=C7)C=C6)cc4)ccc32)c1-c1ccc(F)cc1
REMARK SMILES IDX 21 1 20 2 19 3 18 4 17 5 15 6 16 7 14 8 13 9 12 10 11 11
REMARK SMILES IDX 1 12 2 13 3 14 95 15 4 16 5 17 94 18 6 19 8 20 93 21 7 22
REMARK SMILES IDX 9 23 92 24 10 25 96 26 97 27 102 28 98 29 101 30 99 31
REMARK SMILES IDX 100 32 22 33 23 34 24 35 25 36 26 37 27 38 28 39 29 40 30 41
REMARK SMILES IDX 91 42 31 43 90 44 32 45 33 46 34 47 84 48 35 49 89 50 83 51
REMARK SMILES IDX 85 52 36 53 88 54 82 55 81 56 37 58 69 59 49 60 68 61 50 62
REMARK SMILES IDX 53 63 67 64 86 65 51 66 52 67 66 69 87 70 54 71 38 72 39 73
REMARK SMILES IDX 47 74 40 75 41 76 45 77 48 78 42 79 43 80 46 81 44 82 70 83
REMARK SMILES IDX 71 84 79 85 72 86 73 87 77 88 80 89 74 90 75 91 78 92 76 93
REMARK SMILES IDX 55 94 56 95 64 96 57 97 58 98 62 99 65 100 59 101 60 102
REMARK SMILES IDX 63 103 61 104
REMARK H PARENT 85 57 53 68
REMARK Flexibility Score: inf
ROOT
ATOM      1  C   UNL     1      -2.398  -3.033  12.167  1.00  0.00     0.188 C 
ENDROOT
BRANCH   1   2
ATOM      2  O   UNL     1      -1.159  -3.298  12.771  1.00  0.00    -0.376 OA
BRANCH   2   3
ATOM      3  C   UNL     1       0.011  -3.228  11.969  1.00  0.00     0.202 C 
BRANCH   3   4
ATOM      4  C   UNL     1      -0.020  -3.256  10.427  1.00  0.00     0.261 C 
BRANCH   4   5
ATOM      5  O   UNL     1      -1.090  -2.518   9.811  1.00  0.00    -0.463 OA
BRANCH   5   6
ATOM      6  C   UNL     1      -1.867  -3.183   8.923  1.00  0.00     0.305 C 
ATOM      7  O   UNL     1      -1.778  -4.387   8.696  1.00  0.00    -0.252 OA
BRANCH   6   8
ATOM      8  C   UNL     1      -2.971  -2.352   8.276  1.00  0.00     0.124 C 
BRANCH   8   9
ATOM      9  C   UNL     1      -3.124  -0.825   8.409  1.00  0.00     0.034 C 
BRANCH   9  10
ATOM     10  C   UNL     1      -1.885   0.074   8.335  1.00  0.00     0.126 C 
BRANCH  10  11
ATOM     11  N   UNL     1      -1.294   0.058   7.008  1.00  0.00    -0.313 N 
ATOM     12  C   UNL     1       0.901   0.330  -0.237  1.00  0.00     0.069 C 
ATOM     13  C   UNL     1       0.486  -0.322   1.027  1.00  0.00     0.070 A 
ATOM     14  N   UNL     1      -0.005   0.416   2.033  1.00  0.00    -0.170 NA
ATOM     15  C   UNL     1       0.547  -1.694   1.356  1.00  0.00     0.051 A 
ATOM     16  N   UNL     1      -0.134  -0.458   3.067  1.00  0.00    -0.210 N 
ATOM     17  C   UNL     1       0.209  -1.748   2.686  1.00  0.00     0.186 A 
ATOM     18  C   UNL     1      -0.485  -0.215   4.389  1.00  0.00     0.102 A 
ATOM     19  N   UNL     1       0.203  -2.772   3.584  1.00  0.00    -0.129 NA
ATOM     20  C   UNL     1      -0.331  -1.263   5.215  1.00  0.00     0.177 A 
ATOM     21  C   UNL     1      -1.003   1.048   4.879  1.00  0.00     0.049 A 
ATOM     22  N   UNL     1       0.017  -2.530   4.800  1.00  0.00    -0.141 NA
ATOM     23  C   UNL     1      -0.523  -1.047   6.663  1.00  0.00     0.280 A 
ATOM     24  C   UNL     1      -1.467   1.119   6.136  1.00  0.00     0.091 A 
ATOM     25  O   UNL     1      -0.044  -1.843   7.464  1.00  0.00    -0.267 OA
BRANCH  15  26
ATOM     26  C   UNL     1       0.958  -2.872   0.630  1.00  0.00    -0.012 A 
ATOM     27  C   UNL     1       2.277  -3.012   0.187  1.00  0.00     0.012 A 
ATOM     28  C   UNL     1       0.040  -3.916   0.438  1.00  0.00     0.012 A 
ATOM     29  C   UNL     1       2.670  -4.189  -0.453  1.00  0.00     0.040 A 
ATOM     30  C   UNL     1       0.435  -5.088  -0.204  1.00  0.00     0.040 A 
ATOM     31  C   UNL     1       1.746  -5.212  -0.645  1.00  0.00     0.123 A 
ATOM     32  F   UNL     1       2.130  -6.339  -1.259  1.00  0.00    -0.207 F 
ENDBRANCH  15  26
ENDBRANCH  10  11
ENDBRANCH   9  10
ENDBRANCH   8   9
ENDBRANCH   6   8
ENDBRANCH   5   6
ENDBRANCH   4   5
ENDBRANCH   3   4
ENDBRANCH   2   3
ENDBRANCH   1   2
BRANCH   1  33
ATOM     33  C   UNL     1      -2.749  -1.589  11.780  1.00  0.00     0.188 C 
BRANCH  33  34
ATOM     34  O   UNL     1      -1.843  -0.556  11.439  1.00  0.00    -0.376 OA
BRANCH  34  35
ATOM     35  C   UNL     1      -0.805  -0.015  12.243  1.00  0.00     0.202 C 
BRANCH  35  36
ATOM     36  C   UNL     1      -0.913   0.196  13.752  1.00  0.00     0.261 C 
BRANCH  36  37
ATOM     37  O   UNL     1      -1.998  -0.485  14.321  1.00  0.00    -0.460 OA
BRANCH  37  38
ATOM     38  C   UNL     1      -3.160   0.156  14.121  1.00  0.00     0.338 C 
ATOM     39  O   UNL     1      -3.347   1.243  13.584  1.00  0.00    -0.246 OA
BRANCH  38  40
ATOM     40  C   UNL     1      -4.223  -0.707  14.626  1.00  0.00     0.060 A 
ATOM     41  C   UNL     1      -5.522  -0.339  14.277  1.00  0.00     0.016 A 
ATOM     42  C   UNL     1      -3.917  -1.562  15.688  1.00  0.00     0.016 A 
ATOM     43  C   UNL     1      -6.466  -0.463  15.251  1.00  0.00     0.010 A 
ATOM     44  C   UNL     1      -4.844  -1.645  16.678  1.00  0.00     0.010 A 
ATOM     45  C   UNL     1      -6.038  -0.958  16.484  1.00  0.00    -0.014 A 
BRANCH  45  46
ATOM     46  C   UNL     1      -6.856  -0.677  17.626  1.00  0.00     0.031 A 
ATOM     47  C   UNL     1      -7.901  -1.688  17.802  1.00  0.00     0.074 A 
ATOM     48  C   UNL     1      -6.607   0.384  18.413  1.00  0.00     0.049 A 
ATOM     49  N   UNL     1      -9.152  -1.554  17.523  1.00  0.00    -0.248 NA
ATOM     50  C   UNL     1      -7.475  -3.068  18.079  1.00  0.00     0.031 C 
ATOM     51  C   UNL     1      -5.447   1.280  18.431  1.00  0.00     0.029 A 
ATOM     52  N   UNL     1      -7.354   0.833  19.451  1.00  0.00    -0.354 N 
ATOM     53  C   UNL     1      -9.708  -2.791  17.797  1.00  0.00     0.074 A 
ATOM     54  C   UNL     1      -8.618  -3.726  17.897  1.00  0.00     0.031 C 
ATOM     55  C   UNL     1      -5.464   2.006  19.576  1.00  0.00     0.029 A 
ATOM     56  C   UNL     1      -6.696   1.723  20.290  1.00  0.00     0.049 A 
ATOM     57  H   UNL     1      -8.286   0.551  19.598  1.00  0.00     0.167 HD
ATOM     58  C   UNL     1     -10.991  -2.892  18.224  1.00  0.00     0.037 A 
ATOM     59  C   UNL     1      -7.138   2.060  21.529  1.00  0.00     0.037 A 
ATOM     60  C   UNL     1     -11.736  -1.690  17.955  1.00  0.00     0.049 A 
ATOM     61  C   UNL     1      -8.597   1.742  21.564  1.00  0.00     0.074 A 
ATOM     62  C   UNL     1     -12.090  -1.019  16.800  1.00  0.00     0.029 A 
ATOM     63  N   UNL     1     -11.870  -0.780  18.976  1.00  0.00    -0.354 N 
ATOM     64  N   UNL     1      -9.492   2.381  20.861  1.00  0.00    -0.248 NA
ATOM     65  C   UNL     1      -8.980   0.402  21.992  1.00  0.00     0.031 C 
ATOM     66  C   UNL     1     -11.972   0.365  17.120  1.00  0.00     0.029 A 
ATOM     67  C   UNL     1     -11.617   0.469  18.465  1.00  0.00     0.049 A 
ATOM     68  H   UNL     1     -12.104  -0.987  19.910  1.00  0.00     0.167 HD
ATOM     69  C   UNL     1     -10.355   1.393  20.403  1.00  0.00     0.074 A 
ATOM     70  C   UNL     1     -10.022   0.202  21.179  1.00  0.00     0.031 C 
ATOM     71  C   UNL     1     -11.047   1.549  19.236  1.00  0.00     0.037 A 
BRANCH  58  72
ATOM     72  C   UNL     1     -11.427  -3.930  19.211  1.00  0.00     0.064 A 
ATOM     73  C   UNL     1     -12.794  -4.191  19.377  1.00  0.00     0.173 A 
ATOM     74  C   UNL     1     -10.565  -4.499  20.177  1.00  0.00     0.173 A 
ATOM     75  F   UNL     1     -13.695  -3.652  18.543  1.00  0.00    -0.203 F 
ATOM     76  C   UNL     1     -13.266  -4.947  20.451  1.00  0.00     0.198 A 
ATOM     77  C   UNL     1     -11.031  -5.308  21.206  1.00  0.00     0.198 A 
ATOM     78  F   UNL     1      -9.260  -4.203  20.232  1.00  0.00    -0.203 F 
ATOM     79  F   UNL     1     -14.585  -5.083  20.637  1.00  0.00    -0.200 F 
ATOM     80  C   UNL     1     -12.385  -5.511  21.359  1.00  0.00     0.200 A 
ATOM     81  F   UNL     1     -10.161  -5.820  22.087  1.00  0.00    -0.200 F 
ATOM     82  F   UNL     1     -12.840  -6.205  22.410  1.00  0.00    -0.200 F 
ENDBRANCH  58  72
BRANCH  59  83
ATOM     83  C   UNL     1      -6.337   2.178  22.775  1.00  0.00     0.064 A 
ATOM     84  C   UNL     1      -6.923   2.690  23.945  1.00  0.00     0.173 A 
ATOM     85  C   UNL     1      -5.107   1.510  22.934  1.00  0.00     0.173 A 
ATOM     86  F   UNL     1      -8.112   3.309  23.887  1.00  0.00    -0.203 F 
ATOM     87  C   UNL     1      -6.341   2.500  25.203  1.00  0.00     0.198 A 
ATOM     88  C   UNL     1      -4.525   1.326  24.189  1.00  0.00     0.198 A 
ATOM     89  F   UNL     1      -4.494   0.931  21.892  1.00  0.00    -0.203 F 
ATOM     90  F   UNL     1      -6.971   2.934  26.304  1.00  0.00    -0.200 F 
ATOM     91  C   UNL     1      -5.151   1.803  25.325  1.00  0.00     0.200 A 
ATOM     92  F   UNL     1      -3.390   0.620  24.297  1.00  0.00    -0.200 F 
ATOM     93  F   UNL     1      -4.632   1.553  26.535  1.00  0.00    -0.200 F 
ENDBRANCH  59  83
BRANCH  71  94
ATOM     94  C   UNL     1     -11.036   2.911  18.595  1.00  0.00     0.064 A 
ATOM     95  C   UNL     1      -9.881   3.541  18.098  1.00  0.00     0.173 A 
ATOM     96  C   UNL     1     -12.266   3.534  18.346  1.00  0.00     0.173 A 
ATOM     97  F   UNL     1      -8.678   2.961  18.207  1.00  0.00    -0.203 F 
ATOM     98  C   UNL     1      -9.956   4.760  17.422  1.00  0.00     0.198 A 
ATOM     99  C   UNL     1     -12.341   4.730  17.639  1.00  0.00     0.198 A 
ATOM    100  F   UNL     1     -13.406   2.951  18.749  1.00  0.00    -0.203 F 
ATOM    101  F   UNL     1      -8.839   5.348  16.967  1.00  0.00    -0.200 F 
ATOM    102  C   UNL     1     -11.187   5.348  17.186  1.00  0.00     0.200 A 
ATOM    103  F   UNL     1     -13.539   5.268  17.369  1.00  0.00    -0.200 F 
ATOM    104  F   UNL     1     -11.265   6.496  16.499  1.00  0.00    -0.200 F 
ENDBRANCH  71  94
ENDBRANCH  45  46
ENDBRANCH  38  40
ENDBRANCH  37  38
ENDBRANCH  36  37
ENDBRANCH  35  36
ENDBRANCH  34  35
ENDBRANCH  33  34
ENDBRANCH   1  33
TORSDOF 21
