REMARK SMILES O=C(CCCN1C(=O)c2ccc3c4c(ccc(c24)C1=O)C(=O)NC3=O)OCCOCCOCCOC(=O)c1ccc(-c2c3nc(c(-c4c(F)c(F)c(F)c(F)c4F)c4ccc([nH]4)c(-c4c(F)c(F)c(F)c(F)c4F)c4nc(c(-c5c(F)c(F)c(F)c(F)c5F)c5ccc2[nH]5)C=C4)C=C3)cc1
REMARK SMILES IDX 30 1 29 2 28 3 27 4 26 5 2 6 1 7 3 8 4 9 5 10 6 11 19 12
REMARK SMILES IDX 7 13 20 14 17 15 9 16 8 17 16 18 18 19 10 20 15 21 13 22
REMARK SMILES IDX 11 23 14 24 12 25 21 26 24 27 23 28 22 29 25 30 31 32 32 33
REMARK SMILES IDX 33 34 34 35 35 36 36 37 37 38 38 39 39 40 100 41 40 42 99 43
REMARK SMILES IDX 41 44 42 45 43 46 93 47 44 48 98 49 92 50 94 51 45 52 97 53
REMARK SMILES IDX 91 54 90 55 46 57 78 58 58 59 77 60 59 61 62 62 76 63 95 64
REMARK SMILES IDX 60 65 61 66 75 68 96 69 63 70 47 71 48 72 56 73 49 74 50 75
REMARK SMILES IDX 54 76 57 77 51 78 52 79 55 80 53 81 79 82 80 83 88 84 81 85
REMARK SMILES IDX 82 86 86 87 89 88 83 89 84 90 87 91 85 92 64 93 65 94 73 95
REMARK SMILES IDX 66 96 67 97 71 98 74 99 68 100 69 101 72 102 70 103
REMARK H PARENT 23 31 94 56 62 67
REMARK Flexibility Score: inf
ROOT
ATOM      1  C   UNL     1       2.783   1.672  -1.113  1.00  0.00     0.188 C 
ENDROOT
BRANCH   1   2
ATOM      2  O   UNL     1       4.039   0.998  -1.202  1.00  0.00    -0.376 OA
BRANCH   2   3
ATOM      3  C   UNL     1       4.050  -0.137  -2.064  1.00  0.00     0.202 C 
BRANCH   3   4
ATOM      4  C   UNL     1       3.892  -1.432  -1.279  1.00  0.00     0.261 C 
BRANCH   4   5
ATOM      5  O   UNL     1       2.585  -1.550  -0.693  1.00  0.00    -0.463 OA
BRANCH   5   6
ATOM      6  C   UNL     1       2.428  -1.618   0.652  1.00  0.00     0.305 C 
ATOM      7  O   UNL     1       1.574  -2.350   1.145  1.00  0.00    -0.252 OA
BRANCH   6   8
ATOM      8  C   UNL     1       3.216  -0.651   1.503  1.00  0.00     0.124 C 
BRANCH   8   9
ATOM      9  C   UNL     1       4.273  -1.278   2.404  1.00  0.00     0.034 C 
BRANCH   9  10
ATOM     10  C   UNL     1       5.718  -1.289   1.878  1.00  0.00     0.130 C 
BRANCH  10  11
ATOM     11  N   UNL     1       6.307  -0.079   1.278  1.00  0.00    -0.274 N 
ATOM     12  C   UNL     1       5.928   1.193   1.702  1.00  0.00     0.261 C 
ATOM     13  C   UNL     1       7.394  -0.303   0.420  1.00  0.00     0.261 C 
ATOM     14  O   UNL     1       5.138   1.421   2.614  1.00  0.00    -0.269 OA
ATOM     15  C   UNL     1       6.558   2.353   1.023  1.00  0.00     0.049 A 
ATOM     16  C   UNL     1       8.152   0.876  -0.061  1.00  0.00     0.049 A 
ATOM     17  O   UNL     1       7.760  -1.419   0.057  1.00  0.00    -0.269 OA
ATOM     18  C   UNL     1       6.067   3.644   1.254  1.00  0.00     0.015 A 
ATOM     19  C   UNL     1       7.681   2.160   0.216  1.00  0.00     0.009 A 
ATOM     20  C   UNL     1       9.330   0.697  -0.802  1.00  0.00     0.015 A 
ATOM     21  C   UNL     1       6.705   4.749   0.691  1.00  0.00     0.015 A 
ATOM     22  C   UNL     1       8.367   3.284  -0.313  1.00  0.00     0.009 A 
ATOM     23  C   UNL     1      10.038   1.801  -1.278  1.00  0.00     0.015 A 
ATOM     24  C   UNL     1       7.855   4.568  -0.080  1.00  0.00     0.048 A 
ATOM     25  C   UNL     1       9.549   3.089  -1.044  1.00  0.00     0.048 A 
ATOM     26  C   UNL     1       8.546   5.745  -0.655  1.00  0.00     0.258 C 
ATOM     27  C   UNL     1      10.293   4.265  -1.554  1.00  0.00     0.258 C 
ATOM     28  N   UNL     1       9.719   5.493  -1.324  1.00  0.00    -0.288 N 
ATOM     29  O   UNL     1       8.085   6.874  -0.540  1.00  0.00    -0.269 OA
ATOM     30  O   UNL     1      11.357   4.144  -2.146  1.00  0.00    -0.269 OA
ATOM     31  H   UNL     1      10.200   6.276  -1.677  1.00  0.00     0.173 HD
ENDBRANCH  10  11
ENDBRANCH   9  10
ENDBRANCH   8   9
ENDBRANCH   6   8
ENDBRANCH   5   6
ENDBRANCH   4   5
ENDBRANCH   3   4
ENDBRANCH   2   3
ENDBRANCH   1   2
BRANCH   1  32
ATOM     32  C   UNL     1       2.262   2.299  -2.413  1.00  0.00     0.188 C 
BRANCH  32  33
ATOM     33  O   UNL     1       3.207   2.586  -3.437  1.00  0.00    -0.376 OA
BRANCH  33  34
ATOM     34  C   UNL     1       4.411   3.265  -3.098  1.00  0.00     0.202 C 
BRANCH  34  35
ATOM     35  C   UNL     1       4.260   4.699  -2.596  1.00  0.00     0.261 C 
BRANCH  35  36
ATOM     36  O   UNL     1       3.834   4.745  -1.221  1.00  0.00    -0.460 OA
BRANCH  36  37
ATOM     37  C   UNL     1       2.664   5.387  -1.004  1.00  0.00     0.338 C 
ATOM     38  O   UNL     1       1.915   5.870  -1.834  1.00  0.00    -0.246 OA
BRANCH  37  39
ATOM     39  C   UNL     1       2.330   5.366   0.430  1.00  0.00     0.060 A 
ATOM     40  C   UNL     1       1.105   4.814   0.812  1.00  0.00     0.016 A 
ATOM     41  C   UNL     1       3.133   6.032   1.359  1.00  0.00     0.016 A 
ATOM     42  C   UNL     1       0.644   4.990   2.117  1.00  0.00     0.010 A 
ATOM     43  C   UNL     1       2.679   6.191   2.672  1.00  0.00     0.010 A 
ATOM     44  C   UNL     1       1.406   5.722   3.040  1.00  0.00    -0.014 A 
BRANCH  44  45
ATOM     45  C   UNL     1       0.779   6.162   4.312  1.00  0.00     0.031 A 
ATOM     46  C   UNL     1       0.282   7.580   4.431  1.00  0.00     0.074 A 
ATOM     47  C   UNL     1       0.602   5.302   5.330  1.00  0.00     0.049 A 
ATOM     48  N   UNL     1      -0.322   8.171   5.431  1.00  0.00    -0.248 NA
ATOM     49  C   UNL     1       0.499   8.451   3.264  1.00  0.00     0.031 C 
ATOM     50  C   UNL     1       1.026   3.904   5.339  1.00  0.00     0.029 A 
ATOM     51  N   UNL     1       0.014   5.485   6.557  1.00  0.00    -0.354 N 
ATOM     52  C   UNL     1      -0.562   9.474   5.012  1.00  0.00     0.074 A 
ATOM     53  C   UNL     1       0.006   9.605   3.688  1.00  0.00     0.031 C 
ATOM     54  C   UNL     1       0.687   3.354   6.518  1.00  0.00     0.029 A 
ATOM     55  C   UNL     1       0.038   4.366   7.351  1.00  0.00     0.049 A 
ATOM     56  H   UNL     1      -0.387   6.339   6.841  1.00  0.00     0.167 HD
ATOM     57  C   UNL     1      -1.220  10.466   5.659  1.00  0.00     0.037 A 
ATOM     58  C   UNL     1      -0.408   4.183   8.609  1.00  0.00     0.037 A 
ATOM     59  C   UNL     1      -1.787  10.343   6.975  1.00  0.00     0.049 A 
ATOM     60  C   UNL     1      -1.099   5.316   9.324  1.00  0.00     0.074 A 
ATOM     61  C   UNL     1      -2.471  11.292   7.714  1.00  0.00     0.029 A 
ATOM     62  N   UNL     1      -1.735   9.194   7.749  1.00  0.00    -0.354 N 
ATOM     63  N   UNL     1      -1.350   6.533   8.905  1.00  0.00    -0.248 NA
ATOM     64  C   UNL     1      -1.583   5.042  10.685  1.00  0.00     0.031 C 
ATOM     65  C   UNL     1      -2.802  10.729   8.952  1.00  0.00     0.029 A 
ATOM     66  C   UNL     1      -2.364   9.414   8.964  1.00  0.00     0.049 A 
ATOM     67  H   UNL     1      -1.314   8.347   7.477  1.00  0.00     0.167 HD
ATOM     68  C   UNL     1      -2.040   7.158   9.936  1.00  0.00     0.074 A 
ATOM     69  C   UNL     1      -2.187   6.180  10.993  1.00  0.00     0.031 C 
ATOM     70  C   UNL     1      -2.509   8.429  10.004  1.00  0.00     0.037 A 
BRANCH  57  71
ATOM     71  C   UNL     1      -1.361  11.779   4.945  1.00  0.00     0.064 A 
ATOM     72  C   UNL     1      -2.225  11.926   3.849  1.00  0.00     0.173 A 
ATOM     73  C   UNL     1      -0.654  12.910   5.380  1.00  0.00     0.173 A 
ATOM     74  F   UNL     1      -2.912  10.870   3.385  1.00  0.00    -0.203 F 
ATOM     75  C   UNL     1      -2.359  13.151   3.201  1.00  0.00     0.198 A 
ATOM     76  C   UNL     1      -0.812  14.140   4.747  1.00  0.00     0.198 A 
ATOM     77  F   UNL     1       0.182  12.824   6.426  1.00  0.00    -0.203 F 
ATOM     78  F   UNL     1      -3.158  13.257   2.130  1.00  0.00    -0.200 F 
ATOM     79  C   UNL     1      -1.659  14.258   3.655  1.00  0.00     0.200 A 
ATOM     80  F   UNL     1      -0.143  15.212   5.193  1.00  0.00    -0.200 F 
ATOM     81  F   UNL     1      -1.794  15.439   3.035  1.00  0.00    -0.200 F 
ENDBRANCH  57  71
BRANCH  58  82
ATOM     82  C   UNL     1      -0.218   2.871   9.280  1.00  0.00     0.064 A 
ATOM     83  C   UNL     1      -1.308   2.040   9.574  1.00  0.00     0.173 A 
ATOM     84  C   UNL     1       1.057   2.438   9.672  1.00  0.00     0.173 A 
ATOM     85  F   UNL     1      -2.550   2.424   9.244  1.00  0.00    -0.203 F 
ATOM     86  C   UNL     1      -1.132   0.838  10.257  1.00  0.00     0.198 A 
ATOM     87  C   UNL     1       1.235   1.223  10.329  1.00  0.00     0.198 A 
ATOM     88  F   UNL     1       2.132   3.199   9.417  1.00  0.00    -0.203 F 
ATOM     89  F   UNL     1      -2.197   0.090  10.575  1.00  0.00    -0.200 F 
ATOM     90  C   UNL     1       0.139   0.428  10.629  1.00  0.00     0.200 A 
ATOM     91  F   UNL     1       2.466   0.827  10.680  1.00  0.00    -0.200 F 
ATOM     92  F   UNL     1       0.307  -0.725  11.290  1.00  0.00    -0.200 F 
ENDBRANCH  58  82
BRANCH  70  93
ATOM     93  C   UNL     1      -3.251   8.824  11.248  1.00  0.00     0.064 A 
ATOM     94  C   UNL     1      -2.591   9.008  12.472  1.00  0.00     0.173 A 
ATOM     95  C   UNL     1      -4.636   9.046  11.208  1.00  0.00     0.173 A 
ATOM     96  F   UNL     1      -1.270   8.795  12.565  1.00  0.00    -0.203 F 
ATOM     97  C   UNL     1      -3.295   9.369  13.617  1.00  0.00     0.198 A 
ATOM     98  C   UNL     1      -5.332   9.436  12.349  1.00  0.00     0.198 A 
ATOM     99  F   UNL     1      -5.314   8.893  10.061  1.00  0.00    -0.203 F 
ATOM    100  F   UNL     1      -2.652   9.488  14.787  1.00  0.00    -0.200 F 
ATOM    101  C   UNL     1      -4.663   9.588  13.554  1.00  0.00     0.200 A 
ATOM    102  F   UNL     1      -6.652   9.660  12.284  1.00  0.00    -0.200 F 
ATOM    103  F   UNL     1      -5.339   9.936  14.658  1.00  0.00    -0.200 F 
ENDBRANCH  70  93
ENDBRANCH  44  45
ENDBRANCH  37  39
ENDBRANCH  36  37
ENDBRANCH  35  36
ENDBRANCH  34  35
ENDBRANCH  33  34
ENDBRANCH  32  33
ENDBRANCH   1  32
TORSDOF 20
