REMARK SMILES Cc1cc(N2CC[NH+]([C@@H](C(=O)OCCOCCOCCOC(=O)c3ccc(-c4c5nc(c(-c6c(F)c(F)c(F)c(F)c6F)c6ccc([nH]6)c(-c6c(F)c(F)c(F)c(F)c6F)c6nc(c(-c7c(F)c(F)c(F)c(F)c7F)c7ccc4[nH]7)C=C6)C=C5)cc3)c3c[nH]c4ccccc34)CC2)nc2ccccc12
REMARK SMILES IDX 16 1 15 2 14 3 13 4 12 5 10 6 11 7 9 8 8 9 5 10 6 11 97 12
REMARK SMILES IDX 7 13 96 14 4 16 1 17 2 18 3 19 104 20 99 21 103 22 98 23
REMARK SMILES IDX 100 24 102 25 101 26 87 27 88 28 95 29 89 30 90 31 94 32
REMARK SMILES IDX 91 34 93 35 92 36 17 37 18 38 19 39 20 40 21 41 22 42 23 43
REMARK SMILES IDX 24 44 25 45 86 46 26 47 85 48 27 49 28 50 29 51 79 52 30 53
REMARK SMILES IDX 84 54 78 55 80 56 31 57 83 58 77 59 76 60 32 62 64 63 44 64
REMARK SMILES IDX 63 65 45 66 48 67 62 68 81 69 46 70 47 71 61 73 82 74 49 75
REMARK SMILES IDX 33 76 34 77 42 78 35 79 36 80 40 81 43 82 37 83 38 84 41 85
REMARK SMILES IDX 39 86 65 87 66 88 74 89 67 90 68 91 72 92 75 93 69 94 70 95
REMARK SMILES IDX 73 96 71 97 50 98 51 99 59 100 52 101 53 102 57 103 60 104
REMARK SMILES IDX 54 105 55 106 58 107 56 108
REMARK H PARENT 8 15 89 33 80 61 48 72
REMARK Flexibility Score: inf
ROOT
ATOM      1  C   UNL     1      -0.592  -6.644  -0.667  1.00  0.00     0.188 C 
ENDROOT
BRANCH   1   2
ATOM      2  O   UNL     1      -0.076  -6.513  -1.982  1.00  0.00    -0.376 OA
BRANCH   2   3
ATOM      3  C   UNL     1      -0.419  -5.329  -2.699  1.00  0.00     0.202 C 
BRANCH   3   4
ATOM      4  C   UNL     1      -1.903  -5.111  -3.029  1.00  0.00     0.261 C 
BRANCH   4   5
ATOM      5  O   UNL     1      -2.688  -4.835  -1.858  1.00  0.00    -0.459 OA
BRANCH   5   6
ATOM      6  C   UNL     1      -3.523  -5.790  -1.384  1.00  0.00     0.370 C 
ATOM      7  O   UNL     1      -3.766  -6.836  -1.983  1.00  0.00    -0.245 OA
BRANCH   6   8
ATOM      8  C   UNL     1      -4.159  -5.404  -0.038  1.00  0.00     0.328 C 
BRANCH   8   9
ATOM      9  N   UNL     1      -4.881  -4.044   0.020  1.00  0.00    -0.316 N 
ATOM     10  N   UNL     1      -3.702  -1.249  -0.385  1.00  0.00    -0.345 N 
ATOM     11  C   UNL     1      -3.707  -1.961   0.910  1.00  0.00     0.179 C 
ATOM     12  C   UNL     1      -3.983  -2.118  -1.541  1.00  0.00     0.179 C 
ATOM     13  C   UNL     1      -4.784  -3.055   1.084  1.00  0.00     0.285 C 
ATOM     14  C   UNL     1      -5.036  -3.262  -1.237  1.00  0.00     0.285 C 
ATOM     15  H   UNL     1      -5.667  -4.631   0.297  1.00  0.00     0.349 HD
BRANCH  10  16
ATOM     16  C   UNL     1      -2.623  -0.316  -0.516  1.00  0.00     0.129 A 
ATOM     17  C   UNL     1      -1.967   3.355   0.169  1.00  0.00     0.045 C 
ATOM     18  C   UNL     1      -1.718   1.895  -0.070  1.00  0.00    -0.038 A 
ATOM     19  C   UNL     1      -2.809   0.995  -0.111  1.00  0.00     0.051 A 
ATOM     20  C   UNL     1      -0.399   1.425  -0.253  1.00  0.00     0.003 A 
ATOM     21  C   UNL     1      -0.277   0.114  -0.707  1.00  0.00     0.073 A 
ATOM     22  C   UNL     1       0.776   2.192   0.018  1.00  0.00     0.010 A 
ATOM     23  N   UNL     1      -1.381  -0.669  -0.944  1.00  0.00    -0.231 NA
ATOM     24  C   UNL     1       1.041  -0.376  -0.841  1.00  0.00     0.029 A 
ATOM     25  C   UNL     1       2.056   1.642  -0.049  1.00  0.00     0.001 A 
ATOM     26  C   UNL     1       2.189   0.334  -0.460  1.00  0.00     0.002 A 
ENDBRANCH  10  16
ENDBRANCH   8   9
BRANCH   8  27
ATOM     27  C   UNL     1      -3.867  -6.348   1.268  1.00  0.00     0.046 A 
ATOM     28  C   UNL     1      -4.963  -6.695   2.064  1.00  0.00     0.094 A 
ATOM     29  C   UNL     1      -2.840  -6.624   2.309  1.00  0.00     0.009 A 
ATOM     30  N   UNL     1      -4.876  -5.667   3.013  1.00  0.00    -0.361 N 
ATOM     31  C   UNL     1      -3.585  -5.709   3.638  1.00  0.00     0.046 A 
ATOM     32  C   UNL     1      -1.171  -7.211   2.629  1.00  0.00     0.011 A 
ATOM     33  H   UNL     1      -5.588  -5.019   3.218  1.00  0.00     0.166 HD
ATOM     34  C   UNL     1      -2.481  -5.235   5.253  1.00  0.00     0.026 A 
ATOM     35  C   UNL     1      -0.180  -6.808   4.069  1.00  0.00     0.001 A 
ATOM     36  C   UNL     1      -0.785  -5.824   5.363  1.00  0.00     0.002 A 
ENDBRANCH   8  27
ENDBRANCH   6   8
ENDBRANCH   5   6
ENDBRANCH   4   5
ENDBRANCH   3   4
ENDBRANCH   2   3
ENDBRANCH   1   2
BRANCH   1  37
ATOM     37  C   UNL     1      -0.355  -5.464   0.275  1.00  0.00     0.188 C 
BRANCH  37  38
ATOM     38  O   UNL     1      -1.045  -4.302  -0.058  1.00  0.00    -0.376 OA
BRANCH  38  39
ATOM     39  C   UNL     1      -0.396  -3.086   0.224  1.00  0.00     0.202 C 
BRANCH  39  40
ATOM     40  C   UNL     1       0.031  -2.674   1.633  1.00  0.00     0.261 C 
BRANCH  40  41
ATOM     41  O   UNL     1      -0.925  -3.162   2.567  1.00  0.00    -0.460 OA
BRANCH  41  42
ATOM     42  C   UNL     1      -1.893  -2.569   3.275  1.00  0.00     0.338 C 
ATOM     43  O   UNL     1      -2.132  -1.397   3.449  1.00  0.00    -0.246 OA
BRANCH  42  44
ATOM     44  C   UNL     1      -2.642  -3.753   3.747  1.00  0.00     0.060 A 
ATOM     45  C   UNL     1      -4.120  -3.807   4.722  1.00  0.00     0.016 A 
ATOM     46  C   UNL     1      -1.730  -5.279   3.538  1.00  0.00     0.016 A 
ATOM     47  C   UNL     1      -4.690  -5.302   5.559  1.00  0.00     0.010 A 
ATOM     48  C   UNL     1      -2.383  -6.948   4.452  1.00  0.00     0.010 A 
ATOM     49  C   UNL     1      -3.849  -6.862   5.458  1.00  0.00    -0.014 A 
BRANCH  49  50
ATOM     50  C   UNL     1      -3.967  -8.004   6.376  1.00  0.00     0.031 A 
ATOM     51  C   UNL     1      -3.558  -7.837   7.805  1.00  0.00     0.074 A 
ATOM     52  C   UNL     1      -4.053  -9.250   5.875  1.00  0.00     0.049 A 
ATOM     53  N   UNL     1      -3.782  -8.613   8.829  1.00  0.00    -0.248 NA
ATOM     54  C   UNL     1      -2.723  -6.674   8.132  1.00  0.00     0.031 C 
ATOM     55  C   UNL     1      -4.036  -9.608   4.455  1.00  0.00     0.029 A 
ATOM     56  N   UNL     1      -4.132 -10.461   6.508  1.00  0.00    -0.354 N 
ATOM     57  C   UNL     1      -3.215  -7.961   9.916  1.00  0.00     0.074 A 
ATOM     58  C   UNL     1      -2.503  -6.817   9.424  1.00  0.00     0.031 C 
ATOM     59  C   UNL     1      -4.162 -10.935   4.321  1.00  0.00     0.029 A 
ATOM     60  C   UNL     1      -4.317 -11.512   5.645  1.00  0.00     0.049 A 
ATOM     61  H   UNL     1      -4.064 -10.567   7.484  1.00  0.00     0.167 HD
ATOM     62  C   UNL     1      -3.335  -8.276  11.223  1.00  0.00     0.037 A 
ATOM     63  C   UNL     1      -4.655 -12.785   5.908  1.00  0.00     0.037 A 
ATOM     64  C   UNL     1      -3.904  -9.525  11.634  1.00  0.00     0.049 A 
ATOM     65  C   UNL     1      -4.906 -13.134   7.345  1.00  0.00     0.074 A 
ATOM     66  C   UNL     1      -4.190  -9.989  12.899  1.00  0.00     0.029 A 
ATOM     67  N   UNL     1      -4.218 -10.546  10.742  1.00  0.00    -0.354 N 
ATOM     68  N   UNL     1      -4.698 -12.407   8.420  1.00  0.00    -0.248 NA
ATOM     69  C   UNL     1      -5.484 -14.452   7.608  1.00  0.00     0.031 C 
ATOM     70  C   UNL     1      -4.606 -11.321  12.776  1.00  0.00     0.029 A 
ATOM     71  C   UNL     1      -4.670 -11.654  11.428  1.00  0.00     0.049 A 
ATOM     72  H   UNL     1      -4.130 -10.487   9.763  1.00  0.00     0.167 HD
ATOM     73  C   UNL     1      -5.145 -13.165   9.490  1.00  0.00     0.074 A 
ATOM     74  C   UNL     1      -5.657 -14.400   8.920  1.00  0.00     0.031 C 
ATOM     75  C   UNL     1      -5.141 -12.874  10.817  1.00  0.00     0.037 A 
BRANCH  62  76
ATOM     76  C   UNL     1      -2.862  -7.255  12.221  1.00  0.00     0.064 A 
ATOM     77  C   UNL     1      -3.408  -5.955  12.243  1.00  0.00     0.173 A 
ATOM     78  C   UNL     1      -1.848  -7.542  13.143  1.00  0.00     0.173 A 
ATOM     79  F   UNL     1      -4.379  -5.612  11.381  1.00  0.00    -0.203 F 
ATOM     80  C   UNL     1      -2.919  -4.976  13.104  1.00  0.00     0.198 A 
ATOM     81  C   UNL     1      -1.389  -6.571  14.033  1.00  0.00     0.198 A 
ATOM     82  F   UNL     1      -1.282  -8.757  13.172  1.00  0.00    -0.203 F 
ATOM     83  F   UNL     1      -3.401  -3.727  13.040  1.00  0.00    -0.200 F 
ATOM     84  C   UNL     1      -1.913  -5.286  14.002  1.00  0.00     0.200 A 
ATOM     85  F   UNL     1      -0.424  -6.874  14.912  1.00  0.00    -0.200 F 
ATOM     86  F   UNL     1      -1.437  -4.344  14.828  1.00  0.00    -0.200 F 
ENDBRANCH  62  76
BRANCH  63  87
ATOM     87  C   UNL     1      -4.931 -13.719   4.785  1.00  0.00     0.064 A 
ATOM     88  C   UNL     1      -6.242 -14.100   4.461  1.00  0.00     0.173 A 
ATOM     89  C   UNL     1      -3.898 -14.189   3.961  1.00  0.00     0.173 A 
ATOM     90  F   UNL     1      -7.270 -13.669   5.208  1.00  0.00    -0.203 F 
ATOM     91  C   UNL     1      -6.505 -14.940   3.379  1.00  0.00     0.198 A 
ATOM     92  C   UNL     1      -4.165 -15.004   2.862  1.00  0.00     0.198 A 
ATOM     93  F   UNL     1      -2.630 -13.825   4.204  1.00  0.00    -0.203 F 
ATOM     94  F   UNL     1      -7.764 -15.318   3.118  1.00  0.00    -0.200 F 
ATOM     95  C   UNL     1      -5.467 -15.387   2.577  1.00  0.00     0.200 A 
ATOM     96  F   UNL     1      -3.161 -15.411   2.073  1.00  0.00    -0.200 F 
ATOM     97  F   UNL     1      -5.720 -16.186   1.532  1.00  0.00    -0.200 F 
ENDBRANCH  63  87
BRANCH  75  98
ATOM     98  C   UNL     1      -5.736 -13.905  11.726  1.00  0.00     0.064 A 
ATOM     99  C   UNL     1      -5.156 -15.170  11.896  1.00  0.00     0.173 A 
ATOM    100  C   UNL     1      -6.907 -13.612  12.442  1.00  0.00     0.173 A 
ATOM    101  F   UNL     1      -4.037 -15.497  11.231  1.00  0.00    -0.203 F 
ATOM    102  C   UNL     1      -5.766 -16.129  12.696  1.00  0.00     0.198 A 
ATOM    103  C   UNL     1      -7.481 -14.554  13.286  1.00  0.00     0.198 A 
ATOM    104  F   UNL     1      -7.490 -12.409  12.329  1.00  0.00    -0.203 F 
ATOM    105  F   UNL     1      -5.249 -17.363  12.767  1.00  0.00    -0.200 F 
ATOM    106  C   UNL     1      -6.923 -15.819  13.395  1.00  0.00     0.200 A 
ATOM    107  F   UNL     1      -8.581 -14.241  13.984  1.00  0.00    -0.200 F 
ATOM    108  F   UNL     1      -7.509 -16.744  14.165  1.00  0.00    -0.200 F 
ENDBRANCH  75  98
ENDBRANCH  49  50
ENDBRANCH  42  44
ENDBRANCH  41  42
ENDBRANCH  40  41
ENDBRANCH  39  40
ENDBRANCH  38  39
ENDBRANCH  37  38
ENDBRANCH   1  37
TORSDOF 20
