REMARK SMILES CCC(CC)COc1cc2c(cc1Cl)C=C(C(=O)OCCOCCOCCOC(=O)c1ccc(-c3c4nc(c(-c5c(F)c(F)c(F)c(F)c5F)c5ccc([nH]5)c(-c5c(F)c(F)c(F)c(F)c5F)c5nc(c(-c6c(F)c(F)c(F)c(F)c6F)c6ccc3[nH]6)C=C5)C=C4)cc1)[C@@H](C(F)(F)F)O2
REMARK SMILES IDX 23 1 22 2 21 3 20 4 19 5 17 6 18 7 16 8 8 9 9 10 13 11 10 12
REMARK SMILES IDX 12 13 14 14 11 15 99 16 15 17 94 18 7 19 6 20 3 21 2 22 1 23
REMARK SMILES IDX 4 24 5 25 95 26 96 27 97 28 98 29 24 30 25 31 26 32 27 33
REMARK SMILES IDX 28 34 29 35 30 36 31 37 32 38 93 39 33 40 92 41 34 42 35 43
REMARK SMILES IDX 36 44 86 45 37 46 91 47 85 48 87 49 38 50 90 51 84 52 83 53
REMARK SMILES IDX 39 55 71 56 51 57 70 58 52 59 55 60 69 61 88 62 53 63 54 64
REMARK SMILES IDX 68 66 89 67 56 68 40 69 41 70 49 71 42 72 43 73 47 74 50 75
REMARK SMILES IDX 44 76 45 77 48 78 46 79 72 80 73 81 81 82 74 83 75 84 79 85
REMARK SMILES IDX 82 86 76 87 77 88 80 89 78 90 57 91 58 92 66 93 59 94 60 95
REMARK SMILES IDX 64 96 67 97 61 98 62 99 65 100 63 101
REMARK H PARENT 87 54 55 65
REMARK Flexibility Score: inf
ROOT
ATOM      1  C   UNL     1      -2.241   5.629  -5.314  1.00  0.00     0.188 C 
ENDROOT
BRANCH   1   2
ATOM      2  O   UNL     1      -2.381   6.891  -5.922  1.00  0.00    -0.376 OA
BRANCH   2   3
ATOM      3  C   UNL     1      -1.740   7.197  -7.149  1.00  0.00     0.202 C 
BRANCH   3   4
ATOM      4  C   UNL     1      -0.681   6.330  -7.857  1.00  0.00     0.261 C 
BRANCH   4   5
ATOM      5  O   UNL     1      -0.655   4.935  -7.540  1.00  0.00    -0.460 OA
BRANCH   5   6
ATOM      6  C   UNL     1       0.419   4.551  -6.814  1.00  0.00     0.338 C 
ATOM      7  O   UNL     1       1.343   5.267  -6.455  1.00  0.00    -0.246 OA
BRANCH   6   8
ATOM      8  C   UNL     1       0.265   3.165  -6.340  1.00  0.00     0.087 C 
ATOM      9  C   UNL     1       1.057  -1.056  -3.796  1.00  0.00     0.141 A 
ATOM     10  C   UNL     1       0.230  -0.759  -4.892  1.00  0.00     0.095 A 
ATOM     11  C   UNL     1       1.870  -0.051  -3.257  1.00  0.00     0.083 A 
ATOM     12  C   UNL     1       0.163   0.557  -5.369  1.00  0.00     0.131 A 
ATOM     13  C   UNL     1       1.667   1.274  -3.618  1.00  0.00     0.036 A 
ATOM     14  Cl  UNL     1       3.183  -0.378  -2.188  1.00  0.00    -0.080 Cl
ATOM     15  C   UNL     1       0.808   1.577  -4.668  1.00  0.00     0.019 A 
ATOM     16  O   UNL     1      -0.536   0.810  -6.524  1.00  0.00    -0.475 OA
ATOM     17  C   UNL     1       0.684   2.955  -5.088  1.00  0.00     0.027 C 
ATOM     18  C   UNL     1      -0.218   2.058  -7.237  1.00  0.00     0.316 C 
BRANCH   9  19
ATOM     19  O   UNL     1       1.151  -2.341  -3.331  1.00  0.00    -0.492 OA
BRANCH  19  20
ATOM     20  C   UNL     1       0.175  -2.687  -2.315  1.00  0.00     0.233 C 
BRANCH  20  21
ATOM     21  C   UNL     1       0.509  -2.133  -0.902  1.00  0.00     0.026 C 
BRANCH  21  22
ATOM     22  C   UNL     1      -0.146  -0.751  -0.669  1.00  0.00     0.003 C 
ATOM     23  C   UNL     1       0.495   0.032   0.470  1.00  0.00     0.004 C 
ENDBRANCH  21  22
BRANCH  21  24
ATOM     24  C   UNL     1       0.174  -3.124   0.236  1.00  0.00     0.003 C 
ATOM     25  C   UNL     1      -1.304  -3.377   0.486  1.00  0.00     0.004 C 
ENDBRANCH  21  24
ENDBRANCH  20  21
ENDBRANCH  19  20
ENDBRANCH   9  19
BRANCH  18  26
ATOM     26  C   UNL     1       0.781   1.819  -8.378  1.00  0.00     0.430 C 
ATOM     27  F   UNL     1       0.392   0.807  -9.185  1.00  0.00    -0.167 F 
ATOM     28  F   UNL     1       0.894   2.922  -9.159  1.00  0.00    -0.167 F 
ATOM     29  F   UNL     1       2.018   1.527  -7.918  1.00  0.00    -0.167 F 
ENDBRANCH  18  26
ENDBRANCH   6   8
ENDBRANCH   5   6
ENDBRANCH   4   5
ENDBRANCH   3   4
ENDBRANCH   2   3
ENDBRANCH   1   2
BRANCH   1  30
ATOM     30  C   UNL     1      -3.020   4.439  -5.910  1.00  0.00     0.188 C 
BRANCH  30  31
ATOM     31  O   UNL     1      -3.667   4.565  -7.157  1.00  0.00    -0.376 OA
BRANCH  31  32
ATOM     32  C   UNL     1      -4.705   5.520  -7.322  1.00  0.00     0.202 C 
BRANCH  32  33
ATOM     33  C   UNL     1      -5.697   5.912  -6.210  1.00  0.00     0.261 C 
BRANCH  33  34
ATOM     34  O   UNL     1      -5.185   5.975  -4.874  1.00  0.00    -0.460 OA
BRANCH  34  35
ATOM     35  C   UNL     1      -5.595   4.981  -4.041  1.00  0.00     0.338 C 
ATOM     36  O   UNL     1      -6.326   4.050  -4.302  1.00  0.00    -0.246 OA
BRANCH  35  37
ATOM     37  C   UNL     1      -4.827   5.090  -2.782  1.00  0.00     0.060 A 
ATOM     38  C   UNL     1      -4.941   6.224  -1.980  1.00  0.00     0.016 A 
ATOM     39  C   UNL     1      -3.973   4.039  -2.414  1.00  0.00     0.016 A 
ATOM     40  C   UNL     1      -4.208   6.298  -0.794  1.00  0.00     0.010 A 
ATOM     41  C   UNL     1      -3.226   4.124  -1.236  1.00  0.00     0.010 A 
ATOM     42  C   UNL     1      -3.355   5.246  -0.407  1.00  0.00    -0.014 A 
BRANCH  42  43
ATOM     43  C   UNL     1      -2.745   5.260   0.945  1.00  0.00     0.031 A 
ATOM     44  C   UNL     1      -1.305   5.605   1.169  1.00  0.00     0.074 A 
ATOM     45  C   UNL     1      -3.536   4.962   1.992  1.00  0.00     0.049 A 
ATOM     46  N   UNL     1      -0.669   5.772   2.302  1.00  0.00    -0.248 NA
ATOM     47  C   UNL     1      -0.467   5.779  -0.025  1.00  0.00     0.031 C 
ATOM     48  C   UNL     1      -4.943   4.573   1.889  1.00  0.00     0.029 A 
ATOM     49  N   UNL     1      -3.284   4.955   3.341  1.00  0.00    -0.354 N 
ATOM     50  C   UNL     1       0.635   6.103   1.963  1.00  0.00     0.074 A 
ATOM     51  C   UNL     1       0.715   6.054   0.516  1.00  0.00     0.031 C 
ATOM     52  C   UNL     1      -5.442   4.407   3.122  1.00  0.00     0.029 A 
ATOM     53  C   UNL     1      -4.386   4.651   4.101  1.00  0.00     0.049 A 
ATOM     54  H   UNL     1      -2.399   5.150   3.725  1.00  0.00     0.167 HD
ATOM     55  C   UNL     1       1.658   6.439   2.787  1.00  0.00     0.037 A 
ATOM     56  C   UNL     1      -4.535   4.587   5.438  1.00  0.00     0.037 A 
ATOM     57  C   UNL     1       1.572   6.467   4.227  1.00  0.00     0.049 A 
ATOM     58  C   UNL     1      -3.368   4.915   6.326  1.00  0.00     0.074 A 
ATOM     59  C   UNL     1       2.547   6.832   5.141  1.00  0.00     0.029 A 
ATOM     60  N   UNL     1       0.455   6.104   4.966  1.00  0.00    -0.354 N 
ATOM     61  N   UNL     1      -2.164   5.312   5.995  1.00  0.00    -0.248 NA
ATOM     62  C   UNL     1      -3.583   4.791   7.775  1.00  0.00     0.031 C 
ATOM     63  C   UNL     1       2.042   6.632   6.429  1.00  0.00     0.029 A 
ATOM     64  C   UNL     1       0.730   6.202   6.323  1.00  0.00     0.049 A 
ATOM     65  H   UNL     1      -0.406   5.818   4.584  1.00  0.00     0.167 HD
ATOM     66  C   UNL     1      -1.484   5.506   7.190  1.00  0.00     0.074 A 
ATOM     67  C   UNL     1      -2.417   5.203   8.255  1.00  0.00     0.031 C 
ATOM     68  C   UNL     1      -0.201   5.897   7.381  1.00  0.00     0.037 A 
BRANCH  55  69
ATOM     69  C   UNL     1       2.969   6.827   2.162  1.00  0.00     0.064 A 
ATOM     70  C   UNL     1       3.114   8.039   1.470  1.00  0.00     0.173 A 
ATOM     71  C   UNL     1       4.114   6.036   2.342  1.00  0.00     0.173 A 
ATOM     72  F   UNL     1       2.051   8.834   1.270  1.00  0.00    -0.203 F 
ATOM     73  C   UNL     1       4.351   8.437   0.970  1.00  0.00     0.198 A 
ATOM     74  C   UNL     1       5.356   6.451   1.867  1.00  0.00     0.198 A 
ATOM     75  F   UNL     1       4.036   4.875   3.010  1.00  0.00    -0.203 F 
ATOM     76  F   UNL     1       4.458   9.586   0.289  1.00  0.00    -0.200 F 
ATOM     77  C   UNL     1       5.473   7.649   1.178  1.00  0.00     0.200 A 
ATOM     78  F   UNL     1       6.442   5.698   2.087  1.00  0.00    -0.200 F 
ATOM     79  F   UNL     1       6.667   8.044   0.715  1.00  0.00    -0.200 F 
ENDBRANCH  55  69
BRANCH  56  80
ATOM     80  C   UNL     1      -5.862   4.240   6.007  1.00  0.00     0.064 A 
ATOM     81  C   UNL     1      -6.623   5.196   6.694  1.00  0.00     0.173 A 
ATOM     82  C   UNL     1      -6.411   2.959   5.848  1.00  0.00     0.173 A 
ATOM     83  F   UNL     1      -6.133   6.429   6.886  1.00  0.00    -0.203 F 
ATOM     84  C   UNL     1      -7.878   4.880   7.209  1.00  0.00     0.198 A 
ATOM     85  C   UNL     1      -7.680   2.654   6.336  1.00  0.00     0.198 A 
ATOM     86  F   UNL     1      -5.726   2.011   5.192  1.00  0.00    -0.203 F 
ATOM     87  F   UNL     1      -8.570   5.803   7.892  1.00  0.00    -0.200 F 
ATOM     88  C   UNL     1      -8.409   3.613   7.021  1.00  0.00     0.200 A 
ATOM     89  F   UNL     1      -8.197   1.435   6.135  1.00  0.00    -0.200 F 
ATOM     90  F   UNL     1      -9.624   3.316   7.503  1.00  0.00    -0.200 F 
ENDBRANCH  56  80
BRANCH  68  91
ATOM     91  C   UNL     1       0.285   6.030   8.798  1.00  0.00     0.064 A 
ATOM     92  C   UNL     1       0.505   4.904   9.606  1.00  0.00     0.173 A 
ATOM     93  C   UNL     1       0.604   7.289   9.329  1.00  0.00     0.173 A 
ATOM     94  F   UNL     1       0.202   3.678   9.153  1.00  0.00    -0.203 F 
ATOM     95  C   UNL     1       1.014   5.036  10.896  1.00  0.00     0.198 A 
ATOM     96  C   UNL     1       1.144   7.415  10.606  1.00  0.00     0.198 A 
ATOM     97  F   UNL     1       0.418   8.399   8.597  1.00  0.00    -0.203 F 
ATOM     98  F   UNL     1       1.182   3.949  11.662  1.00  0.00    -0.200 F 
ATOM     99  C   UNL     1       1.344   6.289  11.390  1.00  0.00     0.200 A 
ATOM    100  F   UNL     1       1.478   8.625  11.075  1.00  0.00    -0.200 F 
ATOM    101  F   UNL     1       1.854   6.412  12.623  1.00  0.00    -0.200 F 
ENDBRANCH  68  91
ENDBRANCH  42  43
ENDBRANCH  35  37
ENDBRANCH  34  35
ENDBRANCH  33  34
ENDBRANCH  32  33
ENDBRANCH  31  32
ENDBRANCH  30  31
ENDBRANCH   1  30
TORSDOF 23
