REMARK SMILES C[C@H]1N=c2ccc(OC(F)(F)F)cc2=C1CCN1C(=O)c2ccc(C(=O)OCCOCCOCCOC(=O)c3ccc(-c4c5nc(c(-c6c(F)c(F)c(F)c(F)c6F)c6ccc([nH]6)c(-c6c(F)c(F)c(F)c(F)c6F)c6nc(c(-c7c(F)c(F)c(F)c(F)c7F)c7ccc4[nH]7)C=C6)C=C5)cc3)cc2C1=O
REMARK SMILES IDX 30 1 29 2 28 3 27 4 25 5 26 6 24 7 18 8 19 9 104 10 20 11
REMARK SMILES IDX 21 12 103 13 105 14 22 15 102 16 23 17 17 18 16 19 15 20
REMARK SMILES IDX 1 21 2 22 3 23 4 24 14 25 5 26 13 27 6 28 7 29 8 30 9 31
REMARK SMILES IDX 10 32 11 33 12 34 31 35 32 36 33 37 34 38 35 39 36 40 37 41
REMARK SMILES IDX 38 42 39 43 40 44 101 45 41 46 100 47 42 48 43 49 44 50
REMARK SMILES IDX 94 51 45 52 99 53 93 54 95 55 46 56 98 57 92 58 91 59 47 61
REMARK SMILES IDX 79 62 59 63 78 64 60 65 63 66 77 67 96 68 61 69 62 70 76 72
REMARK SMILES IDX 97 73 64 74 48 75 49 76 57 77 50 78 51 79 55 80 58 81 52 82
REMARK SMILES IDX 53 83 56 84 54 85 80 86 81 87 89 88 82 89 83 90 87 91 90 92
REMARK SMILES IDX 84 93 85 94 88 95 86 96 65 97 66 98 74 99 67 100 68 101
REMARK SMILES IDX 72 102 75 103 69 104 70 105 73 106 71 107
REMARK H PARENT 95 60 63 71
REMARK Flexibility Score: inf
ROOT
ATOM      1  O   UNL     1       0.690   7.037  -3.499  1.00  0.00    -0.376 OA
ENDROOT
BRANCH   1   2
ATOM      2  C   UNL     1       0.425   6.290  -4.671  1.00  0.00     0.202 C 
BRANCH   2   3
ATOM      3  C   UNL     1       1.178   4.975  -4.886  1.00  0.00     0.261 C 
BRANCH   3   4
ATOM      4  O   UNL     1       1.340   4.187  -3.693  1.00  0.00    -0.460 OA
BRANCH   4   5
ATOM      5  C   UNL     1       2.619   3.883  -3.370  1.00  0.00     0.338 C 
ATOM      6  O   UNL     1       3.608   4.172  -4.025  1.00  0.00    -0.246 OA
BRANCH   5   7
ATOM      7  C   UNL     1       2.725   3.155  -2.070  1.00  0.00     0.060 A 
ATOM      8  N   UNL     1       1.754   0.378   1.449  1.00  0.00    -0.274 N 
ATOM      9  C   UNL     1       3.087   0.642   1.270  1.00  0.00     0.261 C 
ATOM     10  C   UNL     1       1.003   1.311   0.793  1.00  0.00     0.261 C 
ATOM     11  O   UNL     1       4.052   0.185   1.854  1.00  0.00    -0.269 OA
ATOM     12  C   UNL     1       3.182   1.635   0.201  1.00  0.00     0.053 A 
ATOM     13  C   UNL     1       1.895   1.958  -0.176  1.00  0.00     0.054 A 
ATOM     14  O   UNL     1      -0.153   1.638   0.973  1.00  0.00    -0.269 OA
ATOM     15  C   UNL     1       4.282   2.135  -0.462  1.00  0.00     0.015 A 
ATOM     16  C   UNL     1       1.628   2.673  -1.335  1.00  0.00     0.030 A 
ATOM     17  C   UNL     1       4.041   2.917  -1.597  1.00  0.00     0.016 A 
BRANCH   8  18
ATOM     18  C   UNL     1       1.263  -0.595   2.413  1.00  0.00     0.134 C 
BRANCH  18  19
ATOM     19  C   UNL     1      -0.028  -1.374   2.055  1.00  0.00     0.056 C 
BRANCH  19  20
ATOM     20  C   UNL     1      -0.049  -2.267   0.833  1.00  0.00    -0.035 C 
ATOM     21  C   UNL     1      -0.171  -0.679  -1.244  1.00  0.00     0.038 C 
ATOM     22  C   UNL     1      -0.754  -1.829  -0.446  1.00  0.00     0.129 C 
ATOM     23  N   UNL     1      -0.704  -3.000  -1.352  1.00  0.00    -0.277 NA
ATOM     24  C   UNL     1      -0.140  -3.911  -0.633  1.00  0.00     0.066 A 
ATOM     25  C   UNL     1       0.221  -3.580   0.756  1.00  0.00     0.005 A 
ATOM     26  C   UNL     1       0.182  -5.261  -1.114  1.00  0.00     0.032 A 
ATOM     27  C   UNL     1       0.612  -4.629   1.660  1.00  0.00     0.057 A 
ATOM     28  C   UNL     1       0.621  -6.171  -0.234  1.00  0.00     0.049 A 
ATOM     29  C   UNL     1       0.732  -5.893   1.195  1.00  0.00     0.130 A 
BRANCH  29  30
ATOM     30  O   UNL     1       0.974  -6.931   2.074  1.00  0.00    -0.406 OA
BRANCH  30  31
ATOM     31  C   UNL     1       0.502  -8.230   1.721  1.00  0.00     0.573 C 
ATOM     32  F   UNL     1      -0.724  -8.190   1.155  1.00  0.00    -0.132 F 
ATOM     33  F   UNL     1       1.366  -8.823   0.867  1.00  0.00    -0.132 F 
ATOM     34  F   UNL     1       0.425  -8.991   2.834  1.00  0.00    -0.132 F 
ENDBRANCH  30  31
ENDBRANCH  29  30
ENDBRANCH  19  20
ENDBRANCH  18  19
ENDBRANCH   8  18
ENDBRANCH   5   7
ENDBRANCH   4   5
ENDBRANCH   3   4
ENDBRANCH   2   3
ENDBRANCH   1   2
BRANCH   1  35
ATOM     35  C   UNL     1       0.410   6.476  -2.226  1.00  0.00     0.188 C 
BRANCH  35  36
ATOM     36  C   UNL     1      -0.755   5.488  -2.007  1.00  0.00     0.188 C 
BRANCH  36  37
ATOM     37  O   UNL     1      -1.907   5.501  -2.826  1.00  0.00    -0.376 OA
BRANCH  37  38
ATOM     38  C   UNL     1      -2.611   6.715  -3.025  1.00  0.00     0.202 C 
BRANCH  38  39
ATOM     39  C   UNL     1      -3.158   7.435  -1.793  1.00  0.00     0.261 C 
BRANCH  39  40
ATOM     40  O   UNL     1      -2.111   7.875  -0.915  1.00  0.00    -0.460 OA
BRANCH  40  41
ATOM     41  C   UNL     1      -2.139   7.357   0.338  1.00  0.00     0.338 C 
ATOM     42  O   UNL     1      -2.975   6.612   0.816  1.00  0.00    -0.246 OA
BRANCH  41  43
ATOM     43  C   UNL     1      -0.867   7.681   1.013  1.00  0.00     0.060 A 
ATOM     44  C   UNL     1      -0.416   8.999   1.092  1.00  0.00     0.016 A 
ATOM     45  C   UNL     1      -0.127   6.637   1.585  1.00  0.00     0.016 A 
ATOM     46  C   UNL     1       0.764   9.277   1.783  1.00  0.00     0.010 A 
ATOM     47  C   UNL     1       1.060   6.916   2.266  1.00  0.00     0.010 A 
ATOM     48  C   UNL     1       1.498   8.242   2.391  1.00  0.00    -0.014 A 
BRANCH  48  49
ATOM     49  C   UNL     1       2.611   8.584   3.307  1.00  0.00     0.031 A 
ATOM     50  C   UNL     1       4.040   8.550   2.869  1.00  0.00     0.074 A 
ATOM     51  C   UNL     1       2.296   8.959   4.561  1.00  0.00     0.049 A 
ATOM     52  N   UNL     1       5.102   8.971   3.508  1.00  0.00    -0.248 NA
ATOM     53  C   UNL     1       4.319   7.964   1.551  1.00  0.00     0.031 C 
ATOM     54  C   UNL     1       0.938   8.989   5.107  1.00  0.00     0.029 A 
ATOM     55  N   UNL     1       3.083   9.400   5.592  1.00  0.00    -0.354 N 
ATOM     56  C   UNL     1       6.173   8.734   2.661  1.00  0.00     0.074 A 
ATOM     57  C   UNL     1       5.640   8.080   1.482  1.00  0.00     0.031 C 
ATOM     58  C   UNL     1       0.983   9.458   6.362  1.00  0.00     0.029 A 
ATOM     59  C   UNL     1       2.370   9.752   6.711  1.00  0.00     0.049 A 
ATOM     60  H   UNL     1       4.064   9.460   5.536  1.00  0.00     0.167 HD
ATOM     61  C   UNL     1       7.476   9.059   2.847  1.00  0.00     0.037 A 
ATOM     62  C   UNL     1       2.783  10.272   7.881  1.00  0.00     0.037 A 
ATOM     63  C   UNL     1       7.997   9.696   4.031  1.00  0.00     0.049 A 
ATOM     64  C   UNL     1       4.239  10.585   8.075  1.00  0.00     0.074 A 
ATOM     65  C   UNL     1       9.292  10.117   4.284  1.00  0.00     0.029 A 
ATOM     66  N   UNL     1       7.256   9.989   5.167  1.00  0.00    -0.354 N 
ATOM     67  N   UNL     1       5.230  10.454   7.228  1.00  0.00    -0.248 NA
ATOM     68  C   UNL     1       4.633  11.126   9.383  1.00  0.00     0.031 C 
ATOM     69  C   UNL     1       9.346  10.614   5.590  1.00  0.00     0.029 A 
ATOM     70  C   UNL     1       8.075  10.549   6.137  1.00  0.00     0.049 A 
ATOM     71  H   UNL     1       6.291   9.823   5.270  1.00  0.00     0.167 HD
ATOM     72  C   UNL     1       6.361  10.907   7.892  1.00  0.00     0.074 A 
ATOM     73  C   UNL     1       5.931  11.336   9.207  1.00  0.00     0.031 C 
ATOM     74  C   UNL     1       7.641  10.960   7.448  1.00  0.00     0.037 A 
BRANCH  61  75
ATOM     75  C   UNL     1       8.441   8.755   1.740  1.00  0.00     0.064 A 
ATOM     76  C   UNL     1       8.447   9.508   0.556  1.00  0.00     0.173 A 
ATOM     77  C   UNL     1       9.432   7.775   1.899  1.00  0.00     0.173 A 
ATOM     78  F   UNL     1       7.520  10.457   0.355  1.00  0.00    -0.203 F 
ATOM     79  C   UNL     1       9.402   9.284  -0.431  1.00  0.00     0.198 A 
ATOM     80  C   UNL     1      10.400   7.569   0.919  1.00  0.00     0.198 A 
ATOM     81  F   UNL     1       9.477   7.035   3.017  1.00  0.00    -0.203 F 
ATOM     82  F   UNL     1       9.376  10.002  -1.563  1.00  0.00    -0.200 F 
ATOM     83  C   UNL     1      10.383   8.322  -0.245  1.00  0.00     0.200 A 
ATOM     84  F   UNL     1      11.357   6.649   1.108  1.00  0.00    -0.200 F 
ATOM     85  F   UNL     1      11.314   8.120  -1.188  1.00  0.00    -0.200 F 
ENDBRANCH  61  75
BRANCH  62  86
ATOM     86  C   UNL     1       1.783  10.578   8.933  1.00  0.00     0.064 A 
ATOM     87  C   UNL     1       1.439  11.903   9.231  1.00  0.00     0.173 A 
ATOM     88  C   UNL     1       1.122   9.555   9.628  1.00  0.00     0.173 A 
ATOM     89  F   UNL     1       2.057  12.913   8.602  1.00  0.00    -0.203 F 
ATOM     90  C   UNL     1       0.473  12.194  10.191  1.00  0.00     0.198 A 
ATOM     91  C   UNL     1       0.139   9.847  10.570  1.00  0.00     0.198 A 
ATOM     92  F   UNL     1       1.413   8.272   9.370  1.00  0.00    -0.203 F 
ATOM     93  F   UNL     1       0.179  13.470  10.477  1.00  0.00    -0.200 F 
ATOM     94  C   UNL     1      -0.182  11.166  10.854  1.00  0.00     0.200 A 
ATOM     95  F   UNL     1      -0.502   8.851  11.197  1.00  0.00    -0.200 F 
ATOM     96  F   UNL     1      -1.121  11.447  11.767  1.00  0.00    -0.200 F 
ENDBRANCH  62  86
BRANCH  74  97
ATOM     97  C   UNL     1       8.679  11.490   8.393  1.00  0.00     0.064 A 
ATOM     98  C   UNL     1       9.121  10.733   9.488  1.00  0.00     0.173 A 
ATOM     99  C   UNL     1       9.286  12.735   8.166  1.00  0.00     0.173 A 
ATOM    100  F   UNL     1       8.561   9.544   9.757  1.00  0.00    -0.203 F 
ATOM    101  C   UNL     1      10.127  11.207  10.327  1.00  0.00     0.198 A 
ATOM    102  C   UNL     1      10.309  13.194   8.991  1.00  0.00     0.198 A 
ATOM    103  F   UNL     1       8.902  13.495   7.130  1.00  0.00    -0.203 F 
ATOM    104  F   UNL     1      10.512  10.481  11.385  1.00  0.00    -0.200 F 
ATOM    105  C   UNL     1      10.726  12.432  10.072  1.00  0.00     0.200 A 
ATOM    106  F   UNL     1      10.896  14.371   8.736  1.00  0.00    -0.200 F 
ATOM    107  F   UNL     1      11.705  12.879  10.871  1.00  0.00    -0.200 F 
ENDBRANCH  74  97
ENDBRANCH  48  49
ENDBRANCH  41  43
ENDBRANCH  40  41
ENDBRANCH  39  40
ENDBRANCH  38  39
ENDBRANCH  37  38
ENDBRANCH  36  37
ENDBRANCH  35  36
ENDBRANCH   1  35
TORSDOF 22
