REMARK SMILES COc1ccc([C@H]2[C@H](C(=O)OCCOCCOCCOC(=O)c3ccc(-c4c5nc(c(-c6c(F)c(F)c(F)c(F)c6F)c6ccc([nH]6)c(-c6c(F)c(F)c(F)c(F)c6F)c6nc(c(-c7c(F)c(F)c(F)c(F)c7F)c7ccc4[nH]7)C=C6)C=C5)cc3)CCN2c2ccc(F)cc2)cc1
REMARK SMILES IDX 15 1 14 2 13 3 12 4 11 5 9 6 10 7 8 8 7 9 88 10 86 11 87 12
REMARK SMILES IDX 6 13 3 14 4 15 97 16 5 17 96 18 2 19 1 20 89 21 90 22 95 23
REMARK SMILES IDX 91 24 94 25 92 26 93 27 16 28 17 29 18 30 19 31 20 32 21 33
REMARK SMILES IDX 22 34 23 35 24 36 85 37 25 38 84 39 26 40 27 41 28 42 78 43
REMARK SMILES IDX 29 44 83 45 77 46 79 47 30 48 82 49 76 50 75 51 31 53 63 54
REMARK SMILES IDX 43 55 62 56 44 57 47 58 61 59 80 60 45 61 46 62 60 64 81 65
REMARK SMILES IDX 48 66 32 67 33 68 41 69 34 70 35 71 39 72 42 73 36 74 37 75
REMARK SMILES IDX 40 76 38 77 64 78 65 79 73 80 66 81 67 82 71 83 74 84 68 85
REMARK SMILES IDX 69 86 72 87 70 88 49 89 50 90 58 91 51 92 52 93 56 94 59 95
REMARK SMILES IDX 53 96 54 97 57 98 55 99
REMARK H PARENT 79 52 47 63
REMARK Flexibility Score: inf
ROOT
ATOM      1  C   UNL     1       4.133   1.171   4.671  1.00  0.00     0.188 C 
ENDROOT
BRANCH   1   2
ATOM      2  O   UNL     1       5.319   1.267   3.897  1.00  0.00    -0.376 OA
BRANCH   2   3
ATOM      3  C   UNL     1       5.938   0.043   3.496  1.00  0.00     0.202 C 
BRANCH   3   4
ATOM      4  C   UNL     1       6.126  -1.051   4.564  1.00  0.00     0.261 C 
BRANCH   4   5
ATOM      5  O   UNL     1       4.903  -1.589   5.140  1.00  0.00    -0.463 OA
BRANCH   5   6
ATOM      6  C   UNL     1       4.851  -1.609   6.495  1.00  0.00     0.311 C 
ATOM      7  O   UNL     1       5.737  -1.147   7.212  1.00  0.00    -0.252 OA
BRANCH   6   8
ATOM      8  C   UNL     1       3.620  -2.233   7.131  1.00  0.00     0.128 C 
ATOM      9  C   UNL     1       2.456  -2.742   6.261  1.00  0.00     0.127 C 
ATOM     10  N   UNL     1       2.849  -4.124   5.953  1.00  0.00    -0.364 N 
ATOM     11  C   UNL     1       4.059  -3.501   7.871  1.00  0.00     0.039 C 
ATOM     12  C   UNL     1       3.929  -4.596   6.809  1.00  0.00     0.118 C 
BRANCH   9  13
ATOM     13  C   UNL     1       1.136  -2.724   7.072  1.00  0.00    -0.024 A 
ATOM     14  C   UNL     1      -1.166  -2.662   8.743  1.00  0.00     0.118 A 
ATOM     15  C   UNL     1      -0.574  -1.479   8.298  1.00  0.00     0.047 A 
ATOM     16  C   UNL     1      -0.645  -3.876   8.313  1.00  0.00     0.047 A 
ATOM     17  C   UNL     1       0.562  -1.505   7.472  1.00  0.00     0.010 A 
ATOM     18  C   UNL     1       0.489  -3.902   7.491  1.00  0.00     0.010 A 
BRANCH  14  19
ATOM     19  O   UNL     1      -2.249  -2.513   9.565  1.00  0.00    -0.497 OA
ATOM     20  C   UNL     1      -2.563  -3.627  10.398  1.00  0.00     0.278 C 
ENDBRANCH  14  19
ENDBRANCH   9  13
BRANCH  10  21
ATOM     21  C   UNL     1       2.596  -4.719   4.739  1.00  0.00     0.037 A 
ATOM     22  C   UNL     1       1.976  -5.976   4.685  1.00  0.00     0.029 A 
ATOM     23  C   UNL     1       2.922  -4.097   3.527  1.00  0.00     0.029 A 
ATOM     24  C   UNL     1       1.641  -6.567   3.464  1.00  0.00     0.041 A 
ATOM     25  C   UNL     1       2.614  -4.692   2.301  1.00  0.00     0.041 A 
ATOM     26  C   UNL     1       1.963  -5.917   2.282  1.00  0.00     0.123 A 
ATOM     27  F   UNL     1       1.644  -6.479   1.108  1.00  0.00    -0.207 F 
ENDBRANCH  10  21
ENDBRANCH   6   8
ENDBRANCH   5   6
ENDBRANCH   4   5
ENDBRANCH   3   4
ENDBRANCH   2   3
ENDBRANCH   1   2
BRANCH   1  28
ATOM     28  C   UNL     1       2.961   0.391   4.063  1.00  0.00     0.188 C 
BRANCH  28  29
ATOM     29  O   UNL     1       3.338  -0.474   3.011  1.00  0.00    -0.376 OA
BRANCH  29  30
ATOM     30  C   UNL     1       2.502  -0.577   1.862  1.00  0.00     0.202 C 
BRANCH  30  31
ATOM     31  C   UNL     1       2.249   0.729   1.083  1.00  0.00     0.261 C 
BRANCH  31  32
ATOM     32  O   UNL     1       1.498   1.732   1.793  1.00  0.00    -0.460 OA
BRANCH  32  33
ATOM     33  C   UNL     1       0.294   1.359   2.291  1.00  0.00     0.338 C 
ATOM     34  O   UNL     1      -0.328   0.346   2.023  1.00  0.00    -0.246 OA
BRANCH  33  35
ATOM     35  C   UNL     1      -0.010   2.245   3.442  1.00  0.00     0.060 A 
ATOM     36  C   UNL     1      -0.414   1.651   4.646  1.00  0.00     0.016 A 
ATOM     37  C   UNL     1       0.188   3.628   3.372  1.00  0.00     0.016 A 
ATOM     38  C   UNL     1      -0.672   2.444   5.765  1.00  0.00     0.010 A 
ATOM     39  C   UNL     1      -0.078   4.422   4.491  1.00  0.00     0.010 A 
ATOM     40  C   UNL     1      -0.547   3.838   5.681  1.00  0.00    -0.014 A 
BRANCH  40  41
ATOM     41  C   UNL     1      -1.107   4.686   6.764  1.00  0.00     0.031 A 
ATOM     42  C   UNL     1      -2.492   5.246   6.582  1.00  0.00     0.074 A 
ATOM     43  C   UNL     1      -0.431   4.918   7.903  1.00  0.00     0.049 A 
ATOM     44  N   UNL     1      -3.211   5.978   7.395  1.00  0.00    -0.248 NA
ATOM     45  C   UNL     1      -3.156   4.936   5.305  1.00  0.00     0.031 C 
ATOM     46  C   UNL     1       0.906   4.420   8.212  1.00  0.00     0.029 A 
ATOM     47  N   UNL     1      -0.790   5.637   9.018  1.00  0.00    -0.354 N 
ATOM     48  C   UNL     1      -4.409   6.208   6.732  1.00  0.00     0.074 A 
ATOM     49  C   UNL     1      -4.305   5.580   5.433  1.00  0.00     0.031 C 
ATOM     50  C   UNL     1       1.257   4.847   9.439  1.00  0.00     0.029 A 
ATOM     51  C   UNL     1       0.177   5.665   9.992  1.00  0.00     0.049 A 
ATOM     52  H   UNL     1      -1.659   6.090   9.109  1.00  0.00     0.167 HD
ATOM     53  C   UNL     1      -5.506   6.870   7.170  1.00  0.00     0.037 A 
ATOM     54  C   UNL     1       0.188   6.286  11.188  1.00  0.00     0.037 A 
ATOM     55  C   UNL     1      -5.611   7.503   8.457  1.00  0.00     0.049 A 
ATOM     56  C   UNL     1      -1.025   7.069  11.629  1.00  0.00     0.074 A 
ATOM     57  C   UNL     1      -6.686   8.187   8.999  1.00  0.00     0.029 A 
ATOM     58  N   UNL     1      -4.597   7.540   9.403  1.00  0.00    -0.354 N 
ATOM     59  N   UNL     1      -2.169   7.248  11.013  1.00  0.00    -0.248 NA
ATOM     60  C   UNL     1      -0.946   7.728  12.941  1.00  0.00     0.031 C 
ATOM     61  C   UNL     1      -6.303   8.684  10.249  1.00  0.00     0.029 A 
ATOM     62  C   UNL     1      -5.012   8.258  10.514  1.00  0.00     0.049 A 
ATOM     63  H   UNL     1      -3.713   7.119   9.300  1.00  0.00     0.167 HD
ATOM     64  C   UNL     1      -2.952   8.012  11.871  1.00  0.00     0.074 A 
ATOM     65  C   UNL     1      -2.160   8.242  13.061  1.00  0.00     0.031 C 
ATOM     66  C   UNL     1      -4.212   8.482  11.691  1.00  0.00     0.037 A 
BRANCH  53  67
ATOM     67  C   UNL     1      -6.676   6.960   6.232  1.00  0.00     0.064 A 
ATOM     68  C   UNL     1      -7.456   5.837   5.916  1.00  0.00     0.173 A 
ATOM     69  C   UNL     1      -7.032   8.189   5.658  1.00  0.00     0.173 A 
ATOM     70  F   UNL     1      -7.146   4.634   6.423  1.00  0.00    -0.203 F 
ATOM     71  C   UNL     1      -8.533   5.938   5.039  1.00  0.00     0.198 A 
ATOM     72  C   UNL     1      -8.128   8.292   4.807  1.00  0.00     0.198 A 
ATOM     73  F   UNL     1      -6.318   9.293   5.927  1.00  0.00    -0.203 F 
ATOM     74  F   UNL     1      -9.233   4.842   4.711  1.00  0.00    -0.200 F 
ATOM     75  C   UNL     1      -8.873   7.166   4.492  1.00  0.00     0.200 A 
ATOM     76  F   UNL     1      -8.461   9.482   4.288  1.00  0.00    -0.200 F 
ATOM     77  F   UNL     1      -9.914   7.262   3.653  1.00  0.00    -0.200 F 
ENDBRANCH  53  67
BRANCH  54  78
ATOM     78  C   UNL     1       1.385   6.198  12.067  1.00  0.00     0.064 A 
ATOM     79  C   UNL     1       1.339   5.520  13.294  1.00  0.00     0.173 A 
ATOM     80  C   UNL     1       2.590   6.825  11.716  1.00  0.00     0.173 A 
ATOM     81  F   UNL     1       0.201   4.930  13.690  1.00  0.00    -0.203 F 
ATOM     82  C   UNL     1       2.442   5.493  14.146  1.00  0.00     0.198 A 
ATOM     83  C   UNL     1       3.702   6.771  12.554  1.00  0.00     0.198 A 
ATOM     84  F   UNL     1       2.687   7.492  10.557  1.00  0.00    -0.203 F 
ATOM     85  F   UNL     1       2.351   4.887  15.337  1.00  0.00    -0.200 F 
ATOM     86  C   UNL     1       3.625   6.113  13.772  1.00  0.00     0.200 A 
ATOM     87  F   UNL     1       4.846   7.364  12.186  1.00  0.00    -0.200 F 
ATOM     88  F   UNL     1       4.685   6.088  14.592  1.00  0.00    -0.200 F 
ENDBRANCH  54  78
BRANCH  66  89
ATOM     89  C   UNL     1      -4.822   9.266  12.821  1.00  0.00     0.064 A 
ATOM     90  C   UNL     1      -4.355  10.542  13.173  1.00  0.00     0.173 A 
ATOM     91  C   UNL     1      -5.895   8.737  13.555  1.00  0.00     0.173 A 
ATOM     92  F   UNL     1      -3.325  11.091  12.511  1.00  0.00    -0.203 F 
ATOM     93  C   UNL     1      -4.909  11.238  14.245  1.00  0.00     0.198 A 
ATOM     94  C   UNL     1      -6.470   9.452  14.603  1.00  0.00     0.198 A 
ATOM     95  F   UNL     1      -6.390   7.527  13.255  1.00  0.00    -0.203 F 
ATOM     96  F   UNL     1      -4.401  12.425  14.604  1.00  0.00    -0.200 F 
ATOM     97  C   UNL     1      -5.968  10.695  14.956  1.00  0.00     0.200 A 
ATOM     98  F   UNL     1      -7.505   8.932  15.278  1.00  0.00    -0.200 F 
ATOM     99  F   UNL     1      -6.498  11.364  15.988  1.00  0.00    -0.200 F 
ENDBRANCH  66  89
ENDBRANCH  40  41
ENDBRANCH  33  35
ENDBRANCH  32  33
ENDBRANCH  31  32
ENDBRANCH  30  31
ENDBRANCH  29  30
ENDBRANCH  28  29
ENDBRANCH   1  28
TORSDOF 20
