REMARK SMILES COC(=O)c1ccc([C@H]([NH3+])CC(=O)OCCOCCOCCOC(=O)c2ccc(-c3c4nc(c(-c5c(F)c(F)c(F)c(F)c5F)c5ccc([nH]5)c(-c5c(F)c(F)c(F)c(F)c5F)c5nc(c(-c6c(F)c(F)c(F)c(F)c6F)c6ccc3[nH]6)C=C5)C=C4)cc2)cc1
REMARK SMILES IDX 18 1 17 2 16 3 15 4 14 5 12 6 13 7 11 8 9 9 8 10 5 11 6 12
REMARK SMILES IDX 90 13 7 14 89 15 3 16 4 17 2 18 1 19 10 20 19 24 20 25 21 26
REMARK SMILES IDX 22 27 23 28 24 29 25 30 26 31 27 32 88 33 28 34 87 35 29 36
REMARK SMILES IDX 30 37 31 38 81 39 32 40 86 41 80 42 82 43 33 44 85 45 79 46
REMARK SMILES IDX 78 47 34 49 66 50 46 51 65 52 47 53 50 54 64 55 83 56 48 57
REMARK SMILES IDX 49 58 63 60 84 61 51 62 35 63 36 64 44 65 37 66 38 67 42 68
REMARK SMILES IDX 45 69 39 70 40 71 43 72 41 73 67 74 68 75 76 76 69 77 70 78
REMARK SMILES IDX 74 79 77 80 71 81 72 82 75 83 73 84 52 85 53 86 61 87 54 88
REMARK SMILES IDX 55 89 59 90 62 91 56 92 57 93 60 94 58 95
REMARK H PARENT 10 21 10 22 10 23 82 48 50 59
REMARK Flexibility Score: inf
ROOT
ATOM      1  C   UNL     1      -1.729   8.591  -0.886  1.00  0.00     0.188 C 
ENDROOT
BRANCH   1   2
ATOM      2  O   UNL     1      -1.187   8.400  -2.191  1.00  0.00    -0.376 OA
BRANCH   2   3
ATOM      3  C   UNL     1      -0.510   7.161  -2.422  1.00  0.00     0.202 C 
BRANCH   3   4
ATOM      4  C   UNL     1       0.709   6.879  -1.528  1.00  0.00     0.261 C 
BRANCH   4   5
ATOM      5  O   UNL     1       0.417   6.921  -0.114  1.00  0.00    -0.463 OA
BRANCH   5   6
ATOM      6  C   UNL     1       1.184   7.751   0.635  1.00  0.00     0.312 C 
ATOM      7  O   UNL     1       2.127   8.405   0.191  1.00  0.00    -0.252 OA
BRANCH   6   8
ATOM      8  C   UNL     1       0.715   7.971   2.061  1.00  0.00     0.192 C 
BRANCH   8   9
ATOM      9  C   UNL     1      -0.327   7.047   2.720  1.00  0.00     0.223 C 
BRANCH   9  10
ATOM     10  C   UNL     1      -0.525   7.389   4.217  1.00  0.00     0.010 A 
ATOM     11  C   UNL     1      -0.706   8.041   6.983  1.00  0.00     0.060 A 
ATOM     12  C   UNL     1      -0.633   9.051   6.022  1.00  0.00     0.016 A 
ATOM     13  C   UNL     1      -0.767   6.710   6.566  1.00  0.00     0.016 A 
ATOM     14  C   UNL     1      -0.549   8.727   4.659  1.00  0.00     0.011 A 
ATOM     15  C   UNL     1      -0.694   6.393   5.201  1.00  0.00     0.011 A 
BRANCH  11  16
ATOM     16  C   UNL     1      -0.703   8.420   8.417  1.00  0.00     0.337 C 
ATOM     17  O   UNL     1      -1.092   9.504   8.833  1.00  0.00    -0.246 OA
BRANCH  16  18
ATOM     18  O   UNL     1      -0.131   7.437   9.153  1.00  0.00    -0.465 OA
ATOM     19  C   UNL     1       0.057   7.765  10.532  1.00  0.00     0.282 C 
ENDBRANCH  16  18
ENDBRANCH  11  16
ENDBRANCH   9  10
BRANCH   9  20
ATOM     20  N   UNL     1       0.054   5.647   2.522  1.00  0.00    -0.351 N 
ATOM     21  H   UNL     1       0.956   5.475   2.966  1.00  0.00     0.345 HD
ATOM     22  H   UNL     1       0.125   5.452   1.523  1.00  0.00     0.345 HD
ATOM     23  H   UNL     1      -0.652   5.040   2.938  1.00  0.00     0.345 HD
ENDBRANCH   9  20
ENDBRANCH   8   9
ENDBRANCH   6   8
ENDBRANCH   5   6
ENDBRANCH   4   5
ENDBRANCH   3   4
ENDBRANCH   2   3
ENDBRANCH   1   2
BRANCH   1  24
ATOM     24  C   UNL     1      -2.747   7.540  -0.441  1.00  0.00     0.188 C 
BRANCH  24  25
ATOM     25  O   UNL     1      -2.354   6.196  -0.636  1.00  0.00    -0.376 OA
BRANCH  25  26
ATOM     26  C   UNL     1      -3.355   5.180  -0.604  1.00  0.00     0.202 C 
BRANCH  26  27
ATOM     27  C   UNL     1      -4.725   5.413  -1.288  1.00  0.00     0.261 C 
BRANCH  27  28
ATOM     28  O   UNL     1      -5.431   6.636  -0.986  1.00  0.00    -0.460 OA
BRANCH  28  29
ATOM     29  C   UNL     1      -5.651   6.939   0.315  1.00  0.00     0.338 C 
ATOM     30  O   UNL     1      -5.516   6.184   1.261  1.00  0.00    -0.246 OA
BRANCH  29  31
ATOM     31  C   UNL     1      -5.809   8.421   0.441  1.00  0.00     0.060 A 
ATOM     32  C   UNL     1      -5.175   9.055   1.520  1.00  0.00     0.016 A 
ATOM     33  C   UNL     1      -6.488   9.198  -0.504  1.00  0.00     0.016 A 
ATOM     34  C   UNL     1      -5.246  10.443   1.679  1.00  0.00     0.010 A 
ATOM     35  C   UNL     1      -6.577  10.590  -0.334  1.00  0.00     0.010 A 
ATOM     36  C   UNL     1      -5.984  11.220   0.777  1.00  0.00    -0.014 A 
BRANCH  36  37
ATOM     37  C   UNL     1      -6.285  12.644   1.101  1.00  0.00     0.031 A 
ATOM     38  C   UNL     1      -7.627  12.977   1.701  1.00  0.00     0.074 A 
ATOM     39  C   UNL     1      -5.386  13.629   0.914  1.00  0.00     0.049 A 
ATOM     40  N   UNL     1      -8.127  14.138   2.043  1.00  0.00    -0.248 NA
ATOM     41  C   UNL     1      -8.526  11.839   1.948  1.00  0.00     0.031 C 
ATOM     42  C   UNL     1      -4.035  13.454   0.387  1.00  0.00     0.029 A 
ATOM     43  N   UNL     1      -5.484  14.982   1.147  1.00  0.00    -0.354 N 
ATOM     44  C   UNL     1      -9.398  13.872   2.537  1.00  0.00     0.074 A 
ATOM     45  C   UNL     1      -9.606  12.444   2.419  1.00  0.00     0.031 C 
ATOM     46  C   UNL     1      -3.433  14.656   0.325  1.00  0.00     0.029 A 
ATOM     47  C   UNL     1      -4.366  15.690   0.775  1.00  0.00     0.049 A 
ATOM     48  H   UNL     1      -6.281  15.403   1.542  1.00  0.00     0.167 HD
ATOM     49  C   UNL     1     -10.310  14.733   3.050  1.00  0.00     0.037 A 
ATOM     50  C   UNL     1      -4.130  17.018   0.776  1.00  0.00     0.037 A 
ATOM     51  C   UNL     1     -10.112  16.155   3.170  1.00  0.00     0.049 A 
ATOM     52  C   UNL     1      -5.193  17.969   1.276  1.00  0.00     0.074 A 
ATOM     53  C   UNL     1     -10.972  17.103   3.698  1.00  0.00     0.029 A 
ATOM     54  N   UNL     1      -8.983  16.837   2.743  1.00  0.00    -0.354 N 
ATOM     55  N   UNL     1      -6.380  17.705   1.767  1.00  0.00    -0.248 NA
ATOM     56  C   UNL     1      -4.877  19.405   1.225  1.00  0.00     0.031 C 
ATOM     57  C   UNL     1     -10.393  18.364   3.528  1.00  0.00     0.029 A 
ATOM     58  C   UNL     1      -9.140  18.197   2.963  1.00  0.00     0.049 A 
ATOM     59  H   UNL     1      -8.187  16.417   2.343  1.00  0.00     0.167 HD
ATOM     60  C   UNL     1      -6.936  18.933   2.110  1.00  0.00     0.074 A 
ATOM     61  C   UNL     1      -5.949  19.942   1.789  1.00  0.00     0.031 C 
ATOM     62  C   UNL     1      -8.154  19.200   2.644  1.00  0.00     0.037 A 
BRANCH  49  63
ATOM     63  C   UNL     1     -11.629  14.164   3.493  1.00  0.00     0.064 A 
ATOM     64  C   UNL     1     -11.740  13.336   4.621  1.00  0.00     0.173 A 
ATOM     65  C   UNL     1     -12.805  14.481   2.795  1.00  0.00     0.173 A 
ATOM     66  F   UNL     1     -10.646  12.991   5.316  1.00  0.00    -0.203 F 
ATOM     67  C   UNL     1     -12.973  12.822   5.013  1.00  0.00     0.198 A 
ATOM     68  C   UNL     1     -14.040  13.994   3.212  1.00  0.00     0.198 A 
ATOM     69  F   UNL     1     -12.757  15.273   1.713  1.00  0.00    -0.203 F 
ATOM     70  F   UNL     1     -13.047  11.989   6.060  1.00  0.00    -0.200 F 
ATOM     71  C   UNL     1     -14.123  13.158   4.314  1.00  0.00     0.200 A 
ATOM     72  F   UNL     1     -15.152  14.333   2.544  1.00  0.00    -0.200 F 
ATOM     73  F   UNL     1     -15.310  12.669   4.699  1.00  0.00    -0.200 F 
ENDBRANCH  49  63
BRANCH  50  74
ATOM     74  C   UNL     1      -2.835  17.548   0.265  1.00  0.00     0.064 A 
ATOM     75  C   UNL     1      -1.926  18.194   1.114  1.00  0.00     0.173 A 
ATOM     76  C   UNL     1      -2.498  17.453  -1.094  1.00  0.00     0.173 A 
ATOM     77  F   UNL     1      -2.215  18.343   2.415  1.00  0.00    -0.203 F 
ATOM     78  C   UNL     1      -0.741  18.741   0.622  1.00  0.00     0.198 A 
ATOM     79  C   UNL     1      -1.299  17.970  -1.579  1.00  0.00     0.198 A 
ATOM     80  F   UNL     1      -3.337  16.856  -1.954  1.00  0.00    -0.203 F 
ATOM     81  F   UNL     1       0.081  19.404   1.447  1.00  0.00    -0.200 F 
ATOM     82  C   UNL     1      -0.425  18.622  -0.723  1.00  0.00     0.200 A 
ATOM     83  F   UNL     1      -0.994  17.845  -2.878  1.00  0.00    -0.200 F 
ATOM     84  F   UNL     1       0.714  19.145  -1.195  1.00  0.00    -0.200 F 
ENDBRANCH  50  74
BRANCH  62  85
ATOM     85  C   UNL     1      -8.480  20.636   2.957  1.00  0.00     0.064 A 
ATOM     86  C   UNL     1      -8.680  21.590   1.946  1.00  0.00     0.173 A 
ATOM     87  C   UNL     1      -8.625  21.058   4.288  1.00  0.00     0.173 A 
ATOM     88  F   UNL     1      -8.545  21.246   0.657  1.00  0.00    -0.203 F 
ATOM     89  C   UNL     1      -8.973  22.916   2.258  1.00  0.00     0.198 A 
ATOM     90  C   UNL     1      -8.955  22.376   4.595  1.00  0.00     0.198 A 
ATOM     91  F   UNL     1      -8.457  20.189   5.296  1.00  0.00    -0.203 F 
ATOM     92  F   UNL     1      -9.098  23.821   1.277  1.00  0.00    -0.200 F 
ATOM     93  C   UNL     1      -9.117  23.307   3.581  1.00  0.00     0.200 A 
ATOM     94  F   UNL     1      -9.113  22.746   5.874  1.00  0.00    -0.200 F 
ATOM     95  F   UNL     1      -9.404  24.582   3.878  1.00  0.00    -0.200 F 
ENDBRANCH  62  85
ENDBRANCH  36  37
ENDBRANCH  29  31
ENDBRANCH  28  29
ENDBRANCH  27  28
ENDBRANCH  26  27
ENDBRANCH  25  26
ENDBRANCH  24  25
ENDBRANCH   1  24
TORSDOF 22
