REMARK SMILES O=C(OCCOCCOCCOC(=O)c1cn(C2CN(C(=O)Nc3ccsc3)C2)nn1)c1ccc(-c2c3nc(c(-c4c(F)c(F)c(F)c(F)c4F)c4ccc([nH]4)c(-c4c(F)c(F)c(F)c(F)c4F)c4nc(c(-c5c(F)c(F)c(F)c(F)c5F)c5ccc2[nH]5)C=C4)C=C3)cc1
REMARK SMILES IDX 7 1 6 2 5 3 4 4 3 5 2 6 1 7 32 8 33 9 94 10 34 11 93 12
REMARK SMILES IDX 35 13 36 14 37 15 87 16 38 17 92 18 86 19 88 20 39 21 91 22
REMARK SMILES IDX 85 23 84 24 40 26 72 27 52 28 71 29 53 30 56 31 70 32 89 33
REMARK SMILES IDX 54 34 55 35 69 37 90 38 57 39 41 40 42 41 50 42 43 43 44 44
REMARK SMILES IDX 48 45 51 46 45 47 46 48 49 49 47 50 73 51 74 52 82 53 75 54
REMARK SMILES IDX 76 55 80 56 83 57 77 58 78 59 81 60 79 61 58 62 59 63 67 64
REMARK SMILES IDX 60 65 61 66 65 67 68 68 62 69 63 70 66 71 64 72 8 73 9 74
REMARK SMILES IDX 10 75 11 76 12 77 13 78 14 79 15 80 16 81 31 82 17 83 30 84
REMARK SMILES IDX 18 85 19 86 29 87 20 88 21 89 22 90 23 91 24 93 25 94 28 95
REMARK SMILES IDX 26 96 27 97
REMARK H PARENT 88 25 56 36 23 92
REMARK Flexibility Score: inf
ROOT
ATOM      1  C   UNL     1       3.482   1.915  -0.047  1.00  0.00     0.188 C 
ENDROOT
BRANCH   1   2
ATOM      2  O   UNL     1       4.803   1.737  -0.522  1.00  0.00    -0.376 OA
BRANCH   2   3
ATOM      3  C   UNL     1       5.386   0.451  -0.454  1.00  0.00     0.202 C 
BRANCH   3   4
ATOM      4  C   UNL     1       4.742  -0.681  -1.265  1.00  0.00     0.261 C 
BRANCH   4   5
ATOM      5  O   UNL     1       3.334  -0.559  -1.497  1.00  0.00    -0.460 OA
BRANCH   5   6
ATOM      6  C   UNL     1       2.308  -1.118  -0.830  1.00  0.00     0.338 C 
ATOM      7  O   UNL     1       1.249  -1.339  -1.411  1.00  0.00    -0.246 OA
BRANCH   6   8
ATOM      8  C   UNL     1       2.331  -1.283   0.644  1.00  0.00     0.060 A 
ATOM      9  C   UNL     1       3.442  -1.674   1.394  1.00  0.00     0.016 A 
ATOM     10  C   UNL     1       1.089  -1.105   1.285  1.00  0.00     0.016 A 
ATOM     11  C   UNL     1       3.281  -2.057   2.713  1.00  0.00     0.010 A 
ATOM     12  C   UNL     1       0.923  -1.477   2.606  1.00  0.00     0.010 A 
ATOM     13  C   UNL     1       2.002  -2.059   3.262  1.00  0.00    -0.014 A 
BRANCH  13  14
ATOM     14  C   UNL     1       1.807  -2.856   4.461  1.00  0.00     0.031 A 
ATOM     15  C   UNL     1       2.419  -2.330   5.707  1.00  0.00     0.074 A 
ATOM     16  C   UNL     1       1.073  -3.984   4.375  1.00  0.00     0.049 A 
ATOM     17  N   UNL     1       3.252  -2.916   6.508  1.00  0.00    -0.248 NA
ATOM     18  C   UNL     1       2.137  -0.928   6.055  1.00  0.00     0.031 C 
ATOM     19  C   UNL     1       0.272  -4.456   3.236  1.00  0.00     0.029 A 
ATOM     20  N   UNL     1       0.798  -4.906   5.333  1.00  0.00    -0.354 N 
ATOM     21  C   UNL     1       3.456  -2.024   7.559  1.00  0.00     0.074 A 
ATOM     22  C   UNL     1       2.858  -0.775   7.165  1.00  0.00     0.031 C 
ATOM     23  C   UNL     1      -0.580  -5.415   3.654  1.00  0.00     0.029 A 
ATOM     24  C   UNL     1      -0.292  -5.712   5.043  1.00  0.00     0.049 A 
ATOM     25  H   UNL     1       1.326  -4.995   6.160  1.00  0.00     0.167 HD
ATOM     26  C   UNL     1       3.897  -2.439   8.777  1.00  0.00     0.037 A 
ATOM     27  C   UNL     1      -0.977  -6.469   5.933  1.00  0.00     0.037 A 
ATOM     28  C   UNL     1       4.604  -3.687   8.700  1.00  0.00     0.049 A 
ATOM     29  C   UNL     1      -0.092  -6.673   7.109  1.00  0.00     0.074 A 
ATOM     30  C   UNL     1       5.762  -4.105   8.074  1.00  0.00     0.029 A 
ATOM     31  N   UNL     1       3.953  -4.838   9.067  1.00  0.00    -0.354 N 
ATOM     32  N   UNL     1       1.010  -7.372   7.070  1.00  0.00    -0.248 NA
ATOM     33  C   UNL     1      -0.180  -5.707   8.196  1.00  0.00     0.031 C 
ATOM     34  C   UNL     1       5.498  -5.443   7.660  1.00  0.00     0.029 A 
ATOM     35  C   UNL     1       4.215  -5.771   8.097  1.00  0.00     0.049 A 
ATOM     36  H   UNL     1       3.402  -4.969   9.873  1.00  0.00     0.167 HD
ATOM     37  C   UNL     1       1.908  -6.670   7.864  1.00  0.00     0.074 A 
ATOM     38  C   UNL     1       1.098  -5.693   8.585  1.00  0.00     0.031 C 
ATOM     39  C   UNL     1       3.255  -6.750   7.650  1.00  0.00     0.037 A 
BRANCH  26  40
ATOM     40  C   UNL     1       3.372  -1.878  10.074  1.00  0.00     0.064 A 
ATOM     41  C   UNL     1       4.008  -2.204  11.286  1.00  0.00     0.173 A 
ATOM     42  C   UNL     1       2.096  -1.282  10.193  1.00  0.00     0.173 A 
ATOM     43  F   UNL     1       5.209  -2.800  11.288  1.00  0.00    -0.203 F 
ATOM     44  C   UNL     1       3.382  -2.005  12.521  1.00  0.00     0.198 A 
ATOM     45  C   UNL     1       1.499  -1.036  11.426  1.00  0.00     0.198 A 
ATOM     46  F   UNL     1       1.333  -1.020   9.125  1.00  0.00    -0.203 F 
ATOM     47  F   UNL     1       3.972  -2.438  13.643  1.00  0.00    -0.200 F 
ATOM     48  C   UNL     1       2.127  -1.426  12.589  1.00  0.00     0.200 A 
ATOM     49  F   UNL     1       0.274  -0.494  11.468  1.00  0.00    -0.200 F 
ATOM     50  F   UNL     1       1.501  -1.291  13.765  1.00  0.00    -0.200 F 
ENDBRANCH  26  40
BRANCH  27  51
ATOM     51  C   UNL     1      -2.450  -6.636   5.972  1.00  0.00     0.064 A 
ATOM     52  C   UNL     1      -3.047  -7.675   6.699  1.00  0.00     0.173 A 
ATOM     53  C   UNL     1      -3.317  -5.634   5.485  1.00  0.00     0.173 A 
ATOM     54  F   UNL     1      -2.288  -8.636   7.245  1.00  0.00    -0.203 F 
ATOM     55  C   UNL     1      -4.429  -7.710   6.924  1.00  0.00     0.198 A 
ATOM     56  C   UNL     1      -4.694  -5.676   5.699  1.00  0.00     0.198 A 
ATOM     57  F   UNL     1      -2.838  -4.545   4.868  1.00  0.00    -0.203 F 
ATOM     58  F   UNL     1      -4.960  -8.691   7.667  1.00  0.00    -0.200 F 
ATOM     59  C   UNL     1      -5.250  -6.709   6.427  1.00  0.00     0.200 A 
ATOM     60  F   UNL     1      -5.468  -4.680   5.244  1.00  0.00    -0.200 F 
ATOM     61  F   UNL     1      -6.565  -6.717   6.684  1.00  0.00    -0.200 F 
ENDBRANCH  27  51
BRANCH  39  62
ATOM     62  C   UNL     1       3.740  -7.771   6.659  1.00  0.00     0.064 A 
ATOM     63  C   UNL     1       3.455  -7.704   5.284  1.00  0.00     0.173 A 
ATOM     64  C   UNL     1       4.647  -8.750   7.080  1.00  0.00     0.173 A 
ATOM     65  F   UNL     1       2.692  -6.722   4.790  1.00  0.00    -0.203 F 
ATOM     66  C   UNL     1       4.012  -8.607   4.381  1.00  0.00     0.198 A 
ATOM     67  C   UNL     1       5.231  -9.630   6.172  1.00  0.00     0.198 A 
ATOM     68  F   UNL     1       5.012  -8.817   8.370  1.00  0.00    -0.203 F 
ATOM     69  F   UNL     1       3.719  -8.521   3.075  1.00  0.00    -0.200 F 
ATOM     70  C   UNL     1       4.905  -9.567   4.826  1.00  0.00     0.200 A 
ATOM     71  F   UNL     1       6.138 -10.521   6.597  1.00  0.00    -0.200 F 
ATOM     72  F   UNL     1       5.479 -10.407   3.953  1.00  0.00    -0.200 F 
ENDBRANCH  39  62
ENDBRANCH  13  14
ENDBRANCH   6   8
ENDBRANCH   5   6
ENDBRANCH   4   5
ENDBRANCH   3   4
ENDBRANCH   2   3
ENDBRANCH   1   2
BRANCH   1  73
ATOM     73  C   UNL     1       2.442   2.312  -1.126  1.00  0.00     0.188 C 
BRANCH  73  74
ATOM     74  O   UNL     1       2.796   2.837  -2.404  1.00  0.00    -0.376 OA
BRANCH  74  75
ATOM     75  C   UNL     1       4.143   3.119  -2.731  1.00  0.00     0.202 C 
BRANCH  75  76
ATOM     76  C   UNL     1       4.706   4.419  -2.136  1.00  0.00     0.261 C 
BRANCH  76  77
ATOM     77  O   UNL     1       4.419   4.614  -0.743  1.00  0.00    -0.458 OA
BRANCH  77  78
ATOM     78  C   UNL     1       3.314   5.367  -0.467  1.00  0.00     0.360 C 
ATOM     79  O   UNL     1       2.665   5.999  -1.284  1.00  0.00    -0.244 OA
BRANCH  78  80
ATOM     80  C   UNL     1       2.945   5.280   0.935  1.00  0.00     0.190 A 
ATOM     81  C   UNL     1       3.569   5.834   2.036  1.00  0.00     0.147 A 
ATOM     82  N   UNL     1       1.830   4.593   1.354  1.00  0.00    -0.123 NA
ATOM     83  N   UNL     1       2.706   5.558   3.063  1.00  0.00    -0.245 N 
ATOM     84  N   UNL     1       1.741   4.707   2.669  1.00  0.00    -0.066 NA
BRANCH  83  85
ATOM     85  C   UNL     1       2.533   6.286   4.281  1.00  0.00     0.148 C 
ATOM     86  C   UNL     1       3.758   6.843   5.007  1.00  0.00     0.150 C 
ATOM     87  C   UNL     1       2.197   7.754   3.932  1.00  0.00     0.150 C 
ATOM     88  N   UNL     1       3.016   8.108   5.066  1.00  0.00    -0.320 N 
ATOM     89  C   UNL     1       3.433   9.264   5.641  1.00  0.00     0.322 C 
ATOM     90  O   UNL     1       4.400   9.267   6.409  1.00  0.00    -0.248 OA
ATOM     91  N   UNL     1       2.905  10.462   5.273  1.00  0.00    -0.307 N 
ATOM     92  H   UNL     1       3.470  11.235   5.503  1.00  0.00     0.171 HD
BRANCH  91  93
ATOM     93  C   UNL     1       1.724  10.797   4.636  1.00  0.00     0.053 A 
ATOM     94  C   UNL     1       0.462  10.141   4.712  1.00  0.00     0.038 A 
ATOM     95  C   UNL     1       1.631  11.942   3.871  1.00  0.00     0.091 A 
ATOM     96  C   UNL     1      -0.471  10.680   3.851  1.00  0.00     0.067 A 
ATOM     97  S   UNL     1       0.124  12.077   3.069  1.00  0.00    -0.150 S 
ENDBRANCH  91  93
ENDBRANCH  83  85
ENDBRANCH  78  80
ENDBRANCH  77  78
ENDBRANCH  76  77
ENDBRANCH  75  76
ENDBRANCH  74  75
ENDBRANCH  73  74
ENDBRANCH   1  73
TORSDOF 19
