REMARK SMILES Cc1c(C(=O)OCCOCCOCCOC(=O)c2ccc(-c3c4nc(c(-c5c(F)c(F)c(F)c(F)c5F)c5ccc([nH]5)c(-c5c(F)c(F)c(F)c(F)c5F)c5nc(c(-c6c(F)c(F)c(F)c(F)c6F)c6ccc3[nH]6)C=C5)C=C4)cc2)sc2c1=C(CSc1nncn1-c1ccccc1)CC(=O)N=2
REMARK SMILES IDX 10 1 9 2 8 3 7 4 6 5 4 6 5 7 3 8 1 9 2 10 83 11 81 12 82 13
REMARK SMILES IDX 84 14 101 15 98 16 99 17 100 18 85 19 86 20 87 21 88 22
REMARK SMILES IDX 91 23 89 24 90 25 92 26 93 27 97 28 94 29 96 30 95 31 11 32
REMARK SMILES IDX 12 33 13 34 14 35 15 36 16 37 17 38 18 39 19 40 80 41 20 42
REMARK SMILES IDX 79 43 21 44 22 45 23 46 73 47 24 48 78 49 72 50 74 51 25 52
REMARK SMILES IDX 77 53 71 54 70 55 26 57 58 58 38 59 57 60 39 61 42 62 56 63
REMARK SMILES IDX 75 64 40 65 41 66 55 68 76 69 43 70 27 71 28 72 36 73 29 74
REMARK SMILES IDX 30 75 34 76 37 77 31 78 32 79 35 80 33 81 59 82 60 83 68 84
REMARK SMILES IDX 61 85 62 86 66 87 69 88 63 89 64 90 67 91 65 92 44 93 45 94
REMARK SMILES IDX 53 95 46 96 47 97 51 98 54 99 48 100 49 101 52 102 50 103
REMARK H PARENT 74 56 42 67
REMARK Flexibility Score: inf
ROOT
ATOM      1  C   UNL     1       3.255  -4.271   2.483  1.00  0.00     0.188 C 
ENDROOT
BRANCH   1   2
ATOM      2  O   UNL     1       4.617  -3.905   2.337  1.00  0.00    -0.376 OA
BRANCH   2   3
ATOM      3  C   UNL     1       5.093  -3.869   0.994  1.00  0.00     0.202 C 
BRANCH   3   4
ATOM      4  C   UNL     1       4.568  -2.692   0.164  1.00  0.00     0.261 C 
BRANCH   4   5
ATOM      5  O   UNL     1       3.140  -2.659  -0.018  1.00  0.00    -0.459 OA
BRANCH   5   6
ATOM      6  C   UNL     1       2.579  -3.617  -0.785  1.00  0.00     0.348 C 
ATOM      7  O   UNL     1       3.208  -4.523  -1.319  1.00  0.00    -0.245 OA
BRANCH   6   8
ATOM      8  C   UNL     1       1.099  -3.451  -0.882  1.00  0.00     0.118 A 
ATOM      9  C   UNL     1       0.569  -1.160   0.181  1.00  0.00     0.047 C 
ATOM     10  C   UNL     1       0.300  -2.396  -0.614  1.00  0.00    -0.016 A 
ATOM     11  C   UNL     1      -1.084  -2.646  -0.957  1.00  0.00     0.016 A 
ATOM     12  S   UNL     1       0.168  -4.909  -1.249  1.00  0.00    -0.108 S 
ATOM     13  C   UNL     1      -1.377  -4.093  -1.045  1.00  0.00     0.128 A 
ATOM     14  C   UNL     1      -2.036  -1.919  -1.569  1.00  0.00    -0.040 C 
ATOM     15  N   UNL     1      -2.507  -4.694  -1.081  1.00  0.00    -0.202 NA
ATOM     16  C   UNL     1      -3.466  -2.407  -1.406  1.00  0.00     0.135 C 
ATOM     17  C   UNL     1      -3.616  -3.881  -1.009  1.00  0.00     0.251 C 
ATOM     18  O   UNL     1      -4.721  -4.308  -0.683  1.00  0.00    -0.272 OA
BRANCH  14  19
ATOM     19  C   UNL     1      -1.929  -0.674  -2.425  1.00  0.00     0.110 C 
BRANCH  19  20
ATOM     20  S   UNL     1      -0.287  -0.313  -3.120  1.00  0.00    -0.081 SA
BRANCH  20  21
ATOM     21  C   UNL     1      -0.376   1.424  -3.101  1.00  0.00     0.195 A 
ATOM     22  N   UNL     1      -1.327   2.101  -3.705  1.00  0.00    -0.123 NA
ATOM     23  N   UNL     1       0.287   2.237  -2.198  1.00  0.00    -0.277 N 
ATOM     24  N   UNL     1      -1.343   3.366  -3.176  1.00  0.00    -0.138 NA
ATOM     25  C   UNL     1      -0.407   3.422  -2.257  1.00  0.00     0.231 A 
BRANCH  23  26
ATOM     26  C   UNL     1       1.361   1.945  -1.324  1.00  0.00     0.049 A 
ATOM     27  C   UNL     1       2.402   1.101  -1.731  1.00  0.00     0.027 A 
ATOM     28  C   UNL     1       1.340   2.452  -0.015  1.00  0.00     0.027 A 
ATOM     29  C   UNL     1       3.397   0.740  -0.821  1.00  0.00     0.002 A 
ATOM     30  C   UNL     1       2.317   2.051   0.898  1.00  0.00     0.002 A 
ATOM     31  C   UNL     1       3.342   1.194   0.497  1.00  0.00     0.000 A 
ENDBRANCH  23  26
ENDBRANCH  20  21
ENDBRANCH  19  20
ENDBRANCH  14  19
ENDBRANCH   6   8
ENDBRANCH   5   6
ENDBRANCH   4   5
ENDBRANCH   3   4
ENDBRANCH   2   3
ENDBRANCH   1   2
BRANCH   1  32
ATOM     32  C   UNL     1       2.283  -3.115   2.792  1.00  0.00     0.188 C 
BRANCH  32  33
ATOM     33  O   UNL     1       2.720  -1.781   3.036  1.00  0.00    -0.376 OA
BRANCH  33  34
ATOM     34  C   UNL     1       3.962  -1.503   3.667  1.00  0.00     0.202 C 
BRANCH  34  35
ATOM     35  C   UNL     1       4.191  -1.956   5.103  1.00  0.00     0.261 C 
BRANCH  35  36
ATOM     36  O   UNL     1       3.821  -3.304   5.335  1.00  0.00    -0.460 OA
BRANCH  36  37
ATOM     37  C   UNL     1       2.568  -3.445   5.814  1.00  0.00     0.338 C 
ATOM     38  O   UNL     1       1.720  -2.579   5.950  1.00  0.00    -0.246 OA
BRANCH  37  39
ATOM     39  C   UNL     1       2.368  -4.840   6.217  1.00  0.00     0.060 A 
ATOM     40  C   UNL     1       1.066  -5.218   6.556  1.00  0.00     0.016 A 
ATOM     41  C   UNL     1       3.473  -5.665   6.469  1.00  0.00     0.016 A 
ATOM     42  C   UNL     1       0.891  -6.334   7.342  1.00  0.00     0.010 A 
ATOM     43  C   UNL     1       3.299  -6.772   7.265  1.00  0.00     0.010 A 
ATOM     44  C   UNL     1       2.023  -7.036   7.762  1.00  0.00    -0.014 A 
BRANCH  44  45
ATOM     45  C   UNL     1       1.852  -8.021   8.809  1.00  0.00     0.031 A 
ATOM     46  C   UNL     1       1.387  -9.343   8.358  1.00  0.00     0.074 A 
ATOM     47  C   UNL     1       2.209  -7.740  10.077  1.00  0.00     0.049 A 
ATOM     48  N   UNL     1       0.332  -9.980   8.739  1.00  0.00    -0.248 NA
ATOM     49  C   UNL     1       2.147 -10.008   7.288  1.00  0.00     0.031 C 
ATOM     50  C   UNL     1       2.943  -6.555  10.534  1.00  0.00     0.029 A 
ATOM     51  N   UNL     1       2.111  -8.506  11.202  1.00  0.00    -0.354 N 
ATOM     52  C   UNL     1       0.398 -11.214   8.104  1.00  0.00     0.074 A 
ATOM     53  C   UNL     1       1.434 -11.119   7.111  1.00  0.00     0.031 C 
ATOM     54  C   UNL     1       3.412  -6.781  11.779  1.00  0.00     0.029 A 
ATOM     55  C   UNL     1       2.924  -8.071  12.239  1.00  0.00     0.049 A 
ATOM     56  H   UNL     1       1.520  -9.290  11.272  1.00  0.00     0.167 HD
ATOM     57  C   UNL     1      -0.194 -12.302   8.660  1.00  0.00     0.037 A 
ATOM     58  C   UNL     1       3.246  -8.758  13.360  1.00  0.00     0.037 A 
ATOM     59  C   UNL     1      -1.213 -11.925   9.605  1.00  0.00     0.049 A 
ATOM     60  C   UNL     1       2.228  -9.816  13.559  1.00  0.00     0.074 A 
ATOM     61  C   UNL     1      -2.432 -11.286   9.546  1.00  0.00     0.029 A 
ATOM     62  N   UNL     1      -0.845 -11.957  10.923  1.00  0.00    -0.354 N 
ATOM     63  N   UNL     1       0.990  -9.592  13.902  1.00  0.00    -0.248 NA
ATOM     64  C   UNL     1       2.506 -11.168  13.089  1.00  0.00     0.031 C 
ATOM     65  C   UNL     1      -2.631 -10.698  10.831  1.00  0.00     0.029 A 
ATOM     66  C   UNL     1      -1.525 -11.001  11.625  1.00  0.00     0.049 A 
ATOM     67  H   UNL     1      -0.185 -12.578  11.309  1.00  0.00     0.167 HD
ATOM     68  C   UNL     1       0.275 -10.608  13.294  1.00  0.00     0.074 A 
ATOM     69  C   UNL     1       1.259 -11.633  12.986  1.00  0.00     0.031 C 
ATOM     70  C   UNL     1      -0.980 -10.377  12.810  1.00  0.00     0.037 A 
BRANCH  57  71
ATOM     71  C   UNL     1       0.474 -13.660   8.727  1.00  0.00     0.064 A 
ATOM     72  C   UNL     1      -0.261 -14.742   9.253  1.00  0.00     0.173 A 
ATOM     73  C   UNL     1       1.872 -13.856   8.646  1.00  0.00     0.173 A 
ATOM     74  F   UNL     1      -1.593 -14.658   9.388  1.00  0.00    -0.203 F 
ATOM     75  C   UNL     1       0.367 -15.883   9.758  1.00  0.00     0.198 A 
ATOM     76  C   UNL     1       2.488 -15.020   9.099  1.00  0.00     0.198 A 
ATOM     77  F   UNL     1       2.711 -12.895   8.243  1.00  0.00    -0.203 F 
ATOM     78  F   UNL     1      -0.359 -16.818  10.385  1.00  0.00    -0.200 F 
ATOM     79  C   UNL     1       1.742 -16.016   9.691  1.00  0.00     0.200 A 
ATOM     80  F   UNL     1       3.824 -15.122   9.042  1.00  0.00    -0.200 F 
ATOM     81  F   UNL     1       2.353 -17.071  10.244  1.00  0.00    -0.200 F 
ENDBRANCH  57  71
BRANCH  58  82
ATOM     82  C   UNL     1       4.490  -8.686  14.162  1.00  0.00     0.064 A 
ATOM     83  C   UNL     1       4.548  -9.237  15.453  1.00  0.00     0.173 A 
ATOM     84  C   UNL     1       5.721  -8.295  13.597  1.00  0.00     0.173 A 
ATOM     85  F   UNL     1       3.432  -9.681  16.049  1.00  0.00    -0.203 F 
ATOM     86  C   UNL     1       5.762  -9.405  16.126  1.00  0.00     0.198 A 
ATOM     87  C   UNL     1       6.929  -8.443  14.279  1.00  0.00     0.198 A 
ATOM     88  F   UNL     1       5.794  -7.846  12.336  1.00  0.00    -0.203 F 
ATOM     89  F   UNL     1       5.781  -9.999  17.327  1.00  0.00    -0.200 F 
ATOM     90  C   UNL     1       6.952  -9.012  15.537  1.00  0.00     0.200 A 
ATOM     91  F   UNL     1       8.076  -8.086  13.682  1.00  0.00    -0.200 F 
ATOM     92  F   UNL     1       8.119  -9.220  16.160  1.00  0.00    -0.200 F 
ENDBRANCH  58  82
BRANCH  70  93
ATOM     93  C   UNL     1      -1.746  -9.245  13.421  1.00  0.00     0.064 A 
ATOM     94  C   UNL     1      -1.375  -7.895  13.325  1.00  0.00     0.173 A 
ATOM     95  C   UNL     1      -2.946  -9.546  14.081  1.00  0.00     0.173 A 
ATOM     96  F   UNL     1      -0.293  -7.524  12.627  1.00  0.00    -0.203 F 
ATOM     97  C   UNL     1      -2.143  -6.898  13.924  1.00  0.00     0.198 A 
ATOM     98  C   UNL     1      -3.731  -8.545  14.642  1.00  0.00     0.198 A 
ATOM     99  F   UNL     1      -3.373 -10.817  14.156  1.00  0.00    -0.203 F 
ATOM    100  F   UNL     1      -1.754  -5.616  13.853  1.00  0.00    -0.200 F 
ATOM    101  C   UNL     1      -3.321  -7.223  14.579  1.00  0.00     0.200 A 
ATOM    102  F   UNL     1      -4.891  -8.860  15.234  1.00  0.00    -0.200 F 
ATOM    103  F   UNL     1      -4.072  -6.261  15.132  1.00  0.00    -0.200 F 
ENDBRANCH  70  93
ENDBRANCH  44  45
ENDBRANCH  37  39
ENDBRANCH  36  37
ENDBRANCH  35  36
ENDBRANCH  34  35
ENDBRANCH  33  34
ENDBRANCH  32  33
ENDBRANCH   1  32
TORSDOF 21
