REMARK SMILES CCC([NH3+])(CC)C(=O)N(CCC(=O)OCCOCCOCCOC(=O)c1ccc(-c2c3nc(c(-c4c(F)c(F)c(F)c(F)c4F)c4ccc([nH]4)c(-c4c(F)c(F)c(F)c(F)c4F)c4nc(c(-c5c(F)c(F)c(F)c(F)c5F)c5ccc2[nH]5)C=C4)C=C3)cc1)C(C)C
REMARK SMILES IDX 17 1 16 2 15 3 14 4 12 5 13 6 11 7 10 8 9 9 7 10 8 11 3 12
REMARK SMILES IDX 2 13 1 14 4 15 5 19 6 20 89 21 90 22 91 23 18 24 19 25 20 26
REMARK SMILES IDX 21 27 22 28 23 29 24 30 25 31 26 32 27 33 88 34 28 35 87 36
REMARK SMILES IDX 29 37 30 38 31 39 81 40 32 41 86 42 80 43 82 44 33 45 85 46
REMARK SMILES IDX 79 47 78 48 34 50 66 51 46 52 65 53 47 54 50 55 64 56 83 57
REMARK SMILES IDX 48 58 49 59 63 61 84 62 51 63 35 64 36 65 44 66 37 67 38 68
REMARK SMILES IDX 42 69 45 70 39 71 40 72 43 73 41 74 67 75 68 76 76 77 69 78
REMARK SMILES IDX 70 79 74 80 77 81 71 82 72 83 75 84 73 85 52 86 53 87 61 88
REMARK SMILES IDX 54 89 55 90 59 91 62 92 56 93 57 94 60 95 58 96
REMARK H PARENT 4 16 4 17 4 18 82 49 50 60
REMARK Flexibility Score: inf
ROOT
ATOM      1  O   UNL     1       6.763   8.059   0.273  1.00  0.00    -0.376 OA
ENDROOT
BRANCH   1   2
ATOM      2  C   UNL     1       7.439   6.973   0.907  1.00  0.00     0.202 C 
BRANCH   2   3
ATOM      3  C   UNL     1       6.721   6.386   2.127  1.00  0.00     0.261 C 
BRANCH   3   4
ATOM      4  O   UNL     1       5.467   5.764   1.777  1.00  0.00    -0.463 OA
BRANCH   4   5
ATOM      5  C   UNL     1       4.362   6.200   2.424  1.00  0.00     0.307 C 
ATOM      6  O   UNL     1       4.361   7.062   3.296  1.00  0.00    -0.252 OA
BRANCH   5   7
ATOM      7  C   UNL     1       3.080   5.527   1.985  1.00  0.00     0.144 C 
BRANCH   7   8
ATOM      8  C   UNL     1       3.037   4.745   0.668  1.00  0.00     0.131 C 
BRANCH   8   9
ATOM      9  N   UNL     1       3.378   3.313   0.773  1.00  0.00    -0.334 N 
BRANCH   9  10
ATOM     10  C   UNL     1       2.509   2.246   1.038  1.00  0.00     0.284 C 
ATOM     11  O   UNL     1       2.980   1.168   1.426  1.00  0.00    -0.268 OA
BRANCH  10  12
ATOM     12  C   UNL     1       0.944   2.341   0.848  1.00  0.00     0.173 C 
BRANCH  12  13
ATOM     13  C   UNL     1       0.308   0.915   1.021  1.00  0.00     0.075 C 
ATOM     14  C   UNL     1       0.657  -0.123  -0.050  1.00  0.00     0.011 C 
ENDBRANCH  12  13
BRANCH  12  15
ATOM     15  N   UNL     1       0.599   2.780  -0.528  1.00  0.00    -0.345 N 
ATOM     16  H   UNL     1      -0.415   2.833  -0.624  1.00  0.00     0.345 HD
ATOM     17  H   UNL     1       0.970   2.110  -1.202  1.00  0.00     0.345 HD
ATOM     18  H   UNL     1       1.006   3.699  -0.703  1.00  0.00     0.345 HD
ENDBRANCH  12  15
BRANCH  12  19
ATOM     19  C   UNL     1       0.284   3.287   1.882  1.00  0.00     0.075 C 
ATOM     20  C   UNL     1       0.662   2.999   3.334  1.00  0.00     0.011 C 
ENDBRANCH  12  19
ENDBRANCH  10  12
ENDBRANCH   9  10
BRANCH   9  21
ATOM     21  C   UNL     1       4.826   3.005   0.697  1.00  0.00     0.079 C 
ATOM     22  C   UNL     1       5.430   2.626   2.051  1.00  0.00     0.031 C 
ATOM     23  C   UNL     1       5.158   1.978  -0.390  1.00  0.00     0.031 C 
ENDBRANCH   9  21
ENDBRANCH   8   9
ENDBRANCH   7   8
ENDBRANCH   5   7
ENDBRANCH   4   5
ENDBRANCH   3   4
ENDBRANCH   2   3
ENDBRANCH   1   2
BRANCH   1  24
ATOM     24  C   UNL     1       5.583   7.734  -0.451  1.00  0.00     0.188 C 
BRANCH  24  25
ATOM     25  C   UNL     1       5.792   6.890  -1.708  1.00  0.00     0.188 C 
BRANCH  25  26
ATOM     26  O   UNL     1       6.441   5.645  -1.491  1.00  0.00    -0.376 OA
BRANCH  26  27
ATOM     27  C   UNL     1       6.495   4.755  -2.612  1.00  0.00     0.202 C 
BRANCH  27  28
ATOM     28  C   UNL     1       6.957   5.338  -3.962  1.00  0.00     0.261 C 
BRANCH  28  29
ATOM     29  O   UNL     1       6.142   6.411  -4.476  1.00  0.00    -0.460 OA
BRANCH  29  30
ATOM     30  C   UNL     1       4.816   6.191  -4.631  1.00  0.00     0.338 C 
ATOM     31  O   UNL     1       4.244   5.115  -4.581  1.00  0.00    -0.246 OA
BRANCH  30  32
ATOM     32  C   UNL     1       4.129   7.512  -4.585  1.00  0.00     0.060 A 
ATOM     33  C   UNL     1       2.887   7.595  -3.937  1.00  0.00     0.016 A 
ATOM     34  C   UNL     1       4.740   8.675  -5.067  1.00  0.00     0.016 A 
ATOM     35  C   UNL     1       2.248   8.831  -3.794  1.00  0.00     0.010 A 
ATOM     36  C   UNL     1       4.097   9.909  -4.931  1.00  0.00     0.010 A 
ATOM     37  C   UNL     1       2.836   9.990  -4.317  1.00  0.00    -0.014 A 
BRANCH  37  38
ATOM     38  C   UNL     1       2.053  11.247  -4.415  1.00  0.00     0.031 A 
ATOM     39  C   UNL     1       1.349  11.537  -5.713  1.00  0.00     0.074 A 
ATOM     40  C   UNL     1       1.963  12.116  -3.392  1.00  0.00     0.049 A 
ATOM     41  N   UNL     1       0.658  12.588  -6.071  1.00  0.00    -0.248 NA
ATOM     42  C   UNL     1       1.442  10.495  -6.750  1.00  0.00     0.031 C 
ATOM     43  C   UNL     1       2.568  11.943  -2.074  1.00  0.00     0.029 A 
ATOM     44  N   UNL     1       1.329  13.334  -3.313  1.00  0.00    -0.354 N 
ATOM     45  C   UNL     1       0.240  12.336  -7.371  1.00  0.00     0.074 A 
ATOM     46  C   UNL     1       0.774  11.047  -7.751  1.00  0.00     0.031 C 
ATOM     47  C   UNL     1       2.289  13.024  -1.321  1.00  0.00     0.029 A 
ATOM     48  C   UNL     1       1.513  13.977  -2.113  1.00  0.00     0.049 A 
ATOM     49  H   UNL     1       0.792  13.709  -4.049  1.00  0.00     0.167 HD
ATOM     50  C   UNL     1      -0.528  13.107  -8.175  1.00  0.00     0.037 A 
ATOM     51  C   UNL     1       1.120  15.205  -1.716  1.00  0.00     0.037 A 
ATOM     52  C   UNL     1      -1.063  14.387  -7.803  1.00  0.00     0.049 A 
ATOM     53  C   UNL     1       0.326  16.075  -2.662  1.00  0.00     0.074 A 
ATOM     54  C   UNL     1      -1.872  15.230  -8.544  1.00  0.00     0.029 A 
ATOM     55  N   UNL     1      -0.835  15.015  -6.589  1.00  0.00    -0.354 N 
ATOM     56  N   UNL     1      -0.098  15.813  -3.875  1.00  0.00    -0.248 NA
ATOM     57  C   UNL     1      -0.043  17.416  -2.181  1.00  0.00     0.031 C 
ATOM     58  C   UNL     1      -2.091  16.392  -7.799  1.00  0.00     0.029 A 
ATOM     59  C   UNL     1      -1.465  16.248  -6.571  1.00  0.00     0.049 A 
ATOM     60  H   UNL     1      -0.304  14.639  -5.849  1.00  0.00     0.167 HD
ATOM     61  C   UNL     1      -0.808  16.936  -4.285  1.00  0.00     0.074 A 
ATOM     62  C   UNL     1      -0.770  17.878  -3.188  1.00  0.00     0.031 C 
ATOM     63  C   UNL     1      -1.434  17.168  -5.465  1.00  0.00     0.037 A 
BRANCH  50  64
ATOM     64  C   UNL     1      -0.819  12.595  -9.553  1.00  0.00     0.064 A 
ATOM     65  C   UNL     1      -1.711  11.536  -9.772  1.00  0.00     0.173 A 
ATOM     66  C   UNL     1      -0.237  13.209 -10.672  1.00  0.00     0.173 A 
ATOM     67  F   UNL     1      -2.277  10.904  -8.732  1.00  0.00    -0.203 F 
ATOM     68  C   UNL     1      -2.000  11.100 -11.062  1.00  0.00     0.198 A 
ATOM     69  C   UNL     1      -0.549  12.789 -11.961  1.00  0.00     0.198 A 
ATOM     70  F   UNL     1       0.624  14.226 -10.514  1.00  0.00    -0.203 F 
ATOM     71  F   UNL     1      -2.827  10.062 -11.248  1.00  0.00    -0.200 F 
ATOM     72  C   UNL     1      -1.427  11.733 -12.155  1.00  0.00     0.200 A 
ATOM     73  F   UNL     1      -0.002  13.408 -13.017  1.00  0.00    -0.200 F 
ATOM     74  F   UNL     1      -1.717  11.322 -13.397  1.00  0.00    -0.200 F 
ENDBRANCH  50  64
BRANCH  51  75
ATOM     75  C   UNL     1       1.488  15.717  -0.367  1.00  0.00     0.064 A 
ATOM     76  C   UNL     1       0.509  15.977   0.604  1.00  0.00     0.173 A 
ATOM     77  C   UNL     1       2.819  16.025  -0.046  1.00  0.00     0.173 A 
ATOM     78  F   UNL     1      -0.782  15.732   0.334  1.00  0.00    -0.203 F 
ATOM     79  C   UNL     1       0.842  16.552   1.829  1.00  0.00     0.198 A 
ATOM     80  C   UNL     1       3.155  16.571   1.192  1.00  0.00     0.198 A 
ATOM     81  F   UNL     1       3.793  15.807  -0.940  1.00  0.00    -0.203 F 
ATOM     82  F   UNL     1      -0.122  16.853   2.709  1.00  0.00    -0.200 F 
ATOM     83  C   UNL     1       2.165  16.846   2.123  1.00  0.00     0.200 A 
ATOM     84  F   UNL     1       4.435  16.848   1.474  1.00  0.00    -0.200 F 
ATOM     85  F   UNL     1       2.484  17.410   3.296  1.00  0.00    -0.200 F 
ENDBRANCH  51  75
BRANCH  63  86
ATOM     86  C   UNL     1      -2.170  18.469  -5.621  1.00  0.00     0.064 A 
ATOM     87  C   UNL     1      -1.492  19.689  -5.760  1.00  0.00     0.173 A 
ATOM     88  C   UNL     1      -3.572  18.487  -5.686  1.00  0.00     0.173 A 
ATOM     89  F   UNL     1      -0.152  19.728  -5.694  1.00  0.00    -0.203 F 
ATOM     90  C   UNL     1      -2.191  20.881  -5.934  1.00  0.00     0.198 A 
ATOM     91  C   UNL     1      -4.266  19.676  -5.891  1.00  0.00     0.198 A 
ATOM     92  F   UNL     1      -4.269  17.346  -5.570  1.00  0.00    -0.203 F 
ATOM     93  F   UNL     1      -1.524  22.040  -6.019  1.00  0.00    -0.200 F 
ATOM     94  C   UNL     1      -3.576  20.872  -6.007  1.00  0.00     0.200 A 
ATOM     95  F   UNL     1      -5.603  19.663  -5.979  1.00  0.00    -0.200 F 
ATOM     96  F   UNL     1      -4.246  22.019  -6.185  1.00  0.00    -0.200 F 
ENDBRANCH  63  86
ENDBRANCH  37  38
ENDBRANCH  30  32
ENDBRANCH  29  30
ENDBRANCH  28  29
ENDBRANCH  27  28
ENDBRANCH  26  27
ENDBRANCH  25  26
ENDBRANCH  24  25
ENDBRANCH   1  24
TORSDOF 25
