REMARK SMILES CC1(C)CCC[C@@](C)(CCC(=O)OCCOCCOCCOC(=O)c2ccc(-c3c4nc(c(-c5c(F)c(F)c(F)c(F)c5F)c5ccc([nH]5)c(-c5c(F)c(F)c(F)c(F)c5F)c5nc(c(-c6c(F)c(F)c(F)c(F)c6F)c6ccc3[nH]6)C=C5)C=C4)cc2)C1=O
REMARK SMILES IDX 17 1 16 2 15 3 14 4 13 5 11 6 12 7 10 8 9 9 7 10 1 11 2 12
REMARK SMILES IDX 3 13 4 14 88 15 5 16 89 17 6 18 8 19 18 20 19 21 20 22 21 23
REMARK SMILES IDX 22 24 23 25 24 26 25 27 26 28 87 29 27 30 86 31 28 32 29 33
REMARK SMILES IDX 30 34 80 35 31 36 85 37 79 38 81 39 32 40 84 41 78 42 77 43
REMARK SMILES IDX 33 45 65 46 45 47 64 48 46 49 49 50 63 51 82 52 47 53 48 54
REMARK SMILES IDX 62 56 83 57 50 58 34 59 35 60 43 61 36 62 37 63 41 64 44 65
REMARK SMILES IDX 38 66 39 67 42 68 40 69 66 70 67 71 75 72 68 73 69 74 73 75
REMARK SMILES IDX 76 76 70 77 71 78 74 79 72 80 51 81 52 82 60 83 53 84 54 85
REMARK SMILES IDX 58 86 61 87 55 88 56 89 59 90 57 91
REMARK H PARENT 81 44 49 55
REMARK Flexibility Score: inf
ROOT
ATOM      1  C   UNL     1       0.723   1.882   0.246  1.00  0.00     0.188 C 
ENDROOT
BRANCH   1   2
ATOM      2  O   UNL     1       0.503   2.508  -1.004  1.00  0.00    -0.376 OA
BRANCH   2   3
ATOM      3  C   UNL     1       0.982   1.814  -2.158  1.00  0.00     0.202 C 
BRANCH   3   4
ATOM      4  C   UNL     1       2.425   1.249  -2.157  1.00  0.00     0.261 C 
BRANCH   4   5
ATOM      5  O   UNL     1       2.589  -0.031  -1.472  1.00  0.00    -0.463 OA
BRANCH   5   6
ATOM      6  C   UNL     1       3.243  -0.043  -0.278  1.00  0.00     0.305 C 
ATOM      7  O   UNL     1       3.785   0.950   0.199  1.00  0.00    -0.252 OA
BRANCH   6   8
ATOM      8  C   UNL     1       3.278  -1.405   0.436  1.00  0.00     0.124 C 
BRANCH   8   9
ATOM      9  C   UNL     1       1.994  -2.143   0.940  1.00  0.00     0.026 C 
BRANCH   9  10
ATOM     10  C   UNL     1       1.463  -3.517   0.323  1.00  0.00     0.027 C 
ATOM     11  C   UNL     1      -0.128  -1.306  -1.214  1.00  0.00     0.019 C 
ATOM     12  C   UNL     1       0.094  -2.690  -1.772  1.00  0.00     0.024 C 
ATOM     13  C   UNL     1      -1.145  -2.901  -2.663  1.00  0.00     0.019 C 
ATOM     14  C   UNL     1       1.348  -2.957  -2.627  1.00  0.00     0.014 C 
ATOM     15  C   UNL     1       0.138  -3.534  -0.513  1.00  0.00     0.144 C 
ATOM     16  C   UNL     1       2.634  -3.442  -1.941  1.00  0.00     0.002 C 
ATOM     17  O   UNL     1      -0.836  -4.226  -0.206  1.00  0.00    -0.298 OA
ATOM     18  C   UNL     1       2.457  -4.198  -0.621  1.00  0.00     0.014 C 
ATOM     19  C   UNL     1       1.159  -4.442   1.538  1.00  0.00     0.020 C 
ENDBRANCH   9  10
ENDBRANCH   8   9
ENDBRANCH   6   8
ENDBRANCH   5   6
ENDBRANCH   4   5
ENDBRANCH   3   4
ENDBRANCH   2   3
ENDBRANCH   1   2
BRANCH   1  20
ATOM     20  C   UNL     1      -0.541   1.739   1.074  1.00  0.00     0.188 C 
BRANCH  20  21
ATOM     21  O   UNL     1      -1.267   0.547   0.759  1.00  0.00    -0.376 OA
BRANCH  21  22
ATOM     22  C   UNL     1      -2.554   0.755   0.174  1.00  0.00     0.202 C 
BRANCH  22  23
ATOM     23  C   UNL     1      -3.683   0.851   1.210  1.00  0.00     0.261 C 
BRANCH  23  24
ATOM     24  O   UNL     1      -3.300   1.715   2.285  1.00  0.00    -0.460 OA
BRANCH  24  25
ATOM     25  C   UNL     1      -2.752   1.074   3.348  1.00  0.00     0.338 C 
ATOM     26  O   UNL     1      -2.872  -0.107   3.642  1.00  0.00    -0.246 OA
BRANCH  25  27
ATOM     27  C   UNL     1      -1.779   1.980   4.000  1.00  0.00     0.060 A 
ATOM     28  C   UNL     1      -0.651   1.400   4.602  1.00  0.00     0.016 A 
ATOM     29  C   UNL     1      -1.893   3.375   3.914  1.00  0.00     0.016 A 
ATOM     30  C   UNL     1       0.332   2.207   5.168  1.00  0.00     0.010 A 
ATOM     31  C   UNL     1      -0.914   4.185   4.489  1.00  0.00     0.010 A 
ATOM     32  C   UNL     1       0.165   3.598   5.172  1.00  0.00    -0.014 A 
BRANCH  32  33
ATOM     33  C   UNL     1       0.871   4.383   6.208  1.00  0.00     0.031 A 
ATOM     34  C   UNL     1       0.156   4.538   7.524  1.00  0.00     0.074 A 
ATOM     35  C   UNL     1       2.095   4.900   6.020  1.00  0.00     0.049 A 
ATOM     36  N   UNL     1       0.527   5.158   8.613  1.00  0.00    -0.248 NA
ATOM     37  C   UNL     1      -1.173   3.905   7.620  1.00  0.00     0.031 C 
ATOM     38  C   UNL     1       2.891   4.786   4.801  1.00  0.00     0.029 A 
ATOM     39  N   UNL     1       2.881   5.632   6.873  1.00  0.00    -0.354 N 
ATOM     40  C   UNL     1      -0.518   4.985   9.512  1.00  0.00     0.074 A 
ATOM     41  C   UNL     1      -1.558   4.250   8.834  1.00  0.00     0.031 C 
ATOM     42  C   UNL     1       4.057   5.435   4.984  1.00  0.00     0.029 A 
ATOM     43  C   UNL     1       4.076   6.021   6.324  1.00  0.00     0.049 A 
ATOM     44  H   UNL     1       2.612   5.857   7.793  1.00  0.00     0.167 HD
ATOM     45  C   UNL     1      -0.600   5.388  10.799  1.00  0.00     0.037 A 
ATOM     46  C   UNL     1       5.062   6.772   6.853  1.00  0.00     0.037 A 
ATOM     47  C   UNL     1       0.430   6.132  11.465  1.00  0.00     0.049 A 
ATOM     48  C   UNL     1       4.925   7.262   8.276  1.00  0.00     0.074 A 
ATOM     49  C   UNL     1       0.454   6.603  12.764  1.00  0.00     0.029 A 
ATOM     50  N   UNL     1       1.621   6.522  10.869  1.00  0.00    -0.354 N 
ATOM     51  N   UNL     1       3.949   7.072   9.132  1.00  0.00    -0.248 NA
ATOM     52  C   UNL     1       6.038   8.060   8.809  1.00  0.00     0.031 C 
ATOM     53  C   UNL     1       1.640   7.324  12.939  1.00  0.00     0.029 A 
ATOM     54  C   UNL     1       2.383   7.244  11.771  1.00  0.00     0.049 A 
ATOM     55  H   UNL     1       1.885   6.316   9.943  1.00  0.00     0.167 HD
ATOM     56  C   UNL     1       4.347   7.688  10.314  1.00  0.00     0.074 A 
ATOM     57  C   UNL     1       5.659   8.249  10.064  1.00  0.00     0.031 C 
ATOM     58  C   UNL     1       3.694   7.778  11.500  1.00  0.00     0.037 A 
BRANCH  45  59
ATOM     59  C   UNL     1      -1.863   5.057  11.538  1.00  0.00     0.064 A 
ATOM     60  C   UNL     1      -2.195   3.736  11.882  1.00  0.00     0.173 A 
ATOM     61  C   UNL     1      -2.767   6.071  11.883  1.00  0.00     0.173 A 
ATOM     62  F   UNL     1      -1.379   2.725  11.547  1.00  0.00    -0.203 F 
ATOM     63  C   UNL     1      -3.401   3.442  12.513  1.00  0.00     0.198 A 
ATOM     64  C   UNL     1      -3.956   5.777  12.545  1.00  0.00     0.198 A 
ATOM     65  F   UNL     1      -2.503   7.348  11.569  1.00  0.00    -0.203 F 
ATOM     66  F   UNL     1      -3.727   2.167  12.770  1.00  0.00    -0.200 F 
ATOM     67  C   UNL     1      -4.277   4.462  12.850  1.00  0.00     0.200 A 
ATOM     68  F   UNL     1      -4.798   6.765  12.875  1.00  0.00    -0.200 F 
ATOM     69  F   UNL     1      -5.437   4.178  13.456  1.00  0.00    -0.200 F 
ENDBRANCH  45  59
BRANCH  46  70
ATOM     70  C   UNL     1       6.270   7.099   6.049  1.00  0.00     0.064 A 
ATOM     71  C   UNL     1       7.529   6.582   6.386  1.00  0.00     0.173 A 
ATOM     72  C   UNL     1       6.196   7.961   4.945  1.00  0.00     0.173 A 
ATOM     73  F   UNL     1       7.659   5.775   7.450  1.00  0.00    -0.203 F 
ATOM     74  C   UNL     1       8.670   6.932   5.665  1.00  0.00     0.198 A 
ATOM     75  C   UNL     1       7.332   8.287   4.207  1.00  0.00     0.198 A 
ATOM     76  F   UNL     1       5.018   8.488   4.582  1.00  0.00    -0.203 F 
ATOM     77  F   UNL     1       9.868   6.466   6.043  1.00  0.00    -0.200 F 
ATOM     78  C   UNL     1       8.570   7.780   4.573  1.00  0.00     0.200 A 
ATOM     79  F   UNL     1       7.230   9.101   3.147  1.00  0.00    -0.200 F 
ATOM     80  F   UNL     1       9.666   8.118   3.881  1.00  0.00    -0.200 F 
ENDBRANCH  46  70
BRANCH  58  81
ATOM     81  C   UNL     1       4.412   8.451  12.634  1.00  0.00     0.064 A 
ATOM     82  C   UNL     1       4.655   9.832  12.647  1.00  0.00     0.173 A 
ATOM     83  C   UNL     1       4.834   7.700  13.744  1.00  0.00     0.173 A 
ATOM     84  F   UNL     1       4.278  10.594  11.609  1.00  0.00    -0.203 F 
ATOM     85  C   UNL     1       5.330  10.430  13.709  1.00  0.00     0.198 A 
ATOM     86  C   UNL     1       5.474   8.307  14.819  1.00  0.00     0.198 A 
ATOM     87  F   UNL     1       4.613   6.378  13.790  1.00  0.00    -0.203 F 
ATOM     88  F   UNL     1       5.606  11.741  13.671  1.00  0.00    -0.200 F 
ATOM     89  C   UNL     1       5.733   9.668  14.796  1.00  0.00     0.200 A 
ATOM     90  F   UNL     1       5.845   7.572  15.877  1.00  0.00    -0.200 F 
ATOM     91  F   UNL     1       6.380  10.246  15.817  1.00  0.00    -0.200 F 
ENDBRANCH  58  81
ENDBRANCH  32  33
ENDBRANCH  25  27
ENDBRANCH  24  25
ENDBRANCH  23  24
ENDBRANCH  22  23
ENDBRANCH  21  22
ENDBRANCH  20  21
ENDBRANCH   1  20
TORSDOF 19
