REMARK SMILES COc1ccc(C)cc1[C@@H](C)NC(=O)CC1(C(=O)OCCOCCOCCOC(=O)c2ccc(-c3c4nc(c(-c5c(F)c(F)c(F)c(F)c5F)c5ccc([nH]5)c(-c5c(F)c(F)c(F)c(F)c5F)c5nc(c(-c6c(F)c(F)c(F)c(F)c6F)c6ccc3[nH]6)C=C5)C=C4)cc2)CCCC1
REMARK SMILES IDX 22 1 21 2 20 3 19 4 17 5 18 6 16 7 94 8 97 9 95 10 96 11
REMARK SMILES IDX 15 12 13 13 12 14 14 16 10 17 11 18 9 19 3 20 4 21 5 22 8 23
REMARK SMILES IDX 6 24 7 25 2 26 1 27 23 28 24 29 25 30 26 31 27 32 28 33
REMARK SMILES IDX 29 34 30 35 31 36 32 37 93 38 33 39 92 40 34 41 35 42 36 43
REMARK SMILES IDX 86 44 37 45 91 46 85 47 87 48 38 49 90 50 84 51 83 52 39 54
REMARK SMILES IDX 71 55 51 56 70 57 52 58 55 59 69 60 88 61 53 62 54 63 68 65
REMARK SMILES IDX 89 66 56 67 40 68 41 69 49 70 42 71 43 72 47 73 50 74 44 75
REMARK SMILES IDX 45 76 48 77 46 78 72 79 73 80 81 81 74 82 75 83 79 84 82 85
REMARK SMILES IDX 76 86 77 87 80 88 78 89 57 90 58 91 66 92 59 93 60 94 64 95
REMARK SMILES IDX 67 96 61 97 62 98 65 99 63 100
REMARK H PARENT 12 15 87 53 55 64
REMARK Flexibility Score: inf
ROOT
ATOM      1  O   UNL     1       3.208   3.470   5.140  1.00  0.00    -0.376 OA
ENDROOT
BRANCH   1   2
ATOM      2  C   UNL     1       3.735   3.559   3.799  1.00  0.00     0.202 C 
BRANCH   2   3
ATOM      3  C   UNL     1       3.242   3.089   2.176  1.00  0.00     0.261 C 
BRANCH   3   4
ATOM      4  O   UNL     1       1.707   2.763   1.385  1.00  0.00    -0.463 OA
BRANCH   4   5
ATOM      5  C   UNL     1       0.547   1.933   1.480  1.00  0.00     0.312 C 
ATOM      6  O   UNL     1       0.522   0.867   2.092  1.00  0.00    -0.252 OA
BRANCH   5   7
ATOM      7  C   UNL     1      -0.805   2.260   0.774  1.00  0.00     0.077 C 
ATOM      8  C   UNL     1      -0.995   1.190  -0.324  1.00  0.00     0.019 C 
ATOM      9  C   UNL     1      -0.751   3.510  -0.105  1.00  0.00     0.019 C 
ATOM     10  C   UNL     1      -0.028   1.588  -1.420  1.00  0.00     0.001 C 
ATOM     11  C   UNL     1       0.068   3.108  -1.324  1.00  0.00     0.001 C 
BRANCH   7  12
ATOM     12  C   UNL     1      -2.158   2.267   1.610  1.00  0.00     0.118 C 
BRANCH  12  13
ATOM     13  C   UNL     1      -2.612   1.677   2.960  1.00  0.00     0.221 C 
ATOM     14  N   UNL     1      -2.941   0.395   3.242  1.00  0.00    -0.349 N 
ATOM     15  H   UNL     1      -3.482   0.288   4.057  1.00  0.00     0.164 HD
ATOM     16  O   UNL     1      -2.957   2.473   3.845  1.00  0.00    -0.275 OA
BRANCH  14  17
ATOM     17  C   UNL     1      -2.642  -0.842   2.565  1.00  0.00     0.113 C 
ATOM     18  C   UNL     1      -3.580  -1.999   2.918  1.00  0.00     0.036 C 
BRANCH  17  19
ATOM     19  C   UNL     1      -1.260  -1.291   2.917  1.00  0.00     0.016 A 
ATOM     20  C   UNL     1      -0.506  -1.848   1.870  1.00  0.00     0.124 A 
ATOM     21  C   UNL     1       0.800  -2.027   2.105  1.00  0.00     0.047 A 
ATOM     22  C   UNL     1       1.206  -1.823   3.384  1.00  0.00     0.007 A 
ATOM     23  C   UNL     1      -0.715  -1.092   4.245  1.00  0.00     0.013 A 
ATOM     24  C   UNL     1       0.575  -1.450   4.510  1.00  0.00    -0.051 A 
ATOM     25  C   UNL     1       1.531  -1.597   5.670  1.00  0.00     0.044 C 
BRANCH  20  26
ATOM     26  O   UNL     1      -1.044  -2.135   0.650  1.00  0.00    -0.496 OA
ATOM     27  C   UNL     1      -0.060  -2.342  -0.376  1.00  0.00     0.278 C 
ENDBRANCH  20  26
ENDBRANCH  17  19
ENDBRANCH  14  17
ENDBRANCH  12  13
ENDBRANCH   7  12
ENDBRANCH   5   7
ENDBRANCH   4   5
ENDBRANCH   3   4
ENDBRANCH   2   3
ENDBRANCH   1   2
BRANCH   1  28
ATOM     28  C   UNL     1       2.449   4.408   5.924  1.00  0.00     0.188 C 
BRANCH  28  29
ATOM     29  C   UNL     1       2.587   5.898   5.711  1.00  0.00     0.188 C 
BRANCH  29  30
ATOM     30  O   UNL     1       2.832   6.095   4.340  1.00  0.00    -0.376 OA
BRANCH  30  31
ATOM     31  C   UNL     1       3.353   7.355   3.996  1.00  0.00     0.202 C 
BRANCH  31  32
ATOM     32  C   UNL     1       2.280   8.447   4.055  1.00  0.00     0.261 C 
BRANCH  32  33
ATOM     33  O   UNL     1       1.116   8.059   3.277  1.00  0.00    -0.460 OA
BRANCH  33  34
ATOM     34  C   UNL     1       0.003   7.619   3.963  1.00  0.00     0.338 C 
ATOM     35  O   UNL     1      -0.528   8.227   4.874  1.00  0.00    -0.246 OA
BRANCH  34  36
ATOM     36  C   UNL     1      -0.286   6.181   3.603  1.00  0.00     0.060 A 
ATOM     37  C   UNL     1      -0.904   5.221   4.411  1.00  0.00     0.016 A 
ATOM     38  C   UNL     1       0.474   5.671   2.620  1.00  0.00     0.016 A 
ATOM     39  C   UNL     1      -0.486   3.804   4.405  1.00  0.00     0.010 A 
ATOM     40  C   UNL     1       1.022   4.404   2.878  1.00  0.00     0.010 A 
ATOM     41  C   UNL     1       0.659   3.311   3.741  1.00  0.00    -0.014 A 
BRANCH  41  42
ATOM     42  C   UNL     1       1.551   1.804   4.159  1.00  0.00     0.031 A 
ATOM     43  C   UNL     1       2.734   0.632   3.344  1.00  0.00     0.074 A 
ATOM     44  C   UNL     1       1.357   1.485   5.469  1.00  0.00     0.049 A 
ATOM     45  N   UNL     1       3.478  -0.382   3.879  1.00  0.00    -0.248 NA
ATOM     46  C   UNL     1       3.064   0.500   1.864  1.00  0.00     0.031 C 
ATOM     47  C   UNL     1       2.344   0.956   6.408  1.00  0.00     0.029 A 
ATOM     48  N   UNL     1       0.225   1.637   6.277  1.00  0.00    -0.354 N 
ATOM     49  C   UNL     1       4.023  -1.266   2.838  1.00  0.00     0.074 A 
ATOM     50  C   UNL     1       4.092  -0.344   1.747  1.00  0.00     0.031 C 
ATOM     51  C   UNL     1       1.720   0.548   7.536  1.00  0.00     0.029 A 
ATOM     52  C   UNL     1       0.291   0.722   7.357  1.00  0.00     0.049 A 
ATOM     53  H   UNL     1      -0.504   2.279   6.119  1.00  0.00     0.167 HD
ATOM     54  C   UNL     1       4.019  -2.699   2.629  1.00  0.00     0.037 A 
ATOM     55  C   UNL     1      -0.794   0.009   7.812  1.00  0.00     0.037 A 
ATOM     56  C   UNL     1       3.419  -3.705   3.695  1.00  0.00     0.049 A 
ATOM     57  C   UNL     1      -0.997  -1.573   7.420  1.00  0.00     0.074 A 
ATOM     58  C   UNL     1       3.887  -4.245   4.883  1.00  0.00     0.029 A 
ATOM     59  N   UNL     1       2.071  -4.282   3.683  1.00  0.00    -0.354 N 
ATOM     60  N   UNL     1      -0.108  -2.554   7.251  1.00  0.00    -0.248 NA
ATOM     61  C   UNL     1      -2.328  -2.067   7.040  1.00  0.00     0.031 C 
ATOM     62  C   UNL     1       2.767  -4.755   5.678  1.00  0.00     0.029 A 
ATOM     63  C   UNL     1       1.554  -4.518   5.028  1.00  0.00     0.049 A 
ATOM     64  H   UNL     1       1.571  -4.487   2.860  1.00  0.00     0.167 HD
ATOM     65  C   UNL     1      -0.612  -3.554   6.363  1.00  0.00     0.074 A 
ATOM     66  C   UNL     1      -2.059  -3.234   6.423  1.00  0.00     0.031 C 
ATOM     67  C   UNL     1       0.023  -4.461   5.443  1.00  0.00     0.037 A 
BRANCH  54  68
ATOM     68  C   UNL     1       4.638  -3.283   1.283  1.00  0.00     0.064 A 
ATOM     69  C   UNL     1       5.417  -4.455   1.330  1.00  0.00     0.173 A 
ATOM     70  C   UNL     1       4.587  -2.709  -0.020  1.00  0.00     0.173 A 
ATOM     71  F   UNL     1       5.423  -5.219   2.429  1.00  0.00    -0.203 F 
ATOM     72  C   UNL     1       6.219  -4.888   0.253  1.00  0.00     0.198 A 
ATOM     73  C   UNL     1       5.464  -3.074  -1.063  1.00  0.00     0.198 A 
ATOM     74  F   UNL     1       3.651  -1.804  -0.350  1.00  0.00    -0.203 F 
ATOM     75  F   UNL     1       6.932  -6.018   0.365  1.00  0.00    -0.200 F 
ATOM     76  C   UNL     1       6.302  -4.155  -0.914  1.00  0.00     0.200 A 
ATOM     77  F   UNL     1       5.490  -2.368  -2.205  1.00  0.00    -0.200 F 
ATOM     78  F   UNL     1       7.144  -4.511  -1.896  1.00  0.00    -0.200 F 
ENDBRANCH  54  68
BRANCH  55  79
ATOM     79  C   UNL     1      -1.845   1.110   8.002  1.00  0.00     0.064 A 
ATOM     80  C   UNL     1      -1.435   2.135   8.913  1.00  0.00     0.173 A 
ATOM     81  C   UNL     1      -2.799   1.498   7.047  1.00  0.00     0.173 A 
ATOM     82  F   UNL     1      -0.531   1.851   9.866  1.00  0.00    -0.203 F 
ATOM     83  C   UNL     1      -1.739   3.484   8.707  1.00  0.00     0.198 A 
ATOM     84  C   UNL     1      -3.187   2.851   6.921  1.00  0.00     0.198 A 
ATOM     85  F   UNL     1      -3.265   0.613   6.156  1.00  0.00    -0.203 F 
ATOM     86  F   UNL     1      -1.110   4.431   9.419  1.00  0.00    -0.200 F 
ATOM     87  C   UNL     1      -2.590   3.844   7.686  1.00  0.00     0.200 A 
ATOM     88  F   UNL     1      -4.085   3.220   5.998  1.00  0.00    -0.200 F 
ATOM     89  F   UNL     1      -2.790   5.140   7.402  1.00  0.00    -0.200 F 
ENDBRANCH  55  79
BRANCH  67  90
ATOM     90  C   UNL     1      -0.907  -5.496   4.803  1.00  0.00     0.064 A 
ATOM     91  C   UNL     1      -1.845  -6.206   5.590  1.00  0.00     0.173 A 
ATOM     92  C   UNL     1      -0.839  -5.882   3.452  1.00  0.00     0.173 A 
ATOM     93  F   UNL     1      -1.962  -5.958   6.904  1.00  0.00    -0.203 F 
ATOM     94  C   UNL     1      -2.696  -7.174   5.054  1.00  0.00     0.198 A 
ATOM     95  C   UNL     1      -1.639  -6.910   2.935  1.00  0.00     0.198 A 
ATOM     96  F   UNL     1      -0.008  -5.274   2.594  1.00  0.00    -0.203 F 
ATOM     97  F   UNL     1      -3.627  -7.747   5.830  1.00  0.00    -0.200 F 
ATOM     98  C   UNL     1      -2.577  -7.543   3.730  1.00  0.00     0.200 A 
ATOM     99  F   UNL     1      -1.492  -7.290   1.657  1.00  0.00    -0.200 F 
ATOM    100  F   UNL     1      -3.358  -8.508   3.226  1.00  0.00    -0.200 F 
ENDBRANCH  67  90
ENDBRANCH  41  42
ENDBRANCH  34  36
ENDBRANCH  33  34
ENDBRANCH  32  33
ENDBRANCH  31  32
ENDBRANCH  30  31
ENDBRANCH  29  30
ENDBRANCH  28  29
ENDBRANCH   1  28
TORSDOF 22
