REMARK SMILES CCc1nn(C)c(N[C@@](C)(CC)C(=O)OCCOCCOCCOC(=O)c2ccc(-c3c4nc(c(-c5c(F)c(F)c(F)c(F)c5F)c5ccc([nH]5)c(-c5c(F)c(F)c(F)c(F)c5F)c5nc(c(-c6c(F)c(F)c(F)c(F)c6F)c6ccc3[nH]6)C=C5)C=C4)cc2)c1[N+](=O)[O-]
REMARK SMILES IDX 19 1 18 2 17 3 16 4 15 5 13 6 14 7 9 8 10 9 8 10 7 12 3 13
REMARK SMILES IDX 4 14 90 15 5 16 6 17 2 18 1 19 91 20 92 21 93 22 11 23 12 24
REMARK SMILES IDX 20 25 21 26 22 27 23 28 24 29 25 30 26 31 27 32 28 33 89 34
REMARK SMILES IDX 29 35 88 36 30 37 31 38 32 39 82 40 33 41 87 42 81 43 83 44
REMARK SMILES IDX 34 45 86 46 80 47 79 48 35 50 67 51 47 52 66 53 48 54 51 55
REMARK SMILES IDX 65 56 84 57 49 58 50 59 64 61 85 62 52 63 36 64 37 65 45 66
REMARK SMILES IDX 38 67 39 68 43 69 46 70 40 71 41 72 44 73 42 74 68 75 69 76
REMARK SMILES IDX 77 77 70 78 71 79 75 80 78 81 72 82 73 83 76 84 74 85 53 86
REMARK SMILES IDX 54 87 62 88 55 89 56 90 60 91 63 92 57 93 58 94 61 95 59 96
REMARK H PARENT 8 11 83 49 51 60
REMARK Flexibility Score: inf
ROOT
ATOM      1  C   UNL     1       0.398   3.003  -1.196  1.00  0.00     0.188 C 
ENDROOT
BRANCH   1   2
ATOM      2  O   UNL     1      -0.642   2.895  -2.154  1.00  0.00    -0.376 OA
BRANCH   2   3
ATOM      3  C   UNL     1      -1.976   2.957  -1.671  1.00  0.00     0.202 C 
BRANCH   3   4
ATOM      4  C   UNL     1      -2.384   4.222  -0.905  1.00  0.00     0.261 C 
BRANCH   4   5
ATOM      5  O   UNL     1      -1.481   4.502   0.186  1.00  0.00    -0.462 OA
BRANCH   5   6
ATOM      6  C   UNL     1      -1.948   5.271   1.201  1.00  0.00     0.331 C 
ATOM      7  O   UNL     1      -3.130   5.582   1.308  1.00  0.00    -0.249 OA
BRANCH   6   8
ATOM      8  C   UNL     1      -0.818   5.805   2.131  1.00  0.00     0.134 C 
ATOM      9  C   UNL     1      -1.526   6.419   3.364  1.00  0.00     0.047 C 
BRANCH   8  10
ATOM     10  N   UNL     1       0.173   4.864   2.705  1.00  0.00    -0.349 N 
ATOM     11  H   UNL     1       0.953   5.321   3.096  1.00  0.00     0.163 HD
BRANCH  10  12
ATOM     12  C   UNL     1       0.245   3.503   2.812  1.00  0.00     0.205 A 
ATOM     13  C   UNL     1       0.461   1.283   2.536  1.00  0.00     0.142 A 
ATOM     14  N   UNL     1       1.551   1.667   3.196  1.00  0.00    -0.169 NA
ATOM     15  C   UNL     1      -0.469   2.356   2.464  1.00  0.00     0.334 A 
ATOM     16  N   UNL     1       1.335   2.956   3.481  1.00  0.00    -0.246 N 
ATOM     17  C   UNL     1       2.204   3.567   4.464  1.00  0.00     0.176 C 
BRANCH  13  18
ATOM     18  C   UNL     1       0.396  -0.129   2.038  1.00  0.00     0.062 C 
ATOM     19  C   UNL     1       1.022  -0.281   0.655  1.00  0.00     0.011 C 
ENDBRANCH  13  18
BRANCH  15  20
ATOM     20  N   UNL     1      -1.833   2.222   2.088  1.00  0.00     0.068 N 
ATOM     21  O   UNL     1      -2.090   1.435   1.170  1.00  0.00    -0.258 OA
ATOM     22  O   UNL     1      -2.660   2.841   2.765  1.00  0.00    -0.258 OA
ENDBRANCH  15  20
ENDBRANCH  10  12
ENDBRANCH   8  10
BRANCH   8  23
ATOM     23  C   UNL     1      -0.074   7.003   1.405  1.00  0.00     0.037 C 
ATOM     24  C   UNL     1       1.433   6.936   1.104  1.00  0.00     0.007 C 
ENDBRANCH   8  23
ENDBRANCH   6   8
ENDBRANCH   5   6
ENDBRANCH   4   5
ENDBRANCH   3   4
ENDBRANCH   2   3
ENDBRANCH   1   2
BRANCH   1  25
ATOM     25  C   UNL     1       1.033   4.397  -1.151  1.00  0.00     0.188 C 
BRANCH  25  26
ATOM     26  O   UNL     1       1.014   5.242  -2.292  1.00  0.00    -0.376 OA
BRANCH  26  27
ATOM     27  C   UNL     1       1.079   4.646  -3.575  1.00  0.00     0.202 C 
BRANCH  27  28
ATOM     28  C   UNL     1       2.334   3.836  -3.937  1.00  0.00     0.261 C 
BRANCH  28  29
ATOM     29  O   UNL     1       2.959   3.120  -2.856  1.00  0.00    -0.460 OA
BRANCH  29  30
ATOM     30  C   UNL     1       3.993   3.763  -2.263  1.00  0.00     0.338 C 
ATOM     31  O   UNL     1       4.455   4.855  -2.571  1.00  0.00    -0.246 OA
BRANCH  30  32
ATOM     32  C   UNL     1       4.436   3.037  -1.052  1.00  0.00     0.060 A 
ATOM     33  C   UNL     1       4.474   3.740   0.160  1.00  0.00     0.016 A 
ATOM     34  C   UNL     1       4.905   1.723  -1.112  1.00  0.00     0.016 A 
ATOM     35  C   UNL     1       5.020   3.151   1.300  1.00  0.00     0.010 A 
ATOM     36  C   UNL     1       5.479   1.141   0.029  1.00  0.00     0.010 A 
ATOM     37  C   UNL     1       5.573   1.865   1.231  1.00  0.00    -0.014 A 
BRANCH  37  38
ATOM     38  C   UNL     1       6.400   1.376   2.369  1.00  0.00     0.031 A 
ATOM     39  C   UNL     1       7.885   1.569   2.322  1.00  0.00     0.074 A 
ATOM     40  C   UNL     1       5.841   0.833   3.464  1.00  0.00     0.049 A 
ATOM     41  N   UNL     1       8.791   1.229   3.203  1.00  0.00    -0.248 NA
ATOM     42  C   UNL     1       8.423   2.217   1.117  1.00  0.00     0.031 C 
ATOM     43  C   UNL     1       4.418   0.594   3.616  1.00  0.00     0.029 A 
ATOM     44  N   UNL     1       6.379   0.401   4.651  1.00  0.00    -0.354 N 
ATOM     45  C   UNL     1      10.007   1.591   2.646  1.00  0.00     0.074 A 
ATOM     46  C   UNL     1       9.726   2.174   1.351  1.00  0.00     0.031 C 
ATOM     47  C   UNL     1       4.172   0.120   4.848  1.00  0.00     0.029 A 
ATOM     48  C   UNL     1       5.441  -0.058   5.547  1.00  0.00     0.049 A 
ATOM     49  H   UNL     1       7.345   0.418   4.842  1.00  0.00     0.167 HD
ATOM     50  C   UNL     1      11.247   1.437   3.167  1.00  0.00     0.037 A 
ATOM     51  C   UNL     1       5.592  -0.588   6.777  1.00  0.00     0.037 A 
ATOM     52  C   UNL     1      11.521   0.853   4.454  1.00  0.00     0.049 A 
ATOM     53  C   UNL     1       6.986  -0.764   7.322  1.00  0.00     0.074 A 
ATOM     54  C   UNL     1      12.746   0.651   5.065  1.00  0.00     0.029 A 
ATOM     55  N   UNL     1      10.556   0.369   5.326  1.00  0.00    -0.354 N 
ATOM     56  N   UNL     1       8.133  -0.419   6.788  1.00  0.00    -0.248 NA
ATOM     57  C   UNL     1       7.110  -1.426   8.629  1.00  0.00     0.031 C 
ATOM     58  C   UNL     1      12.526   0.001   6.284  1.00  0.00     0.029 A 
ATOM     59  C   UNL     1      11.160  -0.148   6.462  1.00  0.00     0.049 A 
ATOM     60  H   UNL     1       9.585   0.389   5.162  1.00  0.00     0.167 HD
ATOM     61  C   UNL     1       9.110  -0.813   7.692  1.00  0.00     0.074 A 
ATOM     62  C   UNL     1       8.420  -1.390   8.826  1.00  0.00     0.031 C 
ATOM     63  C   UNL     1      10.459  -0.718   7.585  1.00  0.00     0.037 A 
BRANCH  50  64
ATOM     64  C   UNL     1      12.404   1.863   2.314  1.00  0.00     0.064 A 
ATOM     65  C   UNL     1      12.679   3.215   2.057  1.00  0.00     0.173 A 
ATOM     66  C   UNL     1      13.257   0.901   1.753  1.00  0.00     0.173 A 
ATOM     67  F   UNL     1      11.880   4.172   2.553  1.00  0.00    -0.203 F 
ATOM     68  C   UNL     1      13.751   3.585   1.249  1.00  0.00     0.198 A 
ATOM     69  C   UNL     1      14.346   1.276   0.972  1.00  0.00     0.198 A 
ATOM     70  F   UNL     1      13.036  -0.405   1.966  1.00  0.00    -0.203 F 
ATOM     71  F   UNL     1      13.964   4.879   0.975  1.00  0.00    -0.200 F 
ATOM     72  C   UNL     1      14.587   2.617   0.714  1.00  0.00     0.200 A 
ATOM     73  F   UNL     1      15.158   0.339   0.463  1.00  0.00    -0.200 F 
ATOM     74  F   UNL     1      15.621   2.975  -0.059  1.00  0.00    -0.200 F 
ENDBRANCH  50  64
BRANCH  51  75
ATOM     75  C   UNL     1       4.408  -1.026   7.568  1.00  0.00     0.064 A 
ATOM     76  C   UNL     1       4.082  -0.411   8.786  1.00  0.00     0.173 A 
ATOM     77  C   UNL     1       3.601  -2.095   7.148  1.00  0.00     0.173 A 
ATOM     78  F   UNL     1       4.837   0.596   9.251  1.00  0.00    -0.203 F 
ATOM     79  C   UNL     1       3.012  -0.860   9.560  1.00  0.00     0.198 A 
ATOM     80  C   UNL     1       2.509  -2.518   7.903  1.00  0.00     0.198 A 
ATOM     81  F   UNL     1       3.871  -2.729   5.997  1.00  0.00    -0.203 F 
ATOM     82  F   UNL     1       2.762  -0.292  10.748  1.00  0.00    -0.200 F 
ATOM     83  C   UNL     1       2.222  -1.909   9.114  1.00  0.00     0.200 A 
ATOM     84  F   UNL     1       1.742  -3.524   7.462  1.00  0.00    -0.200 F 
ATOM     85  F   UNL     1       1.194  -2.339   9.857  1.00  0.00    -0.200 F 
ENDBRANCH  51  75
BRANCH  63  86
ATOM     86  C   UNL     1      11.274  -1.223   8.742  1.00  0.00     0.064 A 
ATOM     87  C   UNL     1      11.377  -2.592   9.031  1.00  0.00     0.173 A 
ATOM     88  C   UNL     1      11.980  -0.326   9.557  1.00  0.00     0.173 A 
ATOM     89  F   UNL     1      10.709  -3.491   8.292  1.00  0.00    -0.203 F 
ATOM     90  C   UNL     1      12.129  -3.041  10.114  1.00  0.00     0.198 A 
ATOM     91  C   UNL     1      12.758  -0.780  10.618  1.00  0.00     0.198 A 
ATOM     92  F   UNL     1      11.922   0.993   9.320  1.00  0.00    -0.203 F 
ATOM     93  F   UNL     1      12.165  -4.348  10.407  1.00  0.00    -0.200 F 
ATOM     94  C   UNL     1      12.824  -2.135  10.902  1.00  0.00     0.200 A 
ATOM     95  F   UNL     1      13.441   0.095  11.369  1.00  0.00    -0.200 F 
ATOM     96  F   UNL     1      13.549  -2.569  11.942  1.00  0.00    -0.200 F 
ENDBRANCH  63  86
ENDBRANCH  37  38
ENDBRANCH  30  32
ENDBRANCH  29  30
ENDBRANCH  28  29
ENDBRANCH  27  28
ENDBRANCH  26  27
ENDBRANCH  25  26
ENDBRANCH   1  25
TORSDOF 22
