REMARK SMILES Cc1[nH]c2ccccc2c1[C@H](C(=O)OCCOCCOCCOC(=O)c1ccc(-c2c3nc(c(-c4c(F)c(F)c(F)c(F)c4F)c4ccc([nH]4)c(-c4c(F)c(F)c(F)c(F)c4F)c4nc(c(-c5c(F)c(F)c(F)c(F)c5F)c5ccc2[nH]5)C=C4)C=C3)cc1)[NH+]1CCN(C(=O)c2ccco2)CC1
REMARK SMILES IDX 18 1 17 2 16 3 15 4 14 5 12 6 13 7 11 8 10 9 1 10 2 11 3 12
REMARK SMILES IDX 4 13 9 15 5 16 8 17 6 18 7 19 89 20 90 21 101 22 91 24
REMARK SMILES IDX 100 25 92 26 93 27 94 28 95 29 96 30 99 31 97 32 98 33 19 34
REMARK SMILES IDX 20 35 21 36 22 37 23 38 24 39 25 40 26 41 27 42 88 43 28 44
REMARK SMILES IDX 87 45 29 46 30 47 31 48 81 49 32 50 86 51 80 52 82 53 33 54
REMARK SMILES IDX 85 55 79 56 78 57 34 59 66 60 46 61 65 62 47 63 50 64 64 65
REMARK SMILES IDX 83 66 48 67 49 68 63 70 84 71 51 72 35 73 36 74 44 75 37 76
REMARK SMILES IDX 38 77 42 78 45 79 39 80 40 81 43 82 41 83 67 84 68 85 76 86
REMARK SMILES IDX 69 87 70 88 74 89 77 90 71 91 72 92 75 93 73 94 52 95 53 96
REMARK SMILES IDX 61 97 54 98 55 99 59 100 62 101 56 102 57 103 60 104 58 105
REMARK H PARENT 3 14 89 23 82 58 50 69
REMARK Flexibility Score: inf
ROOT
ATOM      1  C   UNL     1      -0.922   1.355  -1.398  1.00  0.00     0.188 C 
ENDROOT
BRANCH   1   2
ATOM      2  O   UNL     1       0.433   1.717  -1.198  1.00  0.00    -0.376 OA
BRANCH   2   3
ATOM      3  C   UNL     1       1.446   0.727  -1.102  1.00  0.00     0.202 C 
BRANCH   3   4
ATOM      4  C   UNL     1       1.408  -0.172   0.130  1.00  0.00     0.261 C 
BRANCH   4   5
ATOM      5  O   UNL     1       0.744  -1.425  -0.133  1.00  0.00    -0.459 OA
BRANCH   5   6
ATOM      6  C   UNL     1      -0.526  -1.565   0.311  1.00  0.00     0.370 C 
ATOM      7  O   UNL     1      -1.155  -0.670   0.871  1.00  0.00    -0.245 OA
BRANCH   6   8
ATOM      8  C   UNL     1      -1.085  -2.982   0.207  1.00  0.00     0.328 C 
BRANCH   8   9
ATOM      9  C   UNL     1      -0.762  -3.864  -1.027  1.00  0.00     0.049 A 
ATOM     10  C   UNL     1       0.751  -2.498  -2.769  1.00  0.00     0.065 C 
ATOM     11  C   UNL     1      -0.060  -3.607  -2.215  1.00  0.00     0.022 A 
ATOM     12  N   UNL     1      -0.210  -4.680  -3.054  1.00  0.00    -0.358 N 
ATOM     13  C   UNL     1      -0.933  -5.672  -2.471  1.00  0.00     0.046 A 
ATOM     14  H   UNL     1       0.160  -4.726  -3.965  1.00  0.00     0.166 HD
ATOM     15  C   UNL     1      -1.313  -5.208  -1.215  1.00  0.00     0.009 A 
ATOM     16  C   UNL     1      -1.273  -6.926  -2.987  1.00  0.00     0.027 A 
ATOM     17  C   UNL     1      -2.116  -6.072  -0.436  1.00  0.00     0.011 A 
ATOM     18  C   UNL     1      -2.035  -7.765  -2.182  1.00  0.00     0.002 A 
ATOM     19  C   UNL     1      -2.456  -7.344  -0.924  1.00  0.00     0.001 A 
ENDBRANCH   8   9
BRANCH   8  20
ATOM     20  N   UNL     1      -0.930  -3.719   1.498  1.00  0.00    -0.316 N 
ATOM     21  C   UNL     1       0.444  -3.951   1.949  1.00  0.00     0.285 C 
ATOM     22  C   UNL     1      -1.725  -3.181   2.615  1.00  0.00     0.285 C 
ATOM     23  H   UNL     1      -1.312  -4.627   1.234  1.00  0.00     0.349 HD
ATOM     24  C   UNL     1       1.146  -2.793   2.678  1.00  0.00     0.181 C 
ATOM     25  C   UNL     1      -1.131  -2.049   3.492  1.00  0.00     0.181 C 
ATOM     26  N   UNL     1       0.329  -1.950   3.554  1.00  0.00    -0.325 N 
ATOM     27  C   UNL     1       0.994  -0.839   4.124  1.00  0.00     0.289 C 
ATOM     28  O   UNL     1       2.149  -0.582   3.771  1.00  0.00    -0.265 OA
BRANCH  27  29
ATOM     29  C   UNL     1       0.323  -0.025   5.129  1.00  0.00     0.191 A 
ATOM     30  C   UNL     1      -0.543  -0.306   6.173  1.00  0.00     0.056 A 
ATOM     31  O   UNL     1       0.653   1.310   5.187  1.00  0.00    -0.459 OA
ATOM     32  C   UNL     1      -0.755   0.904   6.882  1.00  0.00     0.043 A 
ATOM     33  C   UNL     1      -0.003   1.857   6.240  1.00  0.00     0.196 A 
ENDBRANCH  27  29
ENDBRANCH   8  20
ENDBRANCH   6   8
ENDBRANCH   5   6
ENDBRANCH   4   5
ENDBRANCH   3   4
ENDBRANCH   2   3
ENDBRANCH   1   2
BRANCH   1  34
ATOM     34  C   UNL     1      -1.319   0.340  -2.484  1.00  0.00     0.188 C 
BRANCH  34  35
ATOM     35  O   UNL     1      -0.616   0.249  -3.718  1.00  0.00    -0.376 OA
BRANCH  35  36
ATOM     36  C   UNL     1       0.083   1.374  -4.225  1.00  0.00     0.202 C 
BRANCH  36  37
ATOM     37  C   UNL     1      -0.750   2.498  -4.837  1.00  0.00     0.261 C 
BRANCH  37  38
ATOM     38  O   UNL     1      -1.731   3.020  -3.935  1.00  0.00    -0.460 OA
BRANCH  38  39
ATOM     39  C   UNL     1      -2.977   2.520  -4.110  1.00  0.00     0.338 C 
ATOM     40  O   UNL     1      -3.353   1.744  -4.967  1.00  0.00    -0.246 OA
BRANCH  39  41
ATOM     41  C   UNL     1      -3.835   2.947  -2.988  1.00  0.00     0.060 A 
ATOM     42  C   UNL     1      -4.690   1.994  -2.420  1.00  0.00     0.016 A 
ATOM     43  C   UNL     1      -3.846   4.272  -2.547  1.00  0.00     0.016 A 
ATOM     44  C   UNL     1      -5.623   2.381  -1.468  1.00  0.00     0.010 A 
ATOM     45  C   UNL     1      -4.792   4.665  -1.601  1.00  0.00     0.010 A 
ATOM     46  C   UNL     1      -5.720   3.731  -1.110  1.00  0.00    -0.014 A 
BRANCH  46  47
ATOM     47  C   UNL     1      -6.942   4.198  -0.425  1.00  0.00     0.031 A 
ATOM     48  C   UNL     1      -8.030   4.809  -1.264  1.00  0.00     0.074 A 
ATOM     49  C   UNL     1      -7.094   4.034   0.898  1.00  0.00     0.049 A 
ATOM     50  N   UNL     1      -9.178   5.319  -0.899  1.00  0.00    -0.248 NA
ATOM     51  C   UNL     1      -7.788   4.855  -2.716  1.00  0.00     0.031 C 
ATOM     52  C   UNL     1      -6.119   3.408   1.788  1.00  0.00     0.029 A 
ATOM     53  N   UNL     1      -8.130   4.387   1.721  1.00  0.00    -0.354 N 
ATOM     54  C   UNL     1      -9.785   5.752  -2.071  1.00  0.00     0.074 A 
ATOM     55  C   UNL     1      -8.868   5.481  -3.155  1.00  0.00     0.031 C 
ATOM     56  C   UNL     1      -6.602   3.428   3.042  1.00  0.00     0.029 A 
ATOM     57  C   UNL     1      -7.900   4.099   3.042  1.00  0.00     0.049 A 
ATOM     58  H   UNL     1      -8.960   4.806   1.396  1.00  0.00     0.167 HD
ATOM     59  C   UNL     1     -11.005   6.317  -2.226  1.00  0.00     0.037 A 
ATOM     60  C   UNL     1      -8.652   4.372   4.125  1.00  0.00     0.037 A 
ATOM     61  C   UNL     1     -11.905   6.582  -1.135  1.00  0.00     0.049 A 
ATOM     62  C   UNL     1      -9.977   5.065   3.932  1.00  0.00     0.074 A 
ATOM     63  C   UNL     1     -13.167   7.144  -1.172  1.00  0.00     0.029 A 
ATOM     64  N   UNL     1     -11.627   6.306   0.197  1.00  0.00    -0.354 N 
ATOM     65  N   UNL     1     -10.555   5.460   2.823  1.00  0.00    -0.248 NA
ATOM     66  C   UNL     1     -10.757   5.339   5.145  1.00  0.00     0.031 C 
ATOM     67  C   UNL     1     -13.628   7.265   0.144  1.00  0.00     0.029 A 
ATOM     68  C   UNL     1     -12.684   6.711   0.995  1.00  0.00     0.049 A 
ATOM     69  H   UNL     1     -10.800   5.885   0.526  1.00  0.00     0.167 HD
ATOM     70  C   UNL     1     -11.779   5.999   3.199  1.00  0.00     0.074 A 
ATOM     71  C   UNL     1     -11.865   5.860   4.638  1.00  0.00     0.031 C 
ATOM     72  C   UNL     1     -12.746   6.559   2.428  1.00  0.00     0.037 A 
BRANCH  59  73
ATOM     73  C   UNL     1     -11.416   6.715  -3.616  1.00  0.00     0.064 A 
ATOM     74  C   UNL     1     -11.691   5.765  -4.612  1.00  0.00     0.173 A 
ATOM     75  C   UNL     1     -11.553   8.071  -3.952  1.00  0.00     0.173 A 
ATOM     76  F   UNL     1     -11.559   4.456  -4.351  1.00  0.00    -0.203 F 
ATOM     77  C   UNL     1     -12.060   6.157  -5.897  1.00  0.00     0.198 A 
ATOM     78  C   UNL     1     -11.954   8.459  -5.227  1.00  0.00     0.198 A 
ATOM     79  F   UNL     1     -11.301   9.023  -3.041  1.00  0.00    -0.203 F 
ATOM     80  F   UNL     1     -12.264   5.233  -6.846  1.00  0.00    -0.200 F 
ATOM     81  C   UNL     1     -12.199   7.503  -6.201  1.00  0.00     0.200 A 
ATOM     82  F   UNL     1     -12.100   9.760  -5.515  1.00  0.00    -0.200 F 
ATOM     83  F   UNL     1     -12.561   7.879  -7.435  1.00  0.00    -0.200 F 
ENDBRANCH  59  73
BRANCH  60  84
ATOM     84  C   UNL     1      -8.170   3.996   5.479  1.00  0.00     0.064 A 
ATOM     85  C   UNL     1      -8.829   3.019   6.238  1.00  0.00     0.173 A 
ATOM     86  C   UNL     1      -7.046   4.614   6.049  1.00  0.00     0.173 A 
ATOM     87  F   UNL     1      -9.921   2.414   5.747  1.00  0.00    -0.203 F 
ATOM     88  C   UNL     1      -8.399   2.692   7.522  1.00  0.00     0.198 A 
ATOM     89  C   UNL     1      -6.596   4.261   7.319  1.00  0.00     0.198 A 
ATOM     90  F   UNL     1      -6.377   5.554   5.366  1.00  0.00    -0.203 F 
ATOM     91  F   UNL     1      -9.079   1.792   8.245  1.00  0.00    -0.200 F 
ATOM     92  C   UNL     1      -7.278   3.308   8.059  1.00  0.00     0.200 A 
ATOM     93  F   UNL     1      -5.503   4.847   7.827  1.00  0.00    -0.200 F 
ATOM     94  F   UNL     1      -6.861   2.988   9.291  1.00  0.00    -0.200 F 
ENDBRANCH  60  84
BRANCH  72  95
ATOM     95  C   UNL     1     -13.996   7.016   3.126  1.00  0.00     0.064 A 
ATOM     96  C   UNL     1     -13.998   8.113   4.000  1.00  0.00     0.173 A 
ATOM     97  C   UNL     1     -15.213   6.353   2.903  1.00  0.00     0.173 A 
ATOM     98  F   UNL     1     -12.860   8.775   4.257  1.00  0.00    -0.203 F 
ATOM     99  C   UNL     1     -15.162   8.498   4.662  1.00  0.00     0.198 A 
ATOM    100  C   UNL     1     -16.382   6.766   3.535  1.00  0.00     0.198 A 
ATOM    101  F   UNL     1     -15.271   5.306   2.066  1.00  0.00    -0.203 F 
ATOM    102  F   UNL     1     -15.124   9.502   5.549  1.00  0.00    -0.200 F 
ATOM    103  C   UNL     1     -16.353   7.829   4.425  1.00  0.00     0.200 A 
ATOM    104  F   UNL     1     -17.535   6.130   3.288  1.00  0.00    -0.200 F 
ATOM    105  F   UNL     1     -17.471   8.200   5.063  1.00  0.00    -0.200 F 
ENDBRANCH  72  95
ENDBRANCH  46  47
ENDBRANCH  39  41
ENDBRANCH  38  39
ENDBRANCH  37  38
ENDBRANCH  36  37
ENDBRANCH  35  36
ENDBRANCH  34  35
ENDBRANCH   1  34
TORSDOF 20
