REMARK SMILES Cc1ccc(S(=O)(=O)N[C@@H](C)C(=O)Oc2csc(C(=O)OCCOCCOCCOC(=O)c3ccc(-c4c5nc(c(-c6c(F)c(F)c(F)c(F)c6F)c6ccc([nH]6)c(-c6c(F)c(F)c(F)c(F)c6F)c6nc(c(-c7c(F)c(F)c(F)c(F)c7F)c7ccc4[nH]7)C=C6)C=C5)cc3)c2C)cc1
REMARK SMILES IDX 23 1 22 2 21 3 19 4 20 5 18 6 15 7 16 8 96 9 17 10 97 11
REMARK SMILES IDX 14 12 12 13 13 14 10 15 11 16 9 17 6 19 7 20 8 21 5 22 1 23
REMARK SMILES IDX 2 24 3 25 99 26 4 27 98 28 24 29 25 30 26 31 27 32 28 33
REMARK SMILES IDX 29 34 30 35 31 36 32 37 33 38 34 39 95 40 35 41 94 42 36 43
REMARK SMILES IDX 37 44 38 45 88 46 39 47 93 48 87 49 89 50 40 51 92 52 86 53
REMARK SMILES IDX 85 54 41 56 73 57 53 58 72 59 54 60 57 61 71 62 90 63 55 64
REMARK SMILES IDX 56 65 70 67 91 68 58 69 42 70 43 71 51 72 44 73 45 74 49 75
REMARK SMILES IDX 52 76 46 77 47 78 50 79 48 80 74 81 75 82 83 83 76 84 77 85
REMARK SMILES IDX 81 86 84 87 78 88 79 89 82 90 80 91 59 92 60 93 68 94 61 95
REMARK SMILES IDX 62 96 66 97 69 98 63 99 64 100 67 101 65 102
REMARK H PARENT 9 18 89 55 57 66
REMARK Flexibility Score: inf
ROOT
ATOM      1  C   UNL     1      -4.166  10.462  -5.676  1.00  0.00     0.202 C 
ENDROOT
BRANCH   1   2
ATOM      2  C   UNL     1      -3.317   9.523  -4.705  1.00  0.00     0.261 C 
BRANCH   2   3
ATOM      3  O   UNL     1      -3.994   8.321  -4.146  1.00  0.00    -0.459 OA
BRANCH   3   4
ATOM      4  C   UNL     1      -3.747   7.034  -4.544  1.00  0.00     0.348 C 
ATOM      5  O   UNL     1      -2.801   6.785  -5.284  1.00  0.00    -0.245 OA
BRANCH   4   6
ATOM      6  C   UNL     1      -4.677   5.967  -4.008  1.00  0.00     0.119 A 
ATOM      7  C   UNL     1      -5.332   3.858  -3.283  1.00  0.00     0.145 A 
ATOM      8  C   UNL     1      -6.293   4.549  -2.619  1.00  0.00     0.113 A 
ATOM      9  C   UNL     1      -4.600   4.603  -4.263  1.00  0.00     0.017 A 
ATOM     10  S   UNL     1      -6.097   6.131  -3.061  1.00  0.00    -0.133 S 
ATOM     11  C   UNL     1      -3.755   3.984  -5.303  1.00  0.00     0.050 C 
BRANCH   7  12
ATOM     12  O   UNL     1      -5.031   2.612  -2.930  1.00  0.00    -0.424 OA
BRANCH  12  13
ATOM     13  C   UNL     1      -4.242   2.556  -1.817  1.00  0.00     0.329 C 
ATOM     14  O   UNL     1      -4.037   3.456  -1.001  1.00  0.00    -0.250 OA
BRANCH  13  15
ATOM     15  C   UNL     1      -3.611   1.192  -1.684  1.00  0.00     0.177 C 
ATOM     16  C   UNL     1      -3.980   0.280  -2.841  1.00  0.00     0.038 C 
BRANCH  15  17
ATOM     17  N   UNL     1      -4.067   0.713  -0.369  1.00  0.00    -0.197 NA
ATOM     18  H   UNL     1      -3.875   1.464   0.294  1.00  0.00     0.142 HD
BRANCH  17  19
ATOM     19  S   UNL     1      -3.453  -0.679   0.303  1.00  0.00     0.241 S 
ATOM     20  O   UNL     1      -3.771  -1.760  -0.598  1.00  0.00    -0.207 OA
ATOM     21  O   UNL     1      -3.875  -0.679   1.687  1.00  0.00    -0.207 OA
BRANCH  19  22
ATOM     22  C   UNL     1      -1.697  -0.437   0.281  1.00  0.00     0.082 A 
ATOM     23  C   UNL     1       2.558   0.054   0.023  1.00  0.00     0.044 C 
ATOM     24  C   UNL     1       1.068  -0.100   0.100  1.00  0.00    -0.051 A 
ATOM     25  C   UNL     1       0.493  -1.362  -0.102  1.00  0.00     0.005 A 
ATOM     26  C   UNL     1       0.245   0.991   0.411  1.00  0.00     0.005 A 
ATOM     27  C   UNL     1      -0.887  -1.530  -0.027  1.00  0.00     0.022 A 
ATOM     28  C   UNL     1      -1.138   0.824   0.514  1.00  0.00     0.022 A 
ENDBRANCH  19  22
ENDBRANCH  17  19
ENDBRANCH  15  17
ENDBRANCH  13  15
ENDBRANCH  12  13
ENDBRANCH   7  12
ENDBRANCH   4   6
ENDBRANCH   3   4
ENDBRANCH   2   3
ENDBRANCH   1   2
BRANCH   1  29
ATOM     29  O   UNL     1      -5.121  11.344  -5.062  1.00  0.00    -0.376 OA
BRANCH  29  30
ATOM     30  C   UNL     1      -6.488  11.460  -5.501  1.00  0.00     0.188 C 
BRANCH  30  31
ATOM     31  C   UNL     1      -7.000  11.066  -6.897  1.00  0.00     0.188 C 
BRANCH  31  32
ATOM     32  O   UNL     1      -6.735   9.700  -7.180  1.00  0.00    -0.376 OA
BRANCH  32  33
ATOM     33  C   UNL     1      -7.409   9.135  -8.306  1.00  0.00     0.202 C 
BRANCH  33  34
ATOM     34  C   UNL     1      -8.898   8.771  -8.066  1.00  0.00     0.261 C 
BRANCH  34  35
ATOM     35  O   UNL     1      -9.043   7.673  -7.127  1.00  0.00    -0.460 OA
BRANCH  35  36
ATOM     36  C   UNL     1      -9.740   7.928  -5.973  1.00  0.00     0.338 C 
ATOM     37  O   UNL     1     -10.942   8.119  -5.922  1.00  0.00    -0.246 OA
BRANCH  36  38
ATOM     38  C   UNL     1      -8.808   8.050  -4.808  1.00  0.00     0.060 A 
ATOM     39  C   UNL     1      -9.139   8.362  -3.480  1.00  0.00     0.016 A 
ATOM     40  C   UNL     1      -7.483   8.055  -5.110  1.00  0.00     0.016 A 
ATOM     41  C   UNL     1      -8.122   8.715  -2.508  1.00  0.00     0.010 A 
ATOM     42  C   UNL     1      -6.599   8.673  -4.237  1.00  0.00     0.010 A 
ATOM     43  C   UNL     1      -6.787   8.914  -2.872  1.00  0.00    -0.014 A 
BRANCH  43  44
ATOM     44  C   UNL     1      -5.613   9.451  -2.043  1.00  0.00     0.031 A 
ATOM     45  C   UNL     1      -4.337   8.768  -1.433  1.00  0.00     0.074 A 
ATOM     46  C   UNL     1      -5.572  10.805  -2.066  1.00  0.00     0.049 A 
ATOM     47  N   UNL     1      -3.283   9.458  -1.074  1.00  0.00    -0.248 NA
ATOM     48  C   UNL     1      -4.046   7.347  -1.148  1.00  0.00     0.031 C 
ATOM     49  C   UNL     1      -4.506  11.740  -1.701  1.00  0.00     0.029 A 
ATOM     50  N   UNL     1      -6.684  11.647  -2.214  1.00  0.00    -0.354 N 
ATOM     51  C   UNL     1      -2.224   8.633  -0.769  1.00  0.00     0.074 A 
ATOM     52  C   UNL     1      -2.729   7.304  -0.889  1.00  0.00     0.031 C 
ATOM     53  C   UNL     1      -5.073  12.864  -1.238  1.00  0.00     0.029 A 
ATOM     54  C   UNL     1      -6.501  12.624  -1.217  1.00  0.00     0.049 A 
ATOM     55  H   UNL     1      -7.420  11.573  -2.864  1.00  0.00     0.167 HD
ATOM     56  C   UNL     1      -1.032   9.134  -0.334  1.00  0.00     0.037 A 
ATOM     57  C   UNL     1      -7.314  12.616  -0.126  1.00  0.00     0.037 A 
ATOM     58  C   UNL     1      -1.283  10.359   0.404  1.00  0.00     0.049 A 
ATOM     59  C   UNL     1      -6.547  12.447   1.167  1.00  0.00     0.074 A 
ATOM     60  C   UNL     1      -1.188  11.710   0.143  1.00  0.00     0.029 A 
ATOM     61  N   UNL     1      -2.042  10.235   1.566  1.00  0.00    -0.354 N 
ATOM     62  N   UNL     1      -5.293  12.082   1.237  1.00  0.00    -0.248 NA
ATOM     63  C   UNL     1      -7.127  12.679   2.484  1.00  0.00     0.031 C 
ATOM     64  C   UNL     1      -2.097  12.368   1.032  1.00  0.00     0.029 A 
ATOM     65  C   UNL     1      -2.671  11.424   1.872  1.00  0.00     0.049 A 
ATOM     66  H   UNL     1      -2.119   9.409   2.096  1.00  0.00     0.167 HD
ATOM     67  C   UNL     1      -4.917  11.962   2.546  1.00  0.00     0.074 A 
ATOM     68  C   UNL     1      -6.088  12.393   3.287  1.00  0.00     0.031 C 
ATOM     69  C   UNL     1      -3.698  11.463   2.915  1.00  0.00     0.037 A 
BRANCH  56  70
ATOM     70  C   UNL     1       0.333   8.508  -0.559  1.00  0.00     0.064 A 
ATOM     71  C   UNL     1       1.512   9.100  -0.049  1.00  0.00     0.173 A 
ATOM     72  C   UNL     1       0.555   7.419  -1.431  1.00  0.00     0.173 A 
ATOM     73  F   UNL     1       1.454  10.170   0.757  1.00  0.00    -0.203 F 
ATOM     74  C   UNL     1       2.797   8.634  -0.382  1.00  0.00     0.198 A 
ATOM     75  C   UNL     1       1.835   6.931  -1.730  1.00  0.00     0.198 A 
ATOM     76  F   UNL     1      -0.455   6.816  -2.070  1.00  0.00    -0.203 F 
ATOM     77  F   UNL     1       3.883   9.263   0.092  1.00  0.00    -0.200 F 
ATOM     78  C   UNL     1       2.957   7.544  -1.215  1.00  0.00     0.200 A 
ATOM     79  F   UNL     1       1.970   5.874  -2.546  1.00  0.00    -0.200 F 
ATOM     80  F   UNL     1       4.181   7.099  -1.536  1.00  0.00    -0.200 F 
ENDBRANCH  56  70
BRANCH  57  81
ATOM     81  C   UNL     1      -8.707  12.165  -0.453  1.00  0.00     0.064 A 
ATOM     82  C   UNL     1      -9.350  12.791  -1.552  1.00  0.00     0.173 A 
ATOM     83  C   UNL     1      -9.281  10.976   0.008  1.00  0.00     0.173 A 
ATOM     84  F   UNL     1      -8.854  13.934  -2.055  1.00  0.00    -0.203 F 
ATOM     85  C   UNL     1     -10.413  12.197  -2.230  1.00  0.00     0.198 A 
ATOM     86  C   UNL     1     -10.389  10.408  -0.645  1.00  0.00     0.198 A 
ATOM     87  F   UNL     1      -8.709  10.285   1.004  1.00  0.00    -0.203 F 
ATOM     88  F   UNL     1     -10.880  12.752  -3.358  1.00  0.00    -0.200 F 
ATOM     89  C   UNL     1     -10.925  10.997  -1.783  1.00  0.00     0.200 A 
ATOM     90  F   UNL     1     -10.855   9.214  -0.250  1.00  0.00    -0.200 F 
ATOM     91  F   UNL     1     -11.890  10.377  -2.478  1.00  0.00    -0.200 F 
ENDBRANCH  57  81
BRANCH  69  92
ATOM     92  C   UNL     1      -3.401  10.933   4.302  1.00  0.00     0.064 A 
ATOM     93  C   UNL     1      -4.379  10.362   5.138  1.00  0.00     0.173 A 
ATOM     94  C   UNL     1      -2.069  10.816   4.760  1.00  0.00     0.173 A 
ATOM     95  F   UNL     1      -5.664  10.289   4.764  1.00  0.00    -0.203 F 
ATOM     96  C   UNL     1      -4.061   9.776   6.366  1.00  0.00     0.198 A 
ATOM     97  C   UNL     1      -1.747  10.167   5.955  1.00  0.00     0.198 A 
ATOM     98  F   UNL     1      -1.043  11.289   4.038  1.00  0.00    -0.203 F 
ATOM     99  F   UNL     1      -5.039   9.286   7.139  1.00  0.00    -0.200 F 
ATOM    100  C   UNL     1      -2.744   9.662   6.766  1.00  0.00     0.200 A 
ATOM    101  F   UNL     1      -0.462  10.003   6.299  1.00  0.00    -0.200 F 
ATOM    102  F   UNL     1      -2.437   9.041   7.912  1.00  0.00    -0.200 F 
ENDBRANCH  69  92
ENDBRANCH  43  44
ENDBRANCH  36  38
ENDBRANCH  35  36
ENDBRANCH  34  35
ENDBRANCH  33  34
ENDBRANCH  32  33
ENDBRANCH  31  32
ENDBRANCH  30  31
ENDBRANCH  29  30
ENDBRANCH   1  29
TORSDOF 23
