REMARK SMILES Cc1nn(CC(=O)OCCOCCOCCOC(=O)c2ccc(-c3c4nc(c(-c5c(F)c(F)c(F)c(F)c5F)c5ccc([nH]5)c(-c5c(F)c(F)c(F)c(F)c5F)c5nc(c(-c6c(F)c(F)c(F)c(F)c6F)c6ccc3[nH]6)C=C5)C=C4)cc2)c(C)c1S(=O)(=O)N1CCC(C)(C)C1
REMARK SMILES IDX 12 1 11 2 10 3 9 4 8 5 6 6 7 7 5 8 4 9 1 10 2 11 3 12 85 13
REMARK SMILES IDX 83 14 84 15 86 16 87 17 88 18 89 19 90 20 95 21 91 22 92 23
REMARK SMILES IDX 93 24 94 25 13 26 14 27 15 28 16 29 17 30 18 31 19 32 20 33
REMARK SMILES IDX 21 34 82 35 22 36 81 37 23 38 24 39 25 40 75 41 26 42 80 43
REMARK SMILES IDX 74 44 76 45 27 46 79 47 73 48 72 49 28 51 60 52 40 53 59 54
REMARK SMILES IDX 41 55 44 56 58 57 77 58 42 59 43 60 57 62 78 63 45 64 29 65
REMARK SMILES IDX 30 66 38 67 31 68 32 69 36 70 39 71 33 72 34 73 37 74 35 75
REMARK SMILES IDX 61 76 62 77 70 78 63 79 64 80 68 81 71 82 65 83 66 84 69 85
REMARK SMILES IDX 67 86 46 87 47 88 55 89 48 90 49 91 53 92 56 93 50 94 51 95
REMARK SMILES IDX 54 96 52 97
REMARK H PARENT 76 50 44 61
REMARK Flexibility Score: inf
ROOT
ATOM      1  C   UNL     1       3.308  -6.240  -0.476  1.00  0.00     0.188 C 
ENDROOT
BRANCH   1   2
ATOM      2  O   UNL     1       4.378  -6.718  -1.273  1.00  0.00    -0.376 OA
BRANCH   2   3
ATOM      3  C   UNL     1       4.339  -6.379  -2.661  1.00  0.00     0.202 C 
BRANCH   3   4
ATOM      4  C   UNL     1       2.995  -6.503  -3.427  1.00  0.00     0.261 C 
BRANCH   4   5
ATOM      5  O   UNL     1       1.919  -5.666  -2.925  1.00  0.00    -0.462 OA
BRANCH   5   6
ATOM      6  C   UNL     1       0.675  -6.196  -2.859  1.00  0.00     0.327 C 
ATOM      7  O   UNL     1       0.392  -7.292  -3.339  1.00  0.00    -0.250 OA
BRANCH   6   8
ATOM      8  C   UNL     1      -0.320  -5.452  -1.998  1.00  0.00     0.266 C 
BRANCH   8   9
ATOM      9  N   UNL     1      -0.237  -3.996  -1.911  1.00  0.00    -0.257 N 
ATOM     10  C   UNL     1       0.925  -1.322   0.029  1.00  0.00     0.070 C 
ATOM     11  C   UNL     1       0.183  -2.140  -0.948  1.00  0.00     0.080 A 
ATOM     12  N   UNL     1       0.223  -3.464  -0.765  1.00  0.00    -0.176 NA
ATOM     13  C   UNL     1      -0.603  -1.821  -2.071  1.00  0.00     0.126 A 
ATOM     14  C   UNL     1      -0.883  -3.050  -2.673  1.00  0.00     0.056 A 
ATOM     15  C   UNL     1      -1.696  -3.397  -3.863  1.00  0.00     0.068 C 
BRANCH  13  16
ATOM     16  S   UNL     1      -1.163  -0.275  -2.608  1.00  0.00     0.246 S 
ATOM     17  O   UNL     1      -0.511  -0.121  -3.893  1.00  0.00    -0.207 OA
ATOM     18  O   UNL     1      -2.601  -0.404  -2.499  1.00  0.00    -0.207 OA
BRANCH  16  19
ATOM     19  N   UNL     1      -0.705   1.002  -1.644  1.00  0.00    -0.197 NA
ATOM     20  C   UNL     1      -1.335   1.304  -0.363  1.00  0.00     0.103 C 
ATOM     21  C   UNL     1       0.542   1.743  -1.852  1.00  0.00     0.109 C 
ATOM     22  C   UNL     1      -0.240   1.995   0.445  1.00  0.00     0.024 C 
ATOM     23  C   UNL     1       0.699   2.631  -0.596  1.00  0.00    -0.020 C 
ATOM     24  C   UNL     1       0.272   4.078  -0.882  1.00  0.00     0.012 C 
ATOM     25  C   UNL     1       2.151   2.626  -0.102  1.00  0.00     0.012 C 
ENDBRANCH  16  19
ENDBRANCH  13  16
ENDBRANCH   8   9
ENDBRANCH   6   8
ENDBRANCH   5   6
ENDBRANCH   4   5
ENDBRANCH   3   4
ENDBRANCH   2   3
ENDBRANCH   1   2
BRANCH   1  26
ATOM     26  C   UNL     1       3.070  -4.726  -0.452  1.00  0.00     0.188 C 
BRANCH  26  27
ATOM     27  O   UNL     1       3.324  -4.058  -1.669  1.00  0.00    -0.376 OA
BRANCH  27  28
ATOM     28  C   UNL     1       4.223  -2.983  -1.889  1.00  0.00     0.202 C 
BRANCH  28  29
ATOM     29  C   UNL     1       5.536  -2.815  -1.130  1.00  0.00     0.261 C 
BRANCH  29  30
ATOM     30  O   UNL     1       5.476  -3.264   0.199  1.00  0.00    -0.460 OA
BRANCH  30  31
ATOM     31  C   UNL     1       4.711  -2.536   1.024  1.00  0.00     0.338 C 
ATOM     32  O   UNL     1       4.176  -1.453   0.794  1.00  0.00    -0.246 OA
BRANCH  31  33
ATOM     33  C   UNL     1       4.647  -3.271   2.291  1.00  0.00     0.060 A 
ATOM     34  C   UNL     1       3.913  -2.678   3.312  1.00  0.00     0.016 A 
ATOM     35  C   UNL     1       5.611  -4.269   2.520  1.00  0.00     0.016 A 
ATOM     36  C   UNL     1       4.451  -2.755   4.564  1.00  0.00     0.010 A 
ATOM     37  C   UNL     1       6.177  -4.310   3.756  1.00  0.00     0.010 A 
ATOM     38  C   UNL     1       5.664  -3.438   4.706  1.00  0.00    -0.014 A 
BRANCH  38  39
ATOM     39  C   UNL     1       6.436  -3.171   5.885  1.00  0.00     0.031 A 
ATOM     40  C   UNL     1       5.962  -3.939   7.040  1.00  0.00     0.074 A 
ATOM     41  C   UNL     1       7.491  -2.340   5.843  1.00  0.00     0.049 A 
ATOM     42  N   UNL     1       5.367  -3.486   8.089  1.00  0.00    -0.248 NA
ATOM     43  C   UNL     1       5.955  -5.404   6.913  1.00  0.00     0.031 C 
ATOM     44  C   UNL     1       8.170  -1.773   4.672  1.00  0.00     0.029 A 
ATOM     45  N   UNL     1       8.249  -1.902   6.876  1.00  0.00    -0.354 N 
ATOM     46  C   UNL     1       5.090  -4.609   8.856  1.00  0.00     0.074 A 
ATOM     47  C   UNL     1       5.262  -5.747   7.997  1.00  0.00     0.031 C 
ATOM     48  C   UNL     1       9.365  -1.267   5.057  1.00  0.00     0.029 A 
ATOM     49  C   UNL     1       9.471  -1.366   6.503  1.00  0.00     0.049 A 
ATOM     50  H   UNL     1       7.957  -1.960   7.814  1.00  0.00     0.167 HD
ATOM     51  C   UNL     1       5.037  -4.514  10.209  1.00  0.00     0.037 A 
ATOM     52  C   UNL     1      10.509  -1.148   7.347  1.00  0.00     0.037 A 
ATOM     53  C   UNL     1       4.807  -3.150  10.620  1.00  0.00     0.049 A 
ATOM     54  C   UNL     1       9.958  -1.143   8.732  1.00  0.00     0.074 A 
ATOM     55  C   UNL     1       3.794  -2.235  10.400  1.00  0.00     0.029 A 
ATOM     56  N   UNL     1       5.883  -2.416  11.060  1.00  0.00    -0.354 N 
ATOM     57  N   UNL     1       9.171  -0.211   9.198  1.00  0.00    -0.248 NA
ATOM     58  C   UNL     1       9.895  -2.417   9.438  1.00  0.00     0.031 C 
ATOM     59  C   UNL     1       4.446  -0.972  10.283  1.00  0.00     0.029 A 
ATOM     60  C   UNL     1       5.811  -1.175  10.483  1.00  0.00     0.049 A 
ATOM     61  H   UNL     1       6.581  -2.728  11.681  1.00  0.00     0.167 HD
ATOM     62  C   UNL     1       8.231  -0.887   9.966  1.00  0.00     0.074 A 
ATOM     63  C   UNL     1       8.775  -2.230  10.142  1.00  0.00     0.031 C 
ATOM     64  C   UNL     1       6.971  -0.388  10.133  1.00  0.00     0.037 A 
BRANCH  51  65
ATOM     65  C   UNL     1       5.618  -5.561  11.130  1.00  0.00     0.064 A 
ATOM     66  C   UNL     1       5.484  -5.370  12.518  1.00  0.00     0.173 A 
ATOM     67  C   UNL     1       6.548  -6.554  10.743  1.00  0.00     0.173 A 
ATOM     68  F   UNL     1       4.627  -4.459  13.003  1.00  0.00    -0.203 F 
ATOM     69  C   UNL     1       6.302  -6.032  13.435  1.00  0.00     0.198 A 
ATOM     70  C   UNL     1       7.323  -7.252  11.664  1.00  0.00     0.198 A 
ATOM     71  F   UNL     1       6.835  -6.827   9.466  1.00  0.00    -0.203 F 
ATOM     72  F   UNL     1       6.238  -5.708  14.732  1.00  0.00    -0.200 F 
ATOM     73  C   UNL     1       7.230  -6.962  13.006  1.00  0.00     0.200 A 
ATOM     74  F   UNL     1       8.223  -8.143  11.224  1.00  0.00    -0.200 F 
ATOM     75  F   UNL     1       8.067  -7.543  13.875  1.00  0.00    -0.200 F 
ENDBRANCH  51  65
BRANCH  52  76
ATOM     76  C   UNL     1      11.953  -1.319   7.062  1.00  0.00     0.064 A 
ATOM     77  C   UNL     1      12.925  -0.788   7.925  1.00  0.00     0.173 A 
ATOM     78  C   UNL     1      12.412  -2.231   6.090  1.00  0.00     0.173 A 
ATOM     79  F   UNL     1      12.565   0.048   8.909  1.00  0.00    -0.203 F 
ATOM     80  C   UNL     1      14.270  -1.162   7.833  1.00  0.00     0.198 A 
ATOM     81  C   UNL     1      13.755  -2.595   5.992  1.00  0.00     0.198 A 
ATOM     82  F   UNL     1      11.555  -2.861   5.274  1.00  0.00    -0.203 F 
ATOM     83  F   UNL     1      15.158  -0.681   8.714  1.00  0.00    -0.200 F 
ATOM     84  C   UNL     1      14.682  -2.071   6.873  1.00  0.00     0.200 A 
ATOM     85  F   UNL     1      14.133  -3.503   5.082  1.00  0.00    -0.200 F 
ATOM     86  F   UNL     1      15.960  -2.473   6.822  1.00  0.00    -0.200 F 
ENDBRANCH  52  76
BRANCH  64  87
ATOM     87  C   UNL     1       6.718   1.026   9.692  1.00  0.00     0.064 A 
ATOM     88  C   UNL     1       6.804   1.456   8.356  1.00  0.00     0.173 A 
ATOM     89  C   UNL     1       6.224   1.938  10.633  1.00  0.00     0.173 A 
ATOM     90  F   UNL     1       7.167   0.611   7.383  1.00  0.00    -0.203 F 
ATOM     91  C   UNL     1       6.455   2.755   7.992  1.00  0.00     0.198 A 
ATOM     92  C   UNL     1       5.840   3.223  10.260  1.00  0.00     0.198 A 
ATOM     93  F   UNL     1       6.065   1.564  11.912  1.00  0.00    -0.203 F 
ATOM     94  F   UNL     1       6.555   3.146   6.712  1.00  0.00    -0.200 F 
ATOM     95  C   UNL     1       5.965   3.635   8.943  1.00  0.00     0.200 A 
ATOM     96  F   UNL     1       5.318   4.053  11.174  1.00  0.00    -0.200 F 
ATOM     97  F   UNL     1       5.585   4.870   8.586  1.00  0.00    -0.200 F 
ENDBRANCH  64  87
ENDBRANCH  38  39
ENDBRANCH  31  33
ENDBRANCH  30  31
ENDBRANCH  29  30
ENDBRANCH  28  29
ENDBRANCH  27  28
ENDBRANCH  26  27
ENDBRANCH   1  26
TORSDOF 20
