REMARK SMILES COC(=O)c1c(SCC(=O)Nc2cc(C)ccc2C)[nH]c2cc(C(=O)OCCOCCOCCOC(=O)c3ccc(-c4c5nc(c(-c6c(F)c(F)c(F)c(F)c6F)c6ccc([nH]6)c(-c6c(F)c(F)c(F)c(F)c6F)c6nc(c(-c7c(F)c(F)c(F)c(F)c7F)c7ccc4[nH]7)C=C6)C=C5)cc3)ccc2c1=O
REMARK SMILES IDX 30 1 29 2 28 3 27 4 26 5 24 6 25 7 23 8 5 9 6 10 104 11
REMARK SMILES IDX 20 12 103 13 105 14 21 15 102 17 22 18 101 19 3 20 4 21 2 22
REMARK SMILES IDX 1 23 7 24 8 25 9 26 10 27 11 28 12 30 13 31 18 32 14 33
REMARK SMILES IDX 17 34 19 35 15 36 16 37 31 38 32 39 33 40 34 41 35 42 36 43
REMARK SMILES IDX 37 44 38 45 39 46 100 47 40 48 99 49 41 50 42 51 43 52 93 53
REMARK SMILES IDX 44 54 98 55 92 56 94 57 45 58 97 59 91 60 90 61 46 63 78 64
REMARK SMILES IDX 58 65 77 66 59 67 62 68 76 69 95 70 60 71 61 72 75 74 96 75
REMARK SMILES IDX 63 76 47 77 48 78 56 79 49 80 50 81 54 82 57 83 51 84 52 85
REMARK SMILES IDX 55 86 53 87 79 88 80 89 88 90 81 91 82 92 86 93 89 94 83 95
REMARK SMILES IDX 84 96 87 97 85 98 64 99 65 100 73 101 66 102 67 103 71 104
REMARK SMILES IDX 74 105 68 106 69 107 72 108 70 109
REMARK H PARENT 20 16 11 29 94 62 62 73
REMARK Flexibility Score: inf
ROOT
ATOM      1  C   UNL     1      -1.241  -5.143 -11.087  1.00  0.00     0.188 C 
ENDROOT
BRANCH   1   2
ATOM      2  O   UNL     1      -0.971  -6.542 -11.207  1.00  0.00    -0.376 OA
BRANCH   2   3
ATOM      3  C   UNL     1      -1.839  -7.406 -10.487  1.00  0.00     0.202 C 
BRANCH   3   4
ATOM      4  C   UNL     1      -1.619  -7.541  -8.969  1.00  0.00     0.261 C 
BRANCH   4   5
ATOM      5  O   UNL     1      -1.040  -6.415  -8.284  1.00  0.00    -0.460 OA
BRANCH   5   6
ATOM      6  C   UNL     1      -0.583  -6.725  -7.038  1.00  0.00     0.338 C 
ATOM      7  O   UNL     1      -0.369  -7.842  -6.589  1.00  0.00    -0.246 OA
BRANCH   6   8
ATOM      8  C   UNL     1      -0.618  -5.532  -6.165  1.00  0.00     0.062 A 
ATOM      9  C   UNL     1       0.425  -1.462  -3.260  1.00  0.00     0.138 A 
ATOM     10  C   UNL     1       1.496  -1.732  -4.042  1.00  0.00     0.092 A 
ATOM     11  C   UNL     1      -0.848  -2.195  -3.533  1.00  0.00     0.205 A 
ATOM     12  N   UNL     1       1.368  -2.578  -5.149  1.00  0.00    -0.349 N 
ATOM     13  C   UNL     1      -0.792  -3.359  -4.441  1.00  0.00     0.046 A 
ATOM     14  O   UNL     1      -1.901  -1.927  -2.963  1.00  0.00    -0.288 OA
ATOM     15  C   UNL     1       0.306  -3.475  -5.300  1.00  0.00     0.051 A 
ATOM     16  H   UNL     1       2.055  -2.539  -5.852  1.00  0.00     0.167 HD
ATOM     17  C   UNL     1      -1.759  -4.360  -4.373  1.00  0.00     0.015 A 
ATOM     18  C   UNL     1       0.351  -4.526  -6.230  1.00  0.00     0.042 A 
ATOM     19  C   UNL     1      -1.627  -5.478  -5.191  1.00  0.00     0.016 A 
BRANCH   9  20
ATOM     20  C   UNL     1       0.394  -0.541  -2.121  1.00  0.00     0.344 C 
ATOM     21  O   UNL     1      -0.174   0.538  -2.160  1.00  0.00    -0.246 OA
BRANCH  20  22
ATOM     22  O   UNL     1       1.019  -1.094  -1.055  1.00  0.00    -0.465 OA
ATOM     23  C   UNL     1       1.007  -0.304   0.138  1.00  0.00     0.282 C 
ENDBRANCH  20  22
ENDBRANCH   9  20
BRANCH  10  24
ATOM     24  S   UNL     1       3.158  -1.306  -3.671  1.00  0.00    -0.098 SA
BRANCH  24  25
ATOM     25  C   UNL     1       3.364   0.378  -3.118  1.00  0.00     0.176 C 
BRANCH  25  26
ATOM     26  C   UNL     1       2.507   1.494  -3.666  1.00  0.00     0.234 C 
ATOM     27  O   UNL     1       1.896   2.223  -2.874  1.00  0.00    -0.274 OA
ATOM     28  N   UNL     1       2.517   1.903  -4.969  1.00  0.00    -0.325 N 
ATOM     29  H   UNL     1       1.743   2.429  -5.274  1.00  0.00     0.169 HD
BRANCH  28  30
ATOM     30  C   UNL     1       3.518   1.648  -5.913  1.00  0.00     0.044 A 
ATOM     31  C   UNL     1       3.653   0.369  -6.452  1.00  0.00     0.029 A 
ATOM     32  C   UNL     1       4.355   2.684  -6.352  1.00  0.00    -0.027 A 
ATOM     33  C   UNL     1       4.705   0.050  -7.313  1.00  0.00    -0.049 A 
ATOM     34  C   UNL     1       5.382   2.374  -7.257  1.00  0.00     0.006 A 
ATOM     35  C   UNL     1       4.237   4.109  -5.883  1.00  0.00     0.046 C 
ATOM     36  C   UNL     1       4.897  -1.356  -7.794  1.00  0.00     0.044 C 
ATOM     37  C   UNL     1       5.571   1.067  -7.713  1.00  0.00     0.004 A 
ENDBRANCH  28  30
ENDBRANCH  25  26
ENDBRANCH  24  25
ENDBRANCH  10  24
ENDBRANCH   6   8
ENDBRANCH   5   6
ENDBRANCH   4   5
ENDBRANCH   3   4
ENDBRANCH   2   3
ENDBRANCH   1   2
BRANCH   1  38
ATOM     38  C   UNL     1      -2.531  -4.650 -11.763  1.00  0.00     0.188 C 
BRANCH  38  39
ATOM     39  O   UNL     1      -3.693  -5.036 -11.029  1.00  0.00    -0.376 OA
BRANCH  39  40
ATOM     40  C   UNL     1      -4.925  -4.806 -11.714  1.00  0.00     0.202 C 
BRANCH  40  41
ATOM     41  C   UNL     1      -5.274  -3.327 -11.977  1.00  0.00     0.261 C 
BRANCH  41  42
ATOM     42  O   UNL     1      -5.578  -2.474 -10.847  1.00  0.00    -0.460 OA
BRANCH  42  43
ATOM     43  C   UNL     1      -4.685  -2.410  -9.832  1.00  0.00     0.338 C 
ATOM     44  O   UNL     1      -3.768  -1.612  -9.747  1.00  0.00    -0.246 OA
BRANCH  43  45
ATOM     45  C   UNL     1      -4.959  -3.494  -8.866  1.00  0.00     0.060 A 
ATOM     46  C   UNL     1      -3.866  -4.030  -8.202  1.00  0.00     0.016 A 
ATOM     47  C   UNL     1      -6.207  -4.144  -8.848  1.00  0.00     0.016 A 
ATOM     48  C   UNL     1      -3.992  -5.306  -7.694  1.00  0.00     0.010 A 
ATOM     49  C   UNL     1      -6.307  -5.443  -8.360  1.00  0.00     0.010 A 
ATOM     50  C   UNL     1      -5.172  -6.045  -7.828  1.00  0.00    -0.014 A 
BRANCH  50  51
ATOM     51  C   UNL     1      -5.195  -7.338  -7.135  1.00  0.00     0.031 A 
ATOM     52  C   UNL     1      -5.221  -7.178  -5.657  1.00  0.00     0.074 A 
ATOM     53  C   UNL     1      -5.150  -8.545  -7.741  1.00  0.00     0.049 A 
ATOM     54  N   UNL     1      -4.494  -7.799  -4.785  1.00  0.00    -0.248 NA
ATOM     55  C   UNL     1      -6.064  -6.105  -5.091  1.00  0.00     0.031 C 
ATOM     56  C   UNL     1      -5.164  -8.778  -9.185  1.00  0.00     0.029 A 
ATOM     57  N   UNL     1      -5.130  -9.823  -7.217  1.00  0.00    -0.354 N 
ATOM     58  C   UNL     1      -4.933  -7.331  -3.554  1.00  0.00     0.074 A 
ATOM     59  C   UNL     1      -5.799  -6.209  -3.792  1.00  0.00     0.031 C 
ATOM     60  C   UNL     1      -5.321 -10.096  -9.421  1.00  0.00     0.029 A 
ATOM     61  C   UNL     1      -5.434 -10.806  -8.156  1.00  0.00     0.049 A 
ATOM     62  H   UNL     1      -4.922 -10.019  -6.275  1.00  0.00     0.167 HD
ATOM     63  C   UNL     1      -4.888  -8.136  -2.468  1.00  0.00     0.037 A 
ATOM     64  C   UNL     1      -5.856 -12.082  -7.950  1.00  0.00     0.037 A 
ATOM     65  C   UNL     1      -3.803  -9.067  -2.503  1.00  0.00     0.049 A 
ATOM     66  C   UNL     1      -5.453 -12.516  -6.592  1.00  0.00     0.074 A 
ATOM     67  C   UNL     1      -2.438  -8.997  -2.338  1.00  0.00     0.029 A 
ATOM     68  N   UNL     1      -4.087 -10.275  -3.072  1.00  0.00    -0.354 N 
ATOM     69  N   UNL     1      -4.240 -12.855  -6.259  1.00  0.00    -0.248 NA
ATOM     70  C   UNL     1      -6.380 -12.346  -5.475  1.00  0.00     0.031 C 
ATOM     71  C   UNL     1      -1.898 -10.167  -2.943  1.00  0.00     0.029 A 
ATOM     72  C   UNL     1      -2.946 -10.924  -3.459  1.00  0.00     0.049 A 
ATOM     73  H   UNL     1      -4.996 -10.633  -3.189  1.00  0.00     0.167 HD
ATOM     74  C   UNL     1      -4.148 -12.508  -4.926  1.00  0.00     0.074 A 
ATOM     75  C   UNL     1      -5.518 -12.386  -4.458  1.00  0.00     0.031 C 
ATOM     76  C   UNL     1      -2.990 -11.998  -4.425  1.00  0.00     0.037 A 
BRANCH  63  77
ATOM     77  C   UNL     1      -6.168  -8.422  -1.729  1.00  0.00     0.064 A 
ATOM     78  C   UNL     1      -6.136  -8.954  -0.435  1.00  0.00     0.173 A 
ATOM     79  C   UNL     1      -7.425  -8.439  -2.381  1.00  0.00     0.173 A 
ATOM     80  F   UNL     1      -4.973  -9.066   0.223  1.00  0.00    -0.203 F 
ATOM     81  C   UNL     1      -7.293  -9.452   0.172  1.00  0.00     0.198 A 
ATOM     82  C   UNL     1      -8.584  -8.877  -1.754  1.00  0.00     0.198 A 
ATOM     83  F   UNL     1      -7.548  -8.141  -3.683  1.00  0.00    -0.203 F 
ATOM     84  F   UNL     1      -7.214 -10.034   1.376  1.00  0.00    -0.200 F 
ATOM     85  C   UNL     1      -8.516  -9.398  -0.480  1.00  0.00     0.200 A 
ATOM     86  F   UNL     1      -9.745  -8.857  -2.422  1.00  0.00    -0.200 F 
ATOM     87  F   UNL     1      -9.618  -9.899   0.093  1.00  0.00    -0.200 F 
ENDBRANCH  63  77
BRANCH  64  88
ATOM     88  C   UNL     1      -6.735 -12.928  -8.815  1.00  0.00     0.064 A 
ATOM     89  C   UNL     1      -6.929 -14.299  -8.552  1.00  0.00     0.173 A 
ATOM     90  C   UNL     1      -7.593 -12.372  -9.786  1.00  0.00     0.173 A 
ATOM     91  F   UNL     1      -6.209 -14.921  -7.607  1.00  0.00    -0.203 F 
ATOM     92  C   UNL     1      -7.920 -15.047  -9.204  1.00  0.00     0.198 A 
ATOM     93  C   UNL     1      -8.557 -13.125 -10.457  1.00  0.00     0.198 A 
ATOM     94  F   UNL     1      -7.592 -11.060 -10.052  1.00  0.00    -0.203 F 
ATOM     95  F   UNL     1      -8.119 -16.330  -8.869  1.00  0.00    -0.200 F 
ATOM     96  C   UNL     1      -8.734 -14.458 -10.155  1.00  0.00     0.200 A 
ATOM     97  F   UNL     1      -9.353 -12.527 -11.355  1.00  0.00    -0.200 F 
ATOM     98  F   UNL     1      -9.712 -15.157 -10.745  1.00  0.00    -0.200 F 
ENDBRANCH  64  88
BRANCH  76  99
ATOM     99  C   UNL     1      -1.710 -12.457  -5.041  1.00  0.00     0.064 A 
ATOM    100  C   UNL     1      -1.321 -12.199  -6.363  1.00  0.00     0.173 A 
ATOM    101  C   UNL     1      -0.811 -13.152  -4.216  1.00  0.00     0.173 A 
ATOM    102  F   UNL     1      -2.101 -11.484  -7.189  1.00  0.00    -0.203 F 
ATOM    103  C   UNL     1      -0.097 -12.659  -6.846  1.00  0.00     0.198 A 
ATOM    104  C   UNL     1       0.424 -13.574  -4.689  1.00  0.00     0.198 A 
ATOM    105  F   UNL     1      -1.126 -13.399  -2.934  1.00  0.00    -0.203 F 
ATOM    106  F   UNL     1       0.246 -12.440  -8.124  1.00  0.00    -0.200 F 
ATOM    107  C   UNL     1       0.776 -13.339  -6.008  1.00  0.00     0.200 A 
ATOM    108  F   UNL     1       1.276 -14.200  -3.865  1.00  0.00    -0.200 F 
ATOM    109  F   UNL     1       1.963 -13.759  -6.468  1.00  0.00    -0.200 F 
ENDBRANCH  76  99
ENDBRANCH  50  51
ENDBRANCH  43  45
ENDBRANCH  42  43
ENDBRANCH  41  42
ENDBRANCH  40  41
ENDBRANCH  39  40
ENDBRANCH  38  39
ENDBRANCH   1  38
TORSDOF 23
