REMARK SMILES C#CCN(CC(=O)OCCOCCOCCOC(=O)c1ccc(-c2c3nc(c(-c4c(F)c(F)c(F)c(F)c4F)c4ccc([nH]4)c(-c4c(F)c(F)c(F)c(F)c4F)c4nc(c(-c5c(F)c(F)c(F)c(F)c5F)c5ccc2[nH]5)C=C4)C=C3)cc1)S(=O)(=O)c1ccc(C(C)(C)C)cc1
REMARK SMILES IDX 12 1 11 2 10 3 9 4 8 5 6 6 7 7 5 8 4 9 3 10 2 11 1 12 83 13
REMARK SMILES IDX 84 14 85 15 86 16 87 17 95 18 88 19 94 20 89 21 90 22 91 23
REMARK SMILES IDX 92 24 93 25 13 26 14 27 15 28 16 29 17 30 18 31 19 32 20 33
REMARK SMILES IDX 21 34 82 35 22 36 81 37 23 38 24 39 25 40 75 41 26 42 80 43
REMARK SMILES IDX 74 44 76 45 27 46 79 47 73 48 72 49 28 51 60 52 40 53 59 54
REMARK SMILES IDX 41 55 44 56 58 57 77 58 42 59 43 60 57 62 78 63 45 64 29 65
REMARK SMILES IDX 30 66 38 67 31 68 32 69 36 70 39 71 33 72 34 73 37 74 35 75
REMARK SMILES IDX 61 76 62 77 70 78 63 79 64 80 68 81 71 82 65 83 66 84 69 85
REMARK SMILES IDX 67 86 46 87 47 88 55 89 48 90 49 91 53 92 56 93 50 94 51 95
REMARK SMILES IDX 54 96 52 97
REMARK H PARENT 76 50 44 61
REMARK Flexibility Score: inf
ROOT
ATOM      1  C   UNL     1      -4.594  -2.634   2.793  1.00  0.00     0.188 C 
ENDROOT
BRANCH   1   2
ATOM      2  O   UNL     1      -5.551  -3.296   1.968  1.00  0.00    -0.376 OA
BRANCH   2   3
ATOM      3  C   UNL     1      -5.350  -3.322   0.558  1.00  0.00     0.202 C 
BRANCH   3   4
ATOM      4  C   UNL     1      -5.527  -1.972  -0.139  1.00  0.00     0.261 C 
BRANCH   4   5
ATOM      5  O   UNL     1      -4.491  -1.045   0.251  1.00  0.00    -0.462 OA
BRANCH   5   6
ATOM      6  C   UNL     1      -4.875   0.193   0.645  1.00  0.00     0.321 C 
ATOM      7  O   UNL     1      -6.023   0.615   0.549  1.00  0.00    -0.251 OA
BRANCH   6   8
ATOM      8  C   UNL     1      -3.796   0.963   1.378  1.00  0.00     0.226 C 
BRANCH   8   9
ATOM      9  N   UNL     1      -2.347   0.977   1.091  1.00  0.00    -0.175 NA
BRANCH   9  10
ATOM     10  C   UNL     1      -1.848   0.089  -0.038  1.00  0.00     0.192 C 
BRANCH  10  11
ATOM     11  C   UNL     1      -0.328   0.089  -0.038  1.00  0.00    -0.090 C 
ATOM     12  C   UNL     1       0.976   0.089  -0.038  1.00  0.00     0.005 C 
ENDBRANCH  10  11
ENDBRANCH   9  10
BRANCH   9  13
ATOM     13  S   UNL     1      -1.234   1.134   2.384  1.00  0.00     0.244 S 
ATOM     14  O   UNL     1      -1.022  -0.224   2.851  1.00  0.00    -0.207 OA
ATOM     15  O   UNL     1      -0.138   1.972   1.940  1.00  0.00    -0.207 OA
BRANCH  13  16
ATOM     16  C   UNL     1      -1.853   2.012   3.780  1.00  0.00     0.082 A 
ATOM     17  C   UNL     1      -2.497   3.236   3.686  1.00  0.00     0.022 A 
ATOM     18  C   UNL     1      -1.401   1.551   5.021  1.00  0.00     0.022 A 
ATOM     19  C   UNL     1      -2.743   3.964   4.863  1.00  0.00     0.005 A 
ATOM     20  C   UNL     1      -1.637   2.282   6.177  1.00  0.00     0.005 A 
ATOM     21  C   UNL     1      -2.345   3.489   6.133  1.00  0.00    -0.043 A 
BRANCH  21  22
ATOM     22  C   UNL     1      -2.630   4.259   7.436  1.00  0.00    -0.013 C 
ATOM     23  C   UNL     1      -1.447   5.183   7.765  1.00  0.00     0.016 C 
ATOM     24  C   UNL     1      -3.933   5.078   7.346  1.00  0.00     0.016 C 
ATOM     25  C   UNL     1      -2.809   3.296   8.623  1.00  0.00     0.016 C 
ENDBRANCH  21  22
ENDBRANCH  13  16
ENDBRANCH   9  13
ENDBRANCH   8   9
ENDBRANCH   6   8
ENDBRANCH   5   6
ENDBRANCH   4   5
ENDBRANCH   3   4
ENDBRANCH   2   3
ENDBRANCH   1   2
BRANCH   1  26
ATOM     26  C   UNL     1      -3.127  -2.637   2.362  1.00  0.00     0.188 C 
BRANCH  26  27
ATOM     27  O   UNL     1      -2.742  -3.889   1.815  1.00  0.00    -0.376 OA
BRANCH  27  28
ATOM     28  C   UNL     1      -1.428  -4.280   2.188  1.00  0.00     0.202 C 
BRANCH  28  29
ATOM     29  C   UNL     1      -1.445  -4.962   3.559  1.00  0.00     0.261 C 
BRANCH  29  30
ATOM     30  O   UNL     1      -2.178  -4.220   4.561  1.00  0.00    -0.460 OA
BRANCH  30  31
ATOM     31  C   UNL     1      -1.453  -3.425   5.375  1.00  0.00     0.338 C 
ATOM     32  O   UNL     1      -0.245  -3.279   5.382  1.00  0.00    -0.246 OA
BRANCH  31  33
ATOM     33  C   UNL     1      -2.357  -2.702   6.295  1.00  0.00     0.060 A 
ATOM     34  C   UNL     1      -2.849  -1.446   5.939  1.00  0.00     0.016 A 
ATOM     35  C   UNL     1      -2.565  -3.186   7.587  1.00  0.00     0.016 A 
ATOM     36  C   UNL     1      -3.460  -0.636   6.902  1.00  0.00     0.010 A 
ATOM     37  C   UNL     1      -3.207  -2.382   8.544  1.00  0.00     0.010 A 
ATOM     38  C   UNL     1      -3.599  -1.068   8.231  1.00  0.00    -0.014 A 
BRANCH  38  39
ATOM     39  C   UNL     1      -3.940  -0.071   9.299  1.00  0.00     0.031 A 
ATOM     40  C   UNL     1      -2.869   0.345  10.291  1.00  0.00     0.074 A 
ATOM     41  C   UNL     1      -5.086   0.643   9.260  1.00  0.00     0.049 A 
ATOM     42  N   UNL     1      -2.921   1.233  11.257  1.00  0.00    -0.248 NA
ATOM     43  C   UNL     1      -1.548  -0.290  10.146  1.00  0.00     0.031 C 
ATOM     44  C   UNL     1      -6.129   0.505   8.247  1.00  0.00     0.029 A 
ATOM     45  N   UNL     1      -5.501   1.719  10.018  1.00  0.00    -0.354 N 
ATOM     46  C   UNL     1      -1.664   1.228  11.853  1.00  0.00     0.074 A 
ATOM     47  C   UNL     1      -0.867   0.251  11.145  1.00  0.00     0.031 C 
ATOM     48  C   UNL     1      -6.992   1.528   8.367  1.00  0.00     0.029 A 
ATOM     49  C   UNL     1      -6.620   2.346   9.521  1.00  0.00     0.049 A 
ATOM     50  H   UNL     1      -5.039   2.010  10.838  1.00  0.00     0.167 HD
ATOM     51  C   UNL     1      -1.201   1.975  12.885  1.00  0.00     0.037 A 
ATOM     52  C   UNL     1      -7.272   3.453   9.935  1.00  0.00     0.037 A 
ATOM     53  C   UNL     1      -1.940   3.014  13.552  1.00  0.00     0.049 A 
ATOM     54  C   UNL     1      -6.787   4.199  11.153  1.00  0.00     0.074 A 
ATOM     55  C   UNL     1      -1.577   3.755  14.665  1.00  0.00     0.029 A 
ATOM     56  N   UNL     1      -3.174   3.490  13.143  1.00  0.00    -0.354 N 
ATOM     57  N   UNL     1      -5.663   4.074  11.813  1.00  0.00    -0.248 NA
ATOM     58  C   UNL     1      -7.686   5.231  11.695  1.00  0.00     0.031 C 
ATOM     59  C   UNL     1      -2.608   4.657  14.950  1.00  0.00     0.029 A 
ATOM     60  C   UNL     1      -3.592   4.507  13.988  1.00  0.00     0.049 A 
ATOM     61  H   UNL     1      -3.680   3.155  12.368  1.00  0.00     0.167 HD
ATOM     62  C   UNL     1      -5.720   5.008  12.842  1.00  0.00     0.074 A 
ATOM     63  C   UNL     1      -6.964   5.728  12.689  1.00  0.00     0.031 C 
ATOM     64  C   UNL     1      -4.828   5.229  13.840  1.00  0.00     0.037 A 
BRANCH  51  65
ATOM     65  C   UNL     1       0.168   1.654  13.411  1.00  0.00     0.064 A 
ATOM     66  C   UNL     1       1.337   2.053  12.750  1.00  0.00     0.173 A 
ATOM     67  C   UNL     1       0.300   0.972  14.632  1.00  0.00     0.173 A 
ATOM     68  F   UNL     1       1.263   2.690  11.572  1.00  0.00    -0.203 F 
ATOM     69  C   UNL     1       2.592   1.766  13.285  1.00  0.00     0.198 A 
ATOM     70  C   UNL     1       1.553   0.711  15.176  1.00  0.00     0.198 A 
ATOM     71  F   UNL     1      -0.791   0.576  15.305  1.00  0.00    -0.203 F 
ATOM     72  F   UNL     1       3.700   2.122  12.621  1.00  0.00    -0.200 F 
ATOM     73  C   UNL     1       2.698   1.103  14.501  1.00  0.00     0.200 A 
ATOM     74  F   UNL     1       1.652   0.084  16.356  1.00  0.00    -0.200 F 
ATOM     75  F   UNL     1       3.905   0.839  15.019  1.00  0.00    -0.200 F 
ENDBRANCH  51  65
BRANCH  52  76
ATOM     76  C   UNL     1      -8.490   3.930   9.218  1.00  0.00     0.064 A 
ATOM     77  C   UNL     1      -8.534   5.204   8.630  1.00  0.00     0.173 A 
ATOM     78  C   UNL     1      -9.655   3.151   9.159  1.00  0.00     0.173 A 
ATOM     79  F   UNL     1      -7.461   6.008   8.690  1.00  0.00    -0.203 F 
ATOM     80  C   UNL     1      -9.698   5.681   8.027  1.00  0.00     0.198 A 
ATOM     81  C   UNL     1     -10.804   3.612   8.521  1.00  0.00     0.198 A 
ATOM     82  F   UNL     1      -9.679   1.935   9.725  1.00  0.00    -0.203 F 
ATOM     83  F   UNL     1      -9.731   6.925   7.530  1.00  0.00    -0.200 F 
ATOM     84  C   UNL     1     -10.828   4.881   7.965  1.00  0.00     0.200 A 
ATOM     85  F   UNL     1     -11.889   2.829   8.456  1.00  0.00    -0.200 F 
ATOM     86  F   UNL     1     -11.945   5.338   7.383  1.00  0.00    -0.200 F 
ENDBRANCH  52  76
BRANCH  64  87
ATOM     87  C   UNL     1      -5.160   6.294  14.848  1.00  0.00     0.064 A 
ATOM     88  C   UNL     1      -6.203   6.126  15.773  1.00  0.00     0.173 A 
ATOM     89  C   UNL     1      -4.417   7.483  14.912  1.00  0.00     0.173 A 
ATOM     90  F   UNL     1      -6.950   5.012  15.751  1.00  0.00    -0.203 F 
ATOM     91  C   UNL     1      -6.513   7.121  16.697  1.00  0.00     0.198 A 
ATOM     92  C   UNL     1      -4.710   8.464  15.858  1.00  0.00     0.198 A 
ATOM     93  F   UNL     1      -3.402   7.694  14.061  1.00  0.00    -0.203 F 
ATOM     94  F   UNL     1      -7.550   6.959  17.530  1.00  0.00    -0.200 F 
ATOM     95  C   UNL     1      -5.764   8.287  16.742  1.00  0.00     0.200 A 
ATOM     96  F   UNL     1      -3.976   9.584  15.910  1.00  0.00    -0.200 F 
ATOM     97  F   UNL     1      -6.064   9.244  17.631  1.00  0.00    -0.200 F 
ENDBRANCH  64  87
ENDBRANCH  38  39
ENDBRANCH  31  33
ENDBRANCH  30  31
ENDBRANCH  29  30
ENDBRANCH  28  29
ENDBRANCH  27  28
ENDBRANCH  26  27
ENDBRANCH   1  26
TORSDOF 23
