REMARK SMILES O=C(OCCOCCOCCOC(=O)c1ccc(-c2c3nc(c(-c4c(F)c(F)c(F)c(F)c4F)c4ccc([nH]4)c(-c4c(F)c(F)c(F)c(F)c4F)c4nc(c(-c5c(F)c(F)c(F)c(F)c5F)c5ccc2[nH]5)C=C4)C=C3)cc1)c1ccc(NC(=O)[C@H]2CCS(=O)(=O)C2)cc1
REMARK SMILES IDX 7 1 6 2 5 3 4 4 3 5 2 6 1 7 78 8 79 9 93 10 80 11 92 12
REMARK SMILES IDX 81 13 82 14 83 15 84 17 85 18 86 19 91 20 87 21 88 22 89 23
REMARK SMILES IDX 90 24 8 25 9 26 10 27 11 28 12 29 13 30 14 31 15 32 16 33
REMARK SMILES IDX 77 34 17 35 76 36 18 37 19 38 20 39 70 40 21 41 75 42 69 43
REMARK SMILES IDX 71 44 22 45 74 46 68 47 67 48 23 50 55 51 35 52 54 53 36 54
REMARK SMILES IDX 39 55 53 56 72 57 37 58 38 59 52 61 73 62 40 63 24 64 25 65
REMARK SMILES IDX 33 66 26 67 27 68 31 69 34 70 28 71 29 72 32 73 30 74 56 75
REMARK SMILES IDX 57 76 65 77 58 78 59 79 63 80 66 81 60 82 61 83 64 84 62 85
REMARK SMILES IDX 41 86 42 87 50 88 43 89 44 90 48 91 51 92 45 93 46 94 49 95
REMARK SMILES IDX 47 96
REMARK H PARENT 82 16 71 49 39 60
REMARK Flexibility Score: inf
ROOT
ATOM      1  C   UNL     1       9.880   7.898  -1.406  1.00  0.00     0.188 C 
ENDROOT
BRANCH   1   2
ATOM      2  O   UNL     1       9.558   6.512  -1.324  1.00  0.00    -0.376 OA
BRANCH   2   3
ATOM      3  C   UNL     1      10.657   5.604  -1.255  1.00  0.00     0.202 C 
BRANCH   3   4
ATOM      4  C   UNL     1      11.786   5.714  -2.303  1.00  0.00     0.261 C 
BRANCH   4   5
ATOM      5  O   UNL     1      11.740   6.863  -3.181  1.00  0.00    -0.460 OA
BRANCH   5   6
ATOM      6  C   UNL     1      11.303   6.918  -4.466  1.00  0.00     0.338 C 
ATOM      7  O   UNL     1      11.622   7.848  -5.198  1.00  0.00    -0.246 OA
BRANCH   6   8
ATOM      8  C   UNL     1      10.361   5.895  -4.984  1.00  0.00     0.060 A 
ATOM      9  C   UNL     1       9.345   5.415  -4.183  1.00  0.00     0.018 A 
ATOM     10  C   UNL     1      10.329   5.534  -6.331  1.00  0.00     0.018 A 
ATOM     11  C   UNL     1       8.422   4.489  -4.630  1.00  0.00     0.027 A 
ATOM     12  C   UNL     1       9.394   4.576  -6.783  1.00  0.00     0.027 A 
ATOM     13  C   UNL     1       8.468   3.992  -5.900  1.00  0.00     0.041 A 
BRANCH  13  14
ATOM     14  N   UNL     1       7.583   3.010  -6.346  1.00  0.00    -0.326 N 
ATOM     15  C   UNL     1       6.660   2.173  -5.817  1.00  0.00     0.228 C 
ATOM     16  H   UNL     1       7.649   2.893  -7.322  1.00  0.00     0.169 HD
ATOM     17  O   UNL     1       6.079   1.512  -6.700  1.00  0.00    -0.274 OA
BRANCH  15  18
ATOM     18  C   UNL     1       6.174   1.940  -4.364  1.00  0.00     0.095 C 
ATOM     19  C   UNL     1       5.911   0.408  -4.240  1.00  0.00     0.030 C 
ATOM     20  C   UNL     1       6.945   2.238  -3.083  1.00  0.00     0.150 C 
ATOM     21  C   UNL     1       5.388   0.104  -2.846  1.00  0.00     0.138 C 
ATOM     22  S   UNL     1       6.175   1.284  -1.786  1.00  0.00     0.151 S 
ATOM     23  O   UNL     1       5.143   2.107  -1.176  1.00  0.00    -0.229 OA
ATOM     24  O   UNL     1       7.206   0.641  -1.011  1.00  0.00    -0.229 OA
ENDBRANCH  15  18
ENDBRANCH  13  14
ENDBRANCH   6   8
ENDBRANCH   5   6
ENDBRANCH   4   5
ENDBRANCH   3   4
ENDBRANCH   2   3
ENDBRANCH   1   2
BRANCH   1  25
ATOM     25  C   UNL     1       8.794   8.782  -0.790  1.00  0.00     0.188 C 
BRANCH  25  26
ATOM     26  O   UNL     1       8.569   8.622   0.606  1.00  0.00    -0.376 OA
BRANCH  26  27
ATOM     27  C   UNL     1       8.252   7.310   1.061  1.00  0.00     0.202 C 
BRANCH  27  28
ATOM     28  C   UNL     1       6.909   6.700   0.621  1.00  0.00     0.261 C 
BRANCH  28  29
ATOM     29  O   UNL     1       6.648   6.680  -0.799  1.00  0.00    -0.460 OA
BRANCH  29  30
ATOM     30  C   UNL     1       5.617   7.465  -1.200  1.00  0.00     0.338 C 
ATOM     31  O   UNL     1       4.956   8.231  -0.518  1.00  0.00    -0.246 OA
BRANCH  30  32
ATOM     32  C   UNL     1       5.320   7.274  -2.634  1.00  0.00     0.060 A 
ATOM     33  C   UNL     1       5.942   8.066  -3.604  1.00  0.00     0.016 A 
ATOM     34  C   UNL     1       4.254   6.442  -2.987  1.00  0.00     0.016 A 
ATOM     35  C   UNL     1       5.479   8.043  -4.929  1.00  0.00     0.010 A 
ATOM     36  C   UNL     1       3.807   6.409  -4.314  1.00  0.00     0.010 A 
ATOM     37  C   UNL     1       4.397   7.225  -5.296  1.00  0.00    -0.014 A 
BRANCH  37  38
ATOM     38  C   UNL     1       3.856   7.212  -6.686  1.00  0.00     0.031 A 
ATOM     39  C   UNL     1       2.503   7.800  -6.990  1.00  0.00     0.074 A 
ATOM     40  C   UNL     1       4.546   6.614  -7.676  1.00  0.00     0.049 A 
ATOM     41  N   UNL     1       1.800   7.732  -8.095  1.00  0.00    -0.248 NA
ATOM     42  C   UNL     1       1.858   8.569  -5.916  1.00  0.00     0.031 C 
ATOM     43  C   UNL     1       5.884   6.049  -7.540  1.00  0.00     0.029 A 
ATOM     44  N   UNL     1       4.205   6.352  -8.983  1.00  0.00    -0.354 N 
ATOM     45  C   UNL     1       0.627   8.434  -7.846  1.00  0.00     0.074 A 
ATOM     46  C   UNL     1       0.706   8.910  -6.480  1.00  0.00     0.031 C 
ATOM     47  C   UNL     1       6.237   5.476  -8.701  1.00  0.00     0.029 A 
ATOM     48  C   UNL     1       5.131   5.582  -9.646  1.00  0.00     0.049 A 
ATOM     49  H   UNL     1       3.379   6.684  -9.403  1.00  0.00     0.167 HD
ATOM     50  C   UNL     1      -0.416   8.661  -8.683  1.00  0.00     0.037 A 
ATOM     51  C   UNL     1       5.084   4.984 -10.853  1.00  0.00     0.037 A 
ATOM     52  C   UNL     1      -0.489   8.201 -10.048  1.00  0.00     0.049 A 
ATOM     53  C   UNL     1       3.866   5.167 -11.722  1.00  0.00     0.074 A 
ATOM     54  C   UNL     1      -1.483   8.439 -10.984  1.00  0.00     0.029 A 
ATOM     55  N   UNL     1       0.455   7.398 -10.668  1.00  0.00    -0.354 N 
ATOM     56  N   UNL     1       2.789   5.877 -11.496  1.00  0.00    -0.248 NA
ATOM     57  C   UNL     1       3.859   4.466 -13.015  1.00  0.00     0.031 C 
ATOM     58  C   UNL     1      -1.177   7.721 -12.144  1.00  0.00     0.029 A 
ATOM     59  C   UNL     1       0.040   7.089 -11.956  1.00  0.00     0.049 A 
ATOM     60  H   UNL     1       1.295   7.092 -10.257  1.00  0.00     0.167 HD
ATOM     61  C   UNL     1       1.994   5.733 -12.626  1.00  0.00     0.074 A 
ATOM     62  C   UNL     1       2.722   4.888 -13.547  1.00  0.00     0.031 C 
ATOM     63  C   UNL     1       0.768   6.253 -12.874  1.00  0.00     0.037 A 
BRANCH  50  64
ATOM     64  C   UNL     1      -1.597   9.425  -8.157  1.00  0.00     0.064 A 
ATOM     65  C   UNL     1      -1.547  10.809  -7.939  1.00  0.00     0.173 A 
ATOM     66  C   UNL     1      -2.832   8.778  -7.981  1.00  0.00     0.173 A 
ATOM     67  F   UNL     1      -0.392  11.475  -8.093  1.00  0.00    -0.203 F 
ATOM     68  C   UNL     1      -2.685  11.515  -7.557  1.00  0.00     0.198 A 
ATOM     69  C   UNL     1      -3.973   9.491  -7.626  1.00  0.00     0.198 A 
ATOM     70  F   UNL     1      -2.938   7.457  -8.191  1.00  0.00    -0.203 F 
ATOM     71  F   UNL     1      -2.610  12.835  -7.335  1.00  0.00    -0.200 F 
ATOM     72  C   UNL     1      -3.899  10.858  -7.412  1.00  0.00     0.200 A 
ATOM     73  F   UNL     1      -5.148   8.857  -7.508  1.00  0.00    -0.200 F 
ATOM     74  F   UNL     1      -4.998  11.544  -7.070  1.00  0.00    -0.200 F 
ENDBRANCH  50  64
BRANCH  51  75
ATOM     75  C   UNL     1       6.198   4.102 -11.303  1.00  0.00     0.064 A 
ATOM     76  C   UNL     1       6.969   4.418 -12.430  1.00  0.00     0.173 A 
ATOM     77  C   UNL     1       6.475   2.893 -10.647  1.00  0.00     0.173 A 
ATOM     78  F   UNL     1       6.734   5.553 -13.104  1.00  0.00    -0.203 F 
ATOM     79  C   UNL     1       7.944   3.542 -12.905  1.00  0.00     0.198 A 
ATOM     80  C   UNL     1       7.476   2.036 -11.100  1.00  0.00     0.198 A 
ATOM     81  F   UNL     1       5.780   2.547  -9.555  1.00  0.00    -0.203 F 
ATOM     82  F   UNL     1       8.620   3.840 -14.023  1.00  0.00    -0.200 F 
ATOM     83  C   UNL     1       8.198   2.354 -12.239  1.00  0.00     0.200 A 
ATOM     84  F   UNL     1       7.740   0.905 -10.432  1.00  0.00    -0.200 F 
ATOM     85  F   UNL     1       9.136   1.513 -12.695  1.00  0.00    -0.200 F 
ENDBRANCH  51  75
BRANCH  63  86
ATOM     86  C   UNL     1       0.142   5.948 -14.206  1.00  0.00     0.064 A 
ATOM     87  C   UNL     1      -0.322   4.663 -14.524  1.00  0.00     0.173 A 
ATOM     88  C   UNL     1      -0.030   6.962 -15.162  1.00  0.00     0.173 A 
ATOM     89  F   UNL     1      -0.165   3.654 -13.654  1.00  0.00    -0.203 F 
ATOM     90  C   UNL     1      -0.911   4.399 -15.759  1.00  0.00     0.198 A 
ATOM     91  C   UNL     1      -0.650   6.702 -16.381  1.00  0.00     0.198 A 
ATOM     92  F   UNL     1       0.392   8.210 -14.908  1.00  0.00    -0.203 F 
ATOM     93  F   UNL     1      -1.298   3.151 -16.060  1.00  0.00    -0.200 F 
ATOM     94  C   UNL     1      -1.083   5.419 -16.681  1.00  0.00     0.200 A 
ATOM     95  F   UNL     1      -0.829   7.693 -17.265  1.00  0.00    -0.200 F 
ATOM     96  F   UNL     1      -1.659   5.165 -17.864  1.00  0.00    -0.200 F 
ENDBRANCH  63  86
ENDBRANCH  37  38
ENDBRANCH  30  32
ENDBRANCH  29  30
ENDBRANCH  28  29
ENDBRANCH  27  28
ENDBRANCH  26  27
ENDBRANCH  25  26
ENDBRANCH   1  25
TORSDOF 19
