REMARK SMILES C[C@@H]([NH3+])CCC(=O)N1CC(n2cc(C(=O)OCCOCCOCCOC(=O)c3ccc(-c4c5nc(c(-c6c(F)c(F)c(F)c(F)c6F)c6ccc([nH]6)c(-c6c(F)c(F)c(F)c(F)c6F)c6nc(c(-c7c(F)c(F)c(F)c(F)c7F)c7ccc4[nH]7)C=C6)C=C5)cc3)nn2)C1
REMARK SMILES IDX 19 1 18 2 17 3 16 4 14 5 15 6 13 7 11 8 12 9 92 10 91 11
REMARK SMILES IDX 10 12 6 13 7 14 8 15 9 16 93 17 5 18 4 19 2 20 1 21 3 22
REMARK SMILES IDX 20 26 21 27 22 28 23 29 24 30 25 31 26 32 27 33 28 34 29 35
REMARK SMILES IDX 90 36 30 37 89 38 31 39 32 40 33 41 83 42 34 43 88 44 82 45
REMARK SMILES IDX 84 46 35 47 87 48 81 49 80 50 36 52 68 53 48 54 67 55 49 56
REMARK SMILES IDX 52 57 66 58 85 59 50 60 51 61 65 63 86 64 53 65 37 66 38 67
REMARK SMILES IDX 46 68 39 69 40 70 44 71 47 72 41 73 42 74 45 75 43 76 69 77
REMARK SMILES IDX 70 78 78 79 71 80 72 81 76 82 79 83 73 84 74 85 77 86 75 87
REMARK SMILES IDX 54 88 55 89 63 90 56 91 57 92 61 93 64 94 58 95 59 96 62 97
REMARK SMILES IDX 60 98
REMARK H PARENT 3 23 3 24 3 25 84 51 52 62
REMARK Flexibility Score: inf
ROOT
ATOM      1  O   UNL     1       9.569   2.461  -5.082  1.00  0.00    -0.376 OA
ENDROOT
BRANCH   1   2
ATOM      2  C   UNL     1       9.633   1.062  -4.863  1.00  0.00     0.202 C 
BRANCH   2   3
ATOM      3  C   UNL     1       8.701   0.262  -3.928  1.00  0.00     0.261 C 
BRANCH   3   4
ATOM      4  O   UNL     1       7.368   0.755  -3.763  1.00  0.00    -0.458 OA
BRANCH   4   5
ATOM      5  C   UNL     1       7.085   1.299  -2.537  1.00  0.00     0.360 C 
ATOM      6  O   UNL     1       7.843   1.268  -1.583  1.00  0.00    -0.244 OA
BRANCH   5   7
ATOM      7  C   UNL     1       5.824   2.033  -2.530  1.00  0.00     0.190 A 
ATOM      8  N   UNL     1       3.841   2.845  -2.880  1.00  0.00    -0.245 N 
ATOM      9  C   UNL     1       4.723   1.910  -3.356  1.00  0.00     0.147 A 
ATOM     10  N   UNL     1       4.381   3.549  -1.875  1.00  0.00    -0.066 NA
ATOM     11  N   UNL     1       5.591   3.061  -1.647  1.00  0.00    -0.123 NA
BRANCH   8  12
ATOM     12  C   UNL     1       2.452   2.875  -3.231  1.00  0.00     0.148 C 
ATOM     13  C   UNL     1      -0.574   2.279  -2.121  1.00  0.00     0.222 C 
ATOM     14  O   UNL     1      -1.302   3.020  -2.780  1.00  0.00    -0.275 OA
ATOM     15  N   UNL     1       0.784   2.474  -2.039  1.00  0.00    -0.338 N 
ATOM     16  C   UNL     1       1.516   3.712  -2.363  1.00  0.00     0.148 C 
ATOM     17  C   UNL     1       1.788   1.627  -2.664  1.00  0.00     0.148 C 
BRANCH  13  18
ATOM     18  C   UNL     1      -1.156   1.208  -1.200  1.00  0.00     0.106 C 
BRANCH  18  19
ATOM     19  C   UNL     1      -0.939  -0.275  -1.524  1.00  0.00     0.074 C 
BRANCH  19  20
ATOM     20  C   UNL     1       0.445  -0.882  -1.241  1.00  0.00     0.178 C 
ATOM     21  C   UNL     1       1.015  -0.570   0.139  1.00  0.00     0.075 C 
BRANCH  20  22
ATOM     22  N   UNL     1       0.416  -2.334  -1.437  1.00  0.00    -0.355 N 
ATOM     23  H   UNL     1      -0.214  -2.757  -0.755  1.00  0.00     0.344 HD
ATOM     24  H   UNL     1       1.355  -2.713  -1.312  1.00  0.00     0.344 HD
ATOM     25  H   UNL     1       0.087  -2.544  -2.379  1.00  0.00     0.344 HD
ENDBRANCH  20  22
ENDBRANCH  19  20
ENDBRANCH  18  19
ENDBRANCH  13  18
ENDBRANCH   8  12
ENDBRANCH   5   7
ENDBRANCH   4   5
ENDBRANCH   3   4
ENDBRANCH   2   3
ENDBRANCH   1   2
BRANCH   1  26
ATOM     26  C   UNL     1       8.388   3.191  -4.838  1.00  0.00     0.188 C 
BRANCH  26  27
ATOM     27  C   UNL     1       7.139   2.960  -5.710  1.00  0.00     0.188 C 
BRANCH  27  28
ATOM     28  O   UNL     1       6.909   1.717  -6.337  1.00  0.00    -0.376 OA
BRANCH  28  29
ATOM     29  C   UNL     1       7.610   1.276  -7.489  1.00  0.00     0.202 C 
BRANCH  29  30
ATOM     30  C   UNL     1       8.468   2.144  -8.408  1.00  0.00     0.261 C 
BRANCH  30  31
ATOM     31  O   UNL     1       8.941   3.352  -7.856  1.00  0.00    -0.460 OA
BRANCH  31  32
ATOM     32  C   UNL     1       8.169   4.410  -8.174  1.00  0.00     0.338 C 
ATOM     33  O   UNL     1       7.055   4.390  -8.670  1.00  0.00    -0.246 OA
BRANCH  32  34
ATOM     34  C   UNL     1       8.913   5.638  -7.907  1.00  0.00     0.060 A 
ATOM     35  C   UNL     1       8.189   6.824  -8.024  1.00  0.00     0.016 A 
ATOM     36  C   UNL     1      10.315   5.601  -7.918  1.00  0.00     0.016 A 
ATOM     37  C   UNL     1       8.866   7.944  -8.432  1.00  0.00     0.010 A 
ATOM     38  C   UNL     1      10.989   6.720  -8.335  1.00  0.00     0.010 A 
ATOM     39  C   UNL     1      10.239   7.837  -8.688  1.00  0.00    -0.014 A 
BRANCH  39  40
ATOM     40  C   UNL     1      10.869   8.964  -9.333  1.00  0.00     0.031 A 
ATOM     41  C   UNL     1      11.011  10.134  -8.446  1.00  0.00     0.074 A 
ATOM     42  C   UNL     1      11.307   8.902 -10.603  1.00  0.00     0.049 A 
ATOM     43  N   UNL     1      10.469  11.297  -8.579  1.00  0.00    -0.248 NA
ATOM     44  C   UNL     1      11.721   9.932  -7.174  1.00  0.00     0.031 C 
ATOM     45  C   UNL     1      11.446   7.725 -11.464  1.00  0.00     0.029 A 
ATOM     46  N   UNL     1      11.821   9.901 -11.366  1.00  0.00    -0.354 N 
ATOM     47  C   UNL     1      10.914  12.038  -7.492  1.00  0.00     0.074 A 
ATOM     48  C   UNL     1      11.540  11.113  -6.585  1.00  0.00     0.031 C 
ATOM     49  C   UNL     1      12.219   8.044 -12.528  1.00  0.00     0.029 A 
ATOM     50  C   UNL     1      12.517   9.466 -12.482  1.00  0.00     0.049 A 
ATOM     51  H   UNL     1      11.709  10.854 -11.144  1.00  0.00     0.167 HD
ATOM     52  C   UNL     1      10.957  13.394  -7.547  1.00  0.00     0.037 A 
ATOM     53  C   UNL     1      13.349  10.221 -13.241  1.00  0.00     0.037 A 
ATOM     54  C   UNL     1      10.061  13.909  -8.549  1.00  0.00     0.049 A 
ATOM     55  C   UNL     1      13.027  11.648 -12.974  1.00  0.00     0.074 A 
ATOM     56  C   UNL     1       8.694  13.845  -8.745  1.00  0.00     0.029 A 
ATOM     57  N   UNL     1      10.588  14.313  -9.750  1.00  0.00    -0.354 N 
ATOM     58  N   UNL     1      11.921  12.229 -13.347  1.00  0.00    -0.248 NA
ATOM     59  C   UNL     1      13.746  12.312 -11.895  1.00  0.00     0.031 C 
ATOM     60  C   UNL     1       8.523  13.749 -10.157  1.00  0.00     0.029 A 
ATOM     61  C   UNL     1       9.788  13.807 -10.742  1.00  0.00     0.049 A 
ATOM     62  H   UNL     1      11.394  14.864  -9.877  1.00  0.00     0.167 HD
ATOM     63  C   UNL     1      11.586  13.063 -12.290  1.00  0.00     0.074 A 
ATOM     64  C   UNL     1      12.790  13.142 -11.469  1.00  0.00     0.031 C 
ATOM     65  C   UNL     1      10.284  13.377 -12.028  1.00  0.00     0.037 A 
BRANCH  52  66
ATOM     66  C   UNL     1      12.093  14.199  -6.972  1.00  0.00     0.064 A 
ATOM     67  C   UNL     1      12.000  15.602  -6.969  1.00  0.00     0.173 A 
ATOM     68  C   UNL     1      13.379  13.671  -6.716  1.00  0.00     0.173 A 
ATOM     69  F   UNL     1      10.831  16.209  -7.222  1.00  0.00    -0.203 F 
ATOM     70  C   UNL     1      13.126  16.413  -6.808  1.00  0.00     0.198 A 
ATOM     71  C   UNL     1      14.489  14.483  -6.499  1.00  0.00     0.198 A 
ATOM     72  F   UNL     1      13.645  12.361  -6.779  1.00  0.00    -0.203 F 
ATOM     73  F   UNL     1      13.012  17.740  -6.948  1.00  0.00    -0.200 F 
ATOM     74  C   UNL     1      14.370  15.853  -6.580  1.00  0.00     0.200 A 
ATOM     75  F   UNL     1      15.688  13.918  -6.299  1.00  0.00    -0.200 F 
ATOM     76  F   UNL     1      15.460  16.625  -6.493  1.00  0.00    -0.200 F 
ENDBRANCH  52  66
BRANCH  53  77
ATOM     77  C   UNL     1      14.611   9.802 -13.896  1.00  0.00     0.064 A 
ATOM     78  C   UNL     1      15.218  10.605 -14.874  1.00  0.00     0.173 A 
ATOM     79  C   UNL     1      15.391   8.746 -13.383  1.00  0.00     0.173 A 
ATOM     80  F   UNL     1      14.563  11.661 -15.381  1.00  0.00    -0.203 F 
ATOM     81  C   UNL     1      16.533  10.381 -15.296  1.00  0.00     0.198 A 
ATOM     82  C   UNL     1      16.698   8.517 -13.812  1.00  0.00     0.198 A 
ATOM     83  F   UNL     1      14.938   7.974 -12.386  1.00  0.00    -0.203 F 
ATOM     84  F   UNL     1      17.100  11.209 -16.185  1.00  0.00    -0.200 F 
ATOM     85  C   UNL     1      17.275   9.343 -14.758  1.00  0.00     0.200 A 
ATOM     86  F   UNL     1      17.416   7.531 -13.255  1.00  0.00    -0.200 F 
ATOM     87  F   UNL     1      18.553   9.164 -15.117  1.00  0.00    -0.200 F 
ENDBRANCH  53  77
BRANCH  65  88
ATOM     88  C   UNL     1       9.258  13.023 -13.068  1.00  0.00     0.064 A 
ATOM     89  C   UNL     1       8.968  11.706 -13.468  1.00  0.00     0.173 A 
ATOM     90  C   UNL     1       8.445  14.044 -13.575  1.00  0.00     0.173 A 
ATOM     91  F   UNL     1       9.631  10.665 -12.948  1.00  0.00    -0.203 F 
ATOM     92  C   UNL     1       7.944  11.436 -14.373  1.00  0.00     0.198 A 
ATOM     93  C   UNL     1       7.398  13.768 -14.449  1.00  0.00     0.198 A 
ATOM     94  F   UNL     1       8.639  15.314 -13.184  1.00  0.00    -0.203 F 
ATOM     95  F   UNL     1       7.697  10.173 -14.753  1.00  0.00    -0.200 F 
ATOM     96  C   UNL     1       7.155  12.466 -14.857  1.00  0.00     0.200 A 
ATOM     97  F   UNL     1       6.606  14.761 -14.875  1.00  0.00    -0.200 F 
ATOM     98  F   UNL     1       6.143  12.203 -15.696  1.00  0.00    -0.200 F 
ENDBRANCH  65  88
ENDBRANCH  39  40
ENDBRANCH  32  34
ENDBRANCH  31  32
ENDBRANCH  30  31
ENDBRANCH  29  30
ENDBRANCH  28  29
ENDBRANCH  27  28
ENDBRANCH  26  27
ENDBRANCH   1  26
TORSDOF 22
