REMARK SMILES O=C(C[C@H]1C[C@H]2CC[C@@H](C1)N2C(=O)NCCC1CC1)OCCOCCOCCOC(=O)c1ccc(-c2c3nc(c(-c4c(F)c(F)c(F)c(F)c4F)c4ccc([nH]4)c(-c4c(F)c(F)c(F)c(F)c4F)c4nc(c(-c5c(F)c(F)c(F)c(F)c5F)c5ccc2[nH]5)C=C4)C=C3)cc1
REMARK SMILES IDX 23 1 22 2 21 3 20 4 2 5 1 6 3 7 4 8 5 9 10 10 6 11 9 12 7 13
REMARK SMILES IDX 11 14 8 15 12 16 13 17 14 18 15 20 16 21 17 22 18 23 19 24
REMARK SMILES IDX 24 25 25 26 26 27 27 28 28 29 29 30 30 31 31 32 32 33 33 34
REMARK SMILES IDX 94 35 34 36 93 37 35 38 36 39 37 40 87 41 38 42 92 43 86 44
REMARK SMILES IDX 88 45 39 46 91 47 85 48 84 49 40 51 72 52 52 53 71 54 53 55
REMARK SMILES IDX 56 56 70 57 89 58 54 59 55 60 69 62 90 63 57 64 41 65 42 66
REMARK SMILES IDX 50 67 43 68 44 69 48 70 51 71 45 72 46 73 49 74 47 75 73 76
REMARK SMILES IDX 74 77 82 78 75 79 76 80 80 81 83 82 77 83 78 84 81 85 79 86
REMARK SMILES IDX 58 87 59 88 67 89 60 90 61 91 65 92 68 93 62 94 63 95 66 96
REMARK SMILES IDX 64 97
REMARK H PARENT 14 19 88 50 56 61
REMARK Flexibility Score: inf
ROOT
ATOM      1  O   UNL     1       3.390   2.277  -0.823  1.00  0.00    -0.376 OA
ENDROOT
BRANCH   1   2
ATOM      2  C   UNL     1       3.801   1.505  -1.956  1.00  0.00     0.202 C 
BRANCH   2   3
ATOM      3  C   UNL     1       3.174   0.099  -2.058  1.00  0.00     0.261 C 
BRANCH   3   4
ATOM      4  O   UNL     1       2.758  -0.328  -0.752  1.00  0.00    -0.463 OA
BRANCH   4   5
ATOM      5  C   UNL     1       2.572  -1.649  -0.517  1.00  0.00     0.306 C 
ATOM      6  O   UNL     1       2.419  -2.502  -1.374  1.00  0.00    -0.252 OA
BRANCH   5   7
ATOM      7  C   UNL     1       2.780  -1.912   0.971  1.00  0.00     0.126 C 
BRANCH   7   8
ATOM      8  C   UNL     1       4.221  -2.391   1.284  1.00  0.00     0.004 C 
ATOM      9  C   UNL     1       5.294  -1.815   0.355  1.00  0.00     0.029 C 
ATOM     10  C   UNL     1       4.684  -2.190   2.757  1.00  0.00     0.029 C 
ATOM     11  C   UNL     1       5.824  -0.458   0.813  1.00  0.00     0.087 C 
ATOM     12  C   UNL     1       5.523  -0.898   3.051  1.00  0.00     0.087 C 
ATOM     13  C   UNL     1       4.831   0.605   1.332  1.00  0.00     0.027 C 
ATOM     14  N   UNL     1       6.562  -0.676   2.040  1.00  0.00    -0.319 N 
ATOM     15  C   UNL     1       4.659   0.338   2.836  1.00  0.00     0.027 C 
BRANCH  14  16
ATOM     16  C   UNL     1       7.743   0.013   2.060  1.00  0.00     0.317 C 
ATOM     17  O   UNL     1       8.446   0.123   1.050  1.00  0.00    -0.249 OA
ATOM     18  N   UNL     1       8.120   0.759   3.108  1.00  0.00    -0.338 N 
ATOM     19  H   UNL     1       8.642   1.553   2.850  1.00  0.00     0.165 HD
BRANCH  18  20
ATOM     20  C   UNL     1       7.925   0.646   4.533  1.00  0.00     0.118 C 
BRANCH  20  21
ATOM     21  C   UNL     1       8.625  -0.592   5.081  1.00  0.00     0.025 C 
BRANCH  21  22
ATOM     22  C   UNL     1      10.126  -0.462   5.179  1.00  0.00    -0.009 C 
ATOM     23  C   UNL     1      10.987  -1.355   4.316  1.00  0.00     0.004 C 
ATOM     24  C   UNL     1      11.030   0.128   4.115  1.00  0.00     0.004 C 
ENDBRANCH  21  22
ENDBRANCH  20  21
ENDBRANCH  18  20
ENDBRANCH  14  16
ENDBRANCH   7   8
ENDBRANCH   5   7
ENDBRANCH   4   5
ENDBRANCH   3   4
ENDBRANCH   2   3
ENDBRANCH   1   2
BRANCH   1  25
ATOM     25  C   UNL     1       1.990   2.485  -0.720  1.00  0.00     0.188 C 
BRANCH  25  26
ATOM     26  C   UNL     1       1.588   3.953  -0.548  1.00  0.00     0.188 C 
BRANCH  26  27
ATOM     27  O   UNL     1       2.333   4.928  -1.264  1.00  0.00    -0.376 OA
BRANCH  27  28
ATOM     28  C   UNL     1       3.695   5.133  -0.882  1.00  0.00     0.202 C 
BRANCH  28  29
ATOM     29  C   UNL     1       3.984   5.601   0.552  1.00  0.00     0.261 C 
BRANCH  29  30
ATOM     30  O   UNL     1       3.636   4.654   1.584  1.00  0.00    -0.460 OA
BRANCH  30  31
ATOM     31  C   UNL     1       2.728   5.112   2.479  1.00  0.00     0.338 C 
ATOM     32  O   UNL     1       2.130   6.174   2.456  1.00  0.00    -0.246 OA
BRANCH  31  33
ATOM     33  C   UNL     1       2.474   4.134   3.549  1.00  0.00     0.060 A 
ATOM     34  C   UNL     1       1.220   3.514   3.603  1.00  0.00     0.016 A 
ATOM     35  C   UNL     1       3.345   4.074   4.639  1.00  0.00     0.016 A 
ATOM     36  C   UNL     1       0.803   2.897   4.785  1.00  0.00     0.010 A 
ATOM     37  C   UNL     1       2.925   3.455   5.822  1.00  0.00     0.010 A 
ATOM     38  C   UNL     1       1.629   2.917   5.919  1.00  0.00    -0.014 A 
BRANCH  38  39
ATOM     39  C   UNL     1       1.062   2.564   7.246  1.00  0.00     0.031 A 
ATOM     40  C   UNL     1       0.563   3.666   8.147  1.00  0.00     0.074 A 
ATOM     41  C   UNL     1       0.954   1.284   7.639  1.00  0.00     0.049 A 
ATOM     42  N   UNL     1       0.020   3.587   9.337  1.00  0.00    -0.248 NA
ATOM     43  C   UNL     1       0.693   5.040   7.637  1.00  0.00     0.031 C 
ATOM     44  C   UNL     1       1.367   0.123   6.856  1.00  0.00     0.029 A 
ATOM     45  N   UNL     1       0.461   0.750   8.804  1.00  0.00    -0.354 N 
ATOM     46  C   UNL     1      -0.260   4.895   9.713  1.00  0.00     0.074 A 
ATOM     47  C   UNL     1       0.204   5.751   8.643  1.00  0.00     0.031 C 
ATOM     48  C   UNL     1       1.113  -0.991   7.565  1.00  0.00     0.029 A 
ATOM     49  C   UNL     1       0.539  -0.619   8.858  1.00  0.00     0.049 A 
ATOM     50  H   UNL     1       0.086   1.298   9.532  1.00  0.00     0.167 HD
ATOM     51  C   UNL     1      -0.862   5.344  10.840  1.00  0.00     0.037 A 
ATOM     52  C   UNL     1       0.195  -1.471   9.844  1.00  0.00     0.037 A 
ATOM     53  C   UNL     1      -1.329   4.504  11.910  1.00  0.00     0.049 A 
ATOM     54  C   UNL     1      -0.410  -0.941  11.118  1.00  0.00     0.074 A 
ATOM     55  C   UNL     1      -1.970   4.871  13.081  1.00  0.00     0.029 A 
ATOM     56  N   UNL     1      -1.197   3.124  11.943  1.00  0.00    -0.354 N 
ATOM     57  N   UNL     1      -0.705   0.293  11.446  1.00  0.00    -0.248 NA
ATOM     58  C   UNL     1      -0.734  -1.929  12.159  1.00  0.00     0.031 C 
ATOM     59  C   UNL     1      -2.190   3.716  13.841  1.00  0.00     0.029 A 
ATOM     60  C   UNL     1      -1.723   2.627  13.124  1.00  0.00     0.049 A 
ATOM     61  H   UNL     1      -0.790   2.579  11.231  1.00  0.00     0.167 HD
ATOM     62  C   UNL     1      -1.276   0.227  12.711  1.00  0.00     0.074 A 
ATOM     63  C   UNL     1      -1.293  -1.169  13.091  1.00  0.00     0.031 C 
ATOM     64  C   UNL     1      -1.746   1.234  13.487  1.00  0.00     0.037 A 
BRANCH  51  65
ATOM     65  C   UNL     1      -1.042   6.827  10.981  1.00  0.00     0.064 A 
ATOM     66  C   UNL     1      -2.009   7.521  10.240  1.00  0.00     0.173 A 
ATOM     67  C   UNL     1      -0.262   7.554  11.892  1.00  0.00     0.173 A 
ATOM     68  F   UNL     1      -2.771   6.870   9.348  1.00  0.00    -0.203 F 
ATOM     69  C   UNL     1      -2.175   8.895  10.391  1.00  0.00     0.198 A 
ATOM     70  C   UNL     1      -0.447   8.924  12.057  1.00  0.00     0.198 A 
ATOM     71  F   UNL     1       0.673   6.935  12.628  1.00  0.00    -0.203 F 
ATOM     72  F   UNL     1      -3.079   9.545   9.645  1.00  0.00    -0.200 F 
ATOM     73  C   UNL     1      -1.398   9.594  11.302  1.00  0.00     0.200 A 
ATOM     74  F   UNL     1       0.298   9.597  12.945  1.00  0.00    -0.200 F 
ATOM     75  F   UNL     1      -1.562  10.916  11.449  1.00  0.00    -0.200 F 
ENDBRANCH  51  65
BRANCH  52  76
ATOM     76  C   UNL     1       0.410  -2.929   9.668  1.00  0.00     0.064 A 
ATOM     77  C   UNL     1      -0.673  -3.806   9.518  1.00  0.00     0.173 A 
ATOM     78  C   UNL     1       1.701  -3.478   9.677  1.00  0.00     0.173 A 
ATOM     79  F   UNL     1      -1.926  -3.329   9.530  1.00  0.00    -0.203 F 
ATOM     80  C   UNL     1      -0.474  -5.180   9.400  1.00  0.00     0.198 A 
ATOM     81  C   UNL     1       1.899  -4.849   9.535  1.00  0.00     0.198 A 
ATOM     82  F   UNL     1       2.768  -2.679   9.821  1.00  0.00    -0.203 F 
ATOM     83  F   UNL     1      -1.528  -6.001   9.302  1.00  0.00    -0.200 F 
ATOM     84  C   UNL     1       0.812  -5.699   9.405  1.00  0.00     0.200 A 
ATOM     85  F   UNL     1       3.144  -5.346   9.531  1.00  0.00    -0.200 F 
ATOM     86  F   UNL     1       1.003  -7.021   9.293  1.00  0.00    -0.200 F 
ENDBRANCH  52  76
BRANCH  64  87
ATOM     87  C   UNL     1      -2.353   0.864  14.809  1.00  0.00     0.064 A 
ATOM     88  C   UNL     1      -1.563   0.458  15.893  1.00  0.00     0.173 A 
ATOM     89  C   UNL     1      -3.740   0.958  15.005  1.00  0.00     0.173 A 
ATOM     90  F   UNL     1      -0.234   0.339  15.752  1.00  0.00    -0.203 F 
ATOM     91  C   UNL     1      -2.141   0.137  17.119  1.00  0.00     0.198 A 
ATOM     92  C   UNL     1      -4.312   0.660  16.239  1.00  0.00     0.198 A 
ATOM     93  F   UNL     1      -4.540   1.347  14.000  1.00  0.00    -0.203 F 
ATOM     94  F   UNL     1      -1.370  -0.289  18.130  1.00  0.00    -0.200 F 
ATOM     95  C   UNL     1      -3.513   0.245  17.293  1.00  0.00     0.200 A 
ATOM     96  F   UNL     1      -5.636   0.775  16.408  1.00  0.00    -0.200 F 
ATOM     97  F   UNL     1      -4.066  -0.060  18.475  1.00  0.00    -0.200 F 
ENDBRANCH  64  87
ENDBRANCH  38  39
ENDBRANCH  31  33
ENDBRANCH  30  31
ENDBRANCH  29  30
ENDBRANCH  28  29
ENDBRANCH  27  28
ENDBRANCH  26  27
ENDBRANCH  25  26
ENDBRANCH   1  25
TORSDOF 22
