REMARK SMILES CCc1ccc(C(=O)NCc2ccc(C(=O)OCCOCCOCCOC(=O)c3ccc(-c4c5nc(c(-c6c(F)c(F)c(F)c(F)c6F)c6ccc([nH]6)c(-c6c(F)c(F)c(F)c(F)c6F)c6nc(c(-c7c(F)c(F)c(F)c(F)c7F)c7ccc4[nH]7)C=C6)C=C5)cc3)cc2)cc1
REMARK SMILES IDX 21 1 20 2 19 3 18 4 17 5 15 6 16 7 14 8 11 9 12 10 93 11
REMARK SMILES IDX 13 12 92 13 10 14 9 15 7 16 8 17 6 19 3 20 4 21 95 22 5 23
REMARK SMILES IDX 94 24 2 25 1 26 22 27 23 28 24 29 25 30 26 31 27 32 28 33
REMARK SMILES IDX 29 34 30 35 91 36 31 37 90 38 32 39 33 40 34 41 84 42 35 43
REMARK SMILES IDX 89 44 83 45 85 46 36 47 88 48 82 49 81 50 37 52 69 53 49 54
REMARK SMILES IDX 68 55 50 56 53 57 67 58 86 59 51 60 52 61 66 63 87 64 54 65
REMARK SMILES IDX 38 66 39 67 47 68 40 69 41 70 45 71 48 72 42 73 43 74 46 75
REMARK SMILES IDX 44 76 70 77 71 78 79 79 72 80 73 81 77 82 80 83 74 84 75 85
REMARK SMILES IDX 78 86 76 87 55 88 56 89 64 90 57 91 58 92 62 93 65 94 59 95
REMARK SMILES IDX 60 96 63 97 61 98
REMARK H PARENT 9 18 85 51 53 62
REMARK Flexibility Score: inf
ROOT
ATOM      1  C   UNL     1      -0.179  11.843   4.008  1.00  0.00     0.188 C 
ENDROOT
BRANCH   1   2
ATOM      2  O   UNL     1       0.365  12.908   4.772  1.00  0.00    -0.376 OA
BRANCH   2   3
ATOM      3  C   UNL     1       1.053  13.970   4.123  1.00  0.00     0.202 C 
BRANCH   3   4
ATOM      4  C   UNL     1       2.163  13.674   3.106  1.00  0.00     0.261 C 
BRANCH   4   5
ATOM      5  O   UNL     1       1.774  12.787   2.048  1.00  0.00    -0.460 OA
BRANCH   5   6
ATOM      6  C   UNL     1       2.457  11.613   2.004  1.00  0.00     0.338 C 
ATOM      7  O   UNL     1       3.372  11.272   2.721  1.00  0.00    -0.246 OA
BRANCH   6   8
ATOM      8  C   UNL     1       1.787  10.681   1.068  1.00  0.00     0.060 A 
ATOM      9  C   UNL     1       0.588   8.786  -0.625  1.00  0.00    -0.029 A 
ATOM     10  C   UNL     1       1.045   8.417   0.647  1.00  0.00     0.006 A 
ATOM     11  C   UNL     1       0.706  10.131  -1.021  1.00  0.00     0.006 A 
ATOM     12  C   UNL     1       1.647   9.354   1.485  1.00  0.00     0.016 A 
ATOM     13  C   UNL     1       1.295  11.079  -0.176  1.00  0.00     0.016 A 
BRANCH   9  14
ATOM     14  C   UNL     1       0.108   7.741  -1.607  1.00  0.00     0.152 C 
BRANCH  14  15
ATOM     15  N   UNL     1       1.253   7.183  -2.296  1.00  0.00    -0.348 N 
ATOM     16  C   UNL     1       1.897   5.978  -2.319  1.00  0.00     0.251 C 
ATOM     17  O   UNL     1       2.874   5.903  -3.069  1.00  0.00    -0.269 OA
ATOM     18  H   UNL     1       1.674   7.836  -2.900  1.00  0.00     0.164 HD
BRANCH  16  19
ATOM     19  C   UNL     1       1.504   4.763  -1.546  1.00  0.00     0.039 A 
ATOM     20  C   UNL     1       0.915   2.320  -0.210  1.00  0.00    -0.048 A 
ATOM     21  C   UNL     1       1.749   2.336  -1.329  1.00  0.00     0.004 A 
ATOM     22  C   UNL     1       0.409   3.543   0.249  1.00  0.00     0.004 A 
ATOM     23  C   UNL     1       2.036   3.539  -1.986  1.00  0.00     0.014 A 
ATOM     24  C   UNL     1       0.707   4.745  -0.405  1.00  0.00     0.014 A 
BRANCH  20  25
ATOM     25  C   UNL     1       0.536   1.067   0.545  1.00  0.00     0.032 C 
ATOM     26  C   UNL     1       1.017  -0.257  -0.033  1.00  0.00     0.009 C 
ENDBRANCH  20  25
ENDBRANCH  16  19
ENDBRANCH  14  15
ENDBRANCH   9  14
ENDBRANCH   6   8
ENDBRANCH   5   6
ENDBRANCH   4   5
ENDBRANCH   3   4
ENDBRANCH   2   3
ENDBRANCH   1   2
BRANCH   1  27
ATOM     27  C   UNL     1      -1.089  12.134   2.796  1.00  0.00     0.188 C 
BRANCH  27  28
ATOM     28  O   UNL     1      -1.240  13.482   2.429  1.00  0.00    -0.376 OA
BRANCH  28  29
ATOM     29  C   UNL     1      -2.241  14.295   3.017  1.00  0.00     0.202 C 
BRANCH  29  30
ATOM     30  C   UNL     1      -3.148  13.918   4.205  1.00  0.00     0.261 C 
BRANCH  30  31
ATOM     31  O   UNL     1      -2.957  12.653   4.838  1.00  0.00    -0.460 OA
BRANCH  31  32
ATOM     32  C   UNL     1      -3.860  11.696   4.524  1.00  0.00     0.338 C 
ATOM     33  O   UNL     1      -4.775  11.768   3.721  1.00  0.00    -0.246 OA
BRANCH  32  34
ATOM     34  C   UNL     1      -3.472  10.448   5.201  1.00  0.00     0.060 A 
ATOM     35  C   UNL     1      -3.056   9.363   4.421  1.00  0.00     0.016 A 
ATOM     36  C   UNL     1      -3.554  10.339   6.590  1.00  0.00     0.016 A 
ATOM     37  C   UNL     1      -2.739   8.150   5.031  1.00  0.00     0.010 A 
ATOM     38  C   UNL     1      -3.253   9.117   7.198  1.00  0.00     0.010 A 
ATOM     39  C   UNL     1      -2.870   8.011   6.419  1.00  0.00    -0.014 A 
BRANCH  39  40
ATOM     40  C   UNL     1      -2.765   6.669   7.040  1.00  0.00     0.031 A 
ATOM     41  C   UNL     1      -4.027   5.907   7.331  1.00  0.00     0.074 A 
ATOM     42  C   UNL     1      -1.568   6.131   7.334  1.00  0.00     0.049 A 
ATOM     43  N   UNL     1      -4.185   4.747   7.916  1.00  0.00    -0.248 NA
ATOM     44  C   UNL     1      -5.284   6.542   6.903  1.00  0.00     0.031 C 
ATOM     45  C   UNL     1      -0.274   6.754   7.067  1.00  0.00     0.029 A 
ATOM     46  N   UNL     1      -1.253   4.938   7.936  1.00  0.00    -0.354 N 
ATOM     47  C   UNL     1      -5.554   4.517   7.932  1.00  0.00     0.074 A 
ATOM     48  C   UNL     1      -6.186   5.668   7.324  1.00  0.00     0.031 C 
ATOM     49  C   UNL     1       0.699   5.943   7.519  1.00  0.00     0.029 A 
ATOM     50  C   UNL     1       0.094   4.763   8.136  1.00  0.00     0.049 A 
ATOM     51  H   UNL     1      -1.928   4.272   8.198  1.00  0.00     0.167 HD
ATOM     52  C   UNL     1      -6.223   3.439   8.406  1.00  0.00     0.037 A 
ATOM     53  C   UNL     1       0.756   3.776   8.770  1.00  0.00     0.037 A 
ATOM     54  C   UNL     1      -5.594   2.299   9.017  1.00  0.00     0.049 A 
ATOM     55  C   UNL     1      -0.019   2.624   9.360  1.00  0.00     0.074 A 
ATOM     56  C   UNL     1      -6.184   1.149   9.512  1.00  0.00     0.029 A 
ATOM     57  N   UNL     1      -4.229   2.170   9.230  1.00  0.00    -0.354 N 
ATOM     58  N   UNL     1      -1.310   2.396   9.343  1.00  0.00    -0.248 NA
ATOM     59  C   UNL     1       0.760   1.589  10.057  1.00  0.00     0.031 C 
ATOM     60  C   UNL     1      -5.183   0.350  10.072  1.00  0.00     0.029 A 
ATOM     61  C   UNL     1      -3.961   0.973   9.873  1.00  0.00     0.049 A 
ATOM     62  H   UNL     1      -3.551   2.832   8.963  1.00  0.00     0.167 HD
ATOM     63  C   UNL     1      -1.494   1.182   9.995  1.00  0.00     0.074 A 
ATOM     64  C   UNL     1      -0.181   0.716  10.386  1.00  0.00     0.031 C 
ATOM     65  C   UNL     1      -2.647   0.514  10.246  1.00  0.00     0.037 A 
BRANCH  52  66
ATOM     66  C   UNL     1      -7.720   3.457   8.306  1.00  0.00     0.064 A 
ATOM     67  C   UNL     1      -8.379   3.329   7.074  1.00  0.00     0.173 A 
ATOM     68  C   UNL     1      -8.507   3.572   9.462  1.00  0.00     0.173 A 
ATOM     69  F   UNL     1      -7.672   3.231   5.937  1.00  0.00    -0.203 F 
ATOM     70  C   UNL     1      -9.769   3.342   7.000  1.00  0.00     0.198 A 
ATOM     71  C   UNL     1      -9.897   3.554   9.388  1.00  0.00     0.198 A 
ATOM     72  F   UNL     1      -7.927   3.694  10.665  1.00  0.00    -0.203 F 
ATOM     73  F   UNL     1     -10.377   3.267   5.808  1.00  0.00    -0.200 F 
ATOM     74  C   UNL     1     -10.527   3.447   8.157  1.00  0.00     0.200 A 
ATOM     75  F   UNL     1     -10.627   3.644  10.508  1.00  0.00    -0.200 F 
ATOM     76  F   UNL     1     -11.865   3.453   8.086  1.00  0.00    -0.200 F 
ENDBRANCH  52  66
BRANCH  53  77
ATOM     77  C   UNL     1       2.236   3.833   8.896  1.00  0.00     0.064 A 
ATOM     78  C   UNL     1       3.055   2.912   8.230  1.00  0.00     0.173 A 
ATOM     79  C   UNL     1       2.860   4.791   9.710  1.00  0.00     0.173 A 
ATOM     80  F   UNL     1       2.504   1.958   7.464  1.00  0.00    -0.203 F 
ATOM     81  C   UNL     1       4.440   2.933   8.388  1.00  0.00     0.198 A 
ATOM     82  C   UNL     1       4.246   4.830   9.844  1.00  0.00     0.198 A 
ATOM     83  F   UNL     1       2.121   5.691  10.374  1.00  0.00    -0.203 F 
ATOM     84  F   UNL     1       5.195   2.006   7.782  1.00  0.00    -0.200 F 
ATOM     85  C   UNL     1       5.035   3.895   9.190  1.00  0.00     0.200 A 
ATOM     86  F   UNL     1       4.817   5.767  10.613  1.00  0.00    -0.200 F 
ATOM     87  F   UNL     1       6.365   3.914   9.343  1.00  0.00    -0.200 F 
ENDBRANCH  53  77
BRANCH  65  88
ATOM     88  C   UNL     1      -2.543  -0.817  10.936  1.00  0.00     0.064 A 
ATOM     89  C   UNL     1      -2.199  -0.923  12.292  1.00  0.00     0.173 A 
ATOM     90  C   UNL     1      -2.837  -2.000  10.240  1.00  0.00     0.173 A 
ATOM     91  F   UNL     1      -1.895   0.176  12.999  1.00  0.00    -0.203 F 
ATOM     92  C   UNL     1      -2.129  -2.165  12.918  1.00  0.00     0.198 A 
ATOM     93  C   UNL     1      -2.797  -3.237  10.877  1.00  0.00     0.198 A 
ATOM     94  F   UNL     1      -3.180  -1.955   8.944  1.00  0.00    -0.203 F 
ATOM     95  F   UNL     1      -1.752  -2.246  14.201  1.00  0.00    -0.200 F 
ATOM     96  C   UNL     1      -2.436  -3.320  12.213  1.00  0.00     0.200 A 
ATOM     97  F   UNL     1      -3.110  -4.349  10.198  1.00  0.00    -0.200 F 
ATOM     98  F   UNL     1      -2.377  -4.513  12.820  1.00  0.00    -0.200 F 
ENDBRANCH  65  88
ENDBRANCH  39  40
ENDBRANCH  32  34
ENDBRANCH  31  32
ENDBRANCH  30  31
ENDBRANCH  29  30
ENDBRANCH  28  29
ENDBRANCH  27  28
ENDBRANCH   1  27
TORSDOF 21
