REMARK SMILES Cc1cccc(O[C@H]2CC[C@@]([NH2+]C(C)C)(C(=O)OCCOCCOCCOC(=O)c3ccc(-c4c5nc(c(-c6c(F)c(F)c(F)c(F)c6F)c6ccc([nH]6)c(-c6c(F)c(F)c(F)c(F)c6F)c6nc(c(-c7c(F)c(F)c(F)c(F)c7F)c7ccc4[nH]7)C=C6)C=C5)cc3)C2)c1
REMARK SMILES IDX 22 1 21 2 20 3 19 4 18 5 16 6 17 7 11 8 8 9 9 10 93 11 10 12
REMARK SMILES IDX 7 13 6 14 1 15 2 16 3 17 94 18 4 19 5 20 12 21 13 24 14 25
REMARK SMILES IDX 15 26 23 27 24 28 25 29 26 30 27 31 28 32 29 33 30 34 31 35
REMARK SMILES IDX 92 36 32 37 91 38 33 39 34 40 35 41 85 42 36 43 90 44 84 45
REMARK SMILES IDX 86 46 37 47 89 48 83 49 82 50 38 52 70 53 50 54 69 55 51 56
REMARK SMILES IDX 54 57 68 58 87 59 52 60 53 61 67 63 88 64 55 65 39 66 40 67
REMARK SMILES IDX 48 68 41 69 42 70 46 71 49 72 43 73 44 74 47 75 45 76 71 77
REMARK SMILES IDX 72 78 80 79 73 80 74 81 78 82 81 83 75 84 76 85 79 86 77 87
REMARK SMILES IDX 56 88 57 89 65 90 58 91 59 92 63 93 66 94 60 95 61 96 64 97
REMARK SMILES IDX 62 98
REMARK H PARENT 12 22 12 23 86 51 54 62
REMARK Flexibility Score: inf
ROOT
ATOM      1  C   UNL     1      -1.819  10.000   1.415  1.00  0.00     0.188 C 
ENDROOT
BRANCH   1   2
ATOM      2  O   UNL     1      -0.387  10.091   1.630  1.00  0.00    -0.376 OA
BRANCH   2   3
ATOM      3  C   UNL     1       0.698   9.822   0.700  1.00  0.00     0.202 C 
BRANCH   3   4
ATOM      4  C   UNL     1       1.883   8.475   0.539  1.00  0.00     0.261 C 
BRANCH   4   5
ATOM      5  O   UNL     1       1.731   6.729   0.247  1.00  0.00    -0.459 OA
BRANCH   5   6
ATOM      6  C   UNL     1       1.118   5.513   0.800  1.00  0.00     0.368 C 
ATOM      7  O   UNL     1       0.427   5.439   1.825  1.00  0.00    -0.245 OA
BRANCH   6   8
ATOM      8  C   UNL     1       1.516   4.082   0.334  1.00  0.00     0.198 C 
ATOM      9  C   UNL     1      -0.415   2.911  -0.807  1.00  0.00     0.180 C 
ATOM     10  C   UNL     1       0.422   3.703  -1.812  1.00  0.00     0.052 C 
ATOM     11  C   UNL     1       0.338   3.058   0.512  1.00  0.00     0.126 C 
ATOM     12  C   UNL     1       1.772   4.035  -1.161  1.00  0.00     0.085 C 
BRANCH   9  13
ATOM     13  O   UNL     1      -1.754   3.376  -0.602  1.00  0.00    -0.490 OA
BRANCH  13  14
ATOM     14  C   UNL     1      -2.662   3.332  -1.624  1.00  0.00     0.119 A 
ATOM     15  C   UNL     1      -5.910   5.255  -2.172  1.00  0.00     0.044 C 
ATOM     16  C   UNL     1      -4.766   4.303  -2.392  1.00  0.00    -0.047 A 
ATOM     17  C   UNL     1      -4.492   3.834  -3.679  1.00  0.00     0.003 A 
ATOM     18  C   UNL     1      -3.879   3.972  -1.359  1.00  0.00     0.049 A 
ATOM     19  C   UNL     1      -3.356   3.060  -3.918  1.00  0.00     0.004 A 
ATOM     20  C   UNL     1      -2.439   2.811  -2.893  1.00  0.00     0.046 A 
ENDBRANCH  13  14
ENDBRANCH   9  13
BRANCH   8  21
ATOM     21  N   UNL     1       2.664   3.568   1.189  1.00  0.00    -0.330 N 
ATOM     22  H   UNL     1       3.473   4.159   0.995  1.00  0.00     0.347 HD
ATOM     23  H   UNL     1       2.751   2.586   0.926  1.00  0.00     0.347 HD
BRANCH  21  24
ATOM     24  C   UNL     1       2.487   3.535   2.681  1.00  0.00     0.176 C 
ATOM     25  C   UNL     1       1.602   2.451   3.306  1.00  0.00     0.075 C 
ATOM     26  C   UNL     1       3.888   3.421   3.305  1.00  0.00     0.075 C 
ENDBRANCH  21  24
ENDBRANCH   8  21
ENDBRANCH   6   8
ENDBRANCH   5   6
ENDBRANCH   4   5
ENDBRANCH   3   4
ENDBRANCH   2   3
ENDBRANCH   1   2
BRANCH   1  27
ATOM     27  C   UNL     1      -2.568  10.389   0.136  1.00  0.00     0.188 C 
BRANCH  27  28
ATOM     28  O   UNL     1      -1.726  10.354  -0.992  1.00  0.00    -0.376 OA
BRANCH  28  29
ATOM     29  C   UNL     1      -2.283  10.917  -2.168  1.00  0.00     0.202 C 
BRANCH  29  30
ATOM     30  C   UNL     1      -3.278  10.001  -2.888  1.00  0.00     0.261 C 
BRANCH  30  31
ATOM     31  O   UNL     1      -2.633   8.847  -3.459  1.00  0.00    -0.460 OA
BRANCH  31  32
ATOM     32  C   UNL     1      -3.034   7.629  -2.982  1.00  0.00     0.338 C 
ATOM     33  O   UNL     1      -3.649   6.835  -3.677  1.00  0.00    -0.246 OA
BRANCH  32  34
ATOM     34  C   UNL     1      -2.369   7.305  -1.692  1.00  0.00     0.060 A 
ATOM     35  C   UNL     1      -2.897   6.833  -0.480  1.00  0.00     0.016 A 
ATOM     36  C   UNL     1      -1.052   7.589  -1.687  1.00  0.00     0.016 A 
ATOM     37  C   UNL     1      -2.131   6.766   0.766  1.00  0.00     0.010 A 
ATOM     38  C   UNL     1      -0.413   7.643  -0.452  1.00  0.00     0.010 A 
ATOM     39  C   UNL     1      -0.840   7.298   0.887  1.00  0.00    -0.014 A 
BRANCH  39  40
ATOM     40  C   UNL     1      -0.012   7.612   2.422  1.00  0.00     0.031 A 
ATOM     41  C   UNL     1       1.663   7.578   2.925  1.00  0.00     0.074 A 
ATOM     42  C   UNL     1      -0.741   7.980   3.508  1.00  0.00     0.049 A 
ATOM     43  N   UNL     1       2.192   8.452   3.763  1.00  0.00    -0.248 NA
ATOM     44  C   UNL     1       2.841   6.724   2.487  1.00  0.00     0.031 C 
ATOM     45  C   UNL     1      -0.288   8.869   4.587  1.00  0.00     0.029 A 
ATOM     46  N   UNL     1      -2.037   7.637   3.910  1.00  0.00    -0.354 N 
ATOM     47  C   UNL     1       3.576   8.364   3.770  1.00  0.00     0.074 A 
ATOM     48  C   UNL     1       3.954   7.311   2.911  1.00  0.00     0.031 C 
ATOM     49  C   UNL     1      -1.087   8.742   5.647  1.00  0.00     0.029 A 
ATOM     50  C   UNL     1      -2.002   7.679   5.330  1.00  0.00     0.049 A 
ATOM     51  H   UNL     1      -2.804   7.415   3.335  1.00  0.00     0.167 HD
ATOM     52  C   UNL     1       4.402   8.979   4.646  1.00  0.00     0.037 A 
ATOM     53  C   UNL     1      -2.222   6.580   6.099  1.00  0.00     0.037 A 
ATOM     54  C   UNL     1       3.785   8.969   5.940  1.00  0.00     0.049 A 
ATOM     55  C   UNL     1      -1.122   6.274   7.082  1.00  0.00     0.074 A 
ATOM     56  C   UNL     1       3.003   9.859   6.637  1.00  0.00     0.029 A 
ATOM     57  N   UNL     1       3.642   7.727   6.548  1.00  0.00    -0.354 N 
ATOM     58  N   UNL     1       0.059   6.833   7.062  1.00  0.00    -0.248 NA
ATOM     59  C   UNL     1      -1.255   5.292   8.152  1.00  0.00     0.031 C 
ATOM     60  C   UNL     1       2.245   9.094   7.569  1.00  0.00     0.029 A 
ATOM     61  C   UNL     1       2.627   7.762   7.477  1.00  0.00     0.049 A 
ATOM     62  H   UNL     1       4.189   6.934   6.342  1.00  0.00     0.167 HD
ATOM     63  C   UNL     1       0.853   6.250   8.012  1.00  0.00     0.074 A 
ATOM     64  C   UNL     1      -0.028   5.325   8.698  1.00  0.00     0.031 C 
ATOM     65  C   UNL     1       2.183   6.537   8.131  1.00  0.00     0.037 A 
BRANCH  52  66
ATOM     66  C   UNL     1       5.775   9.491   4.279  1.00  0.00     0.064 A 
ATOM     67  C   UNL     1       6.618  10.059   5.252  1.00  0.00     0.173 A 
ATOM     68  C   UNL     1       6.226   9.629   2.941  1.00  0.00     0.173 A 
ATOM     69  F   UNL     1       6.291  10.014   6.551  1.00  0.00    -0.203 F 
ATOM     70  C   UNL     1       7.805  10.726   4.915  1.00  0.00     0.198 A 
ATOM     71  C   UNL     1       7.430  10.261   2.611  1.00  0.00     0.198 A 
ATOM     72  F   UNL     1       5.490   9.200   1.905  1.00  0.00    -0.203 F 
ATOM     73  F   UNL     1       8.543  11.301   5.875  1.00  0.00    -0.200 F 
ATOM     74  C   UNL     1       8.212  10.824   3.596  1.00  0.00     0.200 A 
ATOM     75  F   UNL     1       7.807  10.350   1.326  1.00  0.00    -0.200 F 
ATOM     76  F   UNL     1       9.338  11.477   3.276  1.00  0.00    -0.200 F 
ENDBRANCH  52  66
BRANCH  53  77
ATOM     77  C   UNL     1      -3.128   5.624   5.412  1.00  0.00     0.064 A 
ATOM     78  C   UNL     1      -4.417   6.113   5.106  1.00  0.00     0.173 A 
ATOM     79  C   UNL     1      -2.612   4.591   4.617  1.00  0.00     0.173 A 
ATOM     80  F   UNL     1      -4.939   7.118   5.830  1.00  0.00    -0.203 F 
ATOM     81  C   UNL     1      -5.072   5.726   3.944  1.00  0.00     0.198 A 
ATOM     82  C   UNL     1      -3.294   4.180   3.470  1.00  0.00     0.198 A 
ATOM     83  F   UNL     1      -1.399   4.082   4.874  1.00  0.00    -0.203 F 
ATOM     84  F   UNL     1      -6.196   6.355   3.571  1.00  0.00    -0.200 F 
ATOM     85  C   UNL     1      -4.497   4.781   3.112  1.00  0.00     0.200 A 
ATOM     86  F   UNL     1      -2.744   3.273   2.651  1.00  0.00    -0.200 F 
ATOM     87  F   UNL     1      -5.069   4.505   1.931  1.00  0.00    -0.200 F 
ENDBRANCH  53  77
BRANCH  65  88
ATOM     88  C   UNL     1       3.157   5.689   8.916  1.00  0.00     0.064 A 
ATOM     89  C   UNL     1       3.002   4.303   9.107  1.00  0.00     0.173 A 
ATOM     90  C   UNL     1       4.366   6.236   9.403  1.00  0.00     0.173 A 
ATOM     91  F   UNL     1       1.984   3.633   8.550  1.00  0.00    -0.203 F 
ATOM     92  C   UNL     1       3.922   3.546   9.834  1.00  0.00     0.198 A 
ATOM     93  C   UNL     1       5.317   5.463  10.071  1.00  0.00     0.198 A 
ATOM     94  F   UNL     1       4.669   7.529   9.216  1.00  0.00    -0.203 F 
ATOM     95  F   UNL     1       3.689   2.243  10.045  1.00  0.00    -0.200 F 
ATOM     96  C   UNL     1       5.081   4.124  10.314  1.00  0.00     0.200 A 
ATOM     97  F   UNL     1       6.471   6.019  10.464  1.00  0.00    -0.200 F 
ATOM     98  F   UNL     1       5.978   3.389  10.983  1.00  0.00    -0.200 F 
ENDBRANCH  65  88
ENDBRANCH  39  40
ENDBRANCH  32  34
ENDBRANCH  31  32
ENDBRANCH  30  31
ENDBRANCH  29  30
ENDBRANCH  28  29
ENDBRANCH  27  28
ENDBRANCH   1  27
TORSDOF 21
