REMARK SMILES Cc1ccccc1OCC(=O)N[C@@H](Cc1c[nH]c2ccccc12)C(=O)OCCOCCOCCOC(=O)c1ccc(-c2c3nc(c(-c4c(F)c(F)c(F)c(F)c4F)c4ccc([nH]4)c(-c4c(F)c(F)c(F)c(F)c4F)c4nc(c(-c5c(F)c(F)c(F)c(F)c5F)c5ccc2[nH]5)C=C4)C=C3)cc1
REMARK SMILES IDX 30 1 29 2 28 3 27 4 26 5 24 6 25 7 13 8 12 9 10 10 11 11
REMARK SMILES IDX 9 13 8 14 7 15 1 16 2 17 3 18 4 19 6 20 5 21 14 22 15 23
REMARK SMILES IDX 16 24 23 25 17 26 18 27 22 28 19 30 21 31 20 32 31 33 32 34
REMARK SMILES IDX 33 35 34 36 35 37 36 38 37 39 38 40 39 41 100 42 40 43 99 44
REMARK SMILES IDX 41 45 42 46 43 47 93 48 44 49 98 50 92 51 94 52 45 53 97 54
REMARK SMILES IDX 91 55 90 56 46 58 78 59 58 60 77 61 59 62 62 63 76 64 95 65
REMARK SMILES IDX 60 66 61 67 75 69 96 70 63 71 47 72 48 73 56 74 49 75 50 76
REMARK SMILES IDX 54 77 57 78 51 79 52 80 55 81 53 82 79 83 80 84 88 85 81 86
REMARK SMILES IDX 82 87 86 88 89 89 83 90 84 91 87 92 85 93 64 94 65 95 73 96
REMARK SMILES IDX 66 97 67 98 71 99 74 100 68 101 69 102 72 103 70 104
REMARK H PARENT 12 12 17 29 94 57 62 68
REMARK Flexibility Score: inf
ROOT
ATOM      1  C   UNL     1       5.919   6.737   2.581  1.00  0.00     0.188 C 
ENDROOT
BRANCH   1   2
ATOM      2  O   UNL     1       6.426   7.317   3.751  1.00  0.00    -0.376 OA
BRANCH   2   3
ATOM      3  C   UNL     1       5.741   6.884   4.896  1.00  0.00     0.202 C 
BRANCH   3   4
ATOM      4  C   UNL     1       4.816   5.641   4.795  1.00  0.00     0.261 C 
BRANCH   4   5
ATOM      5  O   UNL     1       3.741   5.190   3.380  1.00  0.00    -0.462 OA
BRANCH   5   6
ATOM      6  C   UNL     1       2.367   5.241   2.813  1.00  0.00     0.329 C 
ATOM      7  O   UNL     1       1.735   6.297   2.791  1.00  0.00    -0.250 OA
BRANCH   6   8
ATOM      8  C   UNL     1       1.366   4.081   2.113  1.00  0.00     0.196 C 
BRANCH   8   9
ATOM      9  N   UNL     1       1.579   2.692   1.645  1.00  0.00    -0.339 N 
ATOM     10  C   UNL     1       2.225   2.170   0.568  1.00  0.00     0.258 C 
ATOM     11  O   UNL     1       2.980   1.215   0.766  1.00  0.00    -0.271 OA
ATOM     12  H   UNL     1       1.171   2.011   2.228  1.00  0.00     0.164 HD
BRANCH  10  13
ATOM     13  C   UNL     1       1.891   2.578  -0.849  1.00  0.00     0.329 C 
BRANCH  13  14
ATOM     14  O   UNL     1       0.636   2.087  -1.304  1.00  0.00    -0.484 OA
BRANCH  14  15
ATOM     15  C   UNL     1       0.126   0.924  -0.780  1.00  0.00     0.122 A 
ATOM     16  C   UNL     1       2.170  -0.710  -0.934  1.00  0.00     0.048 C 
ATOM     17  C   UNL     1       0.738  -0.340  -0.654  1.00  0.00    -0.009 A 
ATOM     18  C   UNL     1      -0.046  -1.419  -0.188  1.00  0.00     0.007 A 
ATOM     19  C   UNL     1      -1.399  -1.272   0.106  1.00  0.00     0.001 A 
ATOM     20  C   UNL     1      -1.226   1.066  -0.425  1.00  0.00     0.047 A 
ATOM     21  C   UNL     1      -1.987  -0.021   0.003  1.00  0.00     0.004 A 
ENDBRANCH  14  15
ENDBRANCH  13  14
ENDBRANCH  10  13
ENDBRANCH   8   9
BRANCH   8  22
ATOM     22  C   UNL     1      -0.088   4.065   2.868  1.00  0.00     0.074 C 
BRANCH  22  23
ATOM     23  C   UNL     1      -0.089   3.781   4.351  1.00  0.00    -0.020 A 
ATOM     24  C   UNL     1       0.391   4.843   5.651  1.00  0.00     0.087 A 
ATOM     25  C   UNL     1      -0.039   1.992   5.063  1.00  0.00     0.003 A 
ATOM     26  N   UNL     1       1.097   3.961   7.157  1.00  0.00    -0.361 N 
ATOM     27  C   UNL     1       0.923   2.137   6.922  1.00  0.00     0.046 A 
ATOM     28  C   UNL     1      -0.115   0.396   4.248  1.00  0.00     0.010 A 
ATOM     29  H   UNL     1       1.494   4.401   7.943  1.00  0.00     0.166 HD
ATOM     30  C   UNL     1       1.664   0.590   7.560  1.00  0.00     0.026 A 
ATOM     31  C   UNL     1       0.621  -0.988   5.029  1.00  0.00     0.001 A 
ATOM     32  C   UNL     1       1.462  -0.907   6.584  1.00  0.00     0.002 A 
ENDBRANCH  22  23
ENDBRANCH   8  22
ENDBRANCH   6   8
ENDBRANCH   5   6
ENDBRANCH   4   5
ENDBRANCH   3   4
ENDBRANCH   2   3
ENDBRANCH   1   2
BRANCH   1  33
ATOM     33  C   UNL     1       6.261   5.282   2.393  1.00  0.00     0.188 C 
BRANCH  33  34
ATOM     34  O   UNL     1       6.323   4.505   3.568  1.00  0.00    -0.376 OA
BRANCH  34  35
ATOM     35  C   UNL     1       7.432   4.298   4.416  1.00  0.00     0.202 C 
BRANCH  35  36
ATOM     36  C   UNL     1       8.562   3.981   3.533  1.00  0.00     0.261 C 
BRANCH  36  37
ATOM     37  O   UNL     1       8.277   2.820   2.669  1.00  0.00    -0.460 OA
BRANCH  37  38
ATOM     38  C   UNL     1       7.073   2.410   2.143  1.00  0.00     0.338 C 
ATOM     39  O   UNL     1       6.943   2.365   0.918  1.00  0.00    -0.246 OA
BRANCH  38  40
ATOM     40  C   UNL     1       5.856   2.111   3.017  1.00  0.00     0.060 A 
ATOM     41  C   UNL     1       4.650   2.498   2.494  1.00  0.00     0.016 A 
ATOM     42  C   UNL     1       5.793   1.765   4.372  1.00  0.00     0.016 A 
ATOM     43  C   UNL     1       3.559   2.701   3.359  1.00  0.00     0.010 A 
ATOM     44  C   UNL     1       4.741   2.307   5.221  1.00  0.00     0.010 A 
ATOM     45  C   UNL     1       3.722   3.083   4.673  1.00  0.00    -0.014 A 
BRANCH  45  46
ATOM     46  C   UNL     1       2.708   4.177   5.403  1.00  0.00     0.031 A 
ATOM     47  C   UNL     1       1.351   3.027   5.489  1.00  0.00     0.074 A 
ATOM     48  C   UNL     1       2.507   5.775   5.484  1.00  0.00     0.049 A 
ATOM     49  N   UNL     1      -0.328   3.256   6.237  1.00  0.00    -0.248 NA
ATOM     50  C   UNL     1       1.456   1.036   5.542  1.00  0.00     0.031 C 
ATOM     51  C   UNL     1       2.139   6.734   6.666  1.00  0.00     0.029 A 
ATOM     52  N   UNL     1       2.898   6.970   4.677  1.00  0.00    -0.354 N 
ATOM     53  C   UNL     1      -1.113   2.096   6.982  1.00  0.00     0.074 A 
ATOM     54  C   UNL     1      -0.135   0.627   6.415  1.00  0.00     0.031 C 
ATOM     55  C   UNL     1       1.951   8.031   6.256  1.00  0.00     0.029 A 
ATOM     56  C   UNL     1       2.242   8.161   4.847  1.00  0.00     0.049 A 
ATOM     57  H   UNL     1       3.629   6.902   4.021  1.00  0.00     0.167 HD
ATOM     58  C   UNL     1      -1.461   2.661   8.230  1.00  0.00     0.037 A 
ATOM     59  C   UNL     1       1.649   8.891   3.838  1.00  0.00     0.037 A 
ATOM     60  C   UNL     1      -1.450   4.256   8.210  1.00  0.00     0.049 A 
ATOM     61  C   UNL     1       0.164   8.759   4.154  1.00  0.00     0.074 A 
ATOM     62  C   UNL     1      -0.746   5.253   8.915  1.00  0.00     0.029 A 
ATOM     63  N   UNL     1      -1.938   4.972   7.088  1.00  0.00    -0.354 N 
ATOM     64  N   UNL     1      -0.327   7.810   4.919  1.00  0.00    -0.248 NA
ATOM     65  C   UNL     1      -0.827   9.755   3.795  1.00  0.00     0.031 C 
ATOM     66  C   UNL     1      -0.853   6.523   8.227  1.00  0.00     0.029 A 
ATOM     67  C   UNL     1      -1.669   6.360   7.117  1.00  0.00     0.049 A 
ATOM     68  H   UNL     1      -2.424   4.538   6.350  1.00  0.00     0.167 HD
ATOM     69  C   UNL     1      -1.615   8.083   5.284  1.00  0.00     0.074 A 
ATOM     70  C   UNL     1      -1.859   9.332   4.550  1.00  0.00     0.031 C 
ATOM     71  C   UNL     1      -2.347   7.301   6.168  1.00  0.00     0.037 A 
BRANCH  58  72
ATOM     72  C   UNL     1      -1.350   1.938   9.570  1.00  0.00     0.064 A 
ATOM     73  C   UNL     1      -1.640   2.627  10.771  1.00  0.00     0.173 A 
ATOM     74  C   UNL     1      -0.945   0.603   9.764  1.00  0.00     0.173 A 
ATOM     75  F   UNL     1      -2.056   3.900  10.770  1.00  0.00    -0.203 F 
ATOM     76  C   UNL     1      -1.543   2.034  12.034  1.00  0.00     0.198 A 
ATOM     77  C   UNL     1      -0.809   0.019  11.029  1.00  0.00     0.198 A 
ATOM     78  F   UNL     1      -0.702  -0.223   8.748  1.00  0.00    -0.203 F 
ATOM     79  F   UNL     1      -1.866   2.742  13.125  1.00  0.00    -0.200 F 
ATOM     80  C   UNL     1      -1.134   0.726  12.164  1.00  0.00     0.200 A 
ATOM     81  F   UNL     1      -0.381  -1.248  11.133  1.00  0.00    -0.200 F 
ATOM     82  F   UNL     1      -1.085   0.141  13.367  1.00  0.00    -0.200 F 
ENDBRANCH  58  72
BRANCH  59  83
ATOM     83  C   UNL     1       2.272   8.947   2.416  1.00  0.00     0.064 A 
ATOM     84  C   UNL     1       3.591   9.433   2.251  1.00  0.00     0.173 A 
ATOM     85  C   UNL     1       1.782   8.220   1.312  1.00  0.00     0.173 A 
ATOM     86  F   UNL     1       4.136  10.222   3.188  1.00  0.00    -0.203 F 
ATOM     87  C   UNL     1       4.422   9.014   1.194  1.00  0.00     0.198 A 
ATOM     88  C   UNL     1       2.667   7.635   0.380  1.00  0.00     0.198 A 
ATOM     89  F   UNL     1       0.492   7.854   1.254  1.00  0.00    -0.203 F 
ATOM     90  F   UNL     1       5.713   9.386   1.168  1.00  0.00    -0.200 F 
ATOM     91  C   UNL     1       3.993   8.015   0.336  1.00  0.00     0.200 A 
ATOM     92  F   UNL     1       2.279   6.561  -0.332  1.00  0.00    -0.200 F 
ATOM     93  F   UNL     1       4.879   7.318  -0.396  1.00  0.00    -0.200 F 
ENDBRANCH  59  83
BRANCH  71  94
ATOM     94  C   UNL     1      -3.868   7.342   6.321  1.00  0.00     0.064 A 
ATOM     95  C   UNL     1      -4.749   8.167   5.615  1.00  0.00     0.173 A 
ATOM     96  C   UNL     1      -4.530   6.413   7.178  1.00  0.00     0.173 A 
ATOM     97  F   UNL     1      -4.354   9.068   4.721  1.00  0.00    -0.203 F 
ATOM     98  C   UNL     1      -6.133   8.092   5.772  1.00  0.00     0.198 A 
ATOM     99  C   UNL     1      -5.903   6.256   7.236  1.00  0.00     0.198 A 
ATOM    100  F   UNL     1      -3.904   5.617   8.047  1.00  0.00    -0.203 F 
ATOM    101  F   UNL     1      -6.905   8.977   5.130  1.00  0.00    -0.200 F 
ATOM    102  C   UNL     1      -6.711   7.119   6.554  1.00  0.00     0.200 A 
ATOM    103  F   UNL     1      -6.416   5.270   7.983  1.00  0.00    -0.200 F 
ATOM    104  F   UNL     1      -8.039   7.023   6.663  1.00  0.00    -0.200 F 
ENDBRANCH  71  94
ENDBRANCH  45  46
ENDBRANCH  38  40
ENDBRANCH  37  38
ENDBRANCH  36  37
ENDBRANCH  35  36
ENDBRANCH  34  35
ENDBRANCH  33  34
ENDBRANCH   1  33
TORSDOF 23
