REMARK SMILES Cc1cccc2c1[C@H]1c3c(C)cccc3[C@H](CC(=O)OCCOCCOCCOC(=O)c3ccc(-c4c5nc(c(-c6c(F)c(F)c(F)c(F)c6F)c6ccc([nH]6)c(-c6c(F)c(F)c(F)c(F)c6F)c6nc(c(-c7c(F)c(F)c(F)c(F)c7F)c7ccc4[nH]7)C=C6)C=C5)cc3)C[C@H]1CC2
REMARK SMILES IDX 25 1 24 2 23 3 22 4 21 5 20 6 18 7 19 8 17 9 16 10 1 11 2 12
REMARK SMILES IDX 3 13 7 14 4 15 6 16 8 17 5 18 98 19 9 20 96 21 97 22 10 23
REMARK SMILES IDX 15 24 95 25 12 26 11 27 14 28 13 29 26 30 27 31 28 32 29 33
REMARK SMILES IDX 30 34 31 35 32 36 33 37 94 38 34 39 93 40 35 41 36 42 37 43
REMARK SMILES IDX 87 44 38 45 92 46 86 47 88 48 39 49 91 50 85 51 84 52 40 54
REMARK SMILES IDX 72 55 52 56 71 57 53 58 56 59 70 60 89 61 54 62 55 63 69 65
REMARK SMILES IDX 90 66 57 67 41 68 42 69 50 70 43 71 44 72 48 73 51 74 45 75
REMARK SMILES IDX 46 76 49 77 47 78 73 79 74 80 82 81 75 82 76 83 80 84 83 85
REMARK SMILES IDX 77 86 78 87 81 88 79 89 58 90 59 91 67 92 60 93 61 94 65 95
REMARK SMILES IDX 68 96 62 97 63 98 66 99 64 100
REMARK H PARENT 88 53 56 64
REMARK Flexibility Score: inf
ROOT
ATOM      1  C   UNL     1       5.438  -6.425   0.431  1.00  0.00     0.188 C 
ENDROOT
BRANCH   1   2
ATOM      2  C   UNL     1       6.530  -6.267  -0.636  1.00  0.00     0.188 C 
BRANCH   2   3
ATOM      3  O   UNL     1       7.748  -6.992  -0.497  1.00  0.00    -0.376 OA
BRANCH   3   4
ATOM      4  C   UNL     1       8.252  -7.261   0.808  1.00  0.00     0.202 C 
BRANCH   4   5
ATOM      5  C   UNL     1       8.546  -6.051   1.715  1.00  0.00     0.261 C 
BRANCH   5   6
ATOM      6  O   UNL     1       7.404  -5.187   1.927  1.00  0.00    -0.463 OA
BRANCH   6   7
ATOM      7  C   UNL     1       7.570  -3.861   1.684  1.00  0.00     0.306 C 
ATOM      8  O   UNL     1       8.664  -3.321   1.567  1.00  0.00    -0.252 OA
BRANCH   7   9
ATOM      9  C   UNL     1       6.262  -3.136   1.355  1.00  0.00     0.131 C 
BRANCH   9  10
ATOM     10  C   UNL     1       5.128  -3.056   2.429  1.00  0.00     0.031 C 
ATOM     11  C   UNL     1       0.588  -0.247  -0.075  1.00  0.00     0.044 C 
ATOM     12  C   UNL     1       0.251  -0.422   1.384  1.00  0.00    -0.047 A 
ATOM     13  C   UNL     1      -0.924   0.202   1.846  1.00  0.00     0.004 A 
ATOM     14  C   UNL     1       1.020  -1.216   2.277  1.00  0.00    -0.034 A 
ATOM     15  C   UNL     1      -1.369   0.019   3.150  1.00  0.00     0.001 A 
ATOM     16  C   UNL     1       0.464  -1.526   3.541  1.00  0.00    -0.044 A 
ATOM     17  C   UNL     1       2.430  -1.719   1.938  1.00  0.00     0.053 C 
ATOM     18  C   UNL     1      -0.703  -0.876   3.977  1.00  0.00     0.004 A 
ATOM     19  C   UNL     1       0.978  -2.669   4.385  1.00  0.00     0.036 C 
ATOM     20  C   UNL     1       3.646  -0.891   2.449  1.00  0.00    -0.034 A 
ATOM     21  C   UNL     1       2.528  -3.179   2.442  1.00  0.00     0.002 C 
ATOM     22  C   UNL     1       2.321  -3.259   3.961  1.00  0.00     0.009 C 
ATOM     23  C   UNL     1       3.662   0.525   2.599  1.00  0.00    -0.047 A 
ATOM     24  C   UNL     1       4.868  -1.578   2.735  1.00  0.00    -0.040 A 
ATOM     25  C   UNL     1       3.850  -3.794   1.979  1.00  0.00     0.013 C 
ATOM     26  C   UNL     1       4.829   1.180   3.053  1.00  0.00     0.004 A 
ATOM     27  C   UNL     1       2.511   1.452   2.314  1.00  0.00     0.044 C 
ATOM     28  C   UNL     1       5.974  -0.890   3.282  1.00  0.00     0.004 A 
ATOM     29  C   UNL     1       5.965   0.482   3.416  1.00  0.00     0.001 A 
ENDBRANCH   9  10
ENDBRANCH   7   9
ENDBRANCH   6   7
ENDBRANCH   5   6
ENDBRANCH   4   5
ENDBRANCH   3   4
ENDBRANCH   2   3
ENDBRANCH   1   2
BRANCH   1  30
ATOM     30  O   UNL     1       5.538  -7.622   1.169  1.00  0.00    -0.376 OA
BRANCH  30  31
ATOM     31  C   UNL     1       4.359  -8.393   1.266  1.00  0.00     0.202 C 
BRANCH  31  32
ATOM     32  C   UNL     1       4.001  -9.094  -0.049  1.00  0.00     0.261 C 
BRANCH  32  33
ATOM     33  O   UNL     1       3.896  -8.243  -1.210  1.00  0.00    -0.460 OA
BRANCH  33  34
ATOM     34  C   UNL     1       2.861  -7.376  -1.263  1.00  0.00     0.338 C 
ATOM     35  O   UNL     1       1.979  -7.231  -0.426  1.00  0.00    -0.246 OA
BRANCH  34  36
ATOM     36  C   UNL     1       3.091  -6.459  -2.402  1.00  0.00     0.060 A 
ATOM     37  C   UNL     1       3.274  -5.087  -2.166  1.00  0.00     0.016 A 
ATOM     38  C   UNL     1       3.123  -6.954  -3.705  1.00  0.00     0.016 A 
ATOM     39  C   UNL     1       3.475  -4.206  -3.232  1.00  0.00     0.010 A 
ATOM     40  C   UNL     1       3.288  -6.068  -4.774  1.00  0.00     0.010 A 
ATOM     41  C   UNL     1       3.438  -4.688  -4.546  1.00  0.00    -0.014 A 
BRANCH  41  42
ATOM     42  C   UNL     1       3.339  -3.745  -5.689  1.00  0.00     0.031 A 
ATOM     43  C   UNL     1       1.968  -3.397  -6.200  1.00  0.00     0.074 A 
ATOM     44  C   UNL     1       4.430  -3.217  -6.271  1.00  0.00     0.049 A 
ATOM     45  N   UNL     1       1.623  -2.702  -7.252  1.00  0.00    -0.248 NA
ATOM     46  C   UNL     1       0.829  -3.905  -5.415  1.00  0.00     0.031 C 
ATOM     47  C   UNL     1       5.808  -3.423  -5.833  1.00  0.00     0.029 A 
ATOM     48  N   UNL     1       4.545  -2.407  -7.377  1.00  0.00    -0.354 N 
ATOM     49  C   UNL     1       0.234  -2.693  -7.258  1.00  0.00     0.074 A 
ATOM     50  C   UNL     1      -0.204  -3.469  -6.120  1.00  0.00     0.031 C 
ATOM     51  C   UNL     1       6.633  -2.775  -6.675  1.00  0.00     0.029 A 
ATOM     52  C   UNL     1       5.845  -2.143  -7.734  1.00  0.00     0.049 A 
ATOM     53  H   UNL     1       3.768  -2.050  -7.866  1.00  0.00     0.167 HD
ATOM     54  C   UNL     1      -0.599  -2.085  -8.133  1.00  0.00     0.037 A 
ATOM     55  C   UNL     1       6.338  -1.494  -8.809  1.00  0.00     0.037 A 
ATOM     56  C   UNL     1      -0.162  -1.315  -9.267  1.00  0.00     0.049 A 
ATOM     57  C   UNL     1       5.384  -0.911  -9.826  1.00  0.00     0.074 A 
ATOM     58  C   UNL     1      -0.936  -0.659 -10.208  1.00  0.00     0.029 A 
ATOM     59  N   UNL     1       1.162  -1.102  -9.615  1.00  0.00    -0.354 N 
ATOM     60  N   UNL     1       4.073  -0.897  -9.821  1.00  0.00    -0.248 NA
ATOM     61  C   UNL     1       5.980  -0.254 -11.000  1.00  0.00     0.031 C 
ATOM     62  C   UNL     1      -0.081  -0.096 -11.158  1.00  0.00     0.029 A 
ATOM     63  C   UNL     1       1.226  -0.345 -10.773  1.00  0.00     0.049 A 
ATOM     64  H   UNL     1       1.940  -1.437  -9.114  1.00  0.00     0.167 HD
ATOM     65  C   UNL     1       3.691  -0.204 -10.964  1.00  0.00     0.074 A 
ATOM     66  C   UNL     1       4.908   0.199 -11.634  1.00  0.00     0.031 C 
ATOM     67  C   UNL     1       2.444   0.070 -11.419  1.00  0.00     0.037 A 
BRANCH  54  68
ATOM     68  C   UNL     1      -2.076  -2.226  -7.918  1.00  0.00     0.064 A 
ATOM     69  C   UNL     1      -2.734  -1.539  -6.888  1.00  0.00     0.173 A 
ATOM     70  C   UNL     1      -2.855  -2.970  -8.817  1.00  0.00     0.173 A 
ATOM     71  F   UNL     1      -2.031  -0.829  -5.993  1.00  0.00    -0.203 F 
ATOM     72  C   UNL     1      -4.120  -1.587  -6.770  1.00  0.00     0.198 A 
ATOM     73  C   UNL     1      -4.243  -2.993  -8.712  1.00  0.00     0.198 A 
ATOM     74  F   UNL     1      -2.272  -3.645  -9.820  1.00  0.00    -0.203 F 
ATOM     75  F   UNL     1      -4.728  -0.936  -5.769  1.00  0.00    -0.200 F 
ATOM     76  C   UNL     1      -4.874  -2.300  -7.690  1.00  0.00     0.200 A 
ATOM     77  F   UNL     1      -4.970  -3.670  -9.612  1.00  0.00    -0.200 F 
ATOM     78  F   UNL     1      -6.210  -2.318  -7.594  1.00  0.00    -0.200 F 
ENDBRANCH  54  68
BRANCH  55  79
ATOM     79  C   UNL     1       7.809  -1.371  -9.002  1.00  0.00     0.064 A 
ATOM     80  C   UNL     1       8.441  -0.120  -8.961  1.00  0.00     0.173 A 
ATOM     81  C   UNL     1       8.609  -2.493  -9.266  1.00  0.00     0.173 A 
ATOM     82  F   UNL     1       7.717   0.989  -8.746  1.00  0.00    -0.203 F 
ATOM     83  C   UNL     1       9.809   0.007  -9.197  1.00  0.00     0.198 A 
ATOM     84  C   UNL     1       9.983  -2.370  -9.469  1.00  0.00     0.198 A 
ATOM     85  F   UNL     1       8.056  -3.713  -9.327  1.00  0.00    -0.203 F 
ATOM     86  F   UNL     1      10.375   1.221  -9.210  1.00  0.00    -0.200 F 
ATOM     87  C   UNL     1      10.580  -1.119  -9.443  1.00  0.00     0.200 A 
ATOM     88  F   UNL     1      10.725  -3.462  -9.698  1.00  0.00    -0.200 F 
ATOM     89  F   UNL     1      11.895  -0.997  -9.669  1.00  0.00    -0.200 F 
ENDBRANCH  55  79
BRANCH  67  90
ATOM     90  C   UNL     1       2.312   0.880 -12.678  1.00  0.00     0.064 A 
ATOM     91  C   UNL     1       2.634   0.346 -13.935  1.00  0.00     0.173 A 
ATOM     92  C   UNL     1       1.772   2.175 -12.635  1.00  0.00     0.173 A 
ATOM     93  F   UNL     1       3.161  -0.883 -14.031  1.00  0.00    -0.203 F 
ATOM     94  C   UNL     1       2.434   1.085 -15.098  1.00  0.00     0.198 A 
ATOM     95  C   UNL     1       1.542   2.897 -13.803  1.00  0.00     0.198 A 
ATOM     96  F   UNL     1       1.434   2.729 -11.460  1.00  0.00    -0.203 F 
ATOM     97  F   UNL     1       2.782   0.568 -16.285  1.00  0.00    -0.200 F 
ATOM     98  C   UNL     1       1.878   2.354 -15.033  1.00  0.00     0.200 A 
ATOM     99  F   UNL     1       0.983   4.114 -13.738  1.00  0.00    -0.200 F 
ATOM    100  F   UNL     1       1.666   3.054 -16.156  1.00  0.00    -0.200 F 
ENDBRANCH  67  90
ENDBRANCH  41  42
ENDBRANCH  34  36
ENDBRANCH  33  34
ENDBRANCH  32  33
ENDBRANCH  31  32
ENDBRANCH  30  31
ENDBRANCH   1  30
TORSDOF 18
