REMARK SMILES O=C(OCCOCCOCCOC(=O)[C@@H]1O[C@H](OC(=O)c2cccnc2)[C@@H](O)[C@H](O)[C@H]1O)c1ccc(-c2c3nc(c(-c4c(F)c(F)c(F)c(F)c4F)c4ccc([nH]4)c(-c4c(F)c(F)c(F)c(F)c4F)c4nc(c(-c5c(F)c(F)c(F)c(F)c5F)c5ccc2[nH]5)C=C4)C=C3)cc1
REMARK SMILES IDX 8 1 7 2 6 3 5 4 4 5 3 6 2 7 1 8 33 9 34 10 95 11 35 12 94 13
REMARK SMILES IDX 36 14 37 15 38 16 88 17 39 18 93 19 87 20 89 21 40 22 92 23
REMARK SMILES IDX 86 24 85 25 41 27 73 28 53 29 72 30 54 31 57 32 71 33 90 34
REMARK SMILES IDX 55 35 56 36 70 38 91 39 58 40 42 41 43 42 51 43 44 44 45 45
REMARK SMILES IDX 49 46 52 47 46 48 47 49 50 50 48 51 74 52 75 53 83 54 76 55
REMARK SMILES IDX 77 56 81 57 84 58 78 59 79 60 82 61 80 62 59 63 60 64 68 65
REMARK SMILES IDX 61 66 62 67 66 68 69 69 63 70 64 71 67 72 65 73 9 74 10 75
REMARK SMILES IDX 11 76 12 77 13 78 14 79 15 80 16 81 31 82 17 83 29 84 27 85
REMARK SMILES IDX 32 86 18 88 19 89 20 90 21 91 22 92 26 93 23 94 25 95 24 96
REMARK SMILES IDX 30 97 28 99
REMARK H PARENT 89 26 57 37 32 87 30 98 28 100
REMARK Flexibility Score: inf
ROOT
ATOM      1  C   UNL     1      -1.239  -5.882   1.827  1.00  0.00     0.188 C 
ENDROOT
BRANCH   1   2
ATOM      2  C   UNL     1      -1.884  -5.675   0.450  1.00  0.00     0.188 C 
BRANCH   2   3
ATOM      3  O   UNL     1      -1.725  -4.324   0.013  1.00  0.00    -0.376 OA
BRANCH   3   4
ATOM      4  C   UNL     1      -2.689  -3.861  -0.930  1.00  0.00     0.202 C 
BRANCH   4   5
ATOM      5  C   UNL     1      -2.466  -4.313  -2.376  1.00  0.00     0.261 C 
BRANCH   5   6
ATOM      6  O   UNL     1      -1.690  -5.511  -2.471  1.00  0.00    -0.460 OA
BRANCH   6   7
ATOM      7  C   UNL     1      -0.353  -5.555  -2.682  1.00  0.00     0.338 C 
ATOM      8  O   UNL     1       0.201  -6.634  -2.875  1.00  0.00    -0.246 OA
BRANCH   7   9
ATOM      9  C   UNL     1       0.464  -4.318  -2.772  1.00  0.00     0.060 A 
ATOM     10  C   UNL     1       0.461  -3.282  -1.837  1.00  0.00     0.016 A 
ATOM     11  C   UNL     1       1.401  -4.270  -3.796  1.00  0.00     0.016 A 
ATOM     12  C   UNL     1       1.342  -2.203  -1.931  1.00  0.00     0.010 A 
ATOM     13  C   UNL     1       2.370  -3.266  -3.804  1.00  0.00     0.010 A 
ATOM     14  C   UNL     1       2.374  -2.222  -2.862  1.00  0.00    -0.014 A 
BRANCH  14  15
ATOM     15  C   UNL     1       3.467  -1.200  -2.873  1.00  0.00     0.031 A 
ATOM     16  C   UNL     1       3.872  -0.600  -4.193  1.00  0.00     0.074 A 
ATOM     17  C   UNL     1       4.168  -0.891  -1.758  1.00  0.00     0.049 A 
ATOM     18  N   UNL     1       4.964   0.041  -4.518  1.00  0.00    -0.248 NA
ATOM     19  C   UNL     1       2.944  -0.806  -5.318  1.00  0.00     0.031 C 
ATOM     20  C   UNL     1       3.892  -1.374  -0.405  1.00  0.00     0.029 A 
ATOM     21  N   UNL     1       5.291  -0.112  -1.584  1.00  0.00    -0.354 N 
ATOM     22  C   UNL     1       4.874   0.251  -5.888  1.00  0.00     0.074 A 
ATOM     23  C   UNL     1       3.678  -0.417  -6.347  1.00  0.00     0.031 C 
ATOM     24  C   UNL     1       4.824  -0.921   0.447  1.00  0.00     0.029 A 
ATOM     25  C   UNL     1       5.791  -0.135  -0.299  1.00  0.00     0.049 A 
ATOM     26  H   UNL     1       5.698   0.413  -2.310  1.00  0.00     0.167 HD
ATOM     27  C   UNL     1       5.678   0.991  -6.684  1.00  0.00     0.037 A 
ATOM     28  C   UNL     1       6.914   0.399   0.220  1.00  0.00     0.037 A 
ATOM     29  C   UNL     1       6.778   1.772  -6.192  1.00  0.00     0.049 A 
ATOM     30  C   UNL     1       7.787   1.229  -0.679  1.00  0.00     0.074 A 
ATOM     31  C   UNL     1       7.573   2.670  -6.877  1.00  0.00     0.029 A 
ATOM     32  N   UNL     1       7.209   1.771  -4.873  1.00  0.00    -0.354 N 
ATOM     33  N   UNL     1       7.653   1.467  -1.962  1.00  0.00    -0.248 NA
ATOM     34  C   UNL     1       8.944   1.889  -0.062  1.00  0.00     0.031 C 
ATOM     35  C   UNL     1       8.504   3.198  -5.977  1.00  0.00     0.029 A 
ATOM     36  C   UNL     1       8.269   2.648  -4.726  1.00  0.00     0.049 A 
ATOM     37  H   UNL     1       6.819   1.229  -4.150  1.00  0.00     0.167 HD
ATOM     38  C   UNL     1       8.675   2.344  -2.293  1.00  0.00     0.074 A 
ATOM     39  C   UNL     1       9.420   2.596  -1.076  1.00  0.00     0.031 C 
ATOM     40  C   UNL     1       8.969   2.897  -3.494  1.00  0.00     0.037 A 
BRANCH  27  41
ATOM     41  C   UNL     1       5.357   1.034  -8.150  1.00  0.00     0.064 A 
ATOM     42  C   UNL     1       4.200   1.664  -8.635  1.00  0.00     0.173 A 
ATOM     43  C   UNL     1       6.219   0.440  -9.083  1.00  0.00     0.173 A 
ATOM     44  F   UNL     1       3.334   2.233  -7.782  1.00  0.00    -0.203 F 
ATOM     45  C   UNL     1       3.895   1.658  -9.992  1.00  0.00     0.198 A 
ATOM     46  C   UNL     1       5.929   0.468 -10.445  1.00  0.00     0.198 A 
ATOM     47  F   UNL     1       7.340  -0.174  -8.674  1.00  0.00    -0.203 F 
ATOM     48  F   UNL     1       2.748   2.205 -10.421  1.00  0.00    -0.200 F 
ATOM     49  C   UNL     1       4.762   1.067 -10.897  1.00  0.00     0.200 A 
ATOM     50  F   UNL     1       6.773  -0.095 -11.320  1.00  0.00    -0.200 F 
ATOM     51  F   UNL     1       4.468   1.064 -12.204  1.00  0.00    -0.200 F 
ENDBRANCH  27  41
BRANCH  28  52
ATOM     52  C   UNL     1       7.272   0.186   1.652  1.00  0.00     0.064 A 
ATOM     53  C   UNL     1       7.251   1.247   2.570  1.00  0.00     0.173 A 
ATOM     54  C   UNL     1       7.678  -1.071   2.127  1.00  0.00     0.173 A 
ATOM     55  F   UNL     1       6.876   2.470   2.167  1.00  0.00    -0.203 F 
ATOM     56  C   UNL     1       7.664   1.071   3.890  1.00  0.00     0.198 A 
ATOM     57  C   UNL     1       8.066  -1.252   3.454  1.00  0.00     0.198 A 
ATOM     58  F   UNL     1       7.690  -2.130   1.303  1.00  0.00    -0.203 F 
ATOM     59  F   UNL     1       7.688   2.117   4.727  1.00  0.00    -0.200 F 
ATOM     60  C   UNL     1       8.072  -0.178   4.332  1.00  0.00     0.200 A 
ATOM     61  F   UNL     1       8.438  -2.467   3.881  1.00  0.00    -0.200 F 
ATOM     62  F   UNL     1       8.478  -0.345   5.598  1.00  0.00    -0.200 F 
ENDBRANCH  28  52
BRANCH  40  63
ATOM     63  C   UNL     1      10.110   3.865  -3.535  1.00  0.00     0.064 A 
ATOM     64  C   UNL     1      11.440   3.431  -3.455  1.00  0.00     0.173 A 
ATOM     65  C   UNL     1       9.867   5.236  -3.710  1.00  0.00     0.173 A 
ATOM     66  F   UNL     1      11.715   2.132  -3.267  1.00  0.00    -0.203 F 
ATOM     67  C   UNL     1      12.489   4.340  -3.534  1.00  0.00     0.198 A 
ATOM     68  C   UNL     1      10.920   6.137  -3.819  1.00  0.00     0.198 A 
ATOM     69  F   UNL     1       8.610   5.695  -3.794  1.00  0.00    -0.203 F 
ATOM     70  F   UNL     1      13.753   3.910  -3.415  1.00  0.00    -0.200 F 
ATOM     71  C   UNL     1      12.230   5.689  -3.726  1.00  0.00     0.200 A 
ATOM     72  F   UNL     1      10.669   7.438  -4.018  1.00  0.00    -0.200 F 
ATOM     73  F   UNL     1      13.244   6.560  -3.817  1.00  0.00    -0.200 F 
ENDBRANCH  40  63
ENDBRANCH  14  15
ENDBRANCH   7   9
ENDBRANCH   6   7
ENDBRANCH   5   6
ENDBRANCH   4   5
ENDBRANCH   3   4
ENDBRANCH   2   3
ENDBRANCH   1   2
BRANCH   1  74
ATOM     74  O   UNL     1      -1.817  -5.149   2.910  1.00  0.00    -0.376 OA
BRANCH  74  75
ATOM     75  C   UNL     1      -1.938  -3.740   2.743  1.00  0.00     0.202 C 
BRANCH  75  76
ATOM     76  C   UNL     1      -0.633  -2.925   2.711  1.00  0.00     0.261 C 
BRANCH  76  77
ATOM     77  O   UNL     1       0.440  -3.509   1.939  1.00  0.00    -0.461 OA
BRANCH  77  78
ATOM     78  C   UNL     1       1.644  -3.514   2.559  1.00  0.00     0.338 C 
ATOM     79  O   UNL     1       1.875  -2.972   3.642  1.00  0.00    -0.249 OA
BRANCH  78  80
ATOM     80  C   UNL     1       2.776  -4.262   1.833  1.00  0.00     0.263 C 
ATOM     81  O   UNL     1       2.821  -4.452   0.420  1.00  0.00    -0.322 OA
ATOM     82  C   UNL     1       3.046  -5.617   2.516  1.00  0.00     0.186 C 
ATOM     83  C   UNL     1       4.165  -4.778  -0.004  1.00  0.00     0.343 C 
ATOM     84  C   UNL     1       4.508  -5.991   2.195  1.00  0.00     0.181 C 
ATOM     85  C   UNL     1       4.749  -6.038   0.678  1.00  0.00     0.214 C 
BRANCH  82  86
ATOM     86  O   UNL     1       2.857  -5.631   3.930  1.00  0.00    -0.387 OA
ATOM     87  H   UNL     1       3.479  -5.013   4.345  1.00  0.00     0.211 HD
ENDBRANCH  82  86
BRANCH  83  88
ATOM     88  O   UNL     1       4.356  -4.747  -1.433  1.00  0.00    -0.429 OA
BRANCH  88  89
ATOM     89  C   UNL     1       4.086  -5.845  -2.170  1.00  0.00     0.342 C 
ATOM     90  O   UNL     1       3.486  -6.841  -1.806  1.00  0.00    -0.246 OA
BRANCH  89  91
ATOM     91  C   UNL     1       4.582  -5.645  -3.551  1.00  0.00     0.078 A 
ATOM     92  C   UNL     1       5.581  -4.725  -3.888  1.00  0.00     0.019 A 
ATOM     93  C   UNL     1       3.960  -6.335  -4.583  1.00  0.00     0.126 A 
ATOM     94  C   UNL     1       5.879  -4.498  -5.233  1.00  0.00     0.021 A 
ATOM     95  N   UNL     1       4.215  -6.114  -5.900  1.00  0.00    -0.264 NA
ATOM     96  C   UNL     1       5.167  -5.201  -6.193  1.00  0.00     0.111 A 
ENDBRANCH  89  91
ENDBRANCH  88  89
ENDBRANCH  83  88
BRANCH  84  97
ATOM     97  O   UNL     1       4.892  -7.241   2.777  1.00  0.00    -0.387 OA
ATOM     98  H   UNL     1       4.353  -7.953   2.398  1.00  0.00     0.211 HD
ENDBRANCH  84  97
BRANCH  85  99
ATOM     99  O   UNL     1       6.153  -6.122   0.371  1.00  0.00    -0.384 OA
ATOM    100  H   UNL     1       6.605  -5.332   0.705  1.00  0.00     0.211 HD
ENDBRANCH  85  99
ENDBRANCH  78  80
ENDBRANCH  77  78
ENDBRANCH  76  77
ENDBRANCH  75  76
ENDBRANCH  74  75
ENDBRANCH   1  74
TORSDOF 23
