REMARK SMILES COC(=O)[C@H]1CC[C@]2(C)[C@H](CC[C@]3(C)[C@H]2CC=C2[C@H]4CC(C)(C)CC[C@]4(C(=O)OCCOCCOCCOC(=O)c4ccc(-c5c6nc(c(-c7c(F)c(F)c(F)c(F)c7F)c7ccc([nH]7)c(-c7c(F)c(F)c(F)c(F)c7F)c7nc(c(-c8c(F)c(F)c(F)c(F)c8F)c8ccc5[nH]8)C=C7)C=C6)cc4)CC[C@@]23C)C1(C)C
REMARK SMILES IDX 33 1 32 2 31 3 30 4 29 5 27 6 28 7 26 8 5 9 6 10 108 11 7 12
REMARK SMILES IDX 10 13 109 14 110 15 8 16 11 17 15 18 9 19 12 20 16 21 13 22
REMARK SMILES IDX 17 23 106 24 14 25 18 26 105 27 107 28 19 29 104 30 20 31
REMARK SMILES IDX 21 32 25 33 24 34 22 35 23 36 3 37 4 38 2 39 1 40 34 41
REMARK SMILES IDX 35 42 36 43 37 44 38 45 39 46 40 47 41 48 42 49 103 50 43 51
REMARK SMILES IDX 102 52 44 53 45 54 46 55 96 56 47 57 101 58 95 59 97 60
REMARK SMILES IDX 48 61 100 62 94 63 93 64 49 66 81 67 61 68 80 69 62 70 65 71
REMARK SMILES IDX 79 72 98 73 63 74 64 75 78 77 99 78 66 79 50 80 51 81 59 82
REMARK SMILES IDX 52 83 53 84 57 85 60 86 54 87 55 88 58 89 56 90 82 91 83 92
REMARK SMILES IDX 91 93 84 94 85 95 89 96 92 97 86 98 87 99 90 100 88 101
REMARK SMILES IDX 67 102 68 103 76 104 69 105 70 106 74 107 77 108 71 109
REMARK SMILES IDX 72 110 75 111 73 112
REMARK H PARENT 97 65 65 76
REMARK Flexibility Score: inf
ROOT
ATOM      1  C   UNL     1      -5.279   0.102  -2.586  1.00  0.00     0.188 C 
ENDROOT
BRANCH   1   2
ATOM      2  O   UNL     1      -6.033   1.271  -2.334  1.00  0.00    -0.376 OA
BRANCH   2   3
ATOM      3  C   UNL     1      -6.854   1.718  -3.455  1.00  0.00     0.202 C 
BRANCH   3   4
ATOM      4  C   UNL     1      -7.640   0.715  -4.406  1.00  0.00     0.261 C 
BRANCH   4   5
ATOM      5  O   UNL     1      -6.812   0.123  -5.452  1.00  0.00    -0.463 OA
BRANCH   5   6
ATOM      6  C   UNL     1      -7.219  -0.506  -6.618  1.00  0.00     0.312 C 
ATOM      7  O   UNL     1      -8.384  -0.573  -6.980  1.00  0.00    -0.252 OA
BRANCH   6   8
ATOM      8  C   UNL     1      -5.986  -1.176  -7.392  1.00  0.00     0.075 C 
ATOM      9  C   UNL     1       1.838   0.762  -3.351  1.00  0.00     0.105 C 
ATOM     10  C   UNL     1       1.115   2.634  -3.174  1.00  0.00     0.016 C 
ATOM     11  C   UNL     1       0.904  -0.589  -4.445  1.00  0.00    -0.019 C 
ATOM     12  C   UNL     1      -0.395   3.178  -4.417  1.00  0.00     0.008 C 
ATOM     13  C   UNL     1      -0.553  -0.018  -5.528  1.00  0.00     0.002 C 
ATOM     14  C   UNL     1       0.366  -1.834  -3.559  1.00  0.00     0.012 C 
ATOM     15  C   UNL     1       1.896  -1.344  -5.372  1.00  0.00     0.012 C 
ATOM     16  C   UNL     1      -1.425   1.707  -5.306  1.00  0.00    -0.026 C 
ATOM     17  C   UNL     1      -1.471  -0.874  -6.405  1.00  0.00     0.005 C 
ATOM     18  C   UNL     1      -2.223   2.288  -6.641  1.00  0.00     0.006 C 
ATOM     19  C   UNL     1      -2.606   1.166  -4.432  1.00  0.00     0.012 C 
ATOM     20  C   UNL     1      -1.819  -0.196  -7.798  1.00  0.00     0.008 C 
ATOM     21  C   UNL     1      -3.570   2.971  -6.159  1.00  0.00     0.032 C 
ATOM     22  C   UNL     1      -2.493   1.253  -7.950  1.00  0.00    -0.020 C 
ATOM     23  C   UNL     1      -4.697   1.935  -6.113  1.00  0.00    -0.027 C 
ATOM     24  C   UNL     1      -4.085   1.234  -8.279  1.00  0.00    -0.006 C 
ATOM     25  C   UNL     1      -1.842   1.882  -9.232  1.00  0.00     0.012 C 
ATOM     26  C   UNL     1      -4.641   0.862  -6.930  1.00  0.00    -0.063 C 
ATOM     27  C   UNL     1      -4.783   0.317  -9.325  1.00  0.00     0.013 C 
ATOM     28  C   UNL     1      -4.528   2.667  -8.854  1.00  0.00     0.017 C 
ATOM     29  C   UNL     1      -4.746  -0.727  -6.657  1.00  0.00     0.033 C 
ATOM     30  C   UNL     1      -5.792  -0.780  -8.898  1.00  0.00     0.020 C 
ATOM     31  C   UNL     1      -4.661  -1.518  -5.286  1.00  0.00     0.015 C 
ATOM     32  C   UNL     1      -4.610  -3.065  -5.347  1.00  0.00    -0.035 C 
ATOM     33  C   UNL     1      -6.073  -2.741  -7.450  1.00  0.00     0.020 C 
ATOM     34  C   UNL     1      -5.771  -3.569  -6.210  1.00  0.00     0.007 C 
ATOM     35  C   UNL     1      -4.814  -3.631  -3.918  1.00  0.00     0.011 C 
ATOM     36  C   UNL     1      -3.242  -3.595  -5.815  1.00  0.00     0.011 C 
BRANCH   9  37
ATOM     37  C   UNL     1       3.349   0.479  -3.620  1.00  0.00     0.309 C 
ATOM     38  O   UNL     1       3.989   0.818  -4.606  1.00  0.00    -0.252 OA
BRANCH  37  39
ATOM     39  O   UNL     1       3.840  -0.424  -2.720  1.00  0.00    -0.469 OA
ATOM     40  C   UNL     1       5.033  -1.076  -3.177  1.00  0.00     0.282 C 
ENDBRANCH  37  39
ENDBRANCH   9  37
ENDBRANCH   6   8
ENDBRANCH   5   6
ENDBRANCH   4   5
ENDBRANCH   3   4
ENDBRANCH   2   3
ENDBRANCH   1   2
BRANCH   1  41
ATOM     41  C   UNL     1      -4.016  -0.274  -1.755  1.00  0.00     0.188 C 
BRANCH  41  42
ATOM     42  O   UNL     1      -3.575   0.537  -0.686  1.00  0.00    -0.376 OA
BRANCH  42  43
ATOM     43  C   UNL     1      -3.020   1.812  -1.013  1.00  0.00     0.202 C 
BRANCH  43  44
ATOM     44  C   UNL     1      -1.510   1.879  -1.371  1.00  0.00     0.261 C 
BRANCH  44  45
ATOM     45  O   UNL     1      -1.146   2.133  -2.789  1.00  0.00    -0.460 OA
BRANCH  45  46
ATOM     46  C   UNL     1      -0.242   1.209  -3.600  1.00  0.00     0.338 C 
ATOM     47  O   UNL     1      -0.348   0.222  -2.912  1.00  0.00    -0.246 OA
BRANCH  46  48
ATOM     48  C   UNL     1       0.973   1.771  -5.205  1.00  0.00     0.060 A 
ATOM     49  C   UNL     1       0.706   1.748  -6.614  1.00  0.00     0.016 A 
ATOM     50  C   UNL     1       2.234   2.568  -5.272  1.00  0.00     0.016 A 
ATOM     51  C   UNL     1       1.502   1.942  -7.741  1.00  0.00     0.010 A 
ATOM     52  C   UNL     1       2.959   3.099  -6.401  1.00  0.00     0.010 A 
ATOM     53  C   UNL     1       2.580   2.749  -7.663  1.00  0.00    -0.014 A 
BRANCH  53  54
ATOM     54  C   UNL     1       3.233   3.038  -8.935  1.00  0.00     0.031 A 
ATOM     55  C   UNL     1       4.557   2.413  -9.175  1.00  0.00     0.074 A 
ATOM     56  C   UNL     1       2.505   3.608  -9.919  1.00  0.00     0.049 A 
ATOM     57  N   UNL     1       5.378   2.607 -10.163  1.00  0.00    -0.248 NA
ATOM     58  C   UNL     1       5.028   1.444  -8.169  1.00  0.00     0.031 C 
ATOM     59  C   UNL     1       1.106   4.050  -9.788  1.00  0.00     0.029 A 
ATOM     60  N   UNL     1       2.782   3.828 -11.238  1.00  0.00    -0.354 N 
ATOM     61  C   UNL     1       6.516   1.890  -9.833  1.00  0.00     0.074 A 
ATOM     62  C   UNL     1       6.252   1.187  -8.600  1.00  0.00     0.031 C 
ATOM     63  C   UNL     1       0.626   4.383 -10.994  1.00  0.00     0.029 A 
ATOM     64  C   UNL     1       1.724   4.352 -11.946  1.00  0.00     0.049 A 
ATOM     65  H   UNL     1       3.657   3.631 -11.645  1.00  0.00     0.167 HD
ATOM     66  C   UNL     1       7.689   1.909 -10.498  1.00  0.00     0.037 A 
ATOM     67  C   UNL     1       1.688   4.826 -13.205  1.00  0.00     0.037 A 
ATOM     68  C   UNL     1       7.840   2.610 -11.744  1.00  0.00     0.049 A 
ATOM     69  C   UNL     1       3.005   4.828 -13.935  1.00  0.00     0.074 A 
ATOM     70  C   UNL     1       8.976   2.831 -12.493  1.00  0.00     0.029 A 
ATOM     71  N   UNL     1       6.778   3.196 -12.432  1.00  0.00    -0.354 N 
ATOM     72  N   UNL     1       4.159   4.333 -13.547  1.00  0.00    -0.248 NA
ATOM     73  C   UNL     1       3.044   5.502 -15.234  1.00  0.00     0.031 C 
ATOM     74  C   UNL     1       8.605   3.580 -13.618  1.00  0.00     0.029 A 
ATOM     75  C   UNL     1       7.230   3.778 -13.599  1.00  0.00     0.049 A 
ATOM     76  H   UNL     1       5.841   3.194 -12.129  1.00  0.00     0.167 HD
ATOM     77  C   UNL     1       5.069   4.654 -14.537  1.00  0.00     0.074 A 
ATOM     78  C   UNL     1       4.316   5.341 -15.572  1.00  0.00     0.031 C 
ATOM     79  C   UNL     1       6.408   4.438 -14.586  1.00  0.00     0.037 A 
BRANCH  66  80
ATOM     80  C   UNL     1       8.869   1.308  -9.800  1.00  0.00     0.064 A 
ATOM     81  C   UNL     1       9.017  -0.073  -9.604  1.00  0.00     0.173 A 
ATOM     82  C   UNL     1       9.834   2.155  -9.231  1.00  0.00     0.173 A 
ATOM     83  F   UNL     1       8.099  -0.925 -10.085  1.00  0.00    -0.203 F 
ATOM     84  C   UNL     1      10.068  -0.579  -8.841  1.00  0.00     0.198 A 
ATOM     85  C   UNL     1      10.899   1.645  -8.494  1.00  0.00     0.198 A 
ATOM     86  F   UNL     1       9.729   3.486  -9.366  1.00  0.00    -0.203 F 
ATOM     87  F   UNL     1      10.150  -1.896  -8.605  1.00  0.00    -0.200 F 
ATOM     88  C   UNL     1      11.009   0.279  -8.290  1.00  0.00     0.200 A 
ATOM     89  F   UNL     1      11.803   2.478  -7.961  1.00  0.00    -0.200 F 
ATOM     90  F   UNL     1      12.012  -0.209  -7.546  1.00  0.00    -0.200 F 
ENDBRANCH  66  80
BRANCH  67  91
ATOM     91  C   UNL     1       0.453   5.444 -13.772  1.00  0.00     0.064 A 
ATOM     92  C   UNL     1      -0.137   4.963 -14.949  1.00  0.00     0.173 A 
ATOM     93  C   UNL     1      -0.165   6.548 -13.156  1.00  0.00     0.173 A 
ATOM     94  F   UNL     1       0.415   3.928 -15.600  1.00  0.00    -0.203 F 
ATOM     95  C   UNL     1      -1.277   5.563 -15.491  1.00  0.00     0.198 A 
ATOM     96  C   UNL     1      -1.329   7.118 -13.671  1.00  0.00     0.198 A 
ATOM     97  F   UNL     1       0.351   7.072 -12.035  1.00  0.00    -0.203 F 
ATOM     98  F   UNL     1      -1.784   5.113 -16.646  1.00  0.00    -0.200 F 
ATOM     99  C   UNL     1      -1.878   6.633 -14.845  1.00  0.00     0.200 A 
ATOM    100  F   UNL     1      -1.914   8.137 -13.027  1.00  0.00    -0.200 F 
ATOM    101  F   UNL     1      -2.977   7.201 -15.359  1.00  0.00    -0.200 F 
ENDBRANCH  67  91
BRANCH  79 102
ATOM    102  C   UNL     1       7.106   4.928 -15.812  1.00  0.00     0.064 A 
ATOM    103  C   UNL     1       7.356   6.292 -16.014  1.00  0.00     0.173 A 
ATOM    104  C   UNL     1       7.568   4.013 -16.767  1.00  0.00     0.173 A 
ATOM    105  F   UNL     1       6.912   7.200 -15.131  1.00  0.00    -0.203 F 
ATOM    106  C   UNL     1       8.030   6.726 -17.149  1.00  0.00     0.198 A 
ATOM    107  C   UNL     1       8.268   4.449 -17.884  1.00  0.00     0.198 A 
ATOM    108  F   UNL     1       7.351   2.699 -16.605  1.00  0.00    -0.203 F 
ATOM    109  F   UNL     1       8.222   8.037 -17.351  1.00  0.00    -0.200 F 
ATOM    110  C   UNL     1       8.493   5.804 -18.077  1.00  0.00     0.200 A 
ATOM    111  F   UNL     1       8.726   3.557 -18.773  1.00  0.00    -0.200 F 
ATOM    112  F   UNL     1       9.151   6.223 -19.166  1.00  0.00    -0.200 F 
ENDBRANCH  79 102
ENDBRANCH  53  54
ENDBRANCH  46  48
ENDBRANCH  45  46
ENDBRANCH  44  45
ENDBRANCH  43  44
ENDBRANCH  42  43
ENDBRANCH  41  42
ENDBRANCH   1  41
TORSDOF 19
