REMARK SMILES NC(=O)C1CC[NH+](CC[C@H]2CN(C(=O)c3ccccc3)CC[C@H]2CC(=O)OCCOCCOCCOC(=O)c2ccc(-c3c4nc(c(-c5c(F)c(F)c(F)c(F)c5F)c5ccc([nH]5)c(-c5c(F)c(F)c(F)c(F)c5F)c5nc(c(-c6c(F)c(F)c(F)c(F)c6F)c6ccc3[nH]6)C=C5)C=C4)cc2)CC1
REMARK SMILES IDX 30 1 29 2 28 3 27 4 25 5 26 6 24 7 23 8 10 9 11 10 12 11
REMARK SMILES IDX 22 12 21 13 9 14 8 15 7 16 4 17 5 18 103 19 6 20 102 21 2 23
REMARK SMILES IDX 1 24 3 27 13 28 14 29 15 30 16 31 20 32 17 33 19 34 18 35
REMARK SMILES IDX 31 36 32 37 33 38 34 39 35 40 36 41 37 42 38 43 39 44 40 45
REMARK SMILES IDX 101 46 41 47 100 48 42 49 43 50 44 51 94 52 45 53 99 54
REMARK SMILES IDX 93 55 95 56 46 57 98 58 92 59 91 60 47 62 79 63 59 64 78 65
REMARK SMILES IDX 60 66 63 67 77 68 96 69 61 70 62 71 76 73 97 74 64 75 48 76
REMARK SMILES IDX 49 77 57 78 50 79 51 80 55 81 58 82 52 83 53 84 56 85 54 86
REMARK SMILES IDX 80 87 81 88 89 89 82 90 83 91 87 92 90 93 84 94 85 95 88 96
REMARK SMILES IDX 86 97 65 98 66 99 74 100 67 101 68 102 72 103 75 104 69 105
REMARK SMILES IDX 70 106 73 107 71 108
REMARK H PARENT 7 22 1 25 1 26 95 61 63 72
REMARK Flexibility Score: inf
ROOT
ATOM      1  O   UNL     1      -3.349   1.462  -7.657  1.00  0.00    -0.376 OA
ENDROOT
BRANCH   1   2
ATOM      2  C   UNL     1      -2.798   0.351  -6.956  1.00  0.00     0.202 C 
BRANCH   2   3
ATOM      3  C   UNL     1      -1.307   0.414  -6.594  1.00  0.00     0.261 C 
BRANCH   3   4
ATOM      4  O   UNL     1      -0.863   1.654  -6.001  1.00  0.00    -0.463 OA
BRANCH   4   5
ATOM      5  C   UNL     1       0.014   2.367  -6.751  1.00  0.00     0.306 C 
ATOM      6  O   UNL     1       0.410   2.030  -7.864  1.00  0.00    -0.252 OA
BRANCH   5   7
ATOM      7  C   UNL     1       0.533   3.644  -6.120  1.00  0.00     0.126 C 
BRANCH   7   8
ATOM      8  C   UNL     1      -0.043   4.299  -4.851  1.00  0.00     0.007 C 
ATOM      9  C   UNL     1      -0.191   3.430  -3.553  1.00  0.00     0.018 C 
ATOM     10  C   UNL     1      -0.513   4.389  -2.377  1.00  0.00     0.124 C 
ATOM     11  N   UNL     1       0.466   5.463  -2.231  1.00  0.00    -0.338 N 
ATOM     12  C   UNL     1       0.788   5.606  -4.620  1.00  0.00     0.026 C 
ATOM     13  C   UNL     1       0.466   6.380  -3.347  1.00  0.00     0.120 C 
BRANCH   9  14
ATOM     14  C   UNL     1       0.794   2.214  -3.388  1.00  0.00     0.067 C 
BRANCH  14  15
ATOM     15  C   UNL     1       2.103   2.240  -2.569  1.00  0.00     0.262 C 
BRANCH  15  16
ATOM     16  N   UNL     1       2.106   1.766  -1.176  1.00  0.00    -0.335 N 
ATOM     17  C   UNL     1       1.490   0.502   1.406  1.00  0.00     0.089 C 
ATOM     18  C   UNL     1       1.046   1.905   1.023  1.00  0.00     0.075 C 
ATOM     19  C   UNL     1       2.765   0.175   0.606  1.00  0.00     0.075 C 
ATOM     20  C   UNL     1       0.843   1.932  -0.481  1.00  0.00     0.263 C 
ATOM     21  C   UNL     1       2.647   0.433  -0.918  1.00  0.00     0.263 C 
ATOM     22  H   UNL     1       2.789   2.413  -0.781  1.00  0.00     0.348 HD
BRANCH  17  23
ATOM     23  C   UNL     1       0.285  -0.423   1.217  1.00  0.00     0.220 C 
ATOM     24  N   UNL     1       0.499  -1.668   0.728  1.00  0.00    -0.369 N 
ATOM     25  H   UNL     1      -0.259  -2.282   0.598  1.00  0.00     0.159 HD
ATOM     26  H   UNL     1       1.412  -1.958   0.503  1.00  0.00     0.159 HD
ATOM     27  O   UNL     1      -0.865  -0.096   1.509  1.00  0.00    -0.275 OA
ENDBRANCH  17  23
ENDBRANCH  15  16
ENDBRANCH  14  15
ENDBRANCH   9  14
BRANCH  11  28
ATOM     28  C   UNL     1       1.258   5.564  -1.094  1.00  0.00     0.253 C 
ATOM     29  O   UNL     1       1.217   4.785  -0.146  1.00  0.00    -0.269 OA
BRANCH  28  30
ATOM     30  C   UNL     1       2.171   6.691  -0.856  1.00  0.00     0.040 A 
ATOM     31  C   UNL     1       3.551   6.527  -1.025  1.00  0.00     0.014 A 
ATOM     32  C   UNL     1       1.677   7.709  -0.033  1.00  0.00     0.014 A 
ATOM     33  C   UNL     1       4.433   7.384  -0.358  1.00  0.00     0.001 A 
ATOM     34  C   UNL     1       2.561   8.550   0.641  1.00  0.00     0.001 A 
ATOM     35  C   UNL     1       3.937   8.380   0.487  1.00  0.00     0.000 A 
ENDBRANCH  28  30
ENDBRANCH  11  28
ENDBRANCH   7   8
ENDBRANCH   5   7
ENDBRANCH   4   5
ENDBRANCH   3   4
ENDBRANCH   2   3
ENDBRANCH   1   2
BRANCH   1  36
ATOM     36  C   UNL     1      -3.350   2.705  -6.974  1.00  0.00     0.188 C 
BRANCH  36  37
ATOM     37  C   UNL     1      -4.091   2.785  -5.639  1.00  0.00     0.188 C 
BRANCH  37  38
ATOM     38  O   UNL     1      -3.943   1.698  -4.738  1.00  0.00    -0.376 OA
BRANCH  38  39
ATOM     39  C   UNL     1      -4.565   1.891  -3.457  1.00  0.00     0.202 C 
BRANCH  39  40
ATOM     40  C   UNL     1      -6.082   2.183  -3.479  1.00  0.00     0.261 C 
BRANCH  40  41
ATOM     41  O   UNL     1      -6.463   3.406  -4.150  1.00  0.00    -0.460 OA
BRANCH  41  42
ATOM     42  C   UNL     1      -5.867   4.556  -3.761  1.00  0.00     0.338 C 
ATOM     43  O   UNL     1      -5.225   4.734  -2.739  1.00  0.00    -0.246 OA
BRANCH  42  44
ATOM     44  C   UNL     1      -5.857   5.492  -4.921  1.00  0.00     0.060 A 
ATOM     45  C   UNL     1      -4.704   6.263  -5.139  1.00  0.00     0.016 A 
ATOM     46  C   UNL     1      -6.906   5.542  -5.844  1.00  0.00     0.016 A 
ATOM     47  C   UNL     1      -4.608   7.096  -6.258  1.00  0.00     0.010 A 
ATOM     48  C   UNL     1      -6.816   6.388  -6.956  1.00  0.00     0.010 A 
ATOM     49  C   UNL     1      -5.678   7.188  -7.158  1.00  0.00    -0.014 A 
BRANCH  49  50
ATOM     50  C   UNL     1      -5.701   8.253  -8.193  1.00  0.00     0.031 A 
ATOM     51  C   UNL     1      -6.418   9.536  -7.875  1.00  0.00     0.074 A 
ATOM     52  C   UNL     1      -5.106   8.106  -9.390  1.00  0.00     0.049 A 
ATOM     53  N   UNL     1      -6.639  10.581  -8.632  1.00  0.00    -0.248 NA
ATOM     54  C   UNL     1      -6.959   9.652  -6.512  1.00  0.00     0.031 C 
ATOM     55  C   UNL     1      -4.329   6.946  -9.816  1.00  0.00     0.029 A 
ATOM     56  N   UNL     1      -5.076   8.950 -10.475  1.00  0.00    -0.354 N 
ATOM     57  C   UNL     1      -7.344  11.475  -7.839  1.00  0.00     0.074 A 
ATOM     58  C   UNL     1      -7.542  10.839  -6.554  1.00  0.00     0.031 C 
ATOM     59  C   UNL     1      -3.902   7.148 -11.076  1.00  0.00     0.029 A 
ATOM     60  C   UNL     1      -4.411   8.433 -11.559  1.00  0.00     0.049 A 
ATOM     61  H   UNL     1      -5.492   9.842 -10.475  1.00  0.00     0.167 HD
ATOM     62  C   UNL     1      -7.783  12.719  -8.146  1.00  0.00     0.037 A 
ATOM     63  C   UNL     1      -4.255   8.928 -12.804  1.00  0.00     0.037 A 
ATOM     64  C   UNL     1      -7.608  13.353  -9.425  1.00  0.00     0.049 A 
ATOM     65  C   UNL     1      -4.871  10.258 -13.167  1.00  0.00     0.074 A 
ATOM     66  C   UNL     1      -8.005  14.618  -9.823  1.00  0.00     0.029 A 
ATOM     67  N   UNL     1      -7.002  12.761 -10.523  1.00  0.00    -0.354 N 
ATOM     68  N   UNL     1      -5.516  11.110 -12.408  1.00  0.00    -0.248 NA
ATOM     69  C   UNL     1      -4.746  10.687 -14.570  1.00  0.00     0.031 C 
ATOM     70  C   UNL     1      -7.691  14.769 -11.178  1.00  0.00     0.029 A 
ATOM     71  C   UNL     1      -7.051  13.618 -11.610  1.00  0.00     0.049 A 
ATOM     72  H   UNL     1      -6.596  11.864 -10.528  1.00  0.00     0.167 HD
ATOM     73  C   UNL     1      -5.853  12.179 -13.230  1.00  0.00     0.074 A 
ATOM     74  C   UNL     1      -5.331  11.877 -14.546  1.00  0.00     0.031 C 
ATOM     75  C   UNL     1      -6.534  13.310 -12.920  1.00  0.00     0.037 A 
BRANCH  62  76
ATOM     76  C   UNL     1      -8.533  13.458  -7.078  1.00  0.00     0.064 A 
ATOM     77  C   UNL     1      -7.891  13.947  -5.931  1.00  0.00     0.173 A 
ATOM     78  C   UNL     1      -9.914  13.670  -7.200  1.00  0.00     0.173 A 
ATOM     79  F   UNL     1      -6.574  13.753  -5.759  1.00  0.00    -0.203 F 
ATOM     80  C   UNL     1      -8.611  14.589  -4.927  1.00  0.00     0.198 A 
ATOM     81  C   UNL     1     -10.625  14.339  -6.208  1.00  0.00     0.198 A 
ATOM     82  F   UNL     1     -10.575  13.223  -8.278  1.00  0.00    -0.203 F 
ATOM     83  F   UNL     1      -7.987  14.992  -3.811  1.00  0.00    -0.200 F 
ATOM     84  C   UNL     1      -9.976  14.788  -5.068  1.00  0.00     0.200 A 
ATOM     85  F   UNL     1     -11.943  14.539  -6.351  1.00  0.00    -0.200 F 
ATOM     86  F   UNL     1     -10.669  15.400  -4.098  1.00  0.00    -0.200 F 
ENDBRANCH  62  76
BRANCH  63  87
ATOM     87  C   UNL     1      -3.498   8.154 -13.823  1.00  0.00     0.064 A 
ATOM     88  C   UNL     1      -2.261   8.611 -14.300  1.00  0.00     0.173 A 
ATOM     89  C   UNL     1      -4.005   6.963 -14.362  1.00  0.00     0.173 A 
ATOM     90  F   UNL     1      -1.753   9.765 -13.843  1.00  0.00    -0.203 F 
ATOM     91  C   UNL     1      -1.563   7.909 -15.281  1.00  0.00     0.198 A 
ATOM     92  C   UNL     1      -3.294   6.248 -15.325  1.00  0.00     0.198 A 
ATOM     93  F   UNL     1      -5.192   6.492 -13.952  1.00  0.00    -0.203 F 
ATOM     94  F   UNL     1      -0.404   8.390 -15.749  1.00  0.00    -0.200 F 
ATOM     95  C   UNL     1      -2.077   6.724 -15.787  1.00  0.00     0.200 A 
ATOM     96  F   UNL     1      -3.793   5.103 -15.810  1.00  0.00    -0.200 F 
ATOM     97  F   UNL     1      -1.405   6.049 -16.729  1.00  0.00    -0.200 F 
ENDBRANCH  63  87
BRANCH  75  98
ATOM     98  C   UNL     1      -6.745  14.322 -14.011  1.00  0.00     0.064 A 
ATOM     99  C   UNL     1      -7.657  14.098 -15.053  1.00  0.00     0.173 A 
ATOM    100  C   UNL     1      -6.075  15.554 -13.981  1.00  0.00     0.173 A 
ATOM    101  F   UNL     1      -8.314  12.931 -15.136  1.00  0.00    -0.203 F 
ATOM    102  C   UNL     1      -7.879  15.064 -16.032  1.00  0.00     0.198 A 
ATOM    103  C   UNL     1      -6.319  16.529 -14.946  1.00  0.00     0.198 A 
ATOM    104  F   UNL     1      -5.197  15.823 -13.003  1.00  0.00    -0.203 F 
ATOM    105  F   UNL     1      -8.728  14.814 -17.038  1.00  0.00    -0.200 F 
ATOM    106  C   UNL     1      -7.217  16.281 -15.973  1.00  0.00     0.200 A 
ATOM    107  F   UNL     1      -5.689  17.710 -14.878  1.00  0.00    -0.200 F 
ATOM    108  F   UNL     1      -7.442  17.215 -16.908  1.00  0.00    -0.200 F 
ENDBRANCH  75  98
ENDBRANCH  49  50
ENDBRANCH  42  44
ENDBRANCH  41  42
ENDBRANCH  40  41
ENDBRANCH  39  40
ENDBRANCH  38  39
ENDBRANCH  37  38
ENDBRANCH  36  37
ENDBRANCH   1  36
TORSDOF 24
