REMARK SMILES Cc1ccc(S(=O)(=O)N2CCC(C(=O)N3CCC[C@@H](C(=O)OCCOCCOCCOC(=O)c4ccc(-c5c6nc(c(-c7c(F)c(F)c(F)c(F)c7F)c7ccc([nH]7)c(-c7c(F)c(F)c(F)c(F)c7F)c7nc(c(-c8c(F)c(F)c(F)c(F)c8F)c8ccc5[nH]8)C=C7)C=C6)cc4)C3)CC2)cc1
REMARK SMILES IDX 26 1 25 2 24 3 23 4 22 5 20 6 21 7 19 8 15 9 16 10 97 11
REMARK SMILES IDX 17 12 18 13 13 14 14 15 12 16 9 17 10 18 99 19 11 20 98 21
REMARK SMILES IDX 6 22 7 23 8 24 5 25 1 26 2 27 3 28 101 29 4 30 100 31 27 32
REMARK SMILES IDX 28 33 29 34 30 35 31 36 32 37 33 38 34 39 35 40 96 41 36 42
REMARK SMILES IDX 95 43 37 44 38 45 39 46 89 47 40 48 94 49 88 50 90 51 41 52
REMARK SMILES IDX 93 53 87 54 86 55 42 57 74 58 54 59 73 60 55 61 58 62 72 63
REMARK SMILES IDX 91 64 56 65 57 66 71 68 92 69 59 70 43 71 44 72 52 73 45 74
REMARK SMILES IDX 46 75 50 76 53 77 47 78 48 79 51 80 49 81 75 82 76 83 84 84
REMARK SMILES IDX 77 85 78 86 82 87 85 88 79 89 80 90 83 91 81 92 60 93 61 94
REMARK SMILES IDX 69 95 62 96 63 97 67 98 70 99 64 100 65 101 68 102 66 103
REMARK H PARENT 90 56 58 67
REMARK Flexibility Score: inf
ROOT
ATOM      1  C   UNL     1     -10.122   2.348   4.177  1.00  0.00     0.188 C 
ENDROOT
BRANCH   1   2
ATOM      2  O   UNL     1     -11.017   3.347   3.671  1.00  0.00    -0.376 OA
BRANCH   2   3
ATOM      3  C   UNL     1     -11.966   3.034   2.657  1.00  0.00     0.202 C 
BRANCH   3   4
ATOM      4  C   UNL     1     -11.993   3.824   1.266  1.00  0.00     0.261 C 
BRANCH   4   5
ATOM      5  O   UNL     1     -10.772   4.421   0.496  1.00  0.00    -0.463 OA
BRANCH   5   6
ATOM      6  C   UNL     1     -10.397   4.955  -0.814  1.00  0.00     0.310 C 
ATOM      7  O   UNL     1     -11.101   4.756  -1.797  1.00  0.00    -0.252 OA
BRANCH   6   8
ATOM      8  C   UNL     1      -8.960   6.032  -0.845  1.00  0.00     0.119 C 
ATOM      9  N   UNL     1      -6.307   6.240  -1.270  1.00  0.00    -0.342 N 
ATOM     10  C   UNL     1      -6.612   6.941  -2.487  1.00  0.00     0.119 C 
ATOM     11  C   UNL     1      -7.427   5.616  -0.564  1.00  0.00     0.134 C 
ATOM     12  C   UNL     1      -7.792   7.857  -2.274  1.00  0.00     0.022 C 
ATOM     13  C   UNL     1      -9.063   7.041  -2.012  1.00  0.00     0.019 C 
BRANCH   9  14
ATOM     14  C   UNL     1      -4.987   6.266  -0.808  1.00  0.00     0.225 C 
ATOM     15  O   UNL     1      -4.354   7.326  -0.759  1.00  0.00    -0.275 OA
BRANCH  14  16
ATOM     16  C   UNL     1      -4.225   4.944  -0.557  1.00  0.00     0.081 C 
ATOM     17  N   UNL     1      -3.804   2.108  -0.076  1.00  0.00    -0.198 NA
ATOM     18  C   UNL     1      -3.530   3.044   1.042  1.00  0.00     0.103 C 
ATOM     19  C   UNL     1      -3.686   2.663  -1.438  1.00  0.00     0.103 C 
ATOM     20  C   UNL     1      -4.224   4.412   0.874  1.00  0.00     0.030 C 
ATOM     21  C   UNL     1      -4.603   3.865  -1.566  1.00  0.00     0.030 C 
BRANCH  17  22
ATOM     22  S   UNL     1      -3.369   0.461   0.099  1.00  0.00     0.243 S 
ATOM     23  O   UNL     1      -3.924  -0.254  -0.999  1.00  0.00    -0.207 OA
ATOM     24  O   UNL     1      -3.678   0.090   1.486  1.00  0.00    -0.207 OA
BRANCH  22  25
ATOM     25  C   UNL     1      -1.594   0.313  -0.036  1.00  0.00     0.082 A 
ATOM     26  C   UNL     1       2.675  -0.287  -0.040  1.00  0.00     0.044 C 
ATOM     27  C   UNL     1       1.188  -0.082  -0.072  1.00  0.00    -0.051 A 
ATOM     28  C   UNL     1       0.322  -1.180  -0.012  1.00  0.00     0.005 A 
ATOM     29  C   UNL     1       0.649   1.205  -0.157  1.00  0.00     0.005 A 
ATOM     30  C   UNL     1      -1.063  -0.985   0.008  1.00  0.00     0.022 A 
ATOM     31  C   UNL     1      -0.735   1.403  -0.147  1.00  0.00     0.022 A 
ENDBRANCH  22  25
ENDBRANCH  17  22
ENDBRANCH  14  16
ENDBRANCH   9  14
ENDBRANCH   6   8
ENDBRANCH   5   6
ENDBRANCH   4   5
ENDBRANCH   3   4
ENDBRANCH   2   3
ENDBRANCH   1   2
BRANCH   1  32
ATOM     32  C   UNL     1     -10.068   0.990   3.522  1.00  0.00     0.188 C 
BRANCH  32  33
ATOM     33  O   UNL     1     -10.173   1.181   2.121  1.00  0.00    -0.376 OA
BRANCH  33  34
ATOM     34  C   UNL     1     -10.498   0.013   1.393  1.00  0.00     0.202 C 
BRANCH  34  35
ATOM     35  C   UNL     1      -9.286  -0.914   1.307  1.00  0.00     0.261 C 
BRANCH  35  36
ATOM     36  O   UNL     1      -8.160  -0.197   0.746  1.00  0.00    -0.460 OA
BRANCH  36  37
ATOM     37  C   UNL     1      -7.257   0.316   1.651  1.00  0.00     0.338 C 
ATOM     38  O   UNL     1      -6.739  -0.328   2.548  1.00  0.00    -0.246 OA
BRANCH  37  39
ATOM     39  C   UNL     1      -7.281   1.814   1.594  1.00  0.00     0.060 A 
ATOM     40  C   UNL     1      -6.980   2.702   2.635  1.00  0.00     0.016 A 
ATOM     41  C   UNL     1      -7.959   2.359   0.566  1.00  0.00     0.016 A 
ATOM     42  C   UNL     1      -7.609   4.030   2.743  1.00  0.00     0.010 A 
ATOM     43  C   UNL     1      -8.620   3.572   0.797  1.00  0.00     0.010 A 
ATOM     44  C   UNL     1      -8.632   4.492   1.897  1.00  0.00    -0.014 A 
BRANCH  44  45
ATOM     45  C   UNL     1      -9.702   5.804   2.282  1.00  0.00     0.031 A 
ATOM     46  C   UNL     1     -10.745   6.901   1.440  1.00  0.00     0.074 A 
ATOM     47  C   UNL     1      -9.988   5.928   3.597  1.00  0.00     0.049 A 
ATOM     48  N   UNL     1     -10.737   8.234   1.487  1.00  0.00    -0.248 NA
ATOM     49  C   UNL     1     -11.850   6.572   0.484  1.00  0.00     0.031 C 
ATOM     50  C   UNL     1     -11.179   6.539   4.186  1.00  0.00     0.029 A 
ATOM     51  N   UNL     1      -9.307   5.418   4.709  1.00  0.00    -0.354 N 
ATOM     52  C   UNL     1     -11.770   8.696   0.600  1.00  0.00     0.074 A 
ATOM     53  C   UNL     1     -12.001   7.629  -0.291  1.00  0.00     0.031 C 
ATOM     54  C   UNL     1     -11.026   6.595   5.520  1.00  0.00     0.029 A 
ATOM     55  C   UNL     1      -9.653   6.221   5.800  1.00  0.00     0.049 A 
ATOM     56  H   UNL     1      -8.701   4.642   4.721  1.00  0.00     0.167 HD
ATOM     57  C   UNL     1     -12.869   9.484   0.887  1.00  0.00     0.037 A 
ATOM     58  C   UNL     1      -8.713   6.976   6.434  1.00  0.00     0.037 A 
ATOM     59  C   UNL     1     -12.942   9.677   2.304  1.00  0.00     0.049 A 
ATOM     60  C   UNL     1      -9.099   8.427   6.407  1.00  0.00     0.074 A 
ATOM     61  C   UNL     1     -13.683   9.062   3.299  1.00  0.00     0.029 A 
ATOM     62  N   UNL     1     -11.942  10.391   2.908  1.00  0.00    -0.354 N 
ATOM     63  N   UNL     1      -9.914   8.919   5.514  1.00  0.00    -0.248 NA
ATOM     64  C   UNL     1      -8.687   9.420   7.391  1.00  0.00     0.031 C 
ATOM     65  C   UNL     1     -13.075   9.394   4.535  1.00  0.00     0.029 A 
ATOM     66  C   UNL     1     -11.997  10.220   4.267  1.00  0.00     0.049 A 
ATOM     67  H   UNL     1     -11.280  10.945   2.435  1.00  0.00     0.167 HD
ATOM     68  C   UNL     1     -10.189  10.216   5.817  1.00  0.00     0.074 A 
ATOM     69  C   UNL     1      -9.379  10.499   6.982  1.00  0.00     0.031 C 
ATOM     70  C   UNL     1     -11.060  10.954   5.080  1.00  0.00     0.037 A 
BRANCH  57  71
ATOM     71  C   UNL     1     -14.120   9.648  -0.039  1.00  0.00     0.064 A 
ATOM     72  C   UNL     1     -15.402   9.955   0.476  1.00  0.00     0.173 A 
ATOM     73  C   UNL     1     -14.104   9.497  -1.449  1.00  0.00     0.173 A 
ATOM     74  F   UNL     1     -15.576  10.268   1.765  1.00  0.00    -0.203 F 
ATOM     75  C   UNL     1     -16.564   9.973  -0.317  1.00  0.00     0.198 A 
ATOM     76  C   UNL     1     -15.273   9.442  -2.231  1.00  0.00     0.198 A 
ATOM     77  F   UNL     1     -12.944   9.402  -2.118  1.00  0.00    -0.203 F 
ATOM     78  F   UNL     1     -17.747  10.280   0.238  1.00  0.00    -0.200 F 
ATOM     79  C   UNL     1     -16.506   9.674  -1.662  1.00  0.00     0.200 A 
ATOM     80  F   UNL     1     -15.192   9.157  -3.540  1.00  0.00    -0.200 F 
ATOM     81  F   UNL     1     -17.621   9.645  -2.407  1.00  0.00    -0.200 F 
ENDBRANCH  57  71
BRANCH  58  82
ATOM     82  C   UNL     1      -7.351   6.363   6.371  1.00  0.00     0.064 A 
ATOM     83  C   UNL     1      -7.205   5.078   6.944  1.00  0.00     0.173 A 
ATOM     84  C   UNL     1      -6.393   6.748   5.422  1.00  0.00     0.173 A 
ATOM     85  F   UNL     1      -8.106   4.643   7.842  1.00  0.00    -0.203 F 
ATOM     86  C   UNL     1      -6.251   4.172   6.483  1.00  0.00     0.198 A 
ATOM     87  C   UNL     1      -5.410   5.845   4.987  1.00  0.00     0.198 A 
ATOM     88  F   UNL     1      -6.483   7.938   4.813  1.00  0.00    -0.203 F 
ATOM     89  F   UNL     1      -6.274   2.901   6.913  1.00  0.00    -0.200 F 
ATOM     90  C   UNL     1      -5.366   4.550   5.490  1.00  0.00     0.200 A 
ATOM     91  F   UNL     1      -4.594   6.176   3.975  1.00  0.00    -0.200 F 
ATOM     92  F   UNL     1      -4.544   3.642   4.943  1.00  0.00    -0.200 F 
ENDBRANCH  58  82
BRANCH  70  93
ATOM     93  C   UNL     1     -11.087  12.450   5.013  1.00  0.00     0.064 A 
ATOM     94  C   UNL     1      -9.933  13.222   5.205  1.00  0.00     0.173 A 
ATOM     95  C   UNL     1     -12.217  13.132   4.500  1.00  0.00     0.173 A 
ATOM     96  F   UNL     1      -8.769  12.658   5.555  1.00  0.00    -0.203 F 
ATOM     97  C   UNL     1      -9.924  14.592   4.964  1.00  0.00     0.198 A 
ATOM     98  C   UNL     1     -12.180  14.487   4.190  1.00  0.00     0.198 A 
ATOM     99  F   UNL     1     -13.365  12.490   4.231  1.00  0.00    -0.203 F 
ATOM    100  F   UNL     1      -8.808  15.293   5.201  1.00  0.00    -0.200 F 
ATOM    101  C   UNL     1     -11.039  15.221   4.443  1.00  0.00     0.200 A 
ATOM    102  F   UNL     1     -13.241  15.069   3.612  1.00  0.00    -0.200 F 
ATOM    103  F   UNL     1     -11.004  16.529   4.160  1.00  0.00    -0.200 F 
ENDBRANCH  70  93
ENDBRANCH  44  45
ENDBRANCH  37  39
ENDBRANCH  36  37
ENDBRANCH  35  36
ENDBRANCH  34  35
ENDBRANCH  33  34
ENDBRANCH  32  33
ENDBRANCH   1  32
TORSDOF 21
