REMARK SMILES Cc1coc2c(C)c3oc(=O)c(CC(=O)NCC(=O)N[C@H](C(=O)OCCOCCOCCOC(=O)c4ccc(-c5c6nc(c(-c7c(F)c(F)c(F)c(F)c7F)c7ccc([nH]7)c(-c7c(F)c(F)c(F)c(F)c7F)c7nc(c(-c8c(F)c(F)c(F)c(F)c8F)c8ccc5[nH]8)C=C7)C=C6)cc4)C(C)C)c(C)c3cc12
REMARK SMILES IDX 27 1 26 2 25 3 24 4 22 5 23 6 21 7 20 8 18 9 19 10 17 12
REMARK SMILES IDX 16 13 14 14 15 15 13 17 12 18 1 19 2 20 3 21 106 22 4 23
REMARK SMILES IDX 5 24 105 25 6 26 104 27 7 28 8 29 102 30 9 31 103 32 10 33
REMARK SMILES IDX 11 34 99 35 100 36 101 37 28 38 29 39 30 40 31 41 32 42
REMARK SMILES IDX 33 43 34 44 35 45 36 46 37 47 98 48 38 49 97 50 39 51 40 52
REMARK SMILES IDX 41 53 91 54 42 55 96 56 90 57 92 58 43 59 95 60 89 61 88 62
REMARK SMILES IDX 44 64 76 65 56 66 75 67 57 68 60 69 74 70 93 71 58 72 59 73
REMARK SMILES IDX 73 75 94 76 61 77 45 78 46 79 54 80 47 81 48 82 52 83 55 84
REMARK SMILES IDX 49 85 50 86 53 87 51 88 77 89 78 90 86 91 79 92 80 93 84 94
REMARK SMILES IDX 87 95 81 96 82 97 85 98 83 99 62 100 63 101 71 102 64 103
REMARK SMILES IDX 65 104 69 105 72 106 66 107 67 108 70 109 68 110
REMARK H PARENT 20 11 16 16 92 63 60 74
REMARK Flexibility Score: inf
ROOT
ATOM      1  O   UNL     1      -2.630   8.338   2.210  1.00  0.00    -0.376 OA
ENDROOT
BRANCH   1   2
ATOM      2  C   UNL     1      -2.731   7.973   3.610  1.00  0.00     0.202 C 
BRANCH   2   3
ATOM      3  C   UNL     1      -2.613   6.298   4.269  1.00  0.00     0.261 C 
BRANCH   3   4
ATOM      4  O   UNL     1      -1.392   5.065   3.895  1.00  0.00    -0.462 OA
BRANCH   4   5
ATOM      5  C   UNL     1      -0.860   4.167   2.866  1.00  0.00     0.328 C 
ATOM      6  O   UNL     1      -1.540   3.285   2.349  1.00  0.00    -0.250 OA
BRANCH   5   7
ATOM      7  C   UNL     1       0.887   4.251   2.550  1.00  0.00     0.194 C 
BRANCH   7   8
ATOM      8  N   UNL     1       1.264   3.276   3.557  1.00  0.00    -0.341 N 
ATOM      9  C   UNL     1       1.073   3.399   4.902  1.00  0.00     0.240 C 
ATOM     10  O   UNL     1       0.817   2.359   5.516  1.00  0.00    -0.273 OA
ATOM     11  H   UNL     1       1.696   2.450   3.240  1.00  0.00     0.164 HD
BRANCH   9  12
ATOM     12  C   UNL     1       0.976   4.766   5.612  1.00  0.00     0.216 C 
BRANCH  12  13
ATOM     13  N   UNL     1       1.733   5.887   5.053  1.00  0.00    -0.347 N 
ATOM     14  C   UNL     1       1.388   6.901   4.192  1.00  0.00     0.225 C 
ATOM     15  O   UNL     1       2.251   7.734   3.927  1.00  0.00    -0.275 OA
ATOM     16  H   UNL     1       2.671   5.921   5.351  1.00  0.00     0.164 HD
BRANCH  14  17
ATOM     17  C   UNL     1      -0.068   6.999   3.646  1.00  0.00     0.143 C 
BRANCH  17  18
ATOM     18  C   UNL     1      -0.719   6.587   2.047  1.00  0.00     0.051 A 
ATOM     19  C   UNL     1       1.299   5.251  -4.304  1.00  0.00     0.048 C 
ATOM     20  C   UNL     1       0.055   4.655  -3.777  1.00  0.00    -0.005 A 
ATOM     21  C   UNL     1      -0.859   3.760  -4.285  1.00  0.00     0.199 A 
ATOM     22  C   UNL     1      -0.403   4.977  -2.488  1.00  0.00     0.024 A 
ATOM     23  O   UNL     1      -1.846   3.507  -3.370  1.00  0.00    -0.464 OA
ATOM     24  C   UNL     1      -1.576   4.277  -2.273  1.00  0.00     0.140 A 
ATOM     25  C   UNL     1       0.154   5.801  -1.496  1.00  0.00     0.024 A 
ATOM     26  C   UNL     1      -2.316   4.408  -1.109  1.00  0.00     0.036 A 
ATOM     27  C   UNL     1      -0.501   6.008  -0.316  1.00  0.00     0.022 A 
ATOM     28  C   UNL     1      -3.440   3.495  -0.705  1.00  0.00     0.052 C 
ATOM     29  C   UNL     1      -1.779   5.440  -0.285  1.00  0.00     0.145 A 
ATOM     30  C   UNL     1       0.032   6.688   0.922  1.00  0.00    -0.029 A 
ATOM     31  O   UNL     1      -2.643   6.286   0.356  1.00  0.00    -0.422 OA
ATOM     32  C   UNL     1       1.405   7.326   0.990  1.00  0.00     0.046 C 
ATOM     33  C   UNL     1      -2.281   6.017   1.626  1.00  0.00     0.340 A 
ATOM     34  O   UNL     1      -3.157   5.460   2.267  1.00  0.00    -0.246 OA
ENDBRANCH  17  18
ENDBRANCH  14  17
ENDBRANCH  12  13
ENDBRANCH   9  12
ENDBRANCH   7   8
BRANCH   7  35
ATOM     35  C   UNL     1       1.677   3.921   1.044  1.00  0.00     0.017 C 
ATOM     36  C   UNL     1       2.614   4.899   0.159  1.00  0.00     0.010 C 
ATOM     37  C   UNL     1       2.784   2.857   1.175  1.00  0.00     0.010 C 
ENDBRANCH   7  35
ENDBRANCH   5   7
ENDBRANCH   4   5
ENDBRANCH   3   4
ENDBRANCH   2   3
ENDBRANCH   1   2
BRANCH   1  38
ATOM     38  C   UNL     1      -1.728   9.302   1.609  1.00  0.00     0.188 C 
BRANCH  38  39
ATOM     39  C   UNL     1      -0.358   9.580   2.205  1.00  0.00     0.188 C 
BRANCH  39  40
ATOM     40  O   UNL     1      -0.169  10.095   3.501  1.00  0.00    -0.376 OA
BRANCH  40  41
ATOM     41  C   UNL     1      -0.965  11.197   3.829  1.00  0.00     0.202 C 
BRANCH  41  42
ATOM     42  C   UNL     1      -0.380  12.487   3.293  1.00  0.00     0.261 C 
BRANCH  42  43
ATOM     43  O   UNL     1       0.027  12.334   1.940  1.00  0.00    -0.460 OA
BRANCH  43  44
ATOM     44  C   UNL     1       1.309  11.916   1.685  1.00  0.00     0.338 C 
ATOM     45  O   UNL     1       2.219  11.770   2.446  1.00  0.00    -0.246 OA
BRANCH  44  46
ATOM     46  C   UNL     1       1.341  11.627   0.214  1.00  0.00     0.060 A 
ATOM     47  C   UNL     1       2.585  11.646  -0.383  1.00  0.00     0.016 A 
ATOM     48  C   UNL     1       0.271  12.114  -0.504  1.00  0.00     0.016 A 
ATOM     49  C   UNL     1       2.868  12.780  -1.124  1.00  0.00     0.010 A 
ATOM     50  C   UNL     1       0.570  13.120  -1.370  1.00  0.00     0.010 A 
ATOM     51  C   UNL     1       1.833  13.697  -1.370  1.00  0.00    -0.014 A 
BRANCH  51  52
ATOM     52  C   UNL     1       1.992  14.914  -2.185  1.00  0.00     0.031 A 
ATOM     53  C   UNL     1       2.252  14.377  -3.571  1.00  0.00     0.074 A 
ATOM     54  C   UNL     1       1.898  16.224  -1.756  1.00  0.00     0.049 A 
ATOM     55  N   UNL     1       3.441  14.072  -3.989  1.00  0.00    -0.248 NA
ATOM     56  C   UNL     1       1.214  13.684  -4.381  1.00  0.00     0.031 C 
ATOM     57  C   UNL     1       1.602  16.819  -0.426  1.00  0.00     0.029 A 
ATOM     58  N   UNL     1       2.121  17.398  -2.483  1.00  0.00    -0.354 N 
ATOM     59  C   UNL     1       3.273  13.559  -5.269  1.00  0.00     0.074 A 
ATOM     60  C   UNL     1       1.946  13.042  -5.300  1.00  0.00     0.031 C 
ATOM     61  C   UNL     1       1.391  18.169  -0.516  1.00  0.00     0.029 A 
ATOM     62  C   UNL     1       1.649  18.614  -1.876  1.00  0.00     0.049 A 
ATOM     63  H   UNL     1       2.573  17.392  -3.357  1.00  0.00     0.167 HD
ATOM     64  C   UNL     1       4.049  14.078  -6.261  1.00  0.00     0.037 A 
ATOM     65  C   UNL     1       1.747  19.906  -2.374  1.00  0.00     0.037 A 
ATOM     66  C   UNL     1       5.174  14.755  -5.650  1.00  0.00     0.049 A 
ATOM     67  C   UNL     1       2.793  19.838  -3.420  1.00  0.00     0.074 A 
ATOM     68  C   UNL     1       6.277  14.368  -4.918  1.00  0.00     0.029 A 
ATOM     69  N   UNL     1       4.848  16.023  -5.244  1.00  0.00    -0.354 N 
ATOM     70  N   UNL     1       4.046  19.643  -3.126  1.00  0.00    -0.248 NA
ATOM     71  C   UNL     1       2.340  19.388  -4.725  1.00  0.00     0.031 C 
ATOM     72  C   UNL     1       6.481  15.391  -3.941  1.00  0.00     0.029 A 
ATOM     73  C   UNL     1       5.622  16.451  -4.211  1.00  0.00     0.049 A 
ATOM     74  H   UNL     1       4.134  16.563  -5.654  1.00  0.00     0.167 HD
ATOM     75  C   UNL     1       4.416  18.615  -3.974  1.00  0.00     0.074 A 
ATOM     76  C   UNL     1       3.337  18.534  -4.975  1.00  0.00     0.031 C 
ATOM     77  C   UNL     1       5.357  17.709  -3.568  1.00  0.00     0.037 A 
BRANCH  64  78
ATOM     78  C   UNL     1       3.526  14.530  -7.617  1.00  0.00     0.064 A 
ATOM     79  C   UNL     1       4.455  15.073  -8.529  1.00  0.00     0.173 A 
ATOM     80  C   UNL     1       2.168  14.737  -7.956  1.00  0.00     0.173 A 
ATOM     81  F   UNL     1       5.773  14.963  -8.302  1.00  0.00    -0.203 F 
ATOM     82  C   UNL     1       4.060  15.808  -9.650  1.00  0.00     0.198 A 
ATOM     83  C   UNL     1       1.776  15.436  -9.100  1.00  0.00     0.198 A 
ATOM     84  F   UNL     1       1.158  14.366  -7.163  1.00  0.00    -0.203 F 
ATOM     85  F   UNL     1       4.986  16.387 -10.426  1.00  0.00    -0.200 F 
ATOM     86  C   UNL     1       2.720  15.990  -9.936  1.00  0.00     0.200 A 
ATOM     87  F   UNL     1       0.471  15.623  -9.343  1.00  0.00    -0.200 F 
ATOM     88  F   UNL     1       2.338  16.723 -10.989  1.00  0.00    -0.200 F 
ENDBRANCH  64  78
BRANCH  65  89
ATOM     89  C   UNL     1       0.754  21.052  -2.472  1.00  0.00     0.064 A 
ATOM     90  C   UNL     1       1.082  22.343  -2.983  1.00  0.00     0.173 A 
ATOM     91  C   UNL     1      -0.618  20.776  -2.411  1.00  0.00     0.173 A 
ATOM     92  F   UNL     1       2.364  22.714  -3.126  1.00  0.00    -0.203 F 
ATOM     93  C   UNL     1       0.101  23.255  -3.433  1.00  0.00     0.198 A 
ATOM     94  C   UNL     1      -1.591  21.675  -2.878  1.00  0.00     0.198 A 
ATOM     95  F   UNL     1      -1.035  19.576  -1.990  1.00  0.00    -0.203 F 
ATOM     96  F   UNL     1       0.453  24.441  -3.955  1.00  0.00    -0.200 F 
ATOM     97  C   UNL     1      -1.236  22.905  -3.402  1.00  0.00     0.200 A 
ATOM     98  F   UNL     1      -2.880  21.305  -2.881  1.00  0.00    -0.200 F 
ATOM     99  F   UNL     1      -2.172  23.724  -3.907  1.00  0.00    -0.200 F 
ENDBRANCH  65  89
BRANCH  77 100
ATOM    100  C   UNL     1       6.183  18.028  -2.355  1.00  0.00     0.064 A 
ATOM    101  C   UNL     1       5.759  17.940  -1.017  1.00  0.00     0.173 A 
ATOM    102  C   UNL     1       7.539  18.277  -2.586  1.00  0.00     0.173 A 
ATOM    103  F   UNL     1       4.500  17.600  -0.713  1.00  0.00    -0.203 F 
ATOM    104  C   UNL     1       6.658  18.136   0.037  1.00  0.00     0.198 A 
ATOM    105  C   UNL     1       8.437  18.434  -1.540  1.00  0.00     0.198 A 
ATOM    106  F   UNL     1       8.004  18.295  -3.845  1.00  0.00    -0.203 F 
ATOM    107  F   UNL     1       6.241  18.047   1.310  1.00  0.00    -0.200 F 
ATOM    108  C   UNL     1       7.997  18.381  -0.229  1.00  0.00     0.200 A 
ATOM    109  F   UNL     1       9.739  18.596  -1.809  1.00  0.00    -0.200 F 
ATOM    110  F   UNL     1       8.870  18.536   0.777  1.00  0.00    -0.200 F 
ENDBRANCH  77 100
ENDBRANCH  51  52
ENDBRANCH  44  46
ENDBRANCH  43  44
ENDBRANCH  42  43
ENDBRANCH  41  42
ENDBRANCH  40  41
ENDBRANCH  39  40
ENDBRANCH  38  39
ENDBRANCH   1  38
TORSDOF 23
