REMARK SMILES CCOC(=O)C1=NN(c2cc(F)cc(F)c2)[C@@H](C(=O)OCCOCCOCCOC(=O)c2ccc(-c3c4nc(c(-c5c(F)c(F)c(F)c(F)c5F)c5ccc([nH]5)c(-c5c(F)c(F)c(F)c(F)c5F)c5nc(c(-c6c(F)c(F)c(F)c(F)c6F)c6ccc3[nH]6)C=C5)C=C4)cc2)C1
REMARK SMILES IDX 24 1 23 2 22 3 21 4 20 5 18 6 19 7 17 8 6 9 7 10 95 11 8 12
REMARK SMILES IDX 4 13 5 14 3 15 2 16 1 17 9 18 10 19 16 20 11 21 14 22 12 23
REMARK SMILES IDX 13 24 15 25 25 26 26 27 27 28 28 29 29 30 30 31 31 32 32 33
REMARK SMILES IDX 33 34 94 35 34 36 93 37 35 38 36 39 37 40 87 41 38 42 92 43
REMARK SMILES IDX 86 44 88 45 39 46 91 47 85 48 84 49 40 51 72 52 52 53 71 54
REMARK SMILES IDX 53 55 56 56 70 57 89 58 54 59 55 60 69 62 90 63 57 64 41 65
REMARK SMILES IDX 42 66 50 67 43 68 44 69 48 70 51 71 45 72 46 73 49 74 47 75
REMARK SMILES IDX 73 76 74 77 82 78 75 79 76 80 80 81 83 82 77 83 78 84 81 85
REMARK SMILES IDX 79 86 58 87 59 88 67 89 60 90 61 91 65 92 68 93 62 94 63 95
REMARK SMILES IDX 66 96 64 97
REMARK H PARENT 88 50 56 61
REMARK Flexibility Score: inf
ROOT
ATOM      1  C   UNL     1       3.026  -4.212   8.196  1.00  0.00     0.188 C 
ENDROOT
BRANCH   1   2
ATOM      2  O   UNL     1       2.061  -3.882   9.190  1.00  0.00    -0.376 OA
BRANCH   2   3
ATOM      3  C   UNL     1       0.670  -3.916   8.874  1.00  0.00     0.202 C 
BRANCH   3   4
ATOM      4  C   UNL     1       0.154  -3.217   7.604  1.00  0.00     0.261 C 
BRANCH   4   5
ATOM      5  O   UNL     1       0.952  -3.495   6.446  1.00  0.00    -0.462 OA
BRANCH   5   6
ATOM      6  C   UNL     1       1.431  -2.410   5.769  1.00  0.00     0.331 C 
ATOM      7  O   UNL     1       1.020  -1.267   5.910  1.00  0.00    -0.250 OA
BRANCH   6   8
ATOM      8  C   UNL     1       2.547  -2.856   4.828  1.00  0.00     0.224 C 
ATOM      9  C   UNL     1       2.709  -2.051   2.697  1.00  0.00     0.148 C 
ATOM     10  N   UNL     1       3.590  -1.350   3.341  1.00  0.00    -0.169 NA
ATOM     11  C   UNL     1       2.004  -3.134   3.444  1.00  0.00     0.105 C 
ATOM     12  N   UNL     1       3.554  -1.826   4.605  1.00  0.00    -0.250 N 
BRANCH   9  13
ATOM     13  C   UNL     1       2.354  -1.817   1.266  1.00  0.00     0.354 C 
ATOM     14  O   UNL     1       3.138  -1.927   0.345  1.00  0.00    -0.245 OA
BRANCH  13  15
ATOM     15  O   UNL     1       1.045  -1.492   1.245  1.00  0.00    -0.461 OA
BRANCH  15  16
ATOM     16  C   UNL     1       0.525  -1.130  -0.035  1.00  0.00     0.230 C 
ATOM     17  C   UNL     1       0.849   0.324  -0.315  1.00  0.00     0.049 C 
ENDBRANCH  15  16
ENDBRANCH  13  15
ENDBRANCH   9  13
BRANCH  12  18
ATOM     18  C   UNL     1       4.375  -1.308   5.587  1.00  0.00     0.066 A 
ATOM     19  C   UNL     1       5.591  -1.924   5.901  1.00  0.00     0.067 A 
ATOM     20  C   UNL     1       4.004  -0.153   6.286  1.00  0.00     0.067 A 
ATOM     21  C   UNL     1       6.420  -1.371   6.870  1.00  0.00     0.128 A 
ATOM     22  C   UNL     1       4.837   0.372   7.264  1.00  0.00     0.128 A 
ATOM     23  F   UNL     1       7.591  -1.959   7.143  1.00  0.00    -0.207 F 
ATOM     24  C   UNL     1       6.053  -0.221   7.550  1.00  0.00     0.078 A 
ATOM     25  F   UNL     1       4.468   1.471   7.935  1.00  0.00    -0.207 F 
ENDBRANCH  12  18
ENDBRANCH   6   8
ENDBRANCH   5   6
ENDBRANCH   4   5
ENDBRANCH   3   4
ENDBRANCH   2   3
ENDBRANCH   1   2
BRANCH   1  26
ATOM     26  C   UNL     1       2.889  -5.523   7.390  1.00  0.00     0.188 C 
BRANCH  26  27
ATOM     27  O   UNL     1       1.624  -6.125   7.501  1.00  0.00    -0.376 OA
BRANCH  27  28
ATOM     28  C   UNL     1       1.511  -7.299   8.287  1.00  0.00     0.202 C 
BRANCH  28  29
ATOM     29  C   UNL     1       2.328  -7.547   9.578  1.00  0.00     0.261 C 
BRANCH  29  30
ATOM     30  O   UNL     1       3.507  -6.760   9.814  1.00  0.00    -0.460 OA
BRANCH  30  31
ATOM     31  C   UNL     1       4.690  -7.300   9.431  1.00  0.00     0.338 C 
ATOM     32  O   UNL     1       4.858  -8.358   8.852  1.00  0.00    -0.246 OA
BRANCH  31  33
ATOM     33  C   UNL     1       5.768  -6.308   9.650  1.00  0.00     0.060 A 
ATOM     34  C   UNL     1       6.431  -5.768   8.540  1.00  0.00     0.016 A 
ATOM     35  C   UNL     1       6.157  -5.950  10.942  1.00  0.00     0.016 A 
ATOM     36  C   UNL     1       7.493  -4.877   8.722  1.00  0.00     0.010 A 
ATOM     37  C   UNL     1       7.242  -5.081  11.123  1.00  0.00     0.010 A 
ATOM     38  C   UNL     1       7.930  -4.556  10.016  1.00  0.00    -0.014 A 
BRANCH  38  39
ATOM     39  C   UNL     1       9.195  -3.797  10.206  1.00  0.00     0.031 A 
ATOM     40  C   UNL     1      10.486  -4.556  10.314  1.00  0.00     0.074 A 
ATOM     41  C   UNL     1       9.207  -2.454  10.290  1.00  0.00     0.049 A 
ATOM     42  N   UNL     1      11.698  -4.105  10.518  1.00  0.00    -0.248 NA
ATOM     43  C   UNL     1      10.397  -6.020  10.208  1.00  0.00     0.031 C 
ATOM     44  C   UNL     1       8.023  -1.609  10.236  1.00  0.00     0.029 A 
ATOM     45  N   UNL     1      10.250  -1.566  10.424  1.00  0.00    -0.354 N 
ATOM     46  C   UNL     1      12.509  -5.228  10.596  1.00  0.00     0.074 A 
ATOM     47  C   UNL     1      11.655  -6.382  10.417  1.00  0.00     0.031 C 
ATOM     48  C   UNL     1       8.407  -0.322  10.279  1.00  0.00     0.029 A 
ATOM     49  C   UNL     1       9.861  -0.247  10.378  1.00  0.00     0.049 A 
ATOM     50  H   UNL     1      11.185  -1.847  10.542  1.00  0.00     0.167 HD
ATOM     51  C   UNL     1      13.843  -5.287  10.816  1.00  0.00     0.037 A 
ATOM     52  C   UNL     1      10.592   0.887  10.401  1.00  0.00     0.037 A 
ATOM     53  C   UNL     1      14.689  -4.138  11.008  1.00  0.00     0.049 A 
ATOM     54  C   UNL     1      12.081   0.789  10.624  1.00  0.00     0.074 A 
ATOM     55  C   UNL     1      16.047  -4.105  11.272  1.00  0.00     0.029 A 
ATOM     56  N   UNL     1      14.260  -2.820  10.955  1.00  0.00    -0.354 N 
ATOM     57  N   UNL     1      12.838  -0.277  10.710  1.00  0.00    -0.248 NA
ATOM     58  C   UNL     1      12.812   2.054  10.803  1.00  0.00     0.031 C 
ATOM     59  C   UNL     1      16.433  -2.771  11.421  1.00  0.00     0.029 A 
ATOM     60  C   UNL     1      15.328  -1.968  11.191  1.00  0.00     0.049 A 
ATOM     61  H   UNL     1      13.336  -2.532  10.775  1.00  0.00     0.167 HD
ATOM     62  C   UNL     1      14.124   0.184  10.957  1.00  0.00     0.074 A 
ATOM     63  C   UNL     1      14.058   1.630  10.962  1.00  0.00     0.031 C 
ATOM     64  C   UNL     1      15.253  -0.529  11.186  1.00  0.00     0.037 A 
BRANCH  51  65
ATOM     65  C   UNL     1      14.474  -6.644  10.896  1.00  0.00     0.064 A 
ATOM     66  C   UNL     1      14.962  -7.128  12.120  1.00  0.00     0.173 A 
ATOM     67  C   UNL     1      14.656  -7.437   9.755  1.00  0.00     0.173 A 
ATOM     68  F   UNL     1      14.813  -6.406  13.241  1.00  0.00    -0.203 F 
ATOM     69  C   UNL     1      15.629  -8.347  12.193  1.00  0.00     0.198 A 
ATOM     70  C   UNL     1      15.297  -8.671   9.838  1.00  0.00     0.198 A 
ATOM     71  F   UNL     1      14.190  -7.027   8.566  1.00  0.00    -0.203 F 
ATOM     72  F   UNL     1      16.119  -8.772  13.366  1.00  0.00    -0.200 F 
ATOM     73  C   UNL     1      15.793  -9.119  11.053  1.00  0.00     0.200 A 
ATOM     74  F   UNL     1      15.431  -9.428   8.740  1.00  0.00    -0.200 F 
ATOM     75  F   UNL     1      16.427 -10.297  11.126  1.00  0.00    -0.200 F 
ENDBRANCH  51  65
BRANCH  52  76
ATOM     76  C   UNL     1       9.950   2.218  10.191  1.00  0.00     0.064 A 
ATOM     77  C   UNL     1       9.004   2.742  11.084  1.00  0.00     0.173 A 
ATOM     78  C   UNL     1      10.295   3.010   9.083  1.00  0.00     0.173 A 
ATOM     79  F   UNL     1       8.645   2.043  12.170  1.00  0.00    -0.203 F 
ATOM     80  C   UNL     1       8.408   3.984  10.862  1.00  0.00     0.198 A 
ATOM     81  C   UNL     1       9.731   4.269   8.885  1.00  0.00     0.198 A 
ATOM     82  F   UNL     1      11.222   2.577   8.214  1.00  0.00    -0.203 F 
ATOM     83  F   UNL     1       7.479   4.438  11.714  1.00  0.00    -0.200 F 
ATOM     84  C   UNL     1       8.778   4.750   9.768  1.00  0.00     0.200 A 
ATOM     85  F   UNL     1      10.126   5.024   7.850  1.00  0.00    -0.200 F 
ATOM     86  F   UNL     1       8.229   5.957   9.575  1.00  0.00    -0.200 F 
ENDBRANCH  52  76
BRANCH  64  87
ATOM     87  C   UNL     1      16.520   0.231  11.458  1.00  0.00     0.064 A 
ATOM     88  C   UNL     1      17.576   0.208  10.535  1.00  0.00     0.173 A 
ATOM     89  C   UNL     1      16.722   0.906  12.671  1.00  0.00     0.173 A 
ATOM     90  F   UNL     1      17.438  -0.433   9.365  1.00  0.00    -0.203 F 
ATOM     91  C   UNL     1      18.793   0.819  10.823  1.00  0.00     0.198 A 
ATOM     92  C   UNL     1      17.930   1.542  12.943  1.00  0.00     0.198 A 
ATOM     93  F   UNL     1      15.740   0.966  13.583  1.00  0.00    -0.203 F 
ATOM     94  F   UNL     1      19.801   0.751   9.943  1.00  0.00    -0.200 F 
ATOM     95  C   UNL     1      18.968   1.489  12.025  1.00  0.00     0.200 A 
ATOM     96  F   UNL     1      18.090   2.208  14.095  1.00  0.00    -0.200 F 
ATOM     97  F   UNL     1      20.138   2.083  12.298  1.00  0.00    -0.200 F 
ENDBRANCH  64  87
ENDBRANCH  38  39
ENDBRANCH  31  33
ENDBRANCH  30  31
ENDBRANCH  29  30
ENDBRANCH  28  29
ENDBRANCH  27  28
ENDBRANCH  26  27
ENDBRANCH   1  26
TORSDOF 21
