REMARK SMILES CCc1ncc(C[N@H+]2CCC[C@@H](c3cccc(C(=O)OCCOCCOCCOC(=O)c4ccc(-c5c6nc(c(-c7c(F)c(F)c(F)c(F)c7F)c7ccc([nH]7)c(-c7c(F)c(F)c(F)c(F)c7F)c7nc(c(-c8c(F)c(F)c(F)c(F)c8F)c8ccc5[nH]8)C=C7)C=C6)cc4)c3)C2)cn1
REMARK SMILES IDX 24 1 23 2 22 3 21 4 20 5 18 6 19 7 17 8 13 9 14 10 95 11
REMARK SMILES IDX 15 12 16 13 12 14 8 15 9 16 96 17 10 19 11 20 7 21 6 22 3 23
REMARK SMILES IDX 4 24 98 25 5 26 97 27 2 28 1 29 25 30 26 31 27 32 28 33
REMARK SMILES IDX 29 34 30 35 31 36 32 37 33 38 94 39 34 40 93 41 35 42 36 43
REMARK SMILES IDX 37 44 87 45 38 46 92 47 86 48 88 49 39 50 91 51 85 52 84 53
REMARK SMILES IDX 40 55 72 56 52 57 71 58 53 59 56 60 70 61 89 62 54 63 55 64
REMARK SMILES IDX 69 66 90 67 57 68 41 69 42 70 50 71 43 72 44 73 48 74 51 75
REMARK SMILES IDX 45 76 46 77 49 78 47 79 73 80 74 81 82 82 75 83 76 84 80 85
REMARK SMILES IDX 83 86 77 87 78 88 81 89 79 90 58 91 59 92 67 93 60 94 61 95
REMARK SMILES IDX 65 96 68 97 62 98 63 99 66 100 64 101
REMARK H PARENT 8 18 88 54 56 65
REMARK Flexibility Score: inf
ROOT
ATOM      1  C   UNL     1      -5.094 -11.802   0.797  1.00  0.00     0.188 C 
ENDROOT
BRANCH   1   2
ATOM      2  O   UNL     1      -5.069 -13.217   0.762  1.00  0.00    -0.376 OA
BRANCH   2   3
ATOM      3  C   UNL     1      -3.986 -13.928   1.347  1.00  0.00     0.202 C 
BRANCH   3   4
ATOM      4  C   UNL     1      -2.523 -13.468   1.210  1.00  0.00     0.261 C 
BRANCH   4   5
ATOM      5  O   UNL     1      -2.298 -12.067   1.412  1.00  0.00    -0.460 OA
BRANCH   5   6
ATOM      6  C   UNL     1      -1.855 -11.380   0.328  1.00  0.00     0.338 C 
ATOM      7  O   UNL     1      -1.557 -11.838  -0.761  1.00  0.00    -0.246 OA
BRANCH   6   8
ATOM      8  C   UNL     1      -2.023  -9.929   0.575  1.00  0.00     0.060 A 
ATOM      9  C   UNL     1      -1.909  -7.967   2.006  1.00  0.00    -0.038 A 
ATOM     10  C   UNL     1      -2.542  -7.227   0.990  1.00  0.00     0.004 A 
ATOM     11  C   UNL     1      -1.662  -9.334   1.790  1.00  0.00     0.020 A 
ATOM     12  C   UNL     1      -2.906  -7.824  -0.217  1.00  0.00     0.001 A 
ATOM     13  C   UNL     1      -2.635  -9.171  -0.431  1.00  0.00     0.016 A 
BRANCH   9  14
ATOM     14  C   UNL     1      -1.348  -7.289   3.251  1.00  0.00     0.074 C 
ATOM     15  N   UNL     1       0.597  -5.814   3.912  1.00  0.00    -0.331 N 
ATOM     16  C   UNL     1      -0.326  -4.857   4.537  1.00  0.00     0.262 C 
ATOM     17  C   UNL     1      -0.052  -6.567   2.833  1.00  0.00     0.270 C 
ATOM     18  H   UNL     1       0.853  -6.478   4.643  1.00  0.00     0.348 HD
ATOM     19  C   UNL     1      -1.590  -5.551   5.054  1.00  0.00     0.062 C 
ATOM     20  C   UNL     1      -2.310  -6.306   3.936  1.00  0.00     0.020 C 
BRANCH  15  21
ATOM     21  C   UNL     1       1.866  -5.194   3.466  1.00  0.00     0.302 C 
BRANCH  21  22
ATOM     22  C   UNL     1       1.746  -4.122   2.420  1.00  0.00     0.043 A 
ATOM     23  C   UNL     1       1.217  -2.189   0.578  1.00  0.00     0.127 A 
ATOM     24  N   UNL     1       1.435  -1.806   1.850  1.00  0.00    -0.241 NA
ATOM     25  N   UNL     1       1.298  -3.461   0.146  1.00  0.00    -0.241 NA
ATOM     26  C   UNL     1       1.708  -2.782   2.738  1.00  0.00     0.124 A 
ATOM     27  C   UNL     1       1.578  -4.394   1.077  1.00  0.00     0.124 A 
BRANCH  23  28
ATOM     28  C   UNL     1       0.702  -1.173  -0.406  1.00  0.00     0.074 C 
ATOM     29  C   UNL     1       1.141   0.253  -0.113  1.00  0.00     0.012 C 
ENDBRANCH  23  28
ENDBRANCH  21  22
ENDBRANCH  15  21
ENDBRANCH   9  14
ENDBRANCH   6   8
ENDBRANCH   5   6
ENDBRANCH   4   5
ENDBRANCH   3   4
ENDBRANCH   2   3
ENDBRANCH   1   2
BRANCH   1  30
ATOM     30  C   UNL     1      -4.998 -11.053   2.143  1.00  0.00     0.188 C 
BRANCH  30  31
ATOM     31  O   UNL     1      -4.669 -11.821   3.272  1.00  0.00    -0.376 OA
BRANCH  31  32
ATOM     32  C   UNL     1      -5.682 -12.503   3.991  1.00  0.00     0.202 C 
BRANCH  32  33
ATOM     33  C   UNL     1      -7.181 -12.565   3.624  1.00  0.00     0.261 C 
BRANCH  33  34
ATOM     34  O   UNL     1      -7.610 -12.016   2.374  1.00  0.00    -0.460 OA
BRANCH  34  35
ATOM     35  C   UNL     1      -8.239 -10.816   2.442  1.00  0.00     0.338 C 
ATOM     36  O   UNL     1      -8.445 -10.141   3.432  1.00  0.00    -0.246 OA
BRANCH  35  37
ATOM     37  C   UNL     1      -8.505 -10.342   1.069  1.00  0.00     0.060 A 
ATOM     38  C   UNL     1      -7.791  -9.237   0.586  1.00  0.00     0.016 A 
ATOM     39  C   UNL     1      -9.483 -10.953   0.285  1.00  0.00     0.016 A 
ATOM     40  C   UNL     1      -8.066  -8.728  -0.684  1.00  0.00     0.010 A 
ATOM     41  C   UNL     1      -9.772 -10.428  -0.980  1.00  0.00     0.010 A 
ATOM     42  C   UNL     1      -9.084  -9.299  -1.460  1.00  0.00    -0.014 A 
BRANCH  42  43
ATOM     43  C   UNL     1      -9.535  -8.624  -2.704  1.00  0.00     0.031 A 
ATOM     44  C   UNL     1     -10.780  -7.781  -2.659  1.00  0.00     0.074 A 
ATOM     45  C   UNL     1      -8.845  -8.745  -3.852  1.00  0.00     0.049 A 
ATOM     46  N   UNL     1     -11.401  -7.160  -3.629  1.00  0.00    -0.248 NA
ATOM     47  C   UNL     1     -11.410  -7.617  -1.339  1.00  0.00     0.031 C 
ATOM     48  C   UNL     1      -7.603  -9.496  -4.017  1.00  0.00     0.029 A 
ATOM     49  N   UNL     1      -9.104  -8.243  -5.104  1.00  0.00    -0.354 N 
ATOM     50  C   UNL     1     -12.493  -6.536  -3.039  1.00  0.00     0.074 A 
ATOM     51  C   UNL     1     -12.471  -6.880  -1.634  1.00  0.00     0.031 C 
ATOM     52  C   UNL     1      -7.217  -9.423  -5.303  1.00  0.00     0.029 A 
ATOM     53  C   UNL     1      -8.204  -8.651  -6.058  1.00  0.00     0.049 A 
ATOM     54  H   UNL     1      -9.863  -7.647  -5.300  1.00  0.00     0.167 HD
ATOM     55  C   UNL     1     -13.425  -5.739  -3.616  1.00  0.00     0.037 A 
ATOM     56  C   UNL     1      -8.197  -8.450  -7.391  1.00  0.00     0.037 A 
ATOM     57  C   UNL     1     -13.450  -5.402  -5.015  1.00  0.00     0.049 A 
ATOM     58  C   UNL     1      -9.299  -7.632  -8.022  1.00  0.00     0.074 A 
ATOM     59  C   UNL     1     -14.351  -4.599  -5.692  1.00  0.00     0.029 A 
ATOM     60  N   UNL     1     -12.536  -5.855  -5.954  1.00  0.00    -0.354 N 
ATOM     61  N   UNL     1     -10.314  -7.025  -7.455  1.00  0.00    -0.248 NA
ATOM     62  C   UNL     1      -9.250  -7.467  -9.483  1.00  0.00     0.031 C 
ATOM     63  C   UNL     1     -14.016  -4.611  -7.049  1.00  0.00     0.029 A 
ATOM     64  C   UNL     1     -12.866  -5.367  -7.209  1.00  0.00     0.049 A 
ATOM     65  H   UNL     1     -11.766  -6.437  -5.759  1.00  0.00     0.167 HD
ATOM     66  C   UNL     1     -10.997  -6.380  -8.479  1.00  0.00     0.074 A 
ATOM     67  C   UNL     1     -10.272  -6.654  -9.701  1.00  0.00     0.031 C 
ATOM     68  C   UNL     1     -12.125  -5.630  -8.415  1.00  0.00     0.037 A 
BRANCH  55  69
ATOM     69  C   UNL     1     -14.510  -5.186  -2.739  1.00  0.00     0.064 A 
ATOM     70  C   UNL     1     -14.250  -4.188  -1.788  1.00  0.00     0.173 A 
ATOM     71  C   UNL     1     -15.838  -5.612  -2.897  1.00  0.00     0.173 A 
ATOM     72  F   UNL     1     -12.996  -3.754  -1.589  1.00  0.00    -0.203 F 
ATOM     73  C   UNL     1     -15.276  -3.650  -1.016  1.00  0.00     0.198 A 
ATOM     74  C   UNL     1     -16.866  -5.050  -2.145  1.00  0.00     0.198 A 
ATOM     75  F   UNL     1     -16.142  -6.561  -3.795  1.00  0.00    -0.203 F 
ATOM     76  F   UNL     1     -14.999  -2.724  -0.087  1.00  0.00    -0.200 F 
ATOM     77  C   UNL     1     -16.584  -4.073  -1.202  1.00  0.00     0.200 A 
ATOM     78  F   UNL     1     -18.130  -5.449  -2.338  1.00  0.00    -0.200 F 
ATOM     79  F   UNL     1     -17.573  -3.542  -0.470  1.00  0.00    -0.200 F 
ENDBRANCH  55  69
BRANCH  56  80
ATOM     80  C   UNL     1      -7.133  -9.054  -8.241  1.00  0.00     0.064 A 
ATOM     81  C   UNL     1      -6.228  -8.252  -8.950  1.00  0.00     0.173 A 
ATOM     82  C   UNL     1      -7.042 -10.444  -8.412  1.00  0.00     0.173 A 
ATOM     83  F   UNL     1      -6.291  -6.916  -8.845  1.00  0.00    -0.203 F 
ATOM     84  C   UNL     1      -5.299  -8.813  -9.825  1.00  0.00     0.198 A 
ATOM     85  C   UNL     1      -6.088 -11.006  -9.258  1.00  0.00     0.198 A 
ATOM     86  F   UNL     1      -7.886 -11.258  -7.762  1.00  0.00    -0.203 F 
ATOM     87  F   UNL     1      -4.497  -8.018 -10.546  1.00  0.00    -0.200 F 
ATOM     88  C   UNL     1      -5.227 -10.190  -9.975  1.00  0.00     0.200 A 
ATOM     89  F   UNL     1      -6.016 -12.337  -9.392  1.00  0.00    -0.200 F 
ATOM     90  F   UNL     1      -4.340 -10.728 -10.823  1.00  0.00    -0.200 F 
ENDBRANCH  56  80
BRANCH  68  91
ATOM     91  C   UNL     1     -12.617  -5.002  -9.690  1.00  0.00     0.064 A 
ATOM     92  C   UNL     1     -13.165  -5.766 -10.731  1.00  0.00     0.173 A 
ATOM     93  C   UNL     1     -12.573  -3.608  -9.856  1.00  0.00     0.173 A 
ATOM     94  F   UNL     1     -13.221  -7.103 -10.630  1.00  0.00    -0.203 F 
ATOM     95  C   UNL     1     -13.619  -5.163 -11.902  1.00  0.00     0.198 A 
ATOM     96  C   UNL     1     -13.061  -3.006 -11.012  1.00  0.00     0.198 A 
ATOM     97  F   UNL     1     -12.069  -2.828  -8.888  1.00  0.00    -0.203 F 
ATOM     98  F   UNL     1     -14.086  -5.919 -12.905  1.00  0.00    -0.200 F 
ATOM     99  C   UNL     1     -13.574  -3.784 -12.038  1.00  0.00     0.200 A 
ATOM    100  F   UNL     1     -13.034  -1.671 -11.132  1.00  0.00    -0.200 F 
ATOM    101  F   UNL     1     -14.019  -3.204 -13.161  1.00  0.00    -0.200 F 
ENDBRANCH  68  91
ENDBRANCH  42  43
ENDBRANCH  35  37
ENDBRANCH  34  35
ENDBRANCH  33  34
ENDBRANCH  32  33
ENDBRANCH  31  32
ENDBRANCH  30  31
ENDBRANCH   1  30
TORSDOF 21
