REMARK SMILES CC(C)(O)CC[C@@H](C(=O)OCCOCCOCCOC(=O)c1ccc(-c2c3nc(c(-c4c(F)c(F)c(F)c(F)c4F)c4ccc([nH]4)c(-c4c(F)c(F)c(F)c(F)c4F)c4nc(c(-c5c(F)c(F)c(F)c(F)c5F)c5ccc2[nH]5)C=C4)C=C3)cc1)[C@@H]1CCS(=O)(=O)C1
REMARK SMILES IDX 14 1 13 2 12 3 11 4 10 5 8 6 9 7 7 8 6 9 5 10 2 11 1 12 3 13
REMARK SMILES IDX 4 14 85 16 86 17 91 18 87 19 88 20 89 21 90 22 15 23 16 24
REMARK SMILES IDX 17 25 18 26 19 27 20 28 21 29 22 30 23 31 84 32 24 33 83 34
REMARK SMILES IDX 25 35 26 36 27 37 77 38 28 39 82 40 76 41 78 42 29 43 81 44
REMARK SMILES IDX 75 45 74 46 30 48 62 49 42 50 61 51 43 52 46 53 60 54 79 55
REMARK SMILES IDX 44 56 45 57 59 59 80 60 47 61 31 62 32 63 40 64 33 65 34 66
REMARK SMILES IDX 38 67 41 68 35 69 36 70 39 71 37 72 63 73 64 74 72 75 65 76
REMARK SMILES IDX 66 77 70 78 73 79 67 80 68 81 71 82 69 83 48 84 49 85 57 86
REMARK SMILES IDX 50 87 51 88 55 89 58 90 52 91 53 92 56 93 54 94
REMARK H PARENT 4 15 78 47 46 58
REMARK Flexibility Score: inf
ROOT
ATOM      1  C   UNL     1       4.158   2.938  -3.456  1.00  0.00     0.188 C 
ENDROOT
BRANCH   1   2
ATOM      2  O   UNL     1       5.405   2.747  -2.801  1.00  0.00    -0.376 OA
BRANCH   2   3
ATOM      3  C   UNL     1       5.630   1.579  -2.021  1.00  0.00     0.202 C 
BRANCH   3   4
ATOM      4  C   UNL     1       4.669   1.257  -0.865  1.00  0.00     0.261 C 
BRANCH   4   5
ATOM      5  O   UNL     1       3.272   1.145  -1.216  1.00  0.00    -0.463 OA
BRANCH   5   6
ATOM      6  C   UNL     1       2.457   2.110  -0.732  1.00  0.00     0.309 C 
ATOM      7  O   UNL     1       2.872   3.035  -0.045  1.00  0.00    -0.252 OA
BRANCH   6   8
ATOM      8  C   UNL     1       0.959   1.950  -1.049  1.00  0.00     0.103 C 
BRANCH   8   9
ATOM      9  C   UNL     1       0.441   0.863  -2.037  1.00  0.00     0.018 C 
BRANCH   9  10
ATOM     10  C   UNL     1       0.925  -0.588  -1.934  1.00  0.00     0.035 C 
BRANCH  10  11
ATOM     11  C   UNL     1       0.400  -1.419  -0.748  1.00  0.00     0.059 C 
ATOM     12  C   UNL     1       0.825  -0.881   0.617  1.00  0.00     0.042 C 
ATOM     13  C   UNL     1       0.883  -2.866  -0.902  1.00  0.00     0.042 C 
BRANCH  11  14
ATOM     14  O   UNL     1      -1.028  -1.417  -0.809  1.00  0.00    -0.390 OA
ATOM     15  H   UNL     1      -1.384  -1.935  -0.070  1.00  0.00     0.211 HD
ENDBRANCH  11  14
ENDBRANCH  10  11
ENDBRANCH   9  10
ENDBRANCH   8   9
BRANCH   8  16
ATOM     16  C   UNL     1       0.232   3.297  -1.444  1.00  0.00     0.019 C 
ATOM     17  C   UNL     1       0.944   4.655  -1.265  1.00  0.00     0.021 C 
ATOM     18  C   UNL     1      -1.053   3.457  -0.611  1.00  0.00     0.141 C 
ATOM     19  C   UNL     1       0.868   5.100   0.198  1.00  0.00     0.137 C 
ATOM     20  S   UNL     1      -0.524   4.239   0.906  1.00  0.00     0.150 S 
ATOM     21  O   UNL     1      -0.037   3.208   1.802  1.00  0.00    -0.229 OA
ATOM     22  O   UNL     1      -1.525   5.200   1.311  1.00  0.00    -0.229 OA
ENDBRANCH   8  16
ENDBRANCH   6   8
ENDBRANCH   5   6
ENDBRANCH   4   5
ENDBRANCH   3   4
ENDBRANCH   2   3
ENDBRANCH   1   2
BRANCH   1  23
ATOM     23  C   UNL     1       3.381   1.726  -3.990  1.00  0.00     0.188 C 
BRANCH  23  24
ATOM     24  O   UNL     1       4.118   0.530  -4.022  1.00  0.00    -0.376 OA
BRANCH  24  25
ATOM     25  C   UNL     1       4.488  -0.002  -5.278  1.00  0.00     0.202 C 
BRANCH  25  26
ATOM     26  C   UNL     1       5.156   0.910  -6.320  1.00  0.00     0.261 C 
BRANCH  26  27
ATOM     27  O   UNL     1       4.605   2.228  -6.487  1.00  0.00    -0.460 OA
BRANCH  27  28
ATOM     28  C   UNL     1       3.429   2.340  -7.152  1.00  0.00     0.338 C 
ATOM     29  O   UNL     1       2.777   1.442  -7.644  1.00  0.00    -0.246 OA
BRANCH  28  30
ATOM     30  C   UNL     1       2.945   3.732  -6.958  1.00  0.00     0.060 A 
ATOM     31  C   UNL     1       1.704   3.941  -6.336  1.00  0.00     0.016 A 
ATOM     32  C   UNL     1       3.722   4.822  -7.352  1.00  0.00     0.016 A 
ATOM     33  C   UNL     1       1.231   5.240  -6.125  1.00  0.00     0.010 A 
ATOM     34  C   UNL     1       3.236   6.121  -7.163  1.00  0.00     0.010 A 
ATOM     35  C   UNL     1       1.978   6.338  -6.572  1.00  0.00    -0.014 A 
BRANCH  35  36
ATOM     36  C   UNL     1       1.376   7.696  -6.600  1.00  0.00     0.031 A 
ATOM     37  C   UNL     1       0.793   8.191  -7.896  1.00  0.00     0.074 A 
ATOM     38  C   UNL     1       1.349   8.484  -5.509  1.00  0.00     0.049 A 
ATOM     39  N   UNL     1       0.311   9.369  -8.199  1.00  0.00    -0.248 NA
ATOM     40  C   UNL     1       0.751   7.221  -9.002  1.00  0.00     0.031 C 
ATOM     41  C   UNL     1       1.836   8.113  -4.183  1.00  0.00     0.029 A 
ATOM     42  N   UNL     1       0.905   9.776  -5.357  1.00  0.00    -0.354 N 
ATOM     43  C   UNL     1      -0.077   9.286  -9.530  1.00  0.00     0.074 A 
ATOM     44  C   UNL     1       0.245   7.951  -9.984  1.00  0.00     0.031 C 
ATOM     45  C   UNL     1       1.684   9.163  -3.355  1.00  0.00     0.029 A 
ATOM     46  C   UNL     1       1.129  10.291  -4.103  1.00  0.00     0.049 A 
ATOM     47  H   UNL     1       0.468  10.284  -6.078  1.00  0.00     0.167 HD
ATOM     48  C   UNL     1      -0.653  10.236 -10.305  1.00  0.00     0.037 A 
ATOM     49  C   UNL     1       0.940  11.540  -3.627  1.00  0.00     0.037 A 
ATOM     50  C   UNL     1      -0.974  11.565  -9.856  1.00  0.00     0.049 A 
ATOM     51  C   UNL     1       0.376  12.606  -4.537  1.00  0.00     0.074 A 
ATOM     52  C   UNL     1      -1.577  12.590 -10.563  1.00  0.00     0.029 A 
ATOM     53  N   UNL     1      -0.709  12.056  -8.587  1.00  0.00    -0.354 N 
ATOM     54  N   UNL     1      -0.011  12.514  -5.787  1.00  0.00    -0.248 NA
ATOM     55  C   UNL     1       0.222  13.953  -3.966  1.00  0.00     0.031 C 
ATOM     56  C   UNL     1      -1.621  13.721  -9.741  1.00  0.00     0.029 A 
ATOM     57  C   UNL     1      -1.109  13.380  -8.500  1.00  0.00     0.049 A 
ATOM     58  H   UNL     1      -0.298  11.541  -7.856  1.00  0.00     0.167 HD
ATOM     59  C   UNL     1      -0.485  13.774  -6.137  1.00  0.00     0.074 A 
ATOM     60  C   UNL     1      -0.351  14.611  -4.964  1.00  0.00     0.031 C 
ATOM     61  C   UNL     1      -0.987  14.200  -7.322  1.00  0.00     0.037 A 
BRANCH  48  62
ATOM     62  C   UNL     1      -0.949   9.885 -11.733  1.00  0.00     0.064 A 
ATOM     63  C   UNL     1      -1.973   8.991 -12.079  1.00  0.00     0.173 A 
ATOM     64  C   UNL     1      -0.232  10.495 -12.774  1.00  0.00     0.173 A 
ATOM     65  F   UNL     1      -2.678   8.369 -11.121  1.00  0.00    -0.203 F 
ATOM     66  C   UNL     1      -2.255   8.705 -13.412  1.00  0.00     0.198 A 
ATOM     67  C   UNL     1      -0.537  10.231 -14.106  1.00  0.00     0.198 A 
ATOM     68  F   UNL     1       0.756  11.360 -12.498  1.00  0.00    -0.203 F 
ATOM     69  F   UNL     1      -3.209   7.815 -13.718  1.00  0.00    -0.200 F 
ATOM     70  C   UNL     1      -1.544   9.333 -14.424  1.00  0.00     0.200 A 
ATOM     71  F   UNL     1       0.142  10.849 -15.082  1.00  0.00    -0.200 F 
ATOM     72  F   UNL     1      -1.825   9.068 -15.707  1.00  0.00    -0.200 F 
ENDBRANCH  48  62
BRANCH  49  73
ATOM     73  C   UNL     1       1.315  11.876  -2.226  1.00  0.00     0.064 A 
ATOM     74  C   UNL     1       0.344  12.248  -1.285  1.00  0.00     0.173 A 
ATOM     75  C   UNL     1       2.656  11.890  -1.815  1.00  0.00     0.173 A 
ATOM     76  F   UNL     1      -0.950  12.283  -1.637  1.00  0.00    -0.203 F 
ATOM     77  C   UNL     1       0.701  12.648   0.002  1.00  0.00     0.198 A 
ATOM     78  C   UNL     1       3.010  12.256  -0.517  1.00  0.00     0.198 A 
ATOM     79  F   UNL     1       3.627  11.551  -2.676  1.00  0.00    -0.203 F 
ATOM     80  F   UNL     1      -0.242  13.062   0.858  1.00  0.00    -0.200 F 
ATOM     81  C   UNL     1       2.034  12.646   0.386  1.00  0.00     0.200 A 
ATOM     82  F   UNL     1       4.298  12.244  -0.148  1.00  0.00    -0.200 F 
ATOM     83  F   UNL     1       2.378  13.036   1.621  1.00  0.00    -0.200 F 
ENDBRANCH  49  73
BRANCH  61  84
ATOM     84  C   UNL     1      -1.482  15.617  -7.404  1.00  0.00     0.064 A 
ATOM     85  C   UNL     1      -0.607  16.713  -7.377  1.00  0.00     0.173 A 
ATOM     86  C   UNL     1      -2.853  15.880  -7.557  1.00  0.00     0.173 A 
ATOM     87  F   UNL     1       0.712  16.520  -7.221  1.00  0.00    -0.203 F 
ATOM     88  C   UNL     1      -1.087  18.017  -7.472  1.00  0.00     0.198 A 
ATOM     89  C   UNL     1      -3.326  17.183  -7.687  1.00  0.00     0.198 A 
ATOM     90  F   UNL     1      -3.735  14.870  -7.600  1.00  0.00    -0.203 F 
ATOM     91  F   UNL     1      -0.236  19.050  -7.393  1.00  0.00    -0.200 F 
ATOM     92  C   UNL     1      -2.444  18.251  -7.635  1.00  0.00     0.200 A 
ATOM     93  F   UNL     1      -4.636  17.405  -7.864  1.00  0.00    -0.200 F 
ATOM     94  F   UNL     1      -2.903  19.506  -7.736  1.00  0.00    -0.200 F 
ENDBRANCH  61  84
ENDBRANCH  35  36
ENDBRANCH  28  30
ENDBRANCH  27  28
ENDBRANCH  26  27
ENDBRANCH  25  26
ENDBRANCH  24  25
ENDBRANCH  23  24
ENDBRANCH   1  23
TORSDOF 22
