REMARK SMILES CC1=C(C)C[C@@H](C(=O)OCCOCCOCCOC(=O)c2ccc(-c3c4nc(c(-c5c(F)c(F)c(F)c(F)c5F)c5ccc([nH]5)c(-c5c(F)c(F)c(F)c(F)c5F)c5nc(c(-c6c(F)c(F)c(F)c(F)c6F)c6ccc3[nH]6)C=C5)C=C4)cc2)[C@@H](C(=O)NCC[NH+]2CCOCC2)C1
REMARK SMILES IDX 13 1 12 2 11 3 10 4 9 5 7 6 8 7 6 8 1 9 2 10 3 11 96 12 4 13
REMARK SMILES IDX 5 14 84 15 85 16 86 17 87 18 88 20 89 21 90 22 91 23 95 24
REMARK SMILES IDX 92 26 94 27 93 28 14 29 15 30 16 31 17 32 18 33 19 34 20 35
REMARK SMILES IDX 21 36 22 37 83 38 23 39 82 40 24 41 25 42 26 43 76 44 27 45
REMARK SMILES IDX 81 46 75 47 77 48 28 49 80 50 74 51 73 52 29 54 61 55 41 56
REMARK SMILES IDX 60 57 42 58 45 59 59 60 78 61 43 62 44 63 58 65 79 66 46 67
REMARK SMILES IDX 30 68 31 69 39 70 32 71 33 72 37 73 40 74 34 75 35 76 38 77
REMARK SMILES IDX 36 78 62 79 63 80 71 81 64 82 65 83 69 84 72 85 66 86 67 87
REMARK SMILES IDX 70 88 68 89 47 90 48 91 56 92 49 93 50 94 54 95 57 96 51 97
REMARK SMILES IDX 52 98 55 99 53 100
REMARK H PARENT 87 19 90 25 77 53 45 64
REMARK Flexibility Score: inf
ROOT
ATOM      1  C   UNL     1      -4.154  -5.008  -0.008  1.00  0.00     0.188 C 
ENDROOT
BRANCH   1   2
ATOM      2  O   UNL     1      -3.097  -4.541   0.805  1.00  0.00    -0.376 OA
BRANCH   2   3
ATOM      3  C   UNL     1      -2.756  -3.247   1.244  1.00  0.00     0.202 C 
BRANCH   3   4
ATOM      4  C   UNL     1      -1.216  -3.035   1.738  1.00  0.00     0.261 C 
BRANCH   4   5
ATOM      5  O   UNL     1      -0.155  -4.073   1.670  1.00  0.00    -0.463 OA
BRANCH   5   6
ATOM      6  C   UNL     1       1.049  -4.326   1.102  1.00  0.00     0.310 C 
ATOM      7  O   UNL     1       1.825  -5.082   1.702  1.00  0.00    -0.252 OA
BRANCH   6   8
ATOM      8  C   UNL     1       1.455  -3.952  -0.317  1.00  0.00     0.116 C 
ATOM      9  C   UNL     1       1.145   0.328   0.290  1.00  0.00     0.039 C 
ATOM     10  C   UNL     1       1.431  -1.085  -0.150  1.00  0.00    -0.074 C 
ATOM     11  C   UNL     1       2.482  -1.805   0.289  1.00  0.00    -0.073 C 
ATOM     12  C   UNL     1       0.441  -1.718  -1.129  1.00  0.00     0.045 C 
ATOM     13  C   UNL     1       3.391  -1.465   1.430  1.00  0.00     0.039 C 
ATOM     14  C   UNL     1       2.742  -3.144  -0.337  1.00  0.00     0.046 C 
ATOM     15  C   UNL     1       0.452  -3.300  -1.200  1.00  0.00     0.097 C 
BRANCH  15  16
ATOM     16  C   UNL     1      -0.885  -3.959  -1.071  1.00  0.00     0.224 C 
ATOM     17  O   UNL     1      -1.800  -3.330  -1.625  1.00  0.00    -0.275 OA
ATOM     18  N   UNL     1      -1.244  -5.124  -0.472  1.00  0.00    -0.350 N 
ATOM     19  H   UNL     1      -2.143  -5.274  -0.844  1.00  0.00     0.163 HD
BRANCH  18  20
ATOM     20  C   UNL     1      -1.071  -6.367   0.461  1.00  0.00     0.177 C 
BRANCH  20  21
ATOM     21  C   UNL     1      -1.701  -6.508   2.072  1.00  0.00     0.283 C 
BRANCH  21  22
ATOM     22  N   UNL     1      -3.099  -6.231   2.568  1.00  0.00    -0.330 N 
ATOM     23  C   UNL     1      -4.203  -7.176   2.339  1.00  0.00     0.291 C 
ATOM     24  C   UNL     1      -3.248  -5.665   3.933  1.00  0.00     0.291 C 
ATOM     25  H   UNL     1      -3.221  -5.506   1.860  1.00  0.00     0.348 HD
ATOM     26  C   UNL     1      -5.594  -6.501   2.608  1.00  0.00     0.221 C 
ATOM     27  C   UNL     1      -4.646  -5.009   4.116  1.00  0.00     0.221 C 
ATOM     28  O   UNL     1      -5.688  -5.984   3.938  1.00  0.00    -0.370 OA
ENDBRANCH  21  22
ENDBRANCH  20  21
ENDBRANCH  18  20
ENDBRANCH  15  16
ENDBRANCH   6   8
ENDBRANCH   5   6
ENDBRANCH   4   5
ENDBRANCH   3   4
ENDBRANCH   2   3
ENDBRANCH   1   2
BRANCH   1  29
ATOM     29  C   UNL     1      -4.461  -4.334  -1.299  1.00  0.00     0.188 C 
BRANCH  29  30
ATOM     30  O   UNL     1      -4.918  -3.007  -1.182  1.00  0.00    -0.376 OA
BRANCH  30  31
ATOM     31  C   UNL     1      -6.259  -2.870  -0.753  1.00  0.00     0.202 C 
BRANCH  31  32
ATOM     32  C   UNL     1      -7.356  -3.444  -1.680  1.00  0.00     0.261 C 
BRANCH  32  33
ATOM     33  O   UNL     1      -6.958  -4.355  -2.728  1.00  0.00    -0.460 OA
BRANCH  33  34
ATOM     34  C   UNL     1      -6.129  -3.919  -3.713  1.00  0.00     0.338 C 
ATOM     35  O   UNL     1      -5.867  -2.752  -3.981  1.00  0.00    -0.246 OA
BRANCH  34  36
ATOM     36  C   UNL     1      -5.403  -5.111  -4.274  1.00  0.00     0.060 A 
ATOM     37  C   UNL     1      -4.045  -5.003  -4.623  1.00  0.00     0.016 A 
ATOM     38  C   UNL     1      -6.018  -6.367  -4.344  1.00  0.00     0.016 A 
ATOM     39  C   UNL     1      -3.326  -6.125  -5.077  1.00  0.00     0.010 A 
ATOM     40  C   UNL     1      -5.307  -7.481  -4.814  1.00  0.00     0.010 A 
ATOM     41  C   UNL     1      -3.965  -7.365  -5.219  1.00  0.00    -0.014 A 
BRANCH  41  42
ATOM     42  C   UNL     1      -3.361  -8.464  -6.030  1.00  0.00     0.031 A 
ATOM     43  C   UNL     1      -3.736  -8.525  -7.491  1.00  0.00     0.074 A 
ATOM     44  C   UNL     1      -2.539  -9.405  -5.524  1.00  0.00     0.049 A 
ATOM     45  N   UNL     1      -3.501  -9.456  -8.381  1.00  0.00    -0.248 NA
ATOM     46  C   UNL     1      -4.485  -7.370  -8.013  1.00  0.00     0.031 C 
ATOM     47  C   UNL     1      -2.024  -9.444  -4.159  1.00  0.00     0.029 A 
ATOM     48  N   UNL     1      -2.007 -10.533  -6.114  1.00  0.00    -0.354 N 
ATOM     49  C   UNL     1      -4.077  -8.999  -9.561  1.00  0.00     0.074 A 
ATOM     50  C   UNL     1      -4.694  -7.725  -9.270  1.00  0.00     0.031 C 
ATOM     51  C   UNL     1      -1.271 -10.551  -4.008  1.00  0.00     0.029 A 
ATOM     52  C   UNL     1      -1.289 -11.327  -5.250  1.00  0.00     0.049 A 
ATOM     53  H   UNL     1      -2.130 -10.749  -7.066  1.00  0.00     0.167 HD
ATOM     54  C   UNL     1      -4.090  -9.584 -10.782  1.00  0.00     0.037 A 
ATOM     55  C   UNL     1      -0.747 -12.552  -5.430  1.00  0.00     0.037 A 
ATOM     56  C   UNL     1      -3.491 -10.855 -11.082  1.00  0.00     0.049 A 
ATOM     57  C   UNL     1      -0.893 -13.247  -6.769  1.00  0.00     0.074 A 
ATOM     58  C   UNL     1      -3.462 -11.530 -12.290  1.00  0.00     0.029 A 
ATOM     59  N   UNL     1      -2.822 -11.648 -10.164  1.00  0.00    -0.354 N 
ATOM     60  N   UNL     1      -1.433 -12.809  -7.880  1.00  0.00    -0.248 NA
ATOM     61  C   UNL     1      -0.364 -14.618  -6.871  1.00  0.00     0.031 C 
ATOM     62  C   UNL     1      -2.826 -12.758 -12.089  1.00  0.00     0.029 A 
ATOM     63  C   UNL     1      -2.406 -12.821 -10.770  1.00  0.00     0.049 A 
ATOM     64  H   UNL     1      -2.665 -11.412  -9.221  1.00  0.00     0.167 HD
ATOM     65  C   UNL     1      -1.282 -13.831  -8.812  1.00  0.00     0.074 A 
ATOM     66  C   UNL     1      -0.581 -14.906  -8.146  1.00  0.00     0.031 C 
ATOM     67  C   UNL     1      -1.693 -13.879 -10.103  1.00  0.00     0.037 A 
BRANCH  54  68
ATOM     68  C   UNL     1      -4.801  -8.863 -11.889  1.00  0.00     0.064 A 
ATOM     69  C   UNL     1      -4.273  -7.700 -12.467  1.00  0.00     0.173 A 
ATOM     70  C   UNL     1      -6.000  -9.372 -12.411  1.00  0.00     0.173 A 
ATOM     71  F   UNL     1      -3.138  -7.165 -11.992  1.00  0.00    -0.203 F 
ATOM     72  C   UNL     1      -4.928  -7.064 -13.518  1.00  0.00     0.198 A 
ATOM     73  C   UNL     1      -6.636  -8.750 -13.481  1.00  0.00     0.198 A 
ATOM     74  F   UNL     1      -6.546 -10.483 -11.893  1.00  0.00    -0.203 F 
ATOM     75  F   UNL     1      -4.426  -5.931 -14.030  1.00  0.00    -0.200 F 
ATOM     76  C   UNL     1      -6.102  -7.595 -14.030  1.00  0.00     0.200 A 
ATOM     77  F   UNL     1      -7.763  -9.273 -13.983  1.00  0.00    -0.200 F 
ATOM     78  F   UNL     1      -6.723  -6.989 -15.052  1.00  0.00    -0.200 F 
ENDBRANCH  54  68
BRANCH  55  79
ATOM     79  C   UNL     1      -0.058 -13.258  -4.309  1.00  0.00     0.064 A 
ATOM     80  C   UNL     1       1.300 -13.603  -4.391  1.00  0.00     0.173 A 
ATOM     81  C   UNL     1      -0.764 -13.688  -3.175  1.00  0.00     0.173 A 
ATOM     82  F   UNL     1       2.015 -13.254  -5.472  1.00  0.00    -0.203 F 
ATOM     83  C   UNL     1       1.914 -14.373  -3.403  1.00  0.00     0.198 A 
ATOM     84  C   UNL     1      -0.141 -14.427  -2.170  1.00  0.00     0.198 A 
ATOM     85  F   UNL     1      -2.069 -13.405  -3.047  1.00  0.00    -0.203 F 
ATOM     86  F   UNL     1       3.191 -14.751  -3.547  1.00  0.00    -0.200 F 
ATOM     87  C   UNL     1       1.194 -14.781  -2.291  1.00  0.00     0.200 A 
ATOM     88  F   UNL     1      -0.840 -14.813  -1.094  1.00  0.00    -0.200 F 
ATOM     89  F   UNL     1       1.780 -15.530  -1.347  1.00  0.00    -0.200 F 
ENDBRANCH  55  79
BRANCH  67  90
ATOM     90  C   UNL     1      -1.375 -15.113 -10.900  1.00  0.00     0.064 A 
ATOM     91  C   UNL     1      -2.029 -16.331 -10.663  1.00  0.00     0.173 A 
ATOM     92  C   UNL     1      -0.457 -15.059 -11.962  1.00  0.00     0.173 A 
ATOM     93  F   UNL     1      -2.907 -16.440  -9.655  1.00  0.00    -0.203 F 
ATOM     94  C   UNL     1      -1.763 -17.452 -11.446  1.00  0.00     0.198 A 
ATOM     95  C   UNL     1      -0.218 -16.173 -12.762  1.00  0.00     0.198 A 
ATOM     96  F   UNL     1       0.189 -13.917 -12.240  1.00  0.00    -0.203 F 
ATOM     97  F   UNL     1      -2.371 -18.616 -11.175  1.00  0.00    -0.200 F 
ATOM     98  C   UNL     1      -0.866 -17.370 -12.500  1.00  0.00     0.200 A 
ATOM     99  F   UNL     1       0.635 -16.086 -13.792  1.00  0.00    -0.200 F 
ATOM    100  F   UNL     1      -0.624 -18.446 -13.262  1.00  0.00    -0.200 F 
ENDBRANCH  67  90
ENDBRANCH  41  42
ENDBRANCH  34  36
ENDBRANCH  33  34
ENDBRANCH  32  33
ENDBRANCH  31  32
ENDBRANCH  30  31
ENDBRANCH  29  30
ENDBRANCH   1  29
TORSDOF 21
