REMARK SMILES Cc1ccc([C@@]23C[C@@H]4C[C@@H](C[C@@](C(=O)N5CCC(C(=O)OCCOCCOCCOC(=O)c6ccc(-c7c8nc(c(-c9c(F)c(F)c(F)c(F)c9F)c9ccc([nH]9)c(-c9c(F)c(F)c(F)c(F)c9F)c9nc(c(-c%10c(F)c(F)c(F)c(F)c%10F)c%10ccc7[nH]%10)C=C9)C=C8)cc6)CC5)(C4)C2)C3)cc1
REMARK SMILES IDX 25 1 24 2 23 3 22 4 21 5 19 6 20 7 18 8 13 9 14 10 15 11
REMARK SMILES IDX 16 12 97 13 17 14 96 15 12 16 6 17 7 18 99 19 100 20 8 21
REMARK SMILES IDX 10 22 9 23 98 24 11 25 5 26 1 27 2 28 3 29 102 30 4 31
REMARK SMILES IDX 101 32 26 33 27 34 28 35 29 36 30 37 31 38 32 39 33 40 34 41
REMARK SMILES IDX 95 42 35 43 94 44 36 45 37 46 38 47 88 48 39 49 93 50 87 51
REMARK SMILES IDX 89 52 40 53 92 54 86 55 85 56 41 58 73 59 53 60 72 61 54 62
REMARK SMILES IDX 57 63 71 64 90 65 55 66 56 67 70 69 91 70 58 71 42 72 43 73
REMARK SMILES IDX 51 74 44 75 45 76 49 77 52 78 46 79 47 80 50 81 48 82 74 83
REMARK SMILES IDX 75 84 83 85 76 86 77 87 81 88 84 89 78 90 79 91 82 92 80 93
REMARK SMILES IDX 59 94 60 95 68 96 61 97 62 98 66 99 69 100 63 101 64 102
REMARK SMILES IDX 67 103 65 104
REMARK H PARENT 89 57 57 68
REMARK Flexibility Score: inf
ROOT
ATOM      1  C   UNL     1      -9.093  -4.096  -8.496  1.00  0.00     0.188 C 
ENDROOT
BRANCH   1   2
ATOM      2  O   UNL     1      -9.844  -4.211  -7.279  1.00  0.00    -0.376 OA
BRANCH   2   3
ATOM      3  C   UNL     1     -10.136  -3.121  -6.407  1.00  0.00     0.202 C 
BRANCH   3   4
ATOM      4  C   UNL     1      -9.666  -2.798  -4.834  1.00  0.00     0.261 C 
BRANCH   4   5
ATOM      5  O   UNL     1      -8.226  -3.074  -3.811  1.00  0.00    -0.463 OA
BRANCH   5   6
ATOM      6  C   UNL     1      -7.310  -4.075  -3.337  1.00  0.00     0.309 C 
ATOM      7  O   UNL     1      -7.307  -5.304  -3.486  1.00  0.00    -0.252 OA
BRANCH   6   8
ATOM      8  C   UNL     1      -6.090  -3.786  -2.580  1.00  0.00     0.103 C 
ATOM      9  C   UNL     1      -5.549  -1.922   0.499  1.00  0.00     0.228 C 
ATOM     10  O   UNL     1      -6.392  -2.356   1.284  1.00  0.00    -0.274 OA
ATOM     11  N   UNL     1      -4.853  -2.757  -0.385  1.00  0.00    -0.342 N 
ATOM     12  C   UNL     1      -5.086  -4.179  -0.280  1.00  0.00     0.120 C 
ATOM     13  C   UNL     1      -4.396  -2.352  -1.723  1.00  0.00     0.120 C 
ATOM     14  C   UNL     1      -6.243  -4.490  -1.197  1.00  0.00     0.037 C 
ATOM     15  C   UNL     1      -5.612  -2.383  -2.625  1.00  0.00     0.037 C 
BRANCH   9  16
ATOM     16  C   UNL     1      -5.156  -0.447   0.489  1.00  0.00     0.051 C 
ATOM     17  C   UNL     1      -2.993   0.920   0.496  1.00  0.00    -0.003 C 
ATOM     18  C   UNL     1      -3.527   1.576  -0.814  1.00  0.00     0.015 C 
ATOM     19  C   UNL     1      -3.632  -0.457   0.640  1.00  0.00     0.028 C 
ATOM     20  C   UNL     1      -3.530   1.731   1.703  1.00  0.00     0.015 C 
ATOM     21  C   UNL     1      -5.063   1.711  -0.805  1.00  0.00    -0.009 C 
ATOM     22  C   UNL     1      -5.084   1.767   1.697  1.00  0.00    -0.009 C 
ATOM     23  C   UNL     1      -5.546   2.485   0.419  1.00  0.00     0.007 C 
ATOM     24  C   UNL     1      -5.671   0.317  -0.749  1.00  0.00     0.020 C 
ATOM     25  C   UNL     1      -5.677   0.334   1.716  1.00  0.00     0.020 C 
BRANCH  17  26
ATOM     26  C   UNL     1      -1.460   0.759   0.440  1.00  0.00    -0.042 A 
ATOM     27  C   UNL     1       2.831   0.286  -0.056  1.00  0.00     0.044 C 
ATOM     28  C   UNL     1       1.357   0.470   0.127  1.00  0.00    -0.051 A 
ATOM     29  C   UNL     1       0.553  -0.651   0.289  1.00  0.00     0.004 A 
ATOM     30  C   UNL     1       0.756   1.733   0.132  1.00  0.00     0.004 A 
ATOM     31  C   UNL     1      -0.822  -0.505   0.458  1.00  0.00     0.004 A 
ATOM     32  C   UNL     1      -0.632   1.876   0.286  1.00  0.00     0.004 A 
ENDBRANCH  17  26
ENDBRANCH   9  16
ENDBRANCH   6   8
ENDBRANCH   5   6
ENDBRANCH   4   5
ENDBRANCH   3   4
ENDBRANCH   2   3
ENDBRANCH   1   2
BRANCH   1  33
ATOM     33  C   UNL     1      -8.916  -2.750  -9.189  1.00  0.00     0.188 C 
BRANCH  33  34
ATOM     34  O   UNL     1      -8.576  -1.763  -8.232  1.00  0.00    -0.376 OA
BRANCH  34  35
ATOM     35  C   UNL     1      -8.469  -0.441  -8.728  1.00  0.00     0.202 C 
BRANCH  35  36
ATOM     36  C   UNL     1      -7.095  -0.183  -9.365  1.00  0.00     0.261 C 
BRANCH  36  37
ATOM     37  O   UNL     1      -6.034  -0.525  -8.438  1.00  0.00    -0.460 OA
BRANCH  37  38
ATOM     38  C   UNL     1      -5.365  -1.706  -8.656  1.00  0.00     0.338 C 
ATOM     39  O   UNL     1      -4.876  -2.041  -9.724  1.00  0.00    -0.246 OA
BRANCH  38  40
ATOM     40  C   UNL     1      -5.559  -2.626  -7.486  1.00  0.00     0.060 A 
ATOM     41  C   UNL     1      -5.477  -4.025  -7.521  1.00  0.00     0.016 A 
ATOM     42  C   UNL     1      -6.249  -2.109  -6.450  1.00  0.00     0.016 A 
ATOM     43  C   UNL     1      -6.325  -4.874  -6.685  1.00  0.00     0.010 A 
ATOM     44  C   UNL     1      -7.223  -2.943  -5.907  1.00  0.00     0.010 A 
ATOM     45  C   UNL     1      -7.402  -4.376  -5.933  1.00  0.00    -0.014 A 
BRANCH  45  46
ATOM     46  C   UNL     1      -8.725  -5.377  -5.258  1.00  0.00     0.031 A 
ATOM     47  C   UNL     1      -9.579  -5.389  -3.657  1.00  0.00     0.074 A 
ATOM     48  C   UNL     1      -8.954  -6.550  -5.895  1.00  0.00     0.049 A 
ATOM     49  N   UNL     1      -9.766  -6.482  -2.920  1.00  0.00    -0.248 NA
ATOM     50  C   UNL     1      -9.988  -4.251  -2.727  1.00  0.00     0.031 C 
ATOM     51  C   UNL     1      -9.952  -7.557  -5.555  1.00  0.00     0.029 A 
ATOM     52  N   UNL     1      -8.195  -7.152  -6.908  1.00  0.00    -0.354 N 
ATOM     53  C   UNL     1     -10.274  -6.136  -1.648  1.00  0.00     0.074 A 
ATOM     54  C   UNL     1     -10.290  -4.744  -1.550  1.00  0.00     0.031 C 
ATOM     55  C   UNL     1      -9.568  -8.731  -6.077  1.00  0.00     0.029 A 
ATOM     56  C   UNL     1      -8.265  -8.533  -6.684  1.00  0.00     0.049 A 
ATOM     57  H   UNL     1      -7.708  -6.695  -7.632  1.00  0.00     0.167 HD
ATOM     58  C   UNL     1     -10.780  -6.971  -0.706  1.00  0.00     0.037 A 
ATOM     59  C   UNL     1      -7.167  -9.317  -6.515  1.00  0.00     0.037 A 
ATOM     60  C   UNL     1     -10.737  -8.303  -1.195  1.00  0.00     0.049 A 
ATOM     61  C   UNL     1      -7.249 -10.207  -5.302  1.00  0.00     0.074 A 
ATOM     62  C   UNL     1     -11.572  -8.961  -2.075  1.00  0.00     0.029 A 
ATOM     63  N   UNL     1      -9.525  -8.953  -1.190  1.00  0.00    -0.354 N 
ATOM     64  N   UNL     1      -8.007  -9.967  -4.269  1.00  0.00    -0.248 NA
ATOM     65  C   UNL     1      -6.472 -11.434  -5.153  1.00  0.00     0.031 C 
ATOM     66  C   UNL     1     -10.825 -10.010  -2.652  1.00  0.00     0.029 A 
ATOM     67  C   UNL     1      -9.577 -10.021  -2.054  1.00  0.00     0.049 A 
ATOM     68  H   UNL     1      -8.742  -8.693  -0.652  1.00  0.00     0.167 HD
ATOM     69  C   UNL     1      -7.819 -10.950  -3.331  1.00  0.00     0.074 A 
ATOM     70  C   UNL     1      -6.866 -11.854  -3.938  1.00  0.00     0.031 C 
ATOM     71  C   UNL     1      -8.457 -10.927  -2.126  1.00  0.00     0.037 A 
BRANCH  58  72
ATOM     72  C   UNL     1     -11.640  -6.441   0.429  1.00  0.00     0.064 A 
ATOM     73  C   UNL     1     -12.949  -6.927   0.596  1.00  0.00     0.173 A 
ATOM     74  C   UNL     1     -11.296  -5.346   1.254  1.00  0.00     0.173 A 
ATOM     75  F   UNL     1     -13.369  -8.010  -0.070  1.00  0.00    -0.203 F 
ATOM     76  C   UNL     1     -13.884  -6.283   1.413  1.00  0.00     0.198 A 
ATOM     77  C   UNL     1     -12.251  -4.659   2.018  1.00  0.00     0.198 A 
ATOM     78  F   UNL     1     -10.037  -4.876   1.278  1.00  0.00    -0.203 F 
ATOM     79  F   UNL     1     -15.129  -6.770   1.509  1.00  0.00    -0.200 F 
ATOM     80  C   UNL     1     -13.550  -5.121   2.084  1.00  0.00     0.200 A 
ATOM     81  F   UNL     1     -11.920  -3.521   2.648  1.00  0.00    -0.200 F 
ATOM     82  F   UNL     1     -14.478  -4.452   2.783  1.00  0.00    -0.200 F 
ENDBRANCH  58  72
BRANCH  59  83
ATOM     83  C   UNL     1      -5.911  -8.805  -7.135  1.00  0.00     0.064 A 
ATOM     84  C   UNL     1      -5.913  -8.508  -8.515  1.00  0.00     0.173 A 
ATOM     85  C   UNL     1      -4.825  -8.336  -6.383  1.00  0.00     0.173 A 
ATOM     86  F   UNL     1      -6.925  -8.929  -9.292  1.00  0.00    -0.203 F 
ATOM     87  C   UNL     1      -4.941  -7.692  -9.091  1.00  0.00     0.198 A 
ATOM     88  C   UNL     1      -3.839  -7.531  -6.969  1.00  0.00     0.198 A 
ATOM     89  F   UNL     1      -4.757  -8.570  -5.066  1.00  0.00    -0.203 F 
ATOM     90  F   UNL     1      -5.050  -7.327 -10.377  1.00  0.00    -0.200 F 
ATOM     91  C   UNL     1      -3.912  -7.191  -8.314  1.00  0.00     0.200 A 
ATOM     92  F   UNL     1      -2.866  -7.003  -6.212  1.00  0.00    -0.200 F 
ATOM     93  F   UNL     1      -3.035  -6.324  -8.842  1.00  0.00    -0.200 F 
ENDBRANCH  59  83
BRANCH  71  94
ATOM     94  C   UNL     1      -8.157 -11.748  -0.892  1.00  0.00     0.064 A 
ATOM     95  C   UNL     1      -6.906 -12.312  -0.614  1.00  0.00     0.173 A 
ATOM     96  C   UNL     1      -9.106 -11.822   0.167  1.00  0.00     0.173 A 
ATOM     97  F   UNL     1      -5.890 -12.221  -1.479  1.00  0.00    -0.203 F 
ATOM     98  C   UNL     1      -6.636 -12.938   0.607  1.00  0.00     0.198 A 
ATOM     99  C   UNL     1      -8.807 -12.377   1.407  1.00  0.00     0.198 A 
ATOM    100  F   UNL     1     -10.345 -11.322   0.045  1.00  0.00    -0.203 F 
ATOM    101  F   UNL     1      -5.436 -13.499   0.808  1.00  0.00    -0.200 F 
ATOM    102  C   UNL     1      -7.575 -12.951   1.622  1.00  0.00     0.200 A 
ATOM    103  F   UNL     1      -9.711 -12.327   2.396  1.00  0.00    -0.200 F 
ATOM    104  F   UNL     1      -7.285 -13.499   2.810  1.00  0.00    -0.200 F 
ENDBRANCH  71  94
ENDBRANCH  45  46
ENDBRANCH  38  40
ENDBRANCH  37  38
ENDBRANCH  36  37
ENDBRANCH  35  36
ENDBRANCH  34  35
ENDBRANCH  33  34
ENDBRANCH   1  33
TORSDOF 19
