REMARK SMILES CC(C)CC(=O)Nc1ccc(NC(=O)[C@@H]2CCCC[C@@H]2C(=O)OCCOCCOCCOC(=O)c2ccc(-c3c4nc(c(-c5c(F)c(F)c(F)c(F)c5F)c5ccc([nH]5)c(-c5c(F)c(F)c(F)c(F)c5F)c5nc(c(-c6c(F)c(F)c(F)c(F)c6F)c6ccc3[nH]6)C=C5)C=C4)cc2)cc1
REMARK SMILES IDX 26 1 25 2 24 3 23 4 21 5 22 6 20 7 15 8 16 9 17 10 19 11
REMARK SMILES IDX 18 12 13 13 12 14 14 16 11 17 8 18 9 19 99 20 10 21 98 22
REMARK SMILES IDX 7 23 5 24 6 25 4 27 2 28 1 29 3 30 27 31 28 32 29 33 30 34
REMARK SMILES IDX 31 35 32 36 33 37 34 38 35 39 36 40 97 41 37 42 96 43 38 44
REMARK SMILES IDX 39 45 40 46 90 47 41 48 95 49 89 50 91 51 42 52 94 53 88 54
REMARK SMILES IDX 87 55 43 57 75 58 55 59 74 60 56 61 59 62 73 63 92 64 57 65
REMARK SMILES IDX 58 66 72 68 93 69 60 70 44 71 45 72 53 73 46 74 47 75 51 76
REMARK SMILES IDX 54 77 48 78 49 79 52 80 50 81 76 82 77 83 85 84 78 85 79 86
REMARK SMILES IDX 83 87 86 88 80 89 81 90 84 91 82 92 61 93 62 94 70 95 63 96
REMARK SMILES IDX 64 97 68 98 71 99 65 100 66 101 69 102 67 103
REMARK H PARENT 12 15 7 26 91 56 59 67
REMARK Flexibility Score: inf
ROOT
ATOM      1  O   UNL     1       4.035  -0.691   9.652  1.00  0.00    -0.376 OA
ENDROOT
BRANCH   1   2
ATOM      2  C   UNL     1       4.105  -2.084   9.381  1.00  0.00     0.202 C 
BRANCH   2   3
ATOM      3  C   UNL     1       2.781  -2.844   9.417  1.00  0.00     0.261 C 
BRANCH   3   4
ATOM      4  O   UNL     1       1.858  -2.459   8.381  1.00  0.00    -0.463 OA
BRANCH   4   5
ATOM      5  C   UNL     1       0.695  -1.901   8.793  1.00  0.00     0.309 C 
ATOM      6  O   UNL     1       0.500  -1.520   9.943  1.00  0.00    -0.252 OA
BRANCH   5   7
ATOM      7  C   UNL     1      -0.398  -1.916   7.715  1.00  0.00     0.111 C 
ATOM      8  C   UNL     1      -0.124  -1.234   6.355  1.00  0.00     0.093 C 
ATOM      9  C   UNL     1       0.122   0.269   6.540  1.00  0.00     0.014 C 
ATOM     10  C   UNL     1      -1.117   0.936   7.123  1.00  0.00     0.001 C 
ATOM     11  C   UNL     1      -1.668  -1.245   8.307  1.00  0.00     0.016 C 
ATOM     12  C   UNL     1      -1.528   0.279   8.435  1.00  0.00     0.001 C 
BRANCH   8  13
ATOM     13  C   UNL     1       0.890  -1.920   5.449  1.00  0.00     0.228 C 
ATOM     14  N   UNL     1       1.192  -1.406   4.220  1.00  0.00    -0.326 N 
ATOM     15  H   UNL     1       2.062  -1.716   3.876  1.00  0.00     0.169 HD
ATOM     16  O   UNL     1       1.478  -2.946   5.791  1.00  0.00    -0.274 OA
BRANCH  14  17
ATOM     17  C   UNL     1       0.532  -0.531   3.338  1.00  0.00     0.041 A 
ATOM     18  C   UNL     1      -0.644   1.011   1.307  1.00  0.00     0.041 A 
ATOM     19  C   UNL     1      -1.424   0.557   2.360  1.00  0.00     0.028 A 
ATOM     20  C   UNL     1       0.732   0.806   1.332  1.00  0.00     0.028 A 
ATOM     21  C   UNL     1      -0.838  -0.243   3.353  1.00  0.00     0.028 A 
ATOM     22  C   UNL     1       1.316   0.025   2.326  1.00  0.00     0.028 A 
BRANCH  18  23
ATOM     23  N   UNL     1      -1.244   1.624   0.204  1.00  0.00    -0.326 N 
ATOM     24  C   UNL     1      -1.030   1.292  -1.116  1.00  0.00     0.224 C 
ATOM     25  O   UNL     1      -1.353   2.077  -2.008  1.00  0.00    -0.275 OA
ATOM     26  H   UNL     1      -1.874   2.358   0.386  1.00  0.00     0.169 HD
BRANCH  24  27
ATOM     27  C   UNL     1      -0.611  -0.146  -1.429  1.00  0.00     0.103 C 
BRANCH  27  28
ATOM     28  C   UNL     1       0.571  -0.307  -2.394  1.00  0.00    -0.008 C 
ATOM     29  C   UNL     1       1.918  -0.112  -1.699  1.00  0.00     0.008 C 
ATOM     30  C   UNL     1       0.531  -1.710  -3.009  1.00  0.00     0.008 C 
ENDBRANCH  27  28
ENDBRANCH  24  27
ENDBRANCH  18  23
ENDBRANCH  14  17
ENDBRANCH   8  13
ENDBRANCH   5   7
ENDBRANCH   4   5
ENDBRANCH   3   4
ENDBRANCH   2   3
ENDBRANCH   1   2
BRANCH   1  31
ATOM     31  C   UNL     1       3.494   0.158   8.647  1.00  0.00     0.188 C 
BRANCH  31  32
ATOM     32  C   UNL     1       3.772  -0.179   7.170  1.00  0.00     0.188 C 
BRANCH  32  33
ATOM     33  O   UNL     1       5.082  -0.593   6.801  1.00  0.00    -0.376 OA
BRANCH  33  34
ATOM     34  C   UNL     1       6.186   0.105   7.367  1.00  0.00     0.202 C 
BRANCH  34  35
ATOM     35  C   UNL     1       6.403   1.501   6.788  1.00  0.00     0.261 C 
BRANCH  35  36
ATOM     36  O   UNL     1       5.439   2.435   7.312  1.00  0.00    -0.460 OA
BRANCH  36  37
ATOM     37  C   UNL     1       4.652   3.039   6.399  1.00  0.00     0.338 C 
ATOM     38  O   UNL     1       4.683   2.908   5.181  1.00  0.00    -0.246 OA
BRANCH  37  39
ATOM     39  C   UNL     1       3.596   3.809   7.077  1.00  0.00     0.060 A 
ATOM     40  C   UNL     1       2.267   3.532   6.740  1.00  0.00     0.016 A 
ATOM     41  C   UNL     1       3.904   4.859   7.945  1.00  0.00     0.016 A 
ATOM     42  C   UNL     1       1.239   4.334   7.234  1.00  0.00     0.010 A 
ATOM     43  C   UNL     1       2.872   5.670   8.432  1.00  0.00     0.010 A 
ATOM     44  C   UNL     1       1.538   5.431   8.053  1.00  0.00    -0.014 A 
BRANCH  44  45
ATOM     45  C   UNL     1       0.478   6.419   8.373  1.00  0.00     0.031 A 
ATOM     46  C   UNL     1       0.400   7.686   7.567  1.00  0.00     0.074 A 
ATOM     47  C   UNL     1      -0.429   6.183   9.337  1.00  0.00     0.049 A 
ATOM     48  N   UNL     1      -0.367   8.734   7.734  1.00  0.00    -0.248 NA
ATOM     49  C   UNL     1       1.305   7.780   6.411  1.00  0.00     0.031 C 
ATOM     50  C   UNL     1      -0.519   4.961  10.132  1.00  0.00     0.029 A 
ATOM     51  N   UNL     1      -1.449   6.972   9.810  1.00  0.00    -0.354 N 
ATOM     52  C   UNL     1      -0.024   9.617   6.719  1.00  0.00     0.074 A 
ATOM     53  C   UNL     1       1.023   8.987   5.943  1.00  0.00     0.031 C 
ATOM     54  C   UNL     1      -1.534   5.086  11.005  1.00  0.00     0.029 A 
ATOM     55  C   UNL     1      -2.131   6.413  10.862  1.00  0.00     0.049 A 
ATOM     56  H   UNL     1      -1.669   7.853   9.431  1.00  0.00     0.167 HD
ATOM     57  C   UNL     1      -0.534  10.844   6.459  1.00  0.00     0.037 A 
ATOM     58  C   UNL     1      -3.101   6.931  11.643  1.00  0.00     0.037 A 
ATOM     59  C   UNL     1      -1.578  11.472   7.224  1.00  0.00     0.049 A 
ATOM     60  C   UNL     1      -3.587   8.336  11.391  1.00  0.00     0.074 A 
ATOM     61  C   UNL     1      -2.147  12.721   7.049  1.00  0.00     0.029 A 
ATOM     62  N   UNL     1      -2.212  10.893   8.314  1.00  0.00    -0.354 N 
ATOM     63  N   UNL     1      -3.237   9.180  10.451  1.00  0.00    -0.248 NA
ATOM     64  C   UNL     1      -4.598   8.864  12.320  1.00  0.00     0.031 C 
ATOM     65  C   UNL     1      -3.097  12.915   8.057  1.00  0.00     0.029 A 
ATOM     66  C   UNL     1      -3.152  11.768   8.832  1.00  0.00     0.049 A 
ATOM     67  H   UNL     1      -2.021   9.994   8.666  1.00  0.00     0.167 HD
ATOM     68  C   UNL     1      -3.996  10.325  10.661  1.00  0.00     0.074 A 
ATOM     69  C   UNL     1      -4.839  10.063  11.808  1.00  0.00     0.031 C 
ATOM     70  C   UNL     1      -3.994  11.489   9.967  1.00  0.00     0.037 A 
BRANCH  57  71
ATOM     71  C   UNL     1       0.065  11.611   5.319  1.00  0.00     0.064 A 
ATOM     72  C   UNL     1      -0.199  11.276   3.983  1.00  0.00     0.173 A 
ATOM     73  C   UNL     1       0.896  12.713   5.569  1.00  0.00     0.173 A 
ATOM     74  F   UNL     1      -0.973  10.220   3.693  1.00  0.00    -0.203 F 
ATOM     75  C   UNL     1       0.366  12.005   2.939  1.00  0.00     0.198 A 
ATOM     76  C   UNL     1       1.438  13.454   4.524  1.00  0.00     0.198 A 
ATOM     77  F   UNL     1       1.177  13.075   6.830  1.00  0.00    -0.203 F 
ATOM     78  F   UNL     1       0.135  11.642   1.669  1.00  0.00    -0.200 F 
ATOM     79  C   UNL     1       1.178  13.096   3.210  1.00  0.00     0.200 A 
ATOM     80  F   UNL     1       2.216  14.514   4.787  1.00  0.00    -0.200 F 
ATOM     81  F   UNL     1       1.718  13.798   2.204  1.00  0.00    -0.200 F 
ENDBRANCH  57  71
BRANCH  58  82
ATOM     82  C   UNL     1      -3.654   6.136  12.771  1.00  0.00     0.064 A 
ATOM     83  C   UNL     1      -4.984   5.694  12.762  1.00  0.00     0.173 A 
ATOM     84  C   UNL     1      -2.876   5.840  13.900  1.00  0.00     0.173 A 
ATOM     85  F   UNL     1      -5.777   5.981  11.719  1.00  0.00    -0.203 F 
ATOM     86  C   UNL     1      -5.519   5.001  13.846  1.00  0.00     0.198 A 
ATOM     87  C   UNL     1      -3.403   5.122  14.971  1.00  0.00     0.198 A 
ATOM     88  F   UNL     1      -1.600   6.250  13.963  1.00  0.00    -0.203 F 
ATOM     89  F   UNL     1      -6.808   4.636  13.834  1.00  0.00    -0.200 F 
ATOM     90  C   UNL     1      -4.727   4.711  14.947  1.00  0.00     0.200 A 
ATOM     91  F   UNL     1      -2.632   4.839  16.029  1.00  0.00    -0.200 F 
ATOM     92  F   UNL     1      -5.244   4.048  15.991  1.00  0.00    -0.200 F 
ENDBRANCH  58  82
BRANCH  70  93
ATOM     93  C   UNL     1      -4.954  12.558  10.403  1.00  0.00     0.064 A 
ATOM     94  C   UNL     1      -4.744  13.303  11.573  1.00  0.00     0.173 A 
ATOM     95  C   UNL     1      -6.070  12.873   9.613  1.00  0.00     0.173 A 
ATOM     96  F   UNL     1      -3.700  13.030  12.368  1.00  0.00    -0.203 F 
ATOM     97  C   UNL     1      -5.630  14.311  11.947  1.00  0.00     0.198 A 
ATOM     98  C   UNL     1      -6.938  13.900   9.977  1.00  0.00     0.198 A 
ATOM     99  F   UNL     1      -6.311  12.195   8.481  1.00  0.00    -0.203 F 
ATOM    100  F   UNL     1      -5.433  14.983  13.089  1.00  0.00    -0.200 F 
ATOM    101  C   UNL     1      -6.721  14.613  11.145  1.00  0.00     0.200 A 
ATOM    102  F   UNL     1      -7.985  14.198   9.195  1.00  0.00    -0.200 F 
ATOM    103  F   UNL     1      -7.566  15.589  11.503  1.00  0.00    -0.200 F 
ENDBRANCH  70  93
ENDBRANCH  44  45
ENDBRANCH  37  39
ENDBRANCH  36  37
ENDBRANCH  35  36
ENDBRANCH  34  35
ENDBRANCH  33  34
ENDBRANCH  32  33
ENDBRANCH  31  32
ENDBRANCH   1  31
TORSDOF 22
