REMARK SMILES CN(C)S(=O)(=O)c1cccc(-c2cc(Cl)cc(C(=O)OCCOCCOCCOC(=O)c3ccc(-c4c5nc(c(-c6c(F)c(F)c(F)c(F)c6F)c6ccc([nH]6)c(-c6c(F)c(F)c(F)c(F)c6F)c6nc(c(-c7c(F)c(F)c(F)c(F)c7F)c7ccc4[nH]7)C=C6)C=C5)cc3)c2)c1
REMARK SMILES IDX 24 1 23 2 22 3 21 4 20 5 18 6 19 7 17 8 12 9 13 10 95 11
REMARK SMILES IDX 14 12 15 13 16 14 11 15 7 16 8 17 96 18 9 19 10 20 4 21 5 22
REMARK SMILES IDX 6 23 2 24 1 25 3 26 25 27 26 28 27 29 28 30 29 31 30 32
REMARK SMILES IDX 31 33 32 34 33 35 94 36 34 37 93 38 35 39 36 40 37 41 87 42
REMARK SMILES IDX 38 43 92 44 86 45 88 46 39 47 91 48 85 49 84 50 40 52 72 53
REMARK SMILES IDX 52 54 71 55 53 56 56 57 70 58 89 59 54 60 55 61 69 63 90 64
REMARK SMILES IDX 57 65 41 66 42 67 50 68 43 69 44 70 48 71 51 72 45 73 46 74
REMARK SMILES IDX 49 75 47 76 73 77 74 78 82 79 75 80 76 81 80 82 83 83 77 84
REMARK SMILES IDX 78 85 81 86 79 87 58 88 59 89 67 90 60 91 61 92 65 93 68 94
REMARK SMILES IDX 62 95 63 96 66 97 64 98
REMARK H PARENT 88 51 56 62
REMARK Flexibility Score: inf
ROOT
ATOM      1  C   UNL     1      -0.917   5.673  10.198  1.00  0.00     0.188 C 
ENDROOT
BRANCH   1   2
ATOM      2  O   UNL     1      -0.581   4.777  11.252  1.00  0.00    -0.376 OA
BRANCH   2   3
ATOM      3  C   UNL     1       0.088   3.555  10.957  1.00  0.00     0.202 C 
BRANCH   3   4
ATOM      4  C   UNL     1      -0.565   2.578   9.972  1.00  0.00     0.261 C 
BRANCH   4   5
ATOM      5  O   UNL     1      -0.840   3.157   8.687  1.00  0.00    -0.460 OA
BRANCH   5   6
ATOM      6  C   UNL     1      -2.143   3.178   8.315  1.00  0.00     0.338 C 
ATOM      7  O   UNL     1      -3.091   2.698   8.911  1.00  0.00    -0.246 OA
BRANCH   6   8
ATOM      8  C   UNL     1      -2.303   4.067   7.144  1.00  0.00     0.062 A 
ATOM      9  C   UNL     1      -1.568   4.897   4.962  1.00  0.00    -0.016 A 
ATOM     10  C   UNL     1      -2.613   5.837   5.014  1.00  0.00     0.029 A 
ATOM     11  C   UNL     1      -1.413   4.030   6.064  1.00  0.00     0.024 A 
ATOM     12  C   UNL     1      -3.482   5.885   6.107  1.00  0.00     0.042 A 
ATOM     13  Cl  UNL     1      -4.726   7.073   6.159  1.00  0.00    -0.084 Cl
ATOM     14  C   UNL     1      -3.348   4.992   7.162  1.00  0.00     0.036 A 
BRANCH   9  15
ATOM     15  C   UNL     1      -0.674   4.788   3.790  1.00  0.00    -0.017 A 
ATOM     16  C   UNL     1       0.626   3.393   2.264  1.00  0.00     0.083 A 
ATOM     17  C   UNL     1       1.101   4.516   1.592  1.00  0.00     0.022 A 
ATOM     18  C   UNL     1      -0.258   3.525   3.340  1.00  0.00     0.030 A 
ATOM     19  C   UNL     1       0.678   5.779   2.004  1.00  0.00     0.002 A 
ATOM     20  C   UNL     1      -0.194   5.913   3.095  1.00  0.00     0.009 A 
BRANCH  16  21
ATOM     21  S   UNL     1       1.230   1.780   1.841  1.00  0.00     0.242 S 
ATOM     22  O   UNL     1       0.717   0.837   2.817  1.00  0.00    -0.207 OA
ATOM     23  O   UNL     1       2.651   1.899   1.604  1.00  0.00    -0.207 OA
BRANCH  21  24
ATOM     24  N   UNL     1       0.466   1.427   0.351  1.00  0.00    -0.204 NA
ATOM     25  C   UNL     1       0.977   0.163  -0.238  1.00  0.00     0.124 C 
ATOM     26  C   UNL     1      -1.015   1.435   0.379  1.00  0.00     0.124 C 
ENDBRANCH  21  24
ENDBRANCH  16  21
ENDBRANCH   9  15
ENDBRANCH   6   8
ENDBRANCH   5   6
ENDBRANCH   4   5
ENDBRANCH   3   4
ENDBRANCH   2   3
ENDBRANCH   1   2
BRANCH   1  27
ATOM     27  C   UNL     1       0.127   6.018   9.115  1.00  0.00     0.188 C 
BRANCH  27  28
ATOM     28  O   UNL     1       1.389   5.435   9.321  1.00  0.00    -0.376 OA
BRANCH  28  29
ATOM     29  C   UNL     1       2.436   6.170   9.925  1.00  0.00     0.202 C 
BRANCH  29  30
ATOM     30  C   UNL     1       2.237   7.281  10.973  1.00  0.00     0.261 C 
BRANCH  30  31
ATOM     31  O   UNL     1       0.939   7.864  11.104  1.00  0.00    -0.460 OA
BRANCH  31  32
ATOM     32  C   UNL     1       0.712   9.001  10.409  1.00  0.00     0.338 C 
ATOM     33  O   UNL     1       1.459   9.554   9.624  1.00  0.00    -0.246 OA
BRANCH  32  34
ATOM     34  C   UNL     1      -0.692   9.400  10.635  1.00  0.00     0.060 A 
ATOM     35  C   UNL     1      -1.572   9.414   9.547  1.00  0.00     0.016 A 
ATOM     36  C   UNL     1      -1.129   9.772  11.909  1.00  0.00     0.016 A 
ATOM     37  C   UNL     1      -2.892   9.829   9.726  1.00  0.00     0.010 A 
ATOM     38  C   UNL     1      -2.446  10.205  12.082  1.00  0.00     0.010 A 
ATOM     39  C   UNL     1      -3.326  10.262  10.987  1.00  0.00    -0.014 A 
BRANCH  39  40
ATOM     40  C   UNL     1      -4.645  10.924  11.131  1.00  0.00     0.031 A 
ATOM     41  C   UNL     1      -4.705  12.425  11.107  1.00  0.00     0.074 A 
ATOM     42  C   UNL     1      -5.772  10.205  11.277  1.00  0.00     0.049 A 
ATOM     43  N   UNL     1      -5.733  13.221  11.263  1.00  0.00    -0.248 NA
ATOM     44  C   UNL     1      -3.431  13.124  10.877  1.00  0.00     0.031 C 
ATOM     45  C   UNL     1      -5.850   8.747  11.284  1.00  0.00     0.029 A 
ATOM     46  N   UNL     1      -7.069  10.615  11.462  1.00  0.00    -0.354 N 
ATOM     47  C   UNL     1      -5.230  14.510  11.152  1.00  0.00     0.074 A 
ATOM     48  C   UNL     1      -3.802  14.394  10.946  1.00  0.00     0.031 C 
ATOM     49  C   UNL     1      -7.129   8.381  11.478  1.00  0.00     0.029 A 
ATOM     50  C   UNL     1      -7.952   9.579  11.639  1.00  0.00     0.049 A 
ATOM     51  H   UNL     1      -7.340  11.562  11.467  1.00  0.00     0.167 HD
ATOM     52  C   UNL     1      -5.900  15.686  11.209  1.00  0.00     0.037 A 
ATOM     53  C   UNL     1      -9.270   9.601  11.922  1.00  0.00     0.037 A 
ATOM     54  C   UNL     1      -7.318  15.803  11.422  1.00  0.00     0.049 A 
ATOM     55  C   UNL     1      -9.979  10.925  12.057  1.00  0.00     0.074 A 
ATOM     56  C   UNL     1      -8.091  16.949  11.477  1.00  0.00     0.029 A 
ATOM     57  N   UNL     1      -8.175  14.732  11.626  1.00  0.00    -0.354 N 
ATOM     58  N   UNL     1      -9.505  12.139  11.918  1.00  0.00    -0.248 NA
ATOM     59  C   UNL     1     -11.412  10.879  12.387  1.00  0.00     0.031 C 
ATOM     60  C   UNL     1      -9.408  16.575  11.765  1.00  0.00     0.029 A 
ATOM     61  C   UNL     1      -9.465  15.193  11.835  1.00  0.00     0.049 A 
ATOM     62  H   UNL     1      -7.907  13.785  11.623  1.00  0.00     0.167 HD
ATOM     63  C   UNL     1     -10.581  12.996  12.113  1.00  0.00     0.074 A 
ATOM     64  C   UNL     1     -11.737  12.164  12.369  1.00  0.00     0.031 C 
ATOM     65  C   UNL     1     -10.609  14.352  12.079  1.00  0.00     0.037 A 
BRANCH  52  66
ATOM     66  C   UNL     1      -5.097  16.945  11.064  1.00  0.00     0.064 A 
ATOM     67  C   UNL     1      -4.547  17.329   9.832  1.00  0.00     0.173 A 
ATOM     68  C   UNL     1      -4.901  17.793  12.164  1.00  0.00     0.173 A 
ATOM     69  F   UNL     1      -4.694  16.544   8.753  1.00  0.00    -0.203 F 
ATOM     70  C   UNL     1      -3.810  18.504   9.712  1.00  0.00     0.198 A 
ATOM     71  C   UNL     1      -4.187  18.980  12.035  1.00  0.00     0.198 A 
ATOM     72  F   UNL     1      -5.408  17.472  13.364  1.00  0.00    -0.203 F 
ATOM     73  F   UNL     1      -3.256  18.829   8.536  1.00  0.00    -0.200 F 
ATOM     74  C   UNL     1      -3.636  19.332  10.811  1.00  0.00     0.200 A 
ATOM     75  F   UNL     1      -4.029  19.785  13.095  1.00  0.00    -0.200 F 
ATOM     76  F   UNL     1      -2.932  20.465  10.693  1.00  0.00    -0.200 F 
ENDBRANCH  52  66
BRANCH  53  77
ATOM     77  C   UNL     1     -10.011   8.326  12.111  1.00  0.00     0.064 A 
ATOM     78  C   UNL     1     -10.984   7.912  11.192  1.00  0.00     0.173 A 
ATOM     79  C   UNL     1      -9.781   7.512  13.230  1.00  0.00     0.173 A 
ATOM     80  F   UNL     1     -11.261   8.673  10.123  1.00  0.00    -0.203 F 
ATOM     81  C   UNL     1     -11.712   6.741  11.393  1.00  0.00     0.198 A 
ATOM     82  C   UNL     1     -10.491   6.327  13.417  1.00  0.00     0.198 A 
ATOM     83  F   UNL     1      -8.866   7.868  14.144  1.00  0.00    -0.203 F 
ATOM     84  F   UNL     1     -12.673   6.395  10.526  1.00  0.00    -0.200 F 
ATOM     85  C   UNL     1     -11.461   5.947  12.502  1.00  0.00     0.200 A 
ATOM     86  F   UNL     1     -10.241   5.560  14.486  1.00  0.00    -0.200 F 
ATOM     87  F   UNL     1     -12.164   4.823  12.697  1.00  0.00    -0.200 F 
ENDBRANCH  53  77
BRANCH  65  88
ATOM     88  C   UNL     1     -11.937  15.023  12.286  1.00  0.00     0.064 A 
ATOM     89  C   UNL     1     -12.556  15.063  13.543  1.00  0.00     0.173 A 
ATOM     90  C   UNL     1     -12.574  15.675  11.219  1.00  0.00     0.173 A 
ATOM     91  F   UNL     1     -11.994  14.444  14.592  1.00  0.00    -0.203 F 
ATOM     92  C   UNL     1     -13.776  15.711  13.720  1.00  0.00     0.198 A 
ATOM     93  C   UNL     1     -13.779  16.347  11.405  1.00  0.00     0.198 A 
ATOM     94  F   UNL     1     -12.021  15.674   9.997  1.00  0.00    -0.203 F 
ATOM     95  F   UNL     1     -14.371  15.699  14.921  1.00  0.00    -0.200 F 
ATOM     96  C   UNL     1     -14.382  16.359  12.654  1.00  0.00     0.200 A 
ATOM     97  F   UNL     1     -14.356  16.985  10.377  1.00  0.00    -0.200 F 
ATOM     98  F   UNL     1     -15.552  16.989  12.828  1.00  0.00    -0.200 F 
ENDBRANCH  65  88
ENDBRANCH  39  40
ENDBRANCH  32  34
ENDBRANCH  31  32
ENDBRANCH  30  31
ENDBRANCH  29  30
ENDBRANCH  28  29
ENDBRANCH  27  28
ENDBRANCH   1  27
TORSDOF 20
