REMARK SMILES CCCC[C@H]([NH3+])C(=O)Nc1snc(C)c1C(=O)OCCOCCOCCOC(=O)c1ccc(-c2c3nc(c(-c4c(F)c(F)c(F)c(F)c4F)c4ccc([nH]4)c(-c4c(F)c(F)c(F)c(F)c4F)c4nc(c(-c5c(F)c(F)c(F)c(F)c5F)c5ccc2[nH]5)C=C4)C=C3)cc1
REMARK SMILES IDX 21 1 20 2 19 3 18 4 16 5 17 6 15 7 10 8 11 9 12 10 13 11
REMARK SMILES IDX 14 12 9 13 7 14 8 15 5 17 4 18 3 19 2 20 1 21 6 22 22 26
REMARK SMILES IDX 23 27 24 28 25 29 26 30 27 31 28 32 29 33 30 34 31 35 92 36
REMARK SMILES IDX 32 37 91 38 33 39 34 40 35 41 85 42 36 43 90 44 84 45 86 46
REMARK SMILES IDX 37 47 89 48 83 49 82 50 38 52 70 53 50 54 69 55 51 56 54 57
REMARK SMILES IDX 68 58 87 59 52 60 53 61 67 63 88 64 55 65 39 66 40 67 48 68
REMARK SMILES IDX 41 69 42 70 46 71 49 72 43 73 44 74 47 75 45 76 71 77 72 78
REMARK SMILES IDX 80 79 73 80 74 81 78 82 81 83 75 84 76 85 79 86 77 87 56 88
REMARK SMILES IDX 57 89 65 90 58 91 59 92 63 93 66 94 60 95 61 96 64 97 62 98
REMARK H PARENT 9 16 6 23 6 24 6 25 86 51 54 62
REMARK Flexibility Score: inf
ROOT
ATOM      1  O   UNL     1       4.077   2.106   2.475  1.00  0.00    -0.376 OA
ENDROOT
BRANCH   1   2
ATOM      2  C   UNL     1       3.314   1.605   1.391  1.00  0.00     0.202 C 
BRANCH   2   3
ATOM      3  C   UNL     1       1.871   1.101   1.570  1.00  0.00     0.261 C 
BRANCH   3   4
ATOM      4  O   UNL     1       1.390   0.928   2.907  1.00  0.00    -0.460 OA
BRANCH   4   5
ATOM      5  C   UNL     1       1.380  -0.330   3.447  1.00  0.00     0.343 C 
ATOM      6  O   UNL     1       1.799  -1.319   2.891  1.00  0.00    -0.246 OA
BRANCH   5   7
ATOM      7  C   UNL     1       0.857  -0.321   4.804  1.00  0.00     0.117 A 
ATOM      8  C   UNL     1      -0.204   0.443   5.243  1.00  0.00     0.131 A 
ATOM      9  S   UNL     1      -0.259   0.417   6.943  1.00  0.00    -0.017 S 
ATOM     10  N   UNL     1       0.933  -0.717   7.129  1.00  0.00    -0.195 NA
ATOM     11  C   UNL     1       1.458  -0.997   5.933  1.00  0.00     0.068 A 
ATOM     12  C   UNL     1       2.654  -1.886   5.901  1.00  0.00     0.069 C 
BRANCH   8  13
ATOM     13  N   UNL     1      -1.141   1.238   4.633  1.00  0.00    -0.310 N 
ATOM     14  C   UNL     1      -1.605   1.141   3.354  1.00  0.00     0.283 C 
ATOM     15  O   UNL     1      -1.906   2.188   2.767  1.00  0.00    -0.268 OA
ATOM     16  H   UNL     1      -1.521   1.961   5.181  1.00  0.00     0.171 HD
BRANCH  14  17
ATOM     17  C   UNL     1      -1.879  -0.228   2.661  1.00  0.00     0.271 C 
BRANCH  17  18
ATOM     18  C   UNL     1      -2.144  -1.448   3.553  1.00  0.00     0.075 C 
BRANCH  18  19
ATOM     19  C   UNL     1      -3.470  -1.358   4.315  1.00  0.00     0.006 C 
BRANCH  19  20
ATOM     20  C   UNL     1      -4.698  -1.145   3.423  1.00  0.00    -0.003 C 
ATOM     21  C   UNL     1      -4.771  -2.110   2.246  1.00  0.00     0.004 C 
ENDBRANCH  19  20
ENDBRANCH  18  19
ENDBRANCH  17  18
BRANCH  17  22
ATOM     22  N   UNL     1      -0.930  -0.544   1.587  1.00  0.00    -0.347 N 
ATOM     23  H   UNL     1      -0.011  -0.731   1.988  1.00  0.00     0.345 HD
ATOM     24  H   UNL     1      -0.867   0.248   0.946  1.00  0.00     0.345 HD
ATOM     25  H   UNL     1      -1.253  -1.367   1.079  1.00  0.00     0.345 HD
ENDBRANCH  17  22
ENDBRANCH  14  17
ENDBRANCH   8  13
ENDBRANCH   5   7
ENDBRANCH   4   5
ENDBRANCH   3   4
ENDBRANCH   2   3
ENDBRANCH   1   2
BRANCH   1  26
ATOM     26  C   UNL     1       4.000   1.445   3.717  1.00  0.00     0.188 C 
BRANCH  26  27
ATOM     27  C   UNL     1       3.178   2.207   4.783  1.00  0.00     0.188 C 
BRANCH  27  28
ATOM     28  O   UNL     1       2.280   3.261   4.455  1.00  0.00    -0.376 OA
BRANCH  28  29
ATOM     29  C   UNL     1       2.576   4.243   3.469  1.00  0.00     0.202 C 
BRANCH  29  30
ATOM     30  C   UNL     1       3.873   5.052   3.512  1.00  0.00     0.261 C 
BRANCH  30  31
ATOM     31  O   UNL     1       5.010   4.293   3.864  1.00  0.00    -0.460 OA
BRANCH  31  32
ATOM     32  C   UNL     1       5.261   4.272   5.185  1.00  0.00     0.338 C 
ATOM     33  O   UNL     1       4.618   4.794   6.079  1.00  0.00    -0.246 OA
BRANCH  32  34
ATOM     34  C   UNL     1       6.503   3.527   5.402  1.00  0.00     0.060 A 
ATOM     35  C   UNL     1       6.876   3.340   6.731  1.00  0.00     0.016 A 
ATOM     36  C   UNL     1       7.391   3.346   4.332  1.00  0.00     0.016 A 
ATOM     37  C   UNL     1       8.217   3.305   7.007  1.00  0.00     0.010 A 
ATOM     38  C   UNL     1       8.731   3.328   4.608  1.00  0.00     0.010 A 
ATOM     39  C   UNL     1       9.114   3.430   5.940  1.00  0.00    -0.014 A 
BRANCH  39  40
ATOM     40  C   UNL     1      10.505   3.609   6.266  1.00  0.00     0.031 A 
ATOM     41  C   UNL     1      11.111   2.367   6.769  1.00  0.00     0.074 A 
ATOM     42  C   UNL     1      11.138   4.781   6.078  1.00  0.00     0.049 A 
ATOM     43  N   UNL     1      11.517   2.136   7.970  1.00  0.00    -0.248 NA
ATOM     44  C   UNL     1      11.067   1.179   5.901  1.00  0.00     0.031 C 
ATOM     45  C   UNL     1      10.656   5.973   5.376  1.00  0.00     0.029 A 
ATOM     46  N   UNL     1      12.413   5.118   6.406  1.00  0.00    -0.354 N 
ATOM     47  C   UNL     1      11.992   0.833   7.949  1.00  0.00     0.074 A 
ATOM     48  C   UNL     1      11.499   0.235   6.737  1.00  0.00     0.031 C 
ATOM     49  C   UNL     1      11.702   6.795   5.128  1.00  0.00     0.029 A 
ATOM     50  C   UNL     1      12.894   6.245   5.752  1.00  0.00     0.049 A 
ATOM     51  H   UNL     1      12.950   4.607   7.053  1.00  0.00     0.167 HD
ATOM     52  C   UNL     1      13.014   0.480   8.770  1.00  0.00     0.037 A 
ATOM     53  C   UNL     1      14.197   6.618   5.670  1.00  0.00     0.037 A 
ATOM     54  C   UNL     1      13.102   1.381   9.897  1.00  0.00     0.049 A 
ATOM     55  C   UNL     1      14.932   5.914   6.755  1.00  0.00     0.074 A 
ATOM     56  C   UNL     1      12.220   1.777  10.886  1.00  0.00     0.029 A 
ATOM     57  N   UNL     1      14.104   2.320   9.899  1.00  0.00    -0.354 N 
ATOM     58  N   UNL     1      14.797   6.198   8.021  1.00  0.00    -0.248 NA
ATOM     59  C   UNL     1      15.446   4.580   6.470  1.00  0.00     0.031 C 
ATOM     60  C   UNL     1      12.484   3.163  11.091  1.00  0.00     0.029 A 
ATOM     61  C   UNL     1      13.556   3.519  10.274  1.00  0.00     0.049 A 
ATOM     62  H   UNL     1      15.049   2.161   9.672  1.00  0.00     0.167 HD
ATOM     63  C   UNL     1      14.758   4.964   8.653  1.00  0.00     0.074 A 
ATOM     64  C   UNL     1      15.250   4.010   7.662  1.00  0.00     0.031 C 
ATOM     65  C   UNL     1      14.047   4.792   9.806  1.00  0.00     0.037 A 
BRANCH  52  66
ATOM     66  C   UNL     1      14.181  -0.358   8.301  1.00  0.00     0.064 A 
ATOM     67  C   UNL     1      15.174  -0.698   9.238  1.00  0.00     0.173 A 
ATOM     68  C   UNL     1      14.532  -0.556   6.945  1.00  0.00     0.173 A 
ATOM     69  F   UNL     1      14.952  -0.546  10.552  1.00  0.00    -0.203 F 
ATOM     70  C   UNL     1      16.455  -1.088   8.843  1.00  0.00     0.198 A 
ATOM     71  C   UNL     1      15.793  -0.998   6.558  1.00  0.00     0.198 A 
ATOM     72  F   UNL     1      13.727  -0.228   5.929  1.00  0.00    -0.203 F 
ATOM     73  F   UNL     1      17.411  -1.252   9.766  1.00  0.00    -0.200 F 
ATOM     74  C   UNL     1      16.767  -1.225   7.503  1.00  0.00     0.200 A 
ATOM     75  F   UNL     1      16.077  -1.109   5.252  1.00  0.00    -0.200 F 
ATOM     76  F   UNL     1      18.014  -1.525   7.120  1.00  0.00    -0.200 F 
ENDBRANCH  52  66
BRANCH  53  77
ATOM     77  C   UNL     1      14.902   7.282   4.546  1.00  0.00     0.064 A 
ATOM     78  C   UNL     1      16.193   7.812   4.717  1.00  0.00     0.173 A 
ATOM     79  C   UNL     1      14.450   7.166   3.217  1.00  0.00     0.173 A 
ATOM     80  F   UNL     1      16.723   7.917   5.945  1.00  0.00    -0.203 F 
ATOM     81  C   UNL     1      16.992   8.171   3.626  1.00  0.00     0.198 A 
ATOM     82  C   UNL     1      15.243   7.535   2.130  1.00  0.00     0.198 A 
ATOM     83  F   UNL     1      13.268   6.601   2.936  1.00  0.00    -0.203 F 
ATOM     84  F   UNL     1      18.243   8.607   3.828  1.00  0.00    -0.200 F 
ATOM     85  C   UNL     1      16.520   8.023   2.333  1.00  0.00     0.200 A 
ATOM     86  F   UNL     1      14.787   7.351   0.882  1.00  0.00    -0.200 F 
ATOM     87  F   UNL     1      17.306   8.307   1.285  1.00  0.00    -0.200 F 
ENDBRANCH  53  77
BRANCH  65  88
ATOM     88  C   UNL     1      13.564   6.022  10.521  1.00  0.00     0.064 A 
ATOM     89  C   UNL     1      12.697   6.979   9.962  1.00  0.00     0.173 A 
ATOM     90  C   UNL     1      13.912   6.179  11.869  1.00  0.00     0.173 A 
ATOM     91  F   UNL     1      12.226   6.841   8.715  1.00  0.00    -0.203 F 
ATOM     92  C   UNL     1      12.259   8.075  10.704  1.00  0.00     0.198 A 
ATOM     93  C   UNL     1      13.438   7.250  12.619  1.00  0.00     0.198 A 
ATOM     94  F   UNL     1      14.689   5.266  12.474  1.00  0.00    -0.203 F 
ATOM     95  F   UNL     1      11.459   8.992  10.139  1.00  0.00    -0.200 F 
ATOM     96  C   UNL     1      12.627   8.207  12.032  1.00  0.00     0.200 A 
ATOM     97  F   UNL     1      13.755   7.344  13.918  1.00  0.00    -0.200 F 
ATOM     98  F   UNL     1      12.181   9.244  12.755  1.00  0.00    -0.200 F 
ENDBRANCH  65  88
ENDBRANCH  39  40
ENDBRANCH  32  34
ENDBRANCH  31  32
ENDBRANCH  30  31
ENDBRANCH  29  30
ENDBRANCH  28  29
ENDBRANCH  27  28
ENDBRANCH  26  27
ENDBRANCH   1  26
TORSDOF 23
