REMARK SMILES CCN1C[C@@H](C(=O)OCCOCCOCCOC(=O)c2ccc(-c3c4nc(c(-c5c(F)c(F)c(F)c(F)c5F)c5ccc([nH]5)c(-c5c(F)c(F)c(F)c(F)c5F)c5nc(c(-c6c(F)c(F)c(F)c(F)c6F)c6ccc3[nH]6)C=C5)C=C4)cc2)CC1=O
REMARK SMILES IDX 13 1 12 2 11 3 10 4 9 5 8 6 6 7 7 8 5 9 3 10 4 11 84 12
REMARK SMILES IDX 83 13 85 14 2 15 1 16 14 17 15 18 16 19 17 20 18 21 19 22
REMARK SMILES IDX 20 23 21 24 82 25 22 26 81 27 23 28 24 29 25 30 75 31 26 32
REMARK SMILES IDX 80 33 74 34 76 35 27 36 79 37 73 38 72 39 28 41 60 42 40 43
REMARK SMILES IDX 59 44 41 45 44 46 58 47 77 48 42 49 43 50 57 52 78 53 45 54
REMARK SMILES IDX 29 55 30 56 38 57 31 58 32 59 36 60 39 61 33 62 34 63 37 64
REMARK SMILES IDX 35 65 61 66 62 67 70 68 63 69 64 70 68 71 71 72 65 73 66 74
REMARK SMILES IDX 69 75 67 76 46 77 47 78 55 79 48 80 49 81 53 82 56 83 50 84
REMARK SMILES IDX 51 85 54 86 52 87
REMARK H PARENT 76 40 44 51
REMARK Flexibility Score: inf
ROOT
ATOM      1  C   UNL     1       2.930  -6.683  -1.671  1.00  0.00     0.188 C 
ENDROOT
BRANCH   1   2
ATOM      2  C   UNL     1       3.830  -6.644  -2.917  1.00  0.00     0.188 C 
BRANCH   2   3
ATOM      3  O   UNL     1       5.237  -6.799  -2.768  1.00  0.00    -0.376 OA
BRANCH   3   4
ATOM      4  C   UNL     1       5.894  -6.168  -1.673  1.00  0.00     0.202 C 
BRANCH   4   5
ATOM      5  C   UNL     1       5.678  -4.661  -1.444  1.00  0.00     0.261 C 
BRANCH   5   6
ATOM      6  O   UNL     1       4.296  -4.236  -1.395  1.00  0.00    -0.463 OA
BRANCH   6   7
ATOM      7  C   UNL     1       3.925  -3.284  -2.282  1.00  0.00     0.311 C 
ATOM      8  O   UNL     1       4.696  -2.718  -3.051  1.00  0.00    -0.252 OA
BRANCH   7   9
ATOM      9  C   UNL     1       2.441  -2.978  -2.313  1.00  0.00     0.128 C 
ATOM     10  N   UNL     1       0.964  -1.332  -1.566  1.00  0.00    -0.342 N 
ATOM     11  C   UNL     1       2.299  -1.486  -2.074  1.00  0.00     0.135 C 
ATOM     12  C   UNL     1       0.452  -2.509  -1.061  1.00  0.00     0.223 C 
ATOM     13  C   UNL     1       1.467  -3.590  -1.304  1.00  0.00     0.117 C 
ATOM     14  O   UNL     1      -0.611  -2.661  -0.484  1.00  0.00    -0.275 OA
BRANCH  10  15
ATOM     15  C   UNL     1       0.382  -0.035  -1.302  1.00  0.00     0.116 C 
ATOM     16  C   UNL     1       0.848   0.499   0.041  1.00  0.00     0.027 C 
ENDBRANCH  10  15
ENDBRANCH   7   9
ENDBRANCH   6   7
ENDBRANCH   5   6
ENDBRANCH   4   5
ENDBRANCH   3   4
ENDBRANCH   2   3
ENDBRANCH   1   2
BRANCH   1  17
ATOM     17  O   UNL     1       3.608  -6.904  -0.460  1.00  0.00    -0.376 OA
BRANCH  17  18
ATOM     18  C   UNL     1       3.348  -8.097   0.250  1.00  0.00     0.202 C 
BRANCH  18  19
ATOM     19  C   UNL     1       3.370  -9.451  -0.483  1.00  0.00     0.261 C 
BRANCH  19  20
ATOM     20  O   UNL     1       2.875  -9.479  -1.833  1.00  0.00    -0.460 OA
BRANCH  20  21
ATOM     21  C   UNL     1       1.531  -9.562  -1.999  1.00  0.00     0.338 C 
ATOM     22  O   UNL     1       0.688  -9.607  -1.130  1.00  0.00    -0.246 OA
BRANCH  21  23
ATOM     23  C   UNL     1       1.242  -9.356  -3.441  1.00  0.00     0.060 A 
ATOM     24  C   UNL     1       0.501  -8.232  -3.837  1.00  0.00     0.016 A 
ATOM     25  C   UNL     1       1.701 -10.265  -4.393  1.00  0.00     0.016 A 
ATOM     26  C   UNL     1       0.200  -8.027  -5.187  1.00  0.00     0.010 A 
ATOM     27  C   UNL     1       1.376 -10.073  -5.740  1.00  0.00     0.010 A 
ATOM     28  C   UNL     1       0.601  -8.969  -6.142  1.00  0.00    -0.014 A 
BRANCH  28  29
ATOM     29  C   UNL     1       0.061  -8.914  -7.525  1.00  0.00     0.031 A 
ATOM     30  C   UNL     1      -1.092  -9.813  -7.879  1.00  0.00     0.074 A 
ATOM     31  C   UNL     1       0.587  -8.102  -8.459  1.00  0.00     0.049 A 
ATOM     32  N   UNL     1      -1.658 -10.030  -9.038  1.00  0.00    -0.248 NA
ATOM     33  C   UNL     1      -1.680 -10.579  -6.768  1.00  0.00     0.031 C 
ATOM     34  C   UNL     1       1.674  -7.152  -8.239  1.00  0.00     0.029 A 
ATOM     35  N   UNL     1       0.284  -7.966  -9.793  1.00  0.00    -0.354 N 
ATOM     36  C   UNL     1      -2.654 -10.969  -8.801  1.00  0.00     0.074 A 
ATOM     37  C   UNL     1      -2.599 -11.299  -7.393  1.00  0.00     0.031 C 
ATOM     38  C   UNL     1       1.966  -6.548  -9.404  1.00  0.00     0.029 A 
ATOM     39  C   UNL     1       1.114  -7.098 -10.459  1.00  0.00     0.049 A 
ATOM     40  H   UNL     1      -0.458  -8.445 -10.229  1.00  0.00     0.167 HD
ATOM     41  C   UNL     1      -3.536 -11.505  -9.677  1.00  0.00     0.037 A 
ATOM     42  C   UNL     1       1.198  -6.809 -11.774  1.00  0.00     0.037 A 
ATOM     43  C   UNL     1      -3.590 -11.175 -11.077  1.00  0.00     0.049 A 
ATOM     44  C   UNL     1       0.254  -7.475 -12.745  1.00  0.00     0.074 A 
ATOM     45  C   UNL     1      -4.468 -11.642 -12.040  1.00  0.00     0.029 A 
ATOM     46  N   UNL     1      -2.720 -10.305 -11.718  1.00  0.00    -0.354 N 
ATOM     47  N   UNL     1      -0.704  -8.340 -12.512  1.00  0.00    -0.248 NA
ATOM     48  C   UNL     1       0.403  -7.122 -14.165  1.00  0.00     0.031 C 
ATOM     49  C   UNL     1      -4.087 -11.110 -13.275  1.00  0.00     0.029 A 
ATOM     50  C   UNL     1      -3.019 -10.250 -13.071  1.00  0.00     0.049 A 
ATOM     51  H   UNL     1      -1.998  -9.801 -11.278  1.00  0.00     0.167 HD
ATOM     52  C   UNL     1      -1.290  -8.607 -13.744  1.00  0.00     0.074 A 
ATOM     53  C   UNL     1      -0.588  -7.804 -14.722  1.00  0.00     0.031 C 
ATOM     54  C   UNL     1      -2.319  -9.441 -14.037  1.00  0.00     0.037 A 
BRANCH  41  55
ATOM     55  C   UNL     1      -4.491 -12.541  -9.155  1.00  0.00     0.064 A 
ATOM     56  C   UNL     1      -5.529 -12.216  -8.268  1.00  0.00     0.173 A 
ATOM     57  C   UNL     1      -4.381 -13.876  -9.573  1.00  0.00     0.173 A 
ATOM     58  F   UNL     1      -5.671 -10.957  -7.826  1.00  0.00    -0.203 F 
ATOM     59  C   UNL     1      -6.400 -13.195  -7.796  1.00  0.00     0.198 A 
ATOM     60  C   UNL     1      -5.275 -14.845  -9.127  1.00  0.00     0.198 A 
ATOM     61  F   UNL     1      -3.410 -14.242 -10.424  1.00  0.00    -0.203 F 
ATOM     62  F   UNL     1      -7.349 -12.872  -6.906  1.00  0.00    -0.200 F 
ATOM     63  C   UNL     1      -6.278 -14.506  -8.231  1.00  0.00     0.200 A 
ATOM     64  F   UNL     1      -5.165 -16.108  -9.562  1.00  0.00    -0.200 F 
ATOM     65  F   UNL     1      -7.122 -15.445  -7.782  1.00  0.00    -0.200 F 
ENDBRANCH  41  55
BRANCH  42  66
ATOM     66  C   UNL     1       2.235  -5.859 -12.260  1.00  0.00     0.064 A 
ATOM     67  C   UNL     1       1.882  -4.618 -12.810  1.00  0.00     0.173 A 
ATOM     68  C   UNL     1       3.600  -6.182 -12.208  1.00  0.00     0.173 A 
ATOM     69  F   UNL     1       0.590  -4.274 -12.911  1.00  0.00    -0.203 F 
ATOM     70  C   UNL     1       2.851  -3.747 -13.305  1.00  0.00     0.198 A 
ATOM     71  C   UNL     1       4.570  -5.296 -12.673  1.00  0.00     0.198 A 
ATOM     72  F   UNL     1       3.992  -7.359 -11.698  1.00  0.00    -0.203 F 
ATOM     73  F   UNL     1       2.482  -2.591 -13.874  1.00  0.00    -0.200 F 
ATOM     74  C   UNL     1       4.194  -4.083 -13.229  1.00  0.00     0.200 A 
ATOM     75  F   UNL     1       5.867  -5.621 -12.587  1.00  0.00    -0.200 F 
ATOM     76  F   UNL     1       5.125  -3.243 -13.702  1.00  0.00    -0.200 F 
ENDBRANCH  42  66
BRANCH  54  77
ATOM     77  C   UNL     1      -2.788  -9.498 -15.466  1.00  0.00     0.064 A 
ATOM     78  C   UNL     1      -2.015 -10.085 -16.478  1.00  0.00     0.173 A 
ATOM     79  C   UNL     1      -4.054  -9.002 -15.815  1.00  0.00     0.173 A 
ATOM     80  F   UNL     1      -0.792 -10.564 -16.203  1.00  0.00    -0.203 F 
ATOM     81  C   UNL     1      -2.481 -10.149 -17.790  1.00  0.00     0.198 A 
ATOM     82  C   UNL     1      -4.531  -9.100 -17.119  1.00  0.00     0.198 A 
ATOM     83  F   UNL     1      -4.840  -8.439 -14.885  1.00  0.00    -0.203 F 
ATOM     84  F   UNL     1      -1.703 -10.669 -18.750  1.00  0.00    -0.200 F 
ATOM     85  C   UNL     1      -3.741  -9.665 -18.107  1.00  0.00     0.200 A 
ATOM     86  F   UNL     1      -5.757  -8.649 -17.418  1.00  0.00    -0.200 F 
ATOM     87  F   UNL     1      -4.192  -9.738 -19.367  1.00  0.00    -0.200 F 
ENDBRANCH  54  77
ENDBRANCH  28  29
ENDBRANCH  21  23
ENDBRANCH  20  21
ENDBRANCH  19  20
ENDBRANCH  18  19
ENDBRANCH  17  18
ENDBRANCH   1  17
TORSDOF 18
