REMARK SMILES O=C(OCCOCCOCCOC(=O)c1ccnc(-n2cnnn2)c1)c1ccc(-c2c3nc(c(-c4c(F)c(F)c(F)c(F)c4F)c4ccc([nH]4)c(-c4c(F)c(F)c(F)c(F)c4F)c4nc(c(-c5c(F)c(F)c(F)c(F)c5F)c5ccc2[nH]5)C=C4)C=C3)cc1
REMARK SMILES IDX 7 1 6 2 5 3 4 4 3 5 2 6 1 7 26 8 27 9 88 10 28 11 87 12
REMARK SMILES IDX 29 13 30 14 31 15 81 16 32 17 86 18 80 19 82 20 33 21 85 22
REMARK SMILES IDX 79 23 78 24 34 26 66 27 46 28 65 29 47 30 50 31 64 32 83 33
REMARK SMILES IDX 48 34 49 35 63 37 84 38 51 39 35 40 36 41 44 42 37 43 38 44
REMARK SMILES IDX 42 45 45 46 39 47 40 48 43 49 41 50 67 51 68 52 76 53 69 54
REMARK SMILES IDX 70 55 74 56 77 57 71 58 72 59 75 60 73 61 52 62 53 63 61 64
REMARK SMILES IDX 54 65 55 66 59 67 62 68 56 69 57 70 60 71 58 72 8 73 9 74
REMARK SMILES IDX 10 75 11 76 12 77 13 78 14 79 15 80 16 81 25 82 17 83 19 84
REMARK SMILES IDX 18 85 20 86 21 87 24 88 22 89 23 90
REMARK H PARENT 82 25 50 36
REMARK Flexibility Score: inf
ROOT
ATOM      1  C   UNL     1       3.472   0.038   1.618  1.00  0.00     0.188 C 
ENDROOT
BRANCH   1   2
ATOM      2  O   UNL     1       4.823  -0.041   1.214  1.00  0.00    -0.376 OA
BRANCH   2   3
ATOM      3  C   UNL     1       5.374   0.742   0.174  1.00  0.00     0.202 C 
BRANCH   3   4
ATOM      4  C   UNL     1       4.633   1.006  -1.134  1.00  0.00     0.261 C 
BRANCH   4   5
ATOM      5  O   UNL     1       3.236   1.241  -0.983  1.00  0.00    -0.460 OA
BRANCH   5   6
ATOM      6  C   UNL     1       2.211   0.516  -1.476  1.00  0.00     0.338 C 
ATOM      7  O   UNL     1       1.146   1.083  -1.713  1.00  0.00    -0.246 OA
BRANCH   6   8
ATOM      8  C   UNL     1       2.221  -0.978  -1.518  1.00  0.00     0.060 A 
ATOM      9  C   UNL     1       3.322  -1.796  -1.780  1.00  0.00     0.016 A 
ATOM     10  C   UNL     1       0.969  -1.592  -1.315  1.00  0.00     0.016 A 
ATOM     11  C   UNL     1       3.154  -3.165  -1.973  1.00  0.00     0.010 A 
ATOM     12  C   UNL     1       0.803  -2.965  -1.474  1.00  0.00     0.010 A 
ATOM     13  C   UNL     1       1.885  -3.737  -1.888  1.00  0.00    -0.014 A 
BRANCH  13  14
ATOM     14  C   UNL     1       1.737  -5.106  -2.377  1.00  0.00     0.031 A 
ATOM     15  C   UNL     1       2.479  -6.197  -1.685  1.00  0.00     0.074 A 
ATOM     16  C   UNL     1       0.947  -5.399  -3.429  1.00  0.00     0.049 A 
ATOM     17  N   UNL     1       3.356  -7.015  -2.182  1.00  0.00    -0.248 NA
ATOM     18  C   UNL     1       2.217  -6.394  -0.254  1.00  0.00     0.031 C 
ATOM     19  C   UNL     1      -0.047  -4.542  -4.083  1.00  0.00     0.029 A 
ATOM     20  N   UNL     1       0.813  -6.589  -4.084  1.00  0.00    -0.354 N 
ATOM     21  C   UNL     1       3.651  -7.930  -1.172  1.00  0.00     0.074 A 
ATOM     22  C   UNL     1       2.981  -7.455   0.014  1.00  0.00     0.031 C 
ATOM     23  C   UNL     1      -0.827  -5.299  -4.883  1.00  0.00     0.029 A 
ATOM     24  C   UNL     1      -0.295  -6.650  -4.907  1.00  0.00     0.049 A 
ATOM     25  H   UNL     1       1.448  -7.335  -3.979  1.00  0.00     0.167 HD
ATOM     26  C   UNL     1       4.298  -9.106  -1.412  1.00  0.00     0.037 A 
ATOM     27  C   UNL     1      -0.792  -7.748  -5.518  1.00  0.00     0.037 A 
ATOM     28  C   UNL     1       5.021  -9.091  -2.652  1.00  0.00     0.049 A 
ATOM     29  C   UNL     1       0.289  -8.755  -5.614  1.00  0.00     0.074 A 
ATOM     30  C   UNL     1       6.069  -8.352  -3.164  1.00  0.00     0.029 A 
ATOM     31  N   UNL     1       4.531  -9.805  -3.715  1.00  0.00    -0.354 N 
ATOM     32  N   UNL     1       1.334  -8.646  -6.386  1.00  0.00    -0.248 NA
ATOM     33  C   UNL     1       0.390  -9.758  -4.565  1.00  0.00     0.031 C 
ATOM     34  C   UNL     1       5.838  -8.295  -4.570  1.00  0.00     0.029 A 
ATOM     35  C   UNL     1       4.663  -9.004  -4.818  1.00  0.00     0.049 A 
ATOM     36  H   UNL     1       4.157 -10.715  -3.690  1.00  0.00     0.167 HD
ATOM     37  C   UNL     1       2.357  -9.267  -5.686  1.00  0.00     0.074 A 
ATOM     38  C   UNL     1       1.692 -10.037  -4.643  1.00  0.00     0.031 C 
ATOM     39  C   UNL     1       3.656  -8.881  -5.844  1.00  0.00     0.037 A 
BRANCH  26  40
ATOM     40  C   UNL     1       4.069 -10.385  -0.643  1.00  0.00     0.064 A 
ATOM     41  C   UNL     1       4.952 -11.473  -0.807  1.00  0.00     0.173 A 
ATOM     42  C   UNL     1       2.860 -10.677   0.022  1.00  0.00     0.173 A 
ATOM     43  F   UNL     1       6.116 -11.318  -1.456  1.00  0.00    -0.203 F 
ATOM     44  C   UNL     1       4.622 -12.764  -0.386  1.00  0.00     0.198 A 
ATOM     45  C   UNL     1       2.557 -11.957   0.489  1.00  0.00     0.198 A 
ATOM     46  F   UNL     1       1.888  -9.765   0.146  1.00  0.00    -0.203 F 
ATOM     47  F   UNL     1       5.442 -13.787  -0.666  1.00  0.00    -0.200 F 
ATOM     48  C   UNL     1       3.424 -13.006   0.261  1.00  0.00     0.200 A 
ATOM     49  F   UNL     1       1.382 -12.177   1.095  1.00  0.00    -0.200 F 
ATOM     50  F   UNL     1       3.083 -14.251   0.618  1.00  0.00    -0.200 F 
ENDBRANCH  26  40
BRANCH  27  51
ATOM     51  C   UNL     1      -2.216  -8.055  -5.763  1.00  0.00     0.064 A 
ATOM     52  C   UNL     1      -2.608  -8.995  -6.725  1.00  0.00     0.173 A 
ATOM     53  C   UNL     1      -3.218  -7.599  -4.881  1.00  0.00     0.173 A 
ATOM     54  F   UNL     1      -1.703  -9.517  -7.565  1.00  0.00    -0.203 F 
ATOM     55  C   UNL     1      -3.927  -9.454  -6.800  1.00  0.00     0.198 A 
ATOM     56  C   UNL     1      -4.535  -8.047  -4.965  1.00  0.00     0.198 A 
ATOM     57  F   UNL     1      -2.920  -6.775  -3.866  1.00  0.00    -0.203 F 
ATOM     58  F   UNL     1      -4.257 -10.391  -7.699  1.00  0.00    -0.200 F 
ATOM     59  C   UNL     1      -4.887  -8.983  -5.918  1.00  0.00     0.200 A 
ATOM     60  F   UNL     1      -5.444  -7.608  -4.083  1.00  0.00    -0.200 F 
ATOM     61  F   UNL     1      -6.139  -9.458  -5.961  1.00  0.00    -0.200 F 
ENDBRANCH  27  51
BRANCH  39  62
ATOM     62  C   UNL     1       3.986  -7.992  -7.005  1.00  0.00     0.064 A 
ATOM     63  C   UNL     1       3.514  -6.673  -7.122  1.00  0.00     0.173 A 
ATOM     64  C   UNL     1       4.936  -8.426  -7.940  1.00  0.00     0.173 A 
ATOM     65  F   UNL     1       2.690  -6.155  -6.202  1.00  0.00    -0.203 F 
ATOM     66  C   UNL     1       3.943  -5.844  -8.155  1.00  0.00     0.198 A 
ATOM     67  C   UNL     1       5.387  -7.583  -8.952  1.00  0.00     0.198 A 
ATOM     68  F   UNL     1       5.471  -9.653  -7.835  1.00  0.00    -0.203 F 
ATOM     69  F   UNL     1       3.477  -4.589  -8.247  1.00  0.00    -0.200 F 
ATOM     70  C   UNL     1       4.884  -6.297  -9.065  1.00  0.00     0.200 A 
ATOM     71  F   UNL     1       6.338  -8.005  -9.798  1.00  0.00    -0.200 F 
ATOM     72  F   UNL     1       5.332  -5.482 -10.031  1.00  0.00    -0.200 F 
ENDBRANCH  39  62
ENDBRANCH  13  14
ENDBRANCH   6   8
ENDBRANCH   5   6
ENDBRANCH   4   5
ENDBRANCH   3   4
ENDBRANCH   2   3
ENDBRANCH   1   2
BRANCH   1  73
ATOM     73  C   UNL     1       2.729   1.352   1.940  1.00  0.00     0.188 C 
BRANCH  73  74
ATOM     74  O   UNL     1       3.437   2.554   2.151  1.00  0.00    -0.376 OA
BRANCH  74  75
ATOM     75  C   UNL     1       4.550   2.562   3.028  1.00  0.00     0.202 C 
BRANCH  75  76
ATOM     76  C   UNL     1       4.343   2.117   4.475  1.00  0.00     0.261 C 
BRANCH  76  77
ATOM     77  O   UNL     1       3.982   0.728   4.588  1.00  0.00    -0.460 OA
BRANCH  77  78
ATOM     78  C   UNL     1       2.862   0.472   5.289  1.00  0.00     0.338 C 
ATOM     79  O   UNL     1       2.091   1.280   5.805  1.00  0.00    -0.246 OA
BRANCH  78  80
ATOM     80  C   UNL     1       2.610  -0.970   5.324  1.00  0.00     0.065 A 
ATOM     81  C   UNL     1       3.211  -1.742   6.309  1.00  0.00     0.036 A 
ATOM     82  C   UNL     1       1.680  -1.526   4.442  1.00  0.00     0.065 A 
ATOM     83  C   UNL     1       2.814  -3.060   6.405  1.00  0.00     0.114 A 
ATOM     84  C   UNL     1       1.367  -2.870   4.595  1.00  0.00     0.157 A 
ATOM     85  N   UNL     1       1.900  -3.630   5.587  1.00  0.00    -0.237 NA
BRANCH  84  86
ATOM     86  N   UNL     1       0.476  -3.486   3.681  1.00  0.00    -0.182 N 
ATOM     87  C   UNL     1       0.231  -3.152   2.373  1.00  0.00     0.254 A 
ATOM     88  N   UNL     1      -0.250  -4.587   3.973  1.00  0.00    -0.039 NA
ATOM     89  N   UNL     1      -0.674  -3.964   1.878  1.00  0.00    -0.117 NA
ATOM     90  N   UNL     1      -0.983  -4.832   2.894  1.00  0.00    -0.024 NA
ENDBRANCH  84  86
ENDBRANCH  78  80
ENDBRANCH  77  78
ENDBRANCH  76  77
ENDBRANCH  75  76
ENDBRANCH  74  75
ENDBRANCH  73  74
ENDBRANCH   1  73
TORSDOF 18
