REMARK SMILES O=C(C[C@@H](C(=O)OCCOCCOCCOC(=O)c1ccc(-c2c3nc(c(-c4c(F)c(F)c(F)c(F)c4F)c4ccc([nH]4)c(-c4c(F)c(F)c(F)c(F)c4F)c4nc(c(-c5c(F)c(F)c(F)c(F)c5F)c5ccc2[nH]5)C=C4)C=C3)cc1)c1ccccc1)Nc1cc(C(F)(F)F)ccc1-n1cncn1
REMARK SMILES IDX 11 1 10 2 9 3 8 4 7 5 5 6 6 7 4 8 3 9 2 10 1 11 88 12 89 14
REMARK SMILES IDX 90 15 98 16 91 17 97 18 96 19 99 20 100 21 103 22 101 23
REMARK SMILES IDX 102 24 92 25 93 26 94 27 95 28 82 29 83 30 87 31 84 32 86 33
REMARK SMILES IDX 85 34 12 35 13 36 14 37 15 38 16 39 17 40 18 41 19 42 20 43
REMARK SMILES IDX 81 44 21 45 80 46 22 47 23 48 24 49 74 50 25 51 79 52 73 53
REMARK SMILES IDX 75 54 26 55 78 56 72 57 71 58 27 60 59 61 39 62 58 63 40 64
REMARK SMILES IDX 43 65 57 66 76 67 41 68 42 69 56 71 77 72 44 73 28 74 29 75
REMARK SMILES IDX 37 76 30 77 31 78 35 79 38 80 32 81 33 82 36 83 34 84 60 85
REMARK SMILES IDX 61 86 69 87 62 88 63 89 67 90 70 91 64 92 65 93 68 94 66 95
REMARK SMILES IDX 45 96 46 97 54 98 47 99 48 100 52 101 55 102 49 103 50 104
REMARK SMILES IDX 53 105 51 106
REMARK H PARENT 88 13 75 59 43 70
REMARK Flexibility Score: inf
ROOT
ATOM      1  C   UNL     1       7.018   0.171  -0.401  1.00  0.00     0.188 C 
ENDROOT
BRANCH   1   2
ATOM      2  O   UNL     1       7.710   1.236   0.237  1.00  0.00    -0.376 OA
BRANCH   2   3
ATOM      3  C   UNL     1       6.898   2.254   0.829  1.00  0.00     0.202 C 
BRANCH   3   4
ATOM      4  C   UNL     1       5.820   2.860  -0.085  1.00  0.00     0.261 C 
BRANCH   4   5
ATOM      5  O   UNL     1       4.839   1.880  -0.521  1.00  0.00    -0.463 OA
BRANCH   5   6
ATOM      6  C   UNL     1       4.346   2.064  -1.782  1.00  0.00     0.314 C 
ATOM      7  O   UNL     1       4.575   3.067  -2.451  1.00  0.00    -0.252 OA
BRANCH   6   8
ATOM      8  C   UNL     1       3.576   0.851  -2.337  1.00  0.00     0.138 C 
BRANCH   8   9
ATOM      9  C   UNL     1       2.739   0.078  -1.311  1.00  0.00     0.120 C 
BRANCH   9  10
ATOM     10  C   UNL     1       1.976   0.877  -0.289  1.00  0.00     0.225 C 
ATOM     11  O   UNL     1       0.821   1.237  -0.481  1.00  0.00    -0.275 OA
ATOM     12  N   UNL     1       2.687   1.075   0.880  1.00  0.00    -0.324 N 
ATOM     13  H   UNL     1       3.656   0.897   0.872  1.00  0.00     0.170 HD
BRANCH  12  14
ATOM     14  C   UNL     1       2.103   1.514   2.080  1.00  0.00     0.067 A 
ATOM     15  C   UNL     1       2.746   2.586   2.707  1.00  0.00     0.041 A 
ATOM     16  C   UNL     1       0.923   0.990   2.636  1.00  0.00     0.090 A 
ATOM     17  C   UNL     1       2.194   3.197   3.841  1.00  0.00     0.058 A 
ATOM     18  C   UNL     1       0.347   1.617   3.752  1.00  0.00     0.031 A 
ATOM     19  C   UNL     1       0.983   2.710   4.351  1.00  0.00     0.015 A 
BRANCH  16  20
ATOM     20  N   UNL     1       0.363  -0.237   2.196  1.00  0.00    -0.219 N 
ATOM     21  C   UNL     1       1.017  -1.329   1.667  1.00  0.00     0.226 A 
ATOM     22  N   UNL     1      -0.943  -0.559   2.374  1.00  0.00    -0.155 NA
ATOM     23  N   UNL     1       0.162  -2.263   1.326  1.00  0.00    -0.223 NA
ATOM     24  C   UNL     1      -1.022  -1.734   1.744  1.00  0.00     0.246 A 
ENDBRANCH  16  20
BRANCH  17  25
ATOM     25  C   UNL     1       2.900   4.383   4.449  1.00  0.00     0.416 C 
ATOM     26  F   UNL     1       4.213   4.117   4.705  1.00  0.00    -0.166 F 
ATOM     27  F   UNL     1       2.897   5.466   3.625  1.00  0.00    -0.166 F 
ATOM     28  F   UNL     1       2.365   4.799   5.628  1.00  0.00    -0.166 F 
ENDBRANCH  17  25
ENDBRANCH  12  14
ENDBRANCH   9  10
ENDBRANCH   8   9
BRANCH   8  29
ATOM     29  C   UNL     1       4.441  -0.099  -3.201  1.00  0.00    -0.033 A 
ATOM     30  C   UNL     1       4.170  -1.481  -3.291  1.00  0.00     0.004 A 
ATOM     31  C   UNL     1       5.475   0.397  -4.015  1.00  0.00     0.004 A 
ATOM     32  C   UNL     1       4.906  -2.325  -4.129  1.00  0.00     0.000 A 
ATOM     33  C   UNL     1       6.221  -0.451  -4.844  1.00  0.00     0.000 A 
ATOM     34  C   UNL     1       5.938  -1.812  -4.901  1.00  0.00     0.000 A 
ENDBRANCH   8  29
ENDBRANCH   6   8
ENDBRANCH   5   6
ENDBRANCH   4   5
ENDBRANCH   3   4
ENDBRANCH   2   3
ENDBRANCH   1   2
BRANCH   1  35
ATOM     35  C   UNL     1       6.170  -0.714   0.517  1.00  0.00     0.188 C 
BRANCH  35  36
ATOM     36  O   UNL     1       5.565  -0.073   1.632  1.00  0.00    -0.376 OA
BRANCH  36  37
ATOM     37  C   UNL     1       5.204  -0.935   2.724  1.00  0.00     0.202 C 
BRANCH  37  38
ATOM     38  C   UNL     1       6.346  -1.718   3.420  1.00  0.00     0.261 C 
BRANCH  38  39
ATOM     39  O   UNL     1       7.071  -2.670   2.608  1.00  0.00    -0.460 OA
BRANCH  39  40
ATOM     40  C   UNL     1       6.356  -3.584   1.906  1.00  0.00     0.338 C 
ATOM     41  O   UNL     1       5.176  -3.849   2.058  1.00  0.00    -0.246 OA
BRANCH  40  42
ATOM     42  C   UNL     1       7.149  -3.962   0.700  1.00  0.00     0.060 A 
ATOM     43  C   UNL     1       6.494  -3.967  -0.541  1.00  0.00     0.016 A 
ATOM     44  C   UNL     1       8.530  -4.178   0.751  1.00  0.00     0.016 A 
ATOM     45  C   UNL     1       7.210  -4.191  -1.722  1.00  0.00     0.010 A 
ATOM     46  C   UNL     1       9.242  -4.424  -0.432  1.00  0.00     0.010 A 
ATOM     47  C   UNL     1       8.585  -4.445  -1.676  1.00  0.00    -0.014 A 
BRANCH  47  48
ATOM     48  C   UNL     1       9.304  -4.903  -2.895  1.00  0.00     0.031 A 
ATOM     49  C   UNL     1       9.496  -6.381  -3.095  1.00  0.00     0.074 A 
ATOM     50  C   UNL     1       9.777  -4.045  -3.817  1.00  0.00     0.049 A 
ATOM     51  N   UNL     1      10.175  -7.020  -4.012  1.00  0.00    -0.248 NA
ATOM     52  C   UNL     1       8.823  -7.255  -2.122  1.00  0.00     0.031 C 
ATOM     53  C   UNL     1       9.610  -2.595  -3.790  1.00  0.00     0.029 A 
ATOM     54  N   UNL     1      10.518  -4.279  -4.953  1.00  0.00    -0.354 N 
ATOM     55  C   UNL     1      10.022  -8.369  -3.721  1.00  0.00     0.074 A 
ATOM     56  C   UNL     1       9.203  -8.455  -2.531  1.00  0.00     0.031 C 
ATOM     57  C   UNL     1      10.260  -2.063  -4.841  1.00  0.00     0.029 A 
ATOM     58  C   UNL     1      10.923  -3.132  -5.591  1.00  0.00     0.049 A 
ATOM     59  H   UNL     1      10.738  -5.182  -5.277  1.00  0.00     0.167 HD
ATOM     60  C   UNL     1      10.519  -9.441  -4.383  1.00  0.00     0.037 A 
ATOM     61  C   UNL     1      11.765  -2.961  -6.632  1.00  0.00     0.037 A 
ATOM     62  C   UNL     1      11.344  -9.362  -5.559  1.00  0.00     0.049 A 
ATOM     63  C   UNL     1      12.394  -4.164  -7.295  1.00  0.00     0.074 A 
ATOM     64  C   UNL     1      11.880 -10.396  -6.307  1.00  0.00     0.029 A 
ATOM     65  N   UNL     1      11.767  -8.181  -6.149  1.00  0.00    -0.354 N 
ATOM     66  N   UNL     1      12.236  -5.437  -7.025  1.00  0.00    -0.248 NA
ATOM     67  C   UNL     1      13.325  -3.904  -8.405  1.00  0.00     0.031 C 
ATOM     68  C   UNL     1      12.680  -9.840  -7.311  1.00  0.00     0.029 A 
ATOM     69  C   UNL     1      12.591  -8.459  -7.228  1.00  0.00     0.049 A 
ATOM     70  H   UNL     1      11.518  -7.277  -5.846  1.00  0.00     0.167 HD
ATOM     71  C   UNL     1      13.027  -6.127  -7.937  1.00  0.00     0.074 A 
ATOM     72  C   UNL     1      13.654  -5.132  -8.781  1.00  0.00     0.031 C 
ATOM     73  C   UNL     1      13.216  -7.464  -8.063  1.00  0.00     0.037 A 
BRANCH  60  74
ATOM     74  C   UNL     1      10.219 -10.796  -3.811  1.00  0.00     0.064 A 
ATOM     75  C   UNL     1       8.930 -11.348  -3.847  1.00  0.00     0.173 A 
ATOM     76  C   UNL     1      11.242 -11.553  -3.219  1.00  0.00     0.173 A 
ATOM     77  F   UNL     1       7.914 -10.657  -4.386  1.00  0.00    -0.203 F 
ATOM     78  C   UNL     1       8.668 -12.592  -3.277  1.00  0.00     0.198 A 
ATOM     79  C   UNL     1      10.983 -12.810  -2.680  1.00  0.00     0.198 A 
ATOM     80  F   UNL     1      12.493 -11.073  -3.162  1.00  0.00    -0.203 F 
ATOM     81  F   UNL     1       7.417 -13.072  -3.267  1.00  0.00    -0.200 F 
ATOM     82  C   UNL     1       9.695 -13.323  -2.700  1.00  0.00     0.200 A 
ATOM     83  F   UNL     1      11.979 -13.520  -2.133  1.00  0.00    -0.200 F 
ATOM     84  F   UNL     1       9.441 -14.519  -2.150  1.00  0.00    -0.200 F 
ENDBRANCH  60  74
BRANCH  61  85
ATOM     85  C   UNL     1      12.111  -1.587  -7.086  1.00  0.00     0.064 A 
ATOM     86  C   UNL     1      11.707  -1.108  -8.340  1.00  0.00     0.173 A 
ATOM     87  C   UNL     1      12.877  -0.731  -6.279  1.00  0.00     0.173 A 
ATOM     88  F   UNL     1      11.004  -1.899  -9.164  1.00  0.00    -0.203 F 
ATOM     89  C   UNL     1      12.063   0.169  -8.773  1.00  0.00     0.198 A 
ATOM     90  C   UNL     1      13.207   0.556  -6.700  1.00  0.00     0.198 A 
ATOM     91  F   UNL     1      13.301  -1.144  -5.076  1.00  0.00    -0.203 F 
ATOM     92  F   UNL     1      11.703   0.585  -9.994  1.00  0.00    -0.200 F 
ATOM     93  C   UNL     1      12.805   1.003  -7.949  1.00  0.00     0.200 A 
ATOM     94  F   UNL     1      13.917   1.359  -5.897  1.00  0.00    -0.200 F 
ATOM     95  F   UNL     1      13.141   2.232  -8.363  1.00  0.00    -0.200 F 
ENDBRANCH  61  85
BRANCH  73  96
ATOM     96  C   UNL     1      14.120  -7.945  -9.164  1.00  0.00     0.064 A 
ATOM     97  C   UNL     1      15.511  -7.776  -9.102  1.00  0.00     0.173 A 
ATOM     98  C   UNL     1      13.595  -8.642 -10.264  1.00  0.00     0.173 A 
ATOM     99  F   UNL     1      16.065  -7.106  -8.080  1.00  0.00    -0.203 F 
ATOM    100  C   UNL     1      16.340  -8.271 -10.107  1.00  0.00     0.198 A 
ATOM    101  C   UNL     1      14.428  -9.162 -11.251  1.00  0.00     0.198 A 
ATOM    102  F   UNL     1      12.272  -8.839 -10.370  1.00  0.00    -0.203 F 
ATOM    103  F   UNL     1      17.663  -8.064 -10.045  1.00  0.00    -0.200 F 
ATOM    104  C   UNL     1      15.799  -8.972 -11.175  1.00  0.00     0.200 A 
ATOM    105  F   UNL     1      13.904  -9.853 -12.273  1.00  0.00    -0.200 F 
ATOM    106  F   UNL     1      16.599  -9.460 -12.133  1.00  0.00    -0.200 F 
ENDBRANCH  73  96
ENDBRANCH  47  48
ENDBRANCH  40  42
ENDBRANCH  39  40
ENDBRANCH  38  39
ENDBRANCH  37  38
ENDBRANCH  36  37
ENDBRANCH  35  36
ENDBRANCH   1  35
TORSDOF 23
