REMARK SMILES O=C(OCCOCCOCCOC(=O)[C@H]1[C@H](C(=O)NC2CC[NH+](Cc3ccccc3)CC2)[C@H]2C=C[C@@H]1C2)c1ccc(-c2c3nc(c(-c4c(F)c(F)c(F)c(F)c4F)c4ccc([nH]4)c(-c4c(F)c(F)c(F)c(F)c4F)c4nc(c(-c5c(F)c(F)c(F)c(F)c5F)c5ccc2[nH]5)C=C4)C=C3)cc1
REMARK SMILES IDX 8 1 7 2 6 3 5 4 4 5 3 6 2 7 1 8 38 9 39 10 100 11 40 12
REMARK SMILES IDX 99 13 41 14 42 15 43 16 93 17 44 18 98 19 92 20 94 21 45 22
REMARK SMILES IDX 97 23 91 24 90 25 46 27 78 28 58 29 77 30 59 31 62 32 76 33
REMARK SMILES IDX 95 34 60 35 61 36 75 38 96 39 63 40 47 41 48 42 56 43 49 44
REMARK SMILES IDX 50 45 54 46 57 47 51 48 52 49 55 50 53 51 79 52 80 53 88 54
REMARK SMILES IDX 81 55 82 56 86 57 89 58 83 59 84 60 87 61 85 62 64 63 65 64
REMARK SMILES IDX 73 65 66 66 67 67 71 68 74 69 68 70 69 71 72 72 70 73 9 74
REMARK SMILES IDX 10 75 11 76 12 77 13 78 14 79 15 80 16 81 36 82 33 83 35 84
REMARK SMILES IDX 37 85 34 86 17 87 18 88 19 89 20 91 21 92 32 93 22 94 31 95
REMARK SMILES IDX 23 96 24 98 25 99 26 100 30 101 27 102 29 103 28 104
REMARK H PARENT 94 26 62 37 19 90 23 97
REMARK Flexibility Score: inf
ROOT
ATOM      1  C   UNL     1      -0.565   4.573   1.505  1.00  0.00     0.188 C 
ENDROOT
BRANCH   1   2
ATOM      2  C   UNL     1       0.352   4.017   2.595  1.00  0.00     0.188 C 
BRANCH   2   3
ATOM      3  O   UNL     1       0.944   2.751   2.283  1.00  0.00    -0.376 OA
BRANCH   3   4
ATOM      4  C   UNL     1       0.986   1.862   3.406  1.00  0.00     0.202 C 
BRANCH   4   5
ATOM      5  C   UNL     1       2.003   2.233   4.504  1.00  0.00     0.261 C 
BRANCH   5   6
ATOM      6  O   UNL     1       2.372   3.626   4.526  1.00  0.00    -0.460 OA
BRANCH   6   7
ATOM      7  C   UNL     1       3.407   4.258   3.918  1.00  0.00     0.338 C 
ATOM      8  O   UNL     1       3.612   5.440   4.189  1.00  0.00    -0.246 OA
BRANCH   7   9
ATOM      9  C   UNL     1       4.325   3.604   2.936  1.00  0.00     0.060 A 
ATOM     10  C   UNL     1       4.045   2.429   2.245  1.00  0.00     0.016 A 
ATOM     11  C   UNL     1       5.545   4.248   2.652  1.00  0.00     0.016 A 
ATOM     12  C   UNL     1       4.983   1.824   1.422  1.00  0.00     0.010 A 
ATOM     13  C   UNL     1       6.481   3.674   1.781  1.00  0.00     0.010 A 
ATOM     14  C   UNL     1       6.224   2.419   1.218  1.00  0.00    -0.014 A 
BRANCH  14  15
ATOM     15  C   UNL     1       7.288   1.576   0.631  1.00  0.00     0.031 A 
ATOM     16  C   UNL     1       8.330   1.016   1.561  1.00  0.00     0.074 A 
ATOM     17  C   UNL     1       7.197   1.136  -0.637  1.00  0.00     0.049 A 
ATOM     18  N   UNL     1       9.330   0.214   1.306  1.00  0.00    -0.248 NA
ATOM     19  C   UNL     1       8.204   1.381   2.983  1.00  0.00     0.031 C 
ATOM     20  C   UNL     1       6.120   1.459  -1.576  1.00  0.00     0.029 A 
ATOM     21  N   UNL     1       7.998   0.272  -1.335  1.00  0.00    -0.354 N 
ATOM     22  C   UNL     1       9.952  -0.008   2.528  1.00  0.00     0.074 A 
ATOM     23  C   UNL     1       9.241   0.763   3.520  1.00  0.00     0.031 C 
ATOM     24  C   UNL     1       6.315   0.771  -2.714  1.00  0.00     0.029 A 
ATOM     25  C   UNL     1       7.569   0.041  -2.617  1.00  0.00     0.049 A 
ATOM     26  H   UNL     1       8.805  -0.144  -0.953  1.00  0.00     0.167 HD
ATOM     27  C   UNL     1      11.015  -0.799   2.800  1.00  0.00     0.037 A 
ATOM     28  C   UNL     1       8.151  -0.652  -3.610  1.00  0.00     0.037 A 
ATOM     29  C   UNL     1      11.708  -1.572   1.806  1.00  0.00     0.049 A 
ATOM     30  C   UNL     1       9.444  -1.356  -3.331  1.00  0.00     0.074 A 
ATOM     31  C   UNL     1      12.821  -2.377   1.954  1.00  0.00     0.029 A 
ATOM     32  N   UNL     1      11.346  -1.627   0.467  1.00  0.00    -0.354 N 
ATOM     33  N   UNL     1      10.087  -1.485  -2.198  1.00  0.00    -0.248 NA
ATOM     34  C   UNL     1      10.087  -2.014  -4.475  1.00  0.00     0.031 C 
ATOM     35  C   UNL     1      13.165  -2.878   0.694  1.00  0.00     0.029 A 
ATOM     36  C   UNL     1      12.230  -2.434  -0.228  1.00  0.00     0.049 A 
ATOM     37  H   UNL     1      10.574  -1.162   0.071  1.00  0.00     0.167 HD
ATOM     38  C   UNL     1      11.189  -2.275  -2.478  1.00  0.00     0.074 A 
ATOM     39  C   UNL     1      11.133  -2.583  -3.894  1.00  0.00     0.031 C 
ATOM     40  C   UNL     1      12.149  -2.725  -1.635  1.00  0.00     0.037 A 
BRANCH  27  41
ATOM     41  C   UNL     1      11.519  -0.803   4.213  1.00  0.00     0.064 A 
ATOM     42  C   UNL     1      10.804  -1.403   5.261  1.00  0.00     0.173 A 
ATOM     43  C   UNL     1      12.725  -0.159   4.527  1.00  0.00     0.173 A 
ATOM     44  F   UNL     1       9.629  -2.003   5.020  1.00  0.00    -0.203 F 
ATOM     45  C   UNL     1      11.261  -1.327   6.575  1.00  0.00     0.198 A 
ATOM     46  C   UNL     1      13.195  -0.112   5.836  1.00  0.00     0.198 A 
ATOM     47  F   UNL     1      13.443   0.438   3.563  1.00  0.00    -0.203 F 
ATOM     48  F   UNL     1      10.528  -1.848   7.569  1.00  0.00    -0.200 F 
ATOM     49  C   UNL     1      12.458  -0.686   6.861  1.00  0.00     0.200 A 
ATOM     50  F   UNL     1      14.352   0.506   6.109  1.00  0.00    -0.200 F 
ATOM     51  F   UNL     1      12.892  -0.606   8.126  1.00  0.00    -0.200 F 
ENDBRANCH  27  41
BRANCH  28  52
ATOM     52  C   UNL     1       7.589  -0.654  -4.981  1.00  0.00     0.064 A 
ATOM     53  C   UNL     1       6.902  -1.760  -5.495  1.00  0.00     0.173 A 
ATOM     54  C   UNL     1       7.837   0.423  -5.842  1.00  0.00     0.173 A 
ATOM     55  F   UNL     1       6.687  -2.833  -4.721  1.00  0.00    -0.203 F 
ATOM     56  C   UNL     1       6.484  -1.789  -6.826  1.00  0.00     0.198 A 
ATOM     57  C   UNL     1       7.428   0.388  -7.172  1.00  0.00     0.198 A 
ATOM     58  F   UNL     1       8.504   1.496  -5.395  1.00  0.00    -0.203 F 
ATOM     59  F   UNL     1       5.861  -2.872  -7.308  1.00  0.00    -0.200 F 
ATOM     60  C   UNL     1       6.747  -0.714  -7.663  1.00  0.00     0.200 A 
ATOM     61  F   UNL     1       7.710   1.414  -7.985  1.00  0.00    -0.200 F 
ATOM     62  F   UNL     1       6.362  -0.747  -8.945  1.00  0.00    -0.200 F 
ENDBRANCH  28  52
BRANCH  40  63
ATOM     63  C   UNL     1      13.162  -3.663  -2.216  1.00  0.00     0.064 A 
ATOM     64  C   UNL     1      14.159  -3.227  -3.099  1.00  0.00     0.173 A 
ATOM     65  C   UNL     1      13.122  -5.024  -1.879  1.00  0.00     0.173 A 
ATOM     66  F   UNL     1      14.217  -1.939  -3.470  1.00  0.00    -0.203 F 
ATOM     67  C   UNL     1      15.060  -4.130  -3.653  1.00  0.00     0.198 A 
ATOM     68  C   UNL     1      14.046  -5.917  -2.408  1.00  0.00     0.198 A 
ATOM     69  F   UNL     1      12.185  -5.486  -1.038  1.00  0.00    -0.203 F 
ATOM     70  F   UNL     1      15.964  -3.707  -4.548  1.00  0.00    -0.200 F 
ATOM     71  C   UNL     1      15.007  -5.472  -3.303  1.00  0.00     0.200 A 
ATOM     72  F   UNL     1      13.999  -7.210  -2.060  1.00  0.00    -0.200 F 
ATOM     73  F   UNL     1      15.875  -6.340  -3.840  1.00  0.00    -0.200 F 
ENDBRANCH  40  63
ENDBRANCH  14  15
ENDBRANCH   7   9
ENDBRANCH   6   7
ENDBRANCH   5   6
ENDBRANCH   4   5
ENDBRANCH   3   4
ENDBRANCH   2   3
ENDBRANCH   1   2
BRANCH   1  74
ATOM     74  O   UNL     1      -1.685   3.781   1.138  1.00  0.00    -0.376 OA
BRANCH  74  75
ATOM     75  C   UNL     1      -1.416   2.469   0.660  1.00  0.00     0.202 C 
BRANCH  75  76
ATOM     76  C   UNL     1      -0.580   2.305  -0.622  1.00  0.00     0.261 C 
BRANCH  76  77
ATOM     77  O   UNL     1       0.686   2.999  -0.652  1.00  0.00    -0.463 OA
BRANCH  77  78
ATOM     78  C   UNL     1       0.760   4.016  -1.565  1.00  0.00     0.310 C 
ATOM     79  O   UNL     1      -0.162   4.355  -2.283  1.00  0.00    -0.252 OA
BRANCH  78  80
ATOM     80  C   UNL     1       2.168   4.577  -1.683  1.00  0.00     0.119 C 
ATOM     81  C   UNL     1       2.184   5.835  -2.599  1.00  0.00     0.100 C 
ATOM     82  C   UNL     1       2.850   5.120  -0.392  1.00  0.00     0.027 C 
ATOM     83  C   UNL     1       3.125   6.806  -1.851  1.00  0.00     0.025 C 
ATOM     84  C   UNL     1       2.150   6.336   0.177  1.00  0.00    -0.027 C 
ATOM     85  C   UNL     1       4.025   5.903  -0.995  1.00  0.00     0.017 C 
ATOM     86  C   UNL     1       2.313   7.347  -0.691  1.00  0.00    -0.027 C 
BRANCH  81  87
ATOM     87  C   UNL     1       2.422   5.589  -4.078  1.00  0.00     0.224 C 
ATOM     88  O   UNL     1       1.582   5.973  -4.901  1.00  0.00    -0.275 OA
ATOM     89  N   UNL     1       3.493   4.958  -4.604  1.00  0.00    -0.353 N 
ATOM     90  H   UNL     1       3.387   4.734  -5.556  1.00  0.00     0.163 HD
BRANCH  89  91
ATOM     91  C   UNL     1       4.771   4.540  -4.049  1.00  0.00     0.093 C 
ATOM     92  C   UNL     1       5.780   5.690  -4.053  1.00  0.00     0.086 C 
ATOM     93  C   UNL     1       5.345   3.343  -4.794  1.00  0.00     0.086 C 
ATOM     94  C   UNL     1       6.275   5.994  -5.467  1.00  0.00     0.264 C 
ATOM     95  C   UNL     1       5.838   3.716  -6.178  1.00  0.00     0.264 C 
ATOM     96  N   UNL     1       6.825   4.795  -6.105  1.00  0.00    -0.331 N 
ATOM     97  H   UNL     1       7.582   4.476  -5.500  1.00  0.00     0.348 HD
BRANCH  96  98
ATOM     98  C   UNL     1       7.444   5.069  -7.419  1.00  0.00     0.299 C 
BRANCH  98  99
ATOM     99  C   UNL     1       6.466   5.230  -8.565  1.00  0.00     0.006 A 
ATOM    100  C   UNL     1       6.205   4.150  -9.424  1.00  0.00     0.009 A 
ATOM    101  C   UNL     1       5.718   6.406  -8.713  1.00  0.00     0.009 A 
ATOM    102  C   UNL     1       5.174   4.222 -10.360  1.00  0.00     0.001 A 
ATOM    103  C   UNL     1       4.676   6.470  -9.637  1.00  0.00     0.001 A 
ATOM    104  C   UNL     1       4.398   5.375 -10.452  1.00  0.00     0.000 A 
ENDBRANCH  98  99
ENDBRANCH  96  98
ENDBRANCH  89  91
ENDBRANCH  81  87
ENDBRANCH  78  80
ENDBRANCH  77  78
ENDBRANCH  76  77
ENDBRANCH  75  76
ENDBRANCH  74  75
ENDBRANCH   1  74
TORSDOF 21
