REMARK SMILES Cc1cc(=O)cc(C)n1C[C@H]1CCCC[C@@H]1C(=O)OCCOCCOCCOC(=O)c1ccc(-c2c3nc(c(-c4c(F)c(F)c(F)c(F)c4F)c4ccc([nH]4)c(-c4c(F)c(F)c(F)c(F)c4F)c4nc(c(-c5c(F)c(F)c(F)c(F)c5F)c5ccc2[nH]5)C=C4)C=C3)cc1
REMARK SMILES IDX 23 1 22 2 21 3 20 4 19 5 17 6 18 7 16 8 11 9 12 10 13 11
REMARK SMILES IDX 15 12 14 13 10 14 9 15 1 16 2 17 3 18 4 19 7 20 5 21 6 22
REMARK SMILES IDX 8 23 24 24 25 25 26 26 27 27 28 28 29 29 30 30 31 31 32 32
REMARK SMILES IDX 93 33 33 34 92 35 34 36 35 37 36 38 86 39 37 40 91 41 85 42
REMARK SMILES IDX 87 43 38 44 90 45 84 46 83 47 39 49 71 50 51 51 70 52 52 53
REMARK SMILES IDX 55 54 69 55 88 56 53 57 54 58 68 60 89 61 56 62 40 63 41 64
REMARK SMILES IDX 49 65 42 66 43 67 47 68 50 69 44 70 45 71 48 72 46 73 72 74
REMARK SMILES IDX 73 75 81 76 74 77 75 78 79 79 82 80 76 81 77 82 80 83 78 84
REMARK SMILES IDX 57 85 58 86 66 87 59 88 60 89 64 90 67 91 61 92 62 93 65 94
REMARK SMILES IDX 63 95
REMARK H PARENT 87 48 55 59
REMARK Flexibility Score: inf
ROOT
ATOM      1  C   UNL     1      -0.509   1.758   0.441  1.00  0.00     0.188 C 
ENDROOT
BRANCH   1   2
ATOM      2  O   UNL     1      -1.738   1.470   1.077  1.00  0.00    -0.376 OA
BRANCH   2   3
ATOM      3  C   UNL     1      -2.898   2.046   0.496  1.00  0.00     0.202 C 
BRANCH   3   4
ATOM      4  C   UNL     1      -3.203   1.719  -0.979  1.00  0.00     0.261 C 
BRANCH   4   5
ATOM      5  O   UNL     1      -2.108   1.859  -1.912  1.00  0.00    -0.463 OA
BRANCH   5   6
ATOM      6  C   UNL     1      -1.691   3.123  -2.173  1.00  0.00     0.309 C 
ATOM      7  O   UNL     1      -2.233   4.105  -1.685  1.00  0.00    -0.252 OA
BRANCH   6   8
ATOM      8  C   UNL     1      -0.458   3.149  -3.124  1.00  0.00     0.104 C 
ATOM      9  C   UNL     1       0.881   3.693  -2.482  1.00  0.00     0.023 C 
ATOM     10  C   UNL     1       0.571   5.096  -1.957  1.00  0.00     0.006 C 
ATOM     11  C   UNL     1       0.029   6.040  -3.041  1.00  0.00     0.000 C 
ATOM     12  C   UNL     1      -0.859   3.997  -4.335  1.00  0.00     0.016 C 
ATOM     13  C   UNL     1      -1.046   5.470  -3.969  1.00  0.00     0.001 C 
BRANCH   9  14
ATOM     14  C   UNL     1       2.099   3.654  -3.488  1.00  0.00     0.126 C 
BRANCH  14  15
ATOM     15  N   UNL     1       3.497   3.854  -2.923  1.00  0.00    -0.349 N 
ATOM     16  C   UNL     1       4.122   1.433  -3.511  1.00  0.00     0.064 C 
ATOM     17  C   UNL     1       4.443   2.775  -2.899  1.00  0.00     0.018 A 
ATOM     18  C   UNL     1       5.696   2.908  -2.418  1.00  0.00     0.073 A 
ATOM     19  C   UNL     1       6.158   4.198  -1.894  1.00  0.00     0.182 A 
ATOM     20  C   UNL     1       4.034   5.149  -2.623  1.00  0.00     0.018 A 
ATOM     21  O   UNL     1       7.265   4.329  -1.391  1.00  0.00    -0.290 OA
ATOM     22  C   UNL     1       5.256   5.336  -2.085  1.00  0.00     0.073 A 
ATOM     23  C   UNL     1       3.362   6.427  -3.047  1.00  0.00     0.064 C 
ENDBRANCH  14  15
ENDBRANCH   9  14
ENDBRANCH   6   8
ENDBRANCH   5   6
ENDBRANCH   4   5
ENDBRANCH   3   4
ENDBRANCH   2   3
ENDBRANCH   1   2
BRANCH   1  24
ATOM     24  C   UNL     1       0.015   0.616  -0.463  1.00  0.00     0.188 C 
BRANCH  24  25
ATOM     25  O   UNL     1      -0.663  -0.630  -0.496  1.00  0.00    -0.376 OA
BRANCH  25  26
ATOM     26  C   UNL     1      -1.105  -1.198   0.728  1.00  0.00     0.202 C 
BRANCH  26  27
ATOM     27  C   UNL     1      -0.116  -1.351   1.899  1.00  0.00     0.261 C 
BRANCH  27  28
ATOM     28  O   UNL     1       0.688  -0.196   2.216  1.00  0.00    -0.460 OA
BRANCH  28  29
ATOM     29  C   UNL     1       2.005  -0.276   1.906  1.00  0.00     0.338 C 
ATOM     30  O   UNL     1       2.591  -1.231   1.411  1.00  0.00    -0.246 OA
BRANCH  29  31
ATOM     31  C   UNL     1       2.648   1.047   2.068  1.00  0.00     0.060 A 
ATOM     32  C   UNL     1       3.134   1.708   0.929  1.00  0.00     0.016 A 
ATOM     33  C   UNL     1       2.829   1.610   3.331  1.00  0.00     0.016 A 
ATOM     34  C   UNL     1       3.805   2.925   1.051  1.00  0.00     0.010 A 
ATOM     35  C   UNL     1       3.544   2.811   3.454  1.00  0.00     0.010 A 
ATOM     36  C   UNL     1       4.060   3.460   2.317  1.00  0.00    -0.014 A 
BRANCH  36  37
ATOM     37  C   UNL     1       5.032   4.574   2.457  1.00  0.00     0.031 A 
ATOM     38  C   UNL     1       6.461   4.241   2.793  1.00  0.00     0.074 A 
ATOM     39  C   UNL     1       4.675   5.855   2.254  1.00  0.00     0.049 A 
ATOM     40  N   UNL     1       7.465   5.038   3.056  1.00  0.00    -0.248 NA
ATOM     41  C   UNL     1       6.798   2.809   2.847  1.00  0.00     0.031 C 
ATOM     42  C   UNL     1       3.348   6.310   1.850  1.00  0.00     0.029 A 
ATOM     43  N   UNL     1       5.408   7.012   2.371  1.00  0.00    -0.354 N 
ATOM     44  C   UNL     1       8.553   4.206   3.291  1.00  0.00     0.074 A 
ATOM     45  C   UNL     1       8.077   2.844   3.192  1.00  0.00     0.031 C 
ATOM     46  C   UNL     1       3.356   7.652   1.768  1.00  0.00     0.029 A 
ATOM     47  C   UNL     1       4.678   8.153   2.148  1.00  0.00     0.049 A 
ATOM     48  H   UNL     1       6.367   7.022   2.594  1.00  0.00     0.167 HD
ATOM     49  C   UNL     1       9.837   4.547   3.553  1.00  0.00     0.037 A 
ATOM     50  C   UNL     1       5.031   9.450   2.261  1.00  0.00     0.037 A 
ATOM     51  C   UNL     1      10.314   5.901   3.647  1.00  0.00     0.049 A 
ATOM     52  C   UNL     1       6.439   9.807   2.673  1.00  0.00     0.074 A 
ATOM     53  C   UNL     1      11.595   6.345   3.922  1.00  0.00     0.029 A 
ATOM     54  N   UNL     1       9.529   7.029   3.464  1.00  0.00    -0.354 N 
ATOM     55  N   UNL     1       7.458   9.019   2.910  1.00  0.00    -0.248 NA
ATOM     56  C   UNL     1       6.744  11.238   2.834  1.00  0.00     0.031 C 
ATOM     57  C   UNL     1      11.573   7.741   3.966  1.00  0.00     0.029 A 
ATOM     58  C   UNL     1      10.293   8.169   3.655  1.00  0.00     0.049 A 
ATOM     59  H   UNL     1       8.572   7.021   3.232  1.00  0.00     0.167 HD
ATOM     60  C   UNL     1       8.528   9.852   3.216  1.00  0.00     0.074 A 
ATOM     61  C   UNL     1       8.038  11.211   3.124  1.00  0.00     0.031 C 
ATOM     62  C   UNL     1       9.800   9.520   3.547  1.00  0.00     0.037 A 
BRANCH  49  63
ATOM     63  C   UNL     1      10.823   3.437   3.778  1.00  0.00     0.064 A 
ATOM     64  C   UNL     1      11.267   2.621   2.727  1.00  0.00     0.173 A 
ATOM     65  C   UNL     1      11.380   3.231   5.049  1.00  0.00     0.173 A 
ATOM     66  F   UNL     1      10.755   2.767   1.496  1.00  0.00    -0.203 F 
ATOM     67  C   UNL     1      12.222   1.631   2.943  1.00  0.00     0.198 A 
ATOM     68  C   UNL     1      12.357   2.262   5.255  1.00  0.00     0.198 A 
ATOM     69  F   UNL     1      10.993   3.986   6.089  1.00  0.00    -0.203 F 
ATOM     70  F   UNL     1      12.605   0.839   1.933  1.00  0.00    -0.200 F 
ATOM     71  C   UNL     1      12.774   1.460   4.204  1.00  0.00     0.200 A 
ATOM     72  F   UNL     1      12.902   2.109   6.470  1.00  0.00    -0.200 F 
ATOM     73  F   UNL     1      13.708   0.520   4.406  1.00  0.00    -0.200 F 
ENDBRANCH  49  63
BRANCH  50  74
ATOM     74  C   UNL     1       4.031  10.517   1.986  1.00  0.00     0.064 A 
ATOM     75  C   UNL     1       4.173  11.369   0.882  1.00  0.00     0.173 A 
ATOM     76  C   UNL     1       2.922  10.715   2.822  1.00  0.00     0.173 A 
ATOM     77  F   UNL     1       5.232  11.240   0.069  1.00  0.00    -0.203 F 
ATOM     78  C   UNL     1       3.251  12.383   0.630  1.00  0.00     0.198 A 
ATOM     79  C   UNL     1       1.984  11.709   2.552  1.00  0.00     0.198 A 
ATOM     80  F   UNL     1       2.742   9.934   3.897  1.00  0.00    -0.203 F 
ATOM     81  F   UNL     1       3.433  13.209  -0.409  1.00  0.00    -0.200 F 
ATOM     82  C   UNL     1       2.152  12.546   1.460  1.00  0.00     0.200 A 
ATOM     83  F   UNL     1       0.917  11.856   3.350  1.00  0.00    -0.200 F 
ATOM     84  F   UNL     1       1.259  13.514   1.210  1.00  0.00    -0.200 F 
ENDBRANCH  50  74
BRANCH  62  85
ATOM     85  C   UNL     1      10.777  10.632   3.810  1.00  0.00     0.064 A 
ATOM     86  C   UNL     1      10.703  11.415   4.970  1.00  0.00     0.173 A 
ATOM     87  C   UNL     1      11.854  10.854   2.937  1.00  0.00     0.173 A 
ATOM     88  F   UNL     1       9.688  11.252   5.833  1.00  0.00    -0.203 F 
ATOM     89  C   UNL     1      11.663  12.388   5.241  1.00  0.00     0.198 A 
ATOM     90  C   UNL     1      12.830  11.804   3.227  1.00  0.00     0.198 A 
ATOM     91  F   UNL     1      11.980  10.125   1.818  1.00  0.00    -0.203 F 
ATOM     92  F   UNL     1      11.553  13.147   6.340  1.00  0.00    -0.200 F 
ATOM     93  C   UNL     1      12.732  12.572   4.376  1.00  0.00     0.200 A 
ATOM     94  F   UNL     1      13.872  11.966   2.400  1.00  0.00    -0.200 F 
ATOM     95  F   UNL     1      13.666  13.493   4.651  1.00  0.00    -0.200 F 
ENDBRANCH  62  85
ENDBRANCH  36  37
ENDBRANCH  29  31
ENDBRANCH  28  29
ENDBRANCH  27  28
ENDBRANCH  26  27
ENDBRANCH  25  26
ENDBRANCH  24  25
ENDBRANCH   1  24
TORSDOF 19
