REMARK SMILES O=C(OCCOCCOCCOC(=O)c1ccccc1C(=O)Nc1ccc(N2C(=O)[C@H]3[C@@H]4CC[C@@H](C4)[C@@H]3C2=O)cc1)c1ccc(-c2c3nc(c(-c4c(F)c(F)c(F)c(F)c4F)c4ccc([nH]4)c(-c4c(F)c(F)c(F)c(F)c4F)c4nc(c(-c5c(F)c(F)c(F)c(F)c5F)c5ccc2[nH]5)C=C4)C=C3)cc1
REMARK SMILES IDX 8 1 7 2 6 3 5 4 4 5 3 6 2 7 1 8 42 9 43 10 104 11 44 12
REMARK SMILES IDX 103 13 45 14 46 15 47 16 97 17 48 18 102 19 96 20 98 21
REMARK SMILES IDX 49 22 101 23 95 24 94 25 50 27 82 28 62 29 81 30 63 31 66 32
REMARK SMILES IDX 80 33 99 34 64 35 65 36 79 38 100 39 67 40 51 41 52 42 60 43
REMARK SMILES IDX 53 44 54 45 58 46 61 47 55 48 56 49 59 50 57 51 83 52 84 53
REMARK SMILES IDX 92 54 85 55 86 56 90 57 93 58 87 59 88 60 91 61 89 62 68 63
REMARK SMILES IDX 69 64 77 65 70 66 71 67 75 68 78 69 72 70 73 71 76 72 74 73
REMARK SMILES IDX 9 74 10 75 11 76 12 77 13 78 14 79 15 80 16 81 20 82 17 83
REMARK SMILES IDX 19 84 18 85 21 86 22 87 23 88 24 90 25 91 41 92 26 93 40 94
REMARK SMILES IDX 27 95 28 96 29 97 38 98 30 99 31 100 37 101 39 102 32 103
REMARK SMILES IDX 35 104 33 105 36 106 34 107
REMARK H PARENT 98 26 66 37 23 89
REMARK Flexibility Score: inf
ROOT
ATOM      1  C   UNL     1       4.623  -2.042  -0.908  1.00  0.00     0.188 C 
ENDROOT
BRANCH   1   2
ATOM      2  C   UNL     1       4.497  -0.581  -0.602  1.00  0.00     0.188 C 
BRANCH   2   3
ATOM      3  O   UNL     1       5.656   0.091  -0.179  1.00  0.00    -0.376 OA
BRANCH   3   4
ATOM      4  C   UNL     1       6.013   0.021   1.186  1.00  0.00     0.202 C 
BRANCH   4   5
ATOM      5  C   UNL     1       4.969  -0.021   2.340  1.00  0.00     0.261 C 
BRANCH   5   6
ATOM      6  O   UNL     1       3.542   0.026   2.063  1.00  0.00    -0.460 OA
BRANCH   6   7
ATOM      7  C   UNL     1       2.688   1.067   2.275  1.00  0.00     0.338 C 
ATOM      8  O   UNL     1       1.585   0.909   2.781  1.00  0.00    -0.246 OA
BRANCH   7   9
ATOM      9  C   UNL     1       3.049   2.382   1.698  1.00  0.00     0.060 A 
ATOM     10  C   UNL     1       3.875   2.425   0.594  1.00  0.00     0.016 A 
ATOM     11  C   UNL     1       2.534   3.586   2.179  1.00  0.00     0.016 A 
ATOM     12  C   UNL     1       4.460   3.582   0.160  1.00  0.00     0.010 A 
ATOM     13  C   UNL     1       3.015   4.798   1.660  1.00  0.00     0.010 A 
ATOM     14  C   UNL     1       4.057   4.782   0.716  1.00  0.00    -0.014 A 
BRANCH  14  15
ATOM     15  C   UNL     1       4.957   5.921   0.479  1.00  0.00     0.031 A 
ATOM     16  C   UNL     1       5.830   6.338   1.623  1.00  0.00     0.074 A 
ATOM     17  C   UNL     1       5.197   6.352  -0.773  1.00  0.00     0.049 A 
ATOM     18  N   UNL     1       6.643   7.349   1.725  1.00  0.00    -0.248 NA
ATOM     19  C   UNL     1       5.808   5.466   2.814  1.00  0.00     0.031 C 
ATOM     20  C   UNL     1       4.609   5.778  -1.988  1.00  0.00     0.029 A 
ATOM     21  N   UNL     1       6.044   7.315  -1.244  1.00  0.00    -0.354 N 
ATOM     22  C   UNL     1       7.176   7.269   3.004  1.00  0.00     0.074 A 
ATOM     23  C   UNL     1       6.621   6.100   3.639  1.00  0.00     0.031 C 
ATOM     24  C   UNL     1       5.139   6.383  -3.061  1.00  0.00     0.029 A 
ATOM     25  C   UNL     1       5.985   7.471  -2.607  1.00  0.00     0.049 A 
ATOM     26  H   UNL     1       6.636   7.845  -0.663  1.00  0.00     0.167 HD
ATOM     27  C   UNL     1       8.037   8.130   3.591  1.00  0.00     0.037 A 
ATOM     28  C   UNL     1       6.497   8.441  -3.384  1.00  0.00     0.037 A 
ATOM     29  C   UNL     1       8.554   9.276   2.899  1.00  0.00     0.049 A 
ATOM     30  C   UNL     1       7.295   9.502  -2.680  1.00  0.00     0.074 A 
ATOM     31  C   UNL     1       9.307  10.325   3.383  1.00  0.00     0.029 A 
ATOM     32  N   UNL     1       8.354   9.508   1.541  1.00  0.00    -0.354 N 
ATOM     33  N   UNL     1       7.657   9.555  -1.418  1.00  0.00    -0.248 NA
ATOM     34  C   UNL     1       7.728  10.649  -3.481  1.00  0.00     0.031 C 
ATOM     35  C   UNL     1       9.514  11.221   2.326  1.00  0.00     0.029 A 
ATOM     36  C   UNL     1       8.946  10.699   1.171  1.00  0.00     0.049 A 
ATOM     37  H   UNL     1       7.863   8.910   0.933  1.00  0.00     0.167 HD
ATOM     38  C   UNL     1       8.376  10.728  -1.272  1.00  0.00     0.074 A 
ATOM     39  C   UNL     1       8.410  11.350  -2.584  1.00  0.00     0.031 C 
ATOM     40  C   UNL     1       8.951  11.255  -0.162  1.00  0.00     0.037 A 
BRANCH  27  41
ATOM     41  C   UNL     1       8.311   7.915   5.049  1.00  0.00     0.064 A 
ATOM     42  C   UNL     1       9.080   6.841   5.524  1.00  0.00     0.173 A 
ATOM     43  C   UNL     1       7.685   8.739   5.998  1.00  0.00     0.173 A 
ATOM     44  F   UNL     1       9.657   5.991   4.661  1.00  0.00    -0.203 F 
ATOM     45  C   UNL     1       9.177   6.577   6.890  1.00  0.00     0.198 A 
ATOM     46  C   UNL     1       7.807   8.488   7.362  1.00  0.00     0.198 A 
ATOM     47  F   UNL     1       6.918   9.764   5.600  1.00  0.00    -0.203 F 
ATOM     48  F   UNL     1       9.844   5.495   7.316  1.00  0.00    -0.200 F 
ATOM     49  C   UNL     1       8.541   7.400   7.807  1.00  0.00     0.200 A 
ATOM     50  F   UNL     1       7.181   9.280   8.245  1.00  0.00    -0.200 F 
ATOM     51  F   UNL     1       8.611   7.128   9.117  1.00  0.00    -0.200 F 
ENDBRANCH  27  41
BRANCH  28  52
ATOM     52  C   UNL     1       6.166   8.511  -4.835  1.00  0.00     0.064 A 
ATOM     53  C   UNL     1       7.159   8.456  -5.822  1.00  0.00     0.173 A 
ATOM     54  C   UNL     1       4.836   8.654  -5.272  1.00  0.00     0.173 A 
ATOM     55  F   UNL     1       8.447   8.341  -5.468  1.00  0.00    -0.203 F 
ATOM     56  C   UNL     1       6.840   8.560  -7.178  1.00  0.00     0.198 A 
ATOM     57  C   UNL     1       4.515   8.725  -6.626  1.00  0.00     0.198 A 
ATOM     58  F   UNL     1       3.836   8.718  -4.379  1.00  0.00    -0.203 F 
ATOM     59  F   UNL     1       7.818   8.560  -8.095  1.00  0.00    -0.200 F 
ATOM     60  C   UNL     1       5.519   8.690  -7.579  1.00  0.00     0.200 A 
ATOM     61  F   UNL     1       3.233   8.839  -7.003  1.00  0.00    -0.200 F 
ATOM     62  F   UNL     1       5.215   8.800  -8.880  1.00  0.00    -0.200 F 
ENDBRANCH  28  52
BRANCH  40  63
ATOM     63  C   UNL     1       9.697  12.536  -0.346  1.00  0.00     0.064 A 
ATOM     64  C   UNL     1       9.029  13.753  -0.532  1.00  0.00     0.173 A 
ATOM     65  C   UNL     1      11.097  12.545  -0.270  1.00  0.00     0.173 A 
ATOM     66  F   UNL     1       7.691  13.783  -0.626  1.00  0.00    -0.203 F 
ATOM     67  C   UNL     1       9.743  14.939  -0.654  1.00  0.00     0.198 A 
ATOM     68  C   UNL     1      11.804  13.737  -0.359  1.00  0.00     0.198 A 
ATOM     69  F   UNL     1      11.772  11.401  -0.085  1.00  0.00    -0.203 F 
ATOM     70  F   UNL     1       9.092  16.090  -0.874  1.00  0.00    -0.200 F 
ATOM     71  C   UNL     1      11.127  14.932  -0.557  1.00  0.00     0.200 A 
ATOM     72  F   UNL     1      13.139  13.730  -0.248  1.00  0.00    -0.200 F 
ATOM     73  F   UNL     1      11.812  16.079  -0.658  1.00  0.00    -0.200 F 
ENDBRANCH  40  63
ENDBRANCH  14  15
ENDBRANCH   7   9
ENDBRANCH   6   7
ENDBRANCH   5   6
ENDBRANCH   4   5
ENDBRANCH   3   4
ENDBRANCH   2   3
ENDBRANCH   1   2
BRANCH   1  74
ATOM     74  O   UNL     1       5.203  -2.447  -2.141  1.00  0.00    -0.376 OA
BRANCH  74  75
ATOM     75  C   UNL     1       5.314  -1.586  -3.275  1.00  0.00     0.202 C 
BRANCH  75  76
ATOM     76  C   UNL     1       4.171  -1.650  -4.515  1.00  0.00     0.261 C 
BRANCH  76  77
ATOM     77  O   UNL     1       2.627  -0.447  -4.950  1.00  0.00    -0.460 OA
BRANCH  77  78
ATOM     78  C   UNL     1       1.717   0.634  -5.151  1.00  0.00     0.339 C 
ATOM     79  O   UNL     1       0.598   0.415  -5.609  1.00  0.00    -0.246 OA
BRANCH  78  80
ATOM     80  C   UNL     1       1.975   2.061  -4.713  1.00  0.00     0.072 A 
ATOM     81  C   UNL     1       1.022   2.540  -3.780  1.00  0.00     0.016 A 
ATOM     82  C   UNL     1       2.918   2.971  -5.238  1.00  0.00     0.054 A 
ATOM     83  C   UNL     1       0.932   3.894  -3.444  1.00  0.00     0.001 A 
ATOM     84  C   UNL     1       2.744   4.347  -4.946  1.00  0.00     0.015 A 
ATOM     85  C   UNL     1       1.763   4.807  -4.070  1.00  0.00     0.001 A 
BRANCH  82  86
ATOM     86  C   UNL     1       4.127   2.700  -6.085  1.00  0.00     0.256 C 
ATOM     87  O   UNL     1       4.640   3.625  -6.721  1.00  0.00    -0.269 OA
ATOM     88  N   UNL     1       4.711   1.465  -6.183  1.00  0.00    -0.322 N 
ATOM     89  H   UNL     1       5.510   1.381  -6.753  1.00  0.00     0.170 HD
BRANCH  88  90
ATOM     90  C   UNL     1       4.260   0.330  -5.538  1.00  0.00     0.041 A 
ATOM     91  C   UNL     1       3.860   0.396  -3.776  1.00  0.00     0.028 A 
ATOM     92  C   UNL     1       3.503  -0.922  -6.600  1.00  0.00     0.028 A 
ATOM     93  C   UNL     1       2.695  -0.827  -3.094  1.00  0.00     0.029 A 
ATOM     94  C   UNL     1       2.363  -2.124  -5.900  1.00  0.00     0.029 A 
ATOM     95  C   UNL     1       1.957  -2.083  -4.158  1.00  0.00     0.052 A 
BRANCH  95  96
ATOM     96  N   UNL     1       1.277  -3.113  -3.486  1.00  0.00    -0.250 N 
ATOM     97  C   UNL     1       0.007  -3.647  -3.706  1.00  0.00     0.237 C 
ATOM     98  C   UNL     1       1.863  -3.722  -2.398  1.00  0.00     0.237 C 
ATOM     99  O   UNL     1      -0.645  -3.771  -4.723  1.00  0.00    -0.274 OA
ATOM    100  C   UNL     1      -0.449  -3.871  -2.276  1.00  0.00     0.095 C 
ATOM    101  C   UNL     1       0.809  -4.472  -1.699  1.00  0.00     0.095 C 
ATOM    102  O   UNL     1       3.045  -3.947  -2.209  1.00  0.00    -0.274 OA
ATOM    103  C   UNL     1      -1.487  -4.558  -1.367  1.00  0.00     0.002 C 
ATOM    104  C   UNL     1       0.469  -4.578  -0.218  1.00  0.00     0.002 C 
ATOM    105  C   UNL     1      -1.744  -3.507  -0.254  1.00  0.00     0.005 C 
ATOM    106  C   UNL     1      -0.697  -5.554  -0.453  1.00  0.00     0.009 C 
ATOM    107  C   UNL     1      -0.318  -3.364   0.370  1.00  0.00     0.005 C 
ENDBRANCH  95  96
ENDBRANCH  88  90
ENDBRANCH  82  86
ENDBRANCH  78  80
ENDBRANCH  77  78
ENDBRANCH  76  77
ENDBRANCH  75  76
ENDBRANCH  74  75
ENDBRANCH   1  74
TORSDOF 20
