REMARK SMILES NC(=O)c1cccc(NC2(CC(=O)OCCOCCOCCOC(=O)c3ccc(-c4c5nc(c(-c6c(F)c(F)c(F)c(F)c6F)c6ccc([nH]6)c(-c6c(F)c(F)c(F)c(F)c6F)c6nc(c(-c7c(F)c(F)c(F)c(F)c7F)c7ccc4[nH]7)C=C6)C=C5)cc3)CCC2)n1
REMARK SMILES IDX 18 1 17 2 16 3 15 4 14 5 12 6 13 7 11 8 10 9 89 10 91 11
REMARK SMILES IDX 90 12 9 13 8 15 4 16 5 17 92 18 6 19 7 20 2 21 1 22 3 25
REMARK SMILES IDX 19 26 20 27 21 28 22 29 23 30 24 31 25 32 26 33 27 34 88 35
REMARK SMILES IDX 28 36 87 37 29 38 30 39 31 40 81 41 32 42 86 43 80 44 82 45
REMARK SMILES IDX 33 46 85 47 79 48 78 49 34 51 66 52 46 53 65 54 47 55 50 56
REMARK SMILES IDX 64 57 83 58 48 59 49 60 63 62 84 63 51 64 35 65 36 66 44 67
REMARK SMILES IDX 37 68 38 69 42 70 45 71 39 72 40 73 43 74 41 75 67 76 68 77
REMARK SMILES IDX 76 78 69 79 70 80 74 81 77 82 71 83 72 84 75 85 73 86 52 87
REMARK SMILES IDX 53 88 61 89 54 90 55 91 59 92 62 93 56 94 57 95 60 96 58 97
REMARK H PARENT 9 14 1 23 1 24 82 50 50 61
REMARK Flexibility Score: inf
ROOT
ATOM      1  C   UNL     1       2.972  -2.307  -7.930  1.00  0.00     0.188 C 
ENDROOT
BRANCH   1   2
ATOM      2  O   UNL     1       3.113  -1.858  -9.274  1.00  0.00    -0.376 OA
BRANCH   2   3
ATOM      3  C   UNL     1       2.805  -0.507  -9.572  1.00  0.00     0.202 C 
BRANCH   3   4
ATOM      4  C   UNL     1       1.316  -0.157  -9.589  1.00  0.00     0.261 C 
BRANCH   4   5
ATOM      5  O   UNL     1       0.594  -0.535  -8.397  1.00  0.00    -0.463 OA
BRANCH   5   6
ATOM      6  C   UNL     1      -0.186  -1.636  -8.494  1.00  0.00     0.308 C 
ATOM      7  O   UNL     1      -0.284  -2.317  -9.512  1.00  0.00    -0.252 OA
BRANCH   6   8
ATOM      8  C   UNL     1      -1.048  -1.936  -7.293  1.00  0.00     0.151 C 
BRANCH   8   9
ATOM      9  C   UNL     1      -0.728  -1.471  -5.854  1.00  0.00     0.049 C 
ATOM     10  C   UNL     1      -2.077  -1.293  -5.073  1.00  0.00     0.029 C 
ATOM     11  C   UNL     1      -0.457   0.038  -5.586  1.00  0.00     0.029 C 
ATOM     12  C   UNL     1      -1.956   0.223  -5.292  1.00  0.00     0.005 C 
BRANCH   9  13
ATOM     13  N   UNL     1       0.135  -2.412  -5.135  1.00  0.00    -0.364 N 
ATOM     14  H   UNL     1       0.464  -3.178  -5.658  1.00  0.00     0.162 HD
BRANCH  13  15
ATOM     15  C   UNL     1       0.558  -2.358  -3.772  1.00  0.00     0.127 A 
ATOM     16  C   UNL     1       0.710  -1.316  -1.700  1.00  0.00     0.130 A 
ATOM     17  C   UNL     1       1.612  -2.244  -1.200  1.00  0.00     0.034 A 
ATOM     18  N   UNL     1       0.215  -1.342  -2.968  1.00  0.00    -0.226 NA
ATOM     19  C   UNL     1       1.957  -3.298  -2.023  1.00  0.00     0.006 A 
ATOM     20  C   UNL     1       1.391  -3.372  -3.296  1.00  0.00     0.047 A 
BRANCH  16  21
ATOM     21  C   UNL     1       0.162  -0.257  -0.797  1.00  0.00     0.267 C 
ATOM     22  N   UNL     1       1.040   0.342   0.071  1.00  0.00    -0.364 N 
ATOM     23  H   UNL     1       0.723   1.044   0.684  1.00  0.00     0.160 HD
ATOM     24  H   UNL     1       1.986   0.070   0.082  1.00  0.00     0.160 HD
ATOM     25  O   UNL     1      -1.021   0.062  -0.802  1.00  0.00    -0.268 OA
ENDBRANCH  16  21
ENDBRANCH  13  15
ENDBRANCH   9  13
ENDBRANCH   8   9
ENDBRANCH   6   8
ENDBRANCH   5   6
ENDBRANCH   4   5
ENDBRANCH   3   4
ENDBRANCH   2   3
ENDBRANCH   1   2
BRANCH   1  26
ATOM     26  C   UNL     1       3.031  -1.298  -6.771  1.00  0.00     0.188 C 
BRANCH  26  27
ATOM     27  O   UNL     1       4.115  -0.389  -6.931  1.00  0.00    -0.376 OA
BRANCH  27  28
ATOM     28  C   UNL     1       4.936  -0.264  -5.781  1.00  0.00     0.202 C 
BRANCH  28  29
ATOM     29  C   UNL     1       6.021  -1.341  -5.770  1.00  0.00     0.261 C 
BRANCH  29  30
ATOM     30  O   UNL     1       5.509  -2.672  -5.987  1.00  0.00    -0.460 OA
BRANCH  30  31
ATOM     31  C   UNL     1       5.209  -3.397  -4.892  1.00  0.00     0.338 C 
ATOM     32  O   UNL     1       5.293  -3.053  -3.728  1.00  0.00    -0.246 OA
BRANCH  31  33
ATOM     33  C   UNL     1       4.716  -4.725  -5.310  1.00  0.00     0.060 A 
ATOM     34  C   UNL     1       3.366  -4.902  -5.615  1.00  0.00     0.016 A 
ATOM     35  C   UNL     1       5.563  -5.828  -5.252  1.00  0.00     0.016 A 
ATOM     36  C   UNL     1       2.828  -6.185  -5.743  1.00  0.00     0.010 A 
ATOM     37  C   UNL     1       5.038  -7.111  -5.452  1.00  0.00     0.010 A 
ATOM     38  C   UNL     1       3.658  -7.307  -5.645  1.00  0.00    -0.014 A 
BRANCH  38  39
ATOM     39  C   UNL     1       3.092  -8.685  -5.651  1.00  0.00     0.031 A 
ATOM     40  C   UNL     1       3.240  -9.552  -4.427  1.00  0.00     0.074 A 
ATOM     41  C   UNL     1       2.450  -9.172  -6.729  1.00  0.00     0.049 A 
ATOM     42  N   UNL     1       3.034 -10.837  -4.284  1.00  0.00    -0.248 NA
ATOM     43  C   UNL     1       3.683  -8.875  -3.198  1.00  0.00     0.031 C 
ATOM     44  C   UNL     1       2.153  -8.425  -7.950  1.00  0.00     0.029 A 
ATOM     45  N   UNL     1       1.946 -10.427  -6.976  1.00  0.00    -0.354 N 
ATOM     46  C   UNL     1       3.370 -11.131  -2.968  1.00  0.00     0.074 A 
ATOM     47  C   UNL     1       3.794  -9.890  -2.353  1.00  0.00     0.031 C 
ATOM     48  C   UNL     1       1.525  -9.234  -8.818  1.00  0.00     0.029 A 
ATOM     49  C   UNL     1       1.450 -10.576  -8.248  1.00  0.00     0.049 A 
ATOM     50  H   UNL     1       1.942 -11.149  -6.306  1.00  0.00     0.167 HD
ATOM     51  C   UNL     1       3.335 -12.328  -2.334  1.00  0.00     0.037 A 
ATOM     52  C   UNL     1       1.038 -11.679  -8.904  1.00  0.00     0.037 A 
ATOM     53  C   UNL     1       2.881 -13.553  -2.939  1.00  0.00     0.049 A 
ATOM     54  C   UNL     1       1.091 -13.014  -8.210  1.00  0.00     0.074 A 
ATOM     55  C   UNL     1       2.797 -14.816  -2.378  1.00  0.00     0.029 A 
ATOM     56  N   UNL     1       2.427 -13.667  -4.245  1.00  0.00    -0.354 N 
ATOM     57  N   UNL     1       1.460 -13.298  -6.985  1.00  0.00    -0.248 NA
ATOM     58  C   UNL     1       0.687 -14.186  -9.001  1.00  0.00     0.031 C 
ATOM     59  C   UNL     1       2.339 -15.703  -3.359  1.00  0.00     0.029 A 
ATOM     60  C   UNL     1       2.087 -14.983  -4.516  1.00  0.00     0.049 A 
ATOM     61  H   UNL     1       2.358 -12.922  -4.886  1.00  0.00     0.167 HD
ATOM     62  C   UNL     1       1.314 -14.673  -6.851  1.00  0.00     0.074 A 
ATOM     63  C   UNL     1       0.807 -15.165  -8.115  1.00  0.00     0.031 C 
ATOM     64  C   UNL     1       1.579 -15.458  -5.778  1.00  0.00     0.037 A 
BRANCH  51  65
ATOM     65  C   UNL     1       3.845 -12.384  -0.922  1.00  0.00     0.064 A 
ATOM     66  C   UNL     1       3.137 -11.822   0.150  1.00  0.00     0.173 A 
ATOM     67  C   UNL     1       5.053 -13.041  -0.637  1.00  0.00     0.173 A 
ATOM     68  F   UNL     1       1.986 -11.169  -0.070  1.00  0.00    -0.203 F 
ATOM     69  C   UNL     1       3.632 -11.892   1.450  1.00  0.00     0.198 A 
ATOM     70  C   UNL     1       5.529 -13.135   0.668  1.00  0.00     0.198 A 
ATOM     71  F   UNL     1       5.768 -13.600  -1.625  1.00  0.00    -0.203 F 
ATOM     72  F   UNL     1       2.963 -11.304   2.452  1.00  0.00    -0.200 F 
ATOM     73  C   UNL     1       4.823 -12.553   1.709  1.00  0.00     0.200 A 
ATOM     74  F   UNL     1       6.675 -13.784   0.916  1.00  0.00    -0.200 F 
ATOM     75  F   UNL     1       5.295 -12.622   2.962  1.00  0.00    -0.200 F 
ENDBRANCH  51  65
BRANCH  52  76
ATOM     76  C   UNL     1       0.594 -11.576 -10.319  1.00  0.00     0.064 A 
ATOM     77  C   UNL     1      -0.742 -11.809 -10.675  1.00  0.00     0.173 A 
ATOM     78  C   UNL     1       1.496 -11.255 -11.345  1.00  0.00     0.173 A 
ATOM     79  F   UNL     1      -1.635 -12.149  -9.735  1.00  0.00    -0.203 F 
ATOM     80  C   UNL     1      -1.155 -11.735 -12.004  1.00  0.00     0.198 A 
ATOM     81  C   UNL     1       1.075 -11.151 -12.668  1.00  0.00     0.198 A 
ATOM     82  F   UNL     1       2.787 -11.032 -11.058  1.00  0.00    -0.203 F 
ATOM     83  F   UNL     1      -2.427 -12.008 -12.323  1.00  0.00    -0.200 F 
ATOM     84  C   UNL     1      -0.248 -11.398 -12.998  1.00  0.00     0.200 A 
ATOM     85  F   UNL     1       1.953 -10.816 -13.624  1.00  0.00    -0.200 F 
ATOM     86  F   UNL     1      -0.648 -11.323 -14.275  1.00  0.00    -0.200 F 
ENDBRANCH  52  76
BRANCH  64  87
ATOM     87  C   UNL     1       1.294 -16.926  -5.911  1.00  0.00     0.064 A 
ATOM     88  C   UNL     1       2.098 -17.764  -6.697  1.00  0.00     0.173 A 
ATOM     89  C   UNL     1       0.222 -17.507  -5.215  1.00  0.00     0.173 A 
ATOM     90  F   UNL     1       3.124 -17.254  -7.395  1.00  0.00    -0.203 F 
ATOM     91  C   UNL     1       1.825 -19.126  -6.801  1.00  0.00     0.198 A 
ATOM     92  C   UNL     1      -0.029 -18.873  -5.298  1.00  0.00     0.198 A 
ATOM     93  F   UNL     1      -0.574 -16.750  -4.445  1.00  0.00    -0.203 F 
ATOM     94  F   UNL     1       2.579 -19.899  -7.594  1.00  0.00    -0.200 F 
ATOM     95  C   UNL     1       0.767 -19.680  -6.096  1.00  0.00     0.200 A 
ATOM     96  F   UNL     1      -1.044 -19.409  -4.606  1.00  0.00    -0.200 F 
ATOM     97  F   UNL     1       0.510 -20.992  -6.192  1.00  0.00    -0.200 F 
ENDBRANCH  64  87
ENDBRANCH  38  39
ENDBRANCH  31  33
ENDBRANCH  30  31
ENDBRANCH  29  30
ENDBRANCH  28  29
ENDBRANCH  27  28
ENDBRANCH  26  27
ENDBRANCH   1  26
TORSDOF 21
