REMARK SMILES Cc1cc(C(=O)N[C@@H](Cc2ccccc2)C(=O)OCCOCCOCCOC(=O)c2ccc(-c3c4nc(c(-c5c(F)c(F)c(F)c(F)c5F)c5ccc([nH]5)c(-c5c(F)c(F)c(F)c(F)c5F)c5nc(c(-c6c(F)c(F)c(F)c(F)c6F)c6ccc3[nH]6)C=C5)C=C4)cc2)c(C)o1
REMARK SMILES IDX 22 1 21 2 20 3 19 4 18 5 16 6 17 7 8 8 7 9 5 10 6 11 4 13
REMARK SMILES IDX 1 14 2 15 3 16 95 17 93 18 94 19 9 20 10 21 11 22 15 23
REMARK SMILES IDX 12 24 14 25 13 26 23 27 24 28 25 29 26 30 27 31 28 32 29 33
REMARK SMILES IDX 30 34 31 35 92 36 32 37 91 38 33 39 34 40 35 41 85 42 36 43
REMARK SMILES IDX 90 44 84 45 86 46 37 47 89 48 83 49 82 50 38 52 70 53 50 54
REMARK SMILES IDX 69 55 51 56 54 57 68 58 87 59 52 60 53 61 67 63 88 64 55 65
REMARK SMILES IDX 39 66 40 67 48 68 41 69 42 70 46 71 49 72 43 73 44 74 47 75
REMARK SMILES IDX 45 76 71 77 72 78 80 79 73 80 74 81 78 82 81 83 75 84 76 85
REMARK SMILES IDX 79 86 77 87 56 88 57 89 65 90 58 91 59 92 63 93 66 94 60 95
REMARK SMILES IDX 61 96 64 97 62 98
REMARK H PARENT 7 12 86 51 54 62
REMARK Flexibility Score: inf
ROOT
ATOM      1  C   UNL     1       0.793   3.834   3.442  1.00  0.00     0.188 C 
ENDROOT
BRANCH   1   2
ATOM      2  O   UNL     1       1.483   4.837   4.181  1.00  0.00    -0.376 OA
BRANCH   2   3
ATOM      3  C   UNL     1       1.286   6.202   3.826  1.00  0.00     0.202 C 
BRANCH   3   4
ATOM      4  C   UNL     1       1.467   6.611   2.352  1.00  0.00     0.261 C 
BRANCH   4   5
ATOM      5  O   UNL     1       0.797   5.768   1.387  1.00  0.00    -0.462 OA
BRANCH   5   6
ATOM      6  C   UNL     1       1.552   5.281   0.363  1.00  0.00     0.329 C 
ATOM      7  O   UNL     1       2.740   5.542   0.197  1.00  0.00    -0.250 OA
BRANCH   6   8
ATOM      8  C   UNL     1       0.757   4.426  -0.662  1.00  0.00     0.197 C 
BRANCH   8   9
ATOM      9  N   UNL     1      -0.548   3.887  -0.257  1.00  0.00    -0.338 N 
ATOM     10  C   UNL     1      -1.122   2.643  -0.222  1.00  0.00     0.255 C 
ATOM     11  O   UNL     1      -2.339   2.633  -0.028  1.00  0.00    -0.269 OA
ATOM     12  H   UNL     1      -1.158   4.589   0.067  1.00  0.00     0.164 HD
BRANCH  10  13
ATOM     13  C   UNL     1      -0.361   1.398  -0.316  1.00  0.00     0.081 A 
ATOM     14  C   UNL     1       2.397  -1.113  -0.339  1.00  0.00     0.087 C 
ATOM     15  C   UNL     1       1.212  -0.234  -0.353  1.00  0.00     0.101 A 
ATOM     16  C   UNL     1       1.043   1.131  -0.346  1.00  0.00     0.059 A 
ATOM     17  O   UNL     1       0.007  -0.846  -0.330  1.00  0.00    -0.466 OA
ATOM     18  C   UNL     1      -0.945   0.128  -0.292  1.00  0.00     0.113 A 
ATOM     19  C   UNL     1      -2.326  -0.405  -0.181  1.00  0.00     0.088 C 
ENDBRANCH  10  13
ENDBRANCH   8   9
BRANCH   8  20
ATOM     20  C   UNL     1       0.592   5.241  -1.962  1.00  0.00     0.072 C 
BRANCH  20  21
ATOM     21  C   UNL     1      -0.069   6.582  -1.727  1.00  0.00    -0.045 A 
ATOM     22  C   UNL     1       0.724   7.734  -1.630  1.00  0.00     0.004 A 
ATOM     23  C   UNL     1      -1.446   6.681  -1.489  1.00  0.00     0.004 A 
ATOM     24  C   UNL     1       0.159   8.949  -1.250  1.00  0.00     0.000 A 
ATOM     25  C   UNL     1      -2.005   7.893  -1.084  1.00  0.00     0.000 A 
ATOM     26  C   UNL     1      -1.201   9.024  -0.958  1.00  0.00     0.000 A 
ENDBRANCH  20  21
ENDBRANCH   8  20
ENDBRANCH   6   8
ENDBRANCH   5   6
ENDBRANCH   4   5
ENDBRANCH   3   4
ENDBRANCH   2   3
ENDBRANCH   1   2
BRANCH   1  27
ATOM     27  C   UNL     1      -0.687   4.056   3.075  1.00  0.00     0.188 C 
BRANCH  27  28
ATOM     28  O   UNL     1      -1.217   5.286   3.504  1.00  0.00    -0.376 OA
BRANCH  28  29
ATOM     29  C   UNL     1      -2.276   5.259   4.439  1.00  0.00     0.202 C 
BRANCH  29  30
ATOM     30  C   UNL     1      -2.138   4.421   5.724  1.00  0.00     0.261 C 
BRANCH  30  31
ATOM     31  O   UNL     1      -1.418   3.177   5.625  1.00  0.00    -0.460 OA
BRANCH  31  32
ATOM     32  C   UNL     1      -2.110   2.088   5.227  1.00  0.00     0.338 C 
ATOM     33  O   UNL     1      -3.303   2.035   4.947  1.00  0.00    -0.246 OA
BRANCH  32  34
ATOM     34  C   UNL     1      -1.151   0.990   4.975  1.00  0.00     0.060 A 
ATOM     35  C   UNL     1      -0.960   0.536   3.662  1.00  0.00     0.016 A 
ATOM     36  C   UNL     1      -0.447   0.402   6.027  1.00  0.00     0.016 A 
ATOM     37  C   UNL     1      -0.074  -0.512   3.401  1.00  0.00     0.010 A 
ATOM     38  C   UNL     1       0.418  -0.669   5.767  1.00  0.00     0.010 A 
ATOM     39  C   UNL     1       0.593  -1.147   4.455  1.00  0.00    -0.014 A 
BRANCH  39  40
ATOM     40  C   UNL     1       1.309  -2.426   4.210  1.00  0.00     0.031 A 
ATOM     41  C   UNL     1       0.586  -3.713   4.498  1.00  0.00     0.074 A 
ATOM     42  C   UNL     1       2.562  -2.459   3.723  1.00  0.00     0.049 A 
ATOM     43  N   UNL     1       1.027  -4.945   4.471  1.00  0.00    -0.248 NA
ATOM     44  C   UNL     1      -0.831  -3.588   4.876  1.00  0.00     0.031 C 
ATOM     45  C   UNL     1       3.350  -1.293   3.336  1.00  0.00     0.029 A 
ATOM     46  N   UNL     1       3.394  -3.526   3.477  1.00  0.00    -0.354 N 
ATOM     47  C   UNL     1      -0.049  -5.737   4.850  1.00  0.00     0.074 A 
ATOM     48  C   UNL     1      -1.159  -4.848   5.116  1.00  0.00     0.031 C 
ATOM     49  C   UNL     1       4.558  -1.706   2.912  1.00  0.00     0.029 A 
ATOM     50  C   UNL     1       4.644  -3.161   3.043  1.00  0.00     0.049 A 
ATOM     51  H   UNL     1       3.119  -4.463   3.601  1.00  0.00     0.167 HD
ATOM     52  C   UNL     1      -0.104  -7.085   4.971  1.00  0.00     0.037 A 
ATOM     53  C   UNL     1       5.741  -3.913   2.814  1.00  0.00     0.037 A 
ATOM     54  C   UNL     1       0.999  -7.970   4.701  1.00  0.00     0.049 A 
ATOM     55  C   UNL     1       5.678  -5.407   3.030  1.00  0.00     0.074 A 
ATOM     56  C   UNL     1       1.038  -9.350   4.789  1.00  0.00     0.029 A 
ATOM     57  N   UNL     1       2.260  -7.559   4.297  1.00  0.00    -0.354 N 
ATOM     58  N   UNL     1       4.662  -6.151   3.396  1.00  0.00    -0.248 NA
ATOM     59  C   UNL     1       6.919  -6.163   2.807  1.00  0.00     0.031 C 
ATOM     60  C   UNL     1       2.340  -9.770   4.500  1.00  0.00     0.029 A 
ATOM     61  C   UNL     1       3.094  -8.658   4.161  1.00  0.00     0.049 A 
ATOM     62  H   UNL     1       2.524  -6.625   4.131  1.00  0.00     0.167 HD
ATOM     63  C   UNL     1       5.132  -7.460   3.418  1.00  0.00     0.074 A 
ATOM     64  C   UNL     1       6.521  -7.411   3.014  1.00  0.00     0.031 C 
ATOM     65  C   UNL     1       4.473  -8.599   3.745  1.00  0.00     0.037 A 
BRANCH  52  66
ATOM     66  C   UNL     1      -1.390  -7.683   5.466  1.00  0.00     0.064 A 
ATOM     67  C   UNL     1      -2.556  -7.695   4.687  1.00  0.00     0.173 A 
ATOM     68  C   UNL     1      -1.446  -8.274   6.738  1.00  0.00     0.173 A 
ATOM     69  F   UNL     1      -2.561  -7.130   3.470  1.00  0.00    -0.203 F 
ATOM     70  C   UNL     1      -3.737  -8.248   5.174  1.00  0.00     0.198 A 
ATOM     71  C   UNL     1      -2.619  -8.857   7.208  1.00  0.00     0.198 A 
ATOM     72  F   UNL     1      -0.358  -8.293   7.524  1.00  0.00    -0.203 F 
ATOM     73  F   UNL     1      -4.854  -8.200   4.434  1.00  0.00    -0.200 F 
ATOM     74  C   UNL     1      -3.766  -8.835   6.431  1.00  0.00     0.200 A 
ATOM     75  F   UNL     1      -2.639  -9.437   8.417  1.00  0.00    -0.200 F 
ATOM     76  F   UNL     1      -4.901  -9.374   6.895  1.00  0.00    -0.200 F 
ENDBRANCH  52  66
BRANCH  53  77
ATOM     77  C   UNL     1       7.013  -3.269   2.384  1.00  0.00     0.064 A 
ATOM     78  C   UNL     1       7.563  -3.521   1.119  1.00  0.00     0.173 A 
ATOM     79  C   UNL     1       7.723  -2.416   3.243  1.00  0.00     0.173 A 
ATOM     80  F   UNL     1       6.940  -4.353   0.272  1.00  0.00    -0.203 F 
ATOM     81  C   UNL     1       8.781  -2.961   0.738  1.00  0.00     0.198 A 
ATOM     82  C   UNL     1       8.923  -1.829   2.847  1.00  0.00     0.198 A 
ATOM     83  F   UNL     1       7.247  -2.147   4.467  1.00  0.00    -0.203 F 
ATOM     84  F   UNL     1       9.310  -3.263  -0.456  1.00  0.00    -0.200 F 
ATOM     85  C   UNL     1       9.456  -2.109   1.599  1.00  0.00     0.200 A 
ATOM     86  F   UNL     1       9.565  -0.997   3.678  1.00  0.00    -0.200 F 
ATOM     87  F   UNL     1      10.625  -1.567   1.230  1.00  0.00    -0.200 F 
ENDBRANCH  53  77
BRANCH  65  88
ATOM     88  C   UNL     1       5.223  -9.898   3.635  1.00  0.00     0.064 A 
ATOM     89  C   UNL     1       6.254 -10.239   4.524  1.00  0.00     0.173 A 
ATOM     90  C   UNL     1       4.868 -10.839   2.655  1.00  0.00     0.173 A 
ATOM     91  F   UNL     1       6.642  -9.373   5.472  1.00  0.00    -0.203 F 
ATOM     92  C   UNL     1       6.917 -11.460   4.419  1.00  0.00     0.198 A 
ATOM     93  C   UNL     1       5.510 -12.072   2.575  1.00  0.00     0.198 A 
ATOM     94  F   UNL     1       3.883 -10.571   1.785  1.00  0.00    -0.203 F 
ATOM     95  F   UNL     1       7.932 -11.742   5.247  1.00  0.00    -0.200 F 
ATOM     96  C   UNL     1       6.539 -12.378   3.451  1.00  0.00     0.200 A 
ATOM     97  F   UNL     1       5.129 -12.965   1.650  1.00  0.00    -0.200 F 
ATOM     98  F   UNL     1       7.171 -13.556   3.359  1.00  0.00    -0.200 F 
ENDBRANCH  65  88
ENDBRANCH  39  40
ENDBRANCH  32  34
ENDBRANCH  31  32
ENDBRANCH  30  31
ENDBRANCH  29  30
ENDBRANCH  28  29
ENDBRANCH  27  28
ENDBRANCH   1  27
TORSDOF 21
