REMARK SMILES Cc1nsc(NC[C@@H]2C[C@H]3CC[C@@H]2C3)c1C(=O)OCCOCCOCCOC(=O)c1ccc(-c2c3nc(c(-c4c(F)c(F)c(F)c(F)c4F)c4ccc([nH]4)c(-c4c(F)c(F)c(F)c(F)c4F)c4nc(c(-c5c(F)c(F)c(F)c(F)c5F)c5ccc2[nH]5)C=C4)C=C3)cc1
REMARK SMILES IDX 22 1 21 2 20 3 19 4 18 5 16 6 17 7 15 8 1 9 2 10 3 11 4 12
REMARK SMILES IDX 5 13 6 14 7 16 8 17 9 18 13 19 10 20 12 21 14 22 11 23 23 24
REMARK SMILES IDX 24 25 25 26 26 27 27 28 28 29 29 30 30 31 31 32 92 33 32 34
REMARK SMILES IDX 91 35 33 36 34 37 35 38 85 39 36 40 90 41 84 42 86 43 37 44
REMARK SMILES IDX 89 45 83 46 82 47 38 49 70 50 50 51 69 52 51 53 54 54 68 55
REMARK SMILES IDX 87 56 52 57 53 58 67 60 88 61 55 62 39 63 40 64 48 65 41 66
REMARK SMILES IDX 42 67 46 68 49 69 43 70 44 71 47 72 45 73 71 74 72 75 80 76
REMARK SMILES IDX 73 77 74 78 78 79 81 80 75 81 76 82 79 83 77 84 56 85 57 86
REMARK SMILES IDX 65 87 58 88 59 89 63 90 66 91 60 92 61 93 64 94 62 95
REMARK H PARENT 6 15 86 48 54 59
REMARK Flexibility Score: inf
ROOT
ATOM      1  C   UNL     1       0.098   4.596  -0.155  1.00  0.00     0.188 C 
ENDROOT
BRANCH   1   2
ATOM      2  O   UNL     1       0.753   5.276  -1.197  1.00  0.00    -0.376 OA
BRANCH   2   3
ATOM      3  C   UNL     1       2.043   4.864  -1.621  1.00  0.00     0.202 C 
BRANCH   3   4
ATOM      4  C   UNL     1       2.831   3.636  -1.104  1.00  0.00     0.261 C 
BRANCH   4   5
ATOM      5  O   UNL     1       2.134   2.650  -0.337  1.00  0.00    -0.460 OA
BRANCH   5   6
ATOM      6  C   UNL     1       2.353   2.672   1.013  1.00  0.00     0.343 C 
ATOM      7  O   UNL     1       3.146   3.430   1.558  1.00  0.00    -0.246 OA
BRANCH   6   8
ATOM      8  C   UNL     1       1.401   1.852   1.752  1.00  0.00     0.117 A 
ATOM      9  C   UNL     1       1.293  -0.235   0.184  1.00  0.00     0.069 C 
ATOM     10  C   UNL     1       0.941   0.530   1.413  1.00  0.00     0.068 A 
ATOM     11  N   UNL     1       0.091  -0.031   2.273  1.00  0.00    -0.195 NA
ATOM     12  S   UNL     1      -0.263   1.053   3.465  1.00  0.00    -0.018 S 
ATOM     13  C   UNL     1       0.682   2.345   2.843  1.00  0.00     0.124 A 
BRANCH  13  14
ATOM     14  N   UNL     1       0.664   3.638   3.275  1.00  0.00    -0.375 N 
ATOM     15  H   UNL     1       0.975   4.326   2.643  1.00  0.00     0.161 HD
BRANCH  14  16
ATOM     16  C   UNL     1       0.230   4.091   4.581  1.00  0.00     0.117 C 
BRANCH  16  17
ATOM     17  C   UNL     1       1.355   4.844   5.323  1.00  0.00     0.012 C 
ATOM     18  C   UNL     1       1.198   6.385   5.314  1.00  0.00     0.009 C 
ATOM     19  C   UNL     1       2.796   4.669   4.765  1.00  0.00    -0.006 C 
ATOM     20  C   UNL     1       2.605   6.882   4.929  1.00  0.00    -0.011 C 
ATOM     21  C   UNL     1       3.786   5.013   5.888  1.00  0.00     0.004 C 
ATOM     22  C   UNL     1       2.979   5.883   3.842  1.00  0.00     0.007 C 
ATOM     23  C   UNL     1       3.614   6.531   6.036  1.00  0.00     0.004 C 
ENDBRANCH  16  17
ENDBRANCH  14  16
ENDBRANCH  13  14
ENDBRANCH   6   8
ENDBRANCH   5   6
ENDBRANCH   4   5
ENDBRANCH   3   4
ENDBRANCH   2   3
ENDBRANCH   1   2
BRANCH   1  24
ATOM     24  C   UNL     1      -0.688   3.322  -0.530  1.00  0.00     0.188 C 
BRANCH  24  25
ATOM     25  O   UNL     1      -0.427   2.607  -1.725  1.00  0.00    -0.376 OA
BRANCH  25  26
ATOM     26  C   UNL     1      -0.521   3.181  -3.020  1.00  0.00     0.202 C 
BRANCH  26  27
ATOM     27  C   UNL     1      -1.536   4.251  -3.416  1.00  0.00     0.261 C 
BRANCH  27  28
ATOM     28  O   UNL     1      -1.819   5.176  -2.392  1.00  0.00    -0.460 OA
BRANCH  28  29
ATOM     29  C   UNL     1      -2.930   4.872  -1.690  1.00  0.00     0.338 C 
ATOM     30  O   UNL     1      -3.666   3.919  -1.843  1.00  0.00    -0.246 OA
BRANCH  29  31
ATOM     31  C   UNL     1      -3.151   5.929  -0.694  1.00  0.00     0.060 A 
ATOM     32  C   UNL     1      -4.253   5.717   0.135  1.00  0.00     0.016 A 
ATOM     33  C   UNL     1      -2.640   7.201  -0.978  1.00  0.00     0.016 A 
ATOM     34  C   UNL     1      -5.096   6.778   0.318  1.00  0.00     0.010 A 
ATOM     35  C   UNL     1      -3.493   8.255  -0.820  1.00  0.00     0.010 A 
ATOM     36  C   UNL     1      -4.756   7.984  -0.299  1.00  0.00    -0.014 A 
BRANCH  36  37
ATOM     37  C   UNL     1      -5.801   8.958  -0.467  1.00  0.00     0.031 A 
ATOM     38  C   UNL     1      -6.049   9.763   0.739  1.00  0.00     0.074 A 
ATOM     39  C   UNL     1      -6.385   9.127  -1.667  1.00  0.00     0.049 A 
ATOM     40  N   UNL     1      -7.148   9.870   1.403  1.00  0.00    -0.248 NA
ATOM     41  C   UNL     1      -4.886  10.403   1.372  1.00  0.00     0.031 C 
ATOM     42  C   UNL     1      -6.013   8.534  -2.957  1.00  0.00     0.029 A 
ATOM     43  N   UNL     1      -7.382   9.981  -2.003  1.00  0.00    -0.354 N 
ATOM     44  C   UNL     1      -6.859  10.725   2.457  1.00  0.00     0.074 A 
ATOM     45  C   UNL     1      -5.430  10.883   2.488  1.00  0.00     0.031 C 
ATOM     46  C   UNL     1      -6.611   9.230  -3.950  1.00  0.00     0.029 A 
ATOM     47  C   UNL     1      -7.474  10.240  -3.360  1.00  0.00     0.049 A 
ATOM     48  H   UNL     1      -7.988  10.383  -1.339  1.00  0.00     0.167 HD
ATOM     49  C   UNL     1      -7.839  11.420   3.088  1.00  0.00     0.037 A 
ATOM     50  C   UNL     1      -8.114  11.301  -3.910  1.00  0.00     0.037 A 
ATOM     51  C   UNL     1      -9.132  10.835   2.853  1.00  0.00     0.049 A 
ATOM     52  C   UNL     1      -9.060  11.825  -2.881  1.00  0.00     0.074 A 
ATOM     53  C   UNL     1      -9.691   9.606   3.146  1.00  0.00     0.029 A 
ATOM     54  N   UNL     1      -9.940  11.398   1.895  1.00  0.00    -0.354 N 
ATOM     55  N   UNL     1     -10.123  11.179  -2.480  1.00  0.00    -0.248 NA
ATOM     56  C   UNL     1      -8.565  12.835  -1.952  1.00  0.00     0.031 C 
ATOM     57  C   UNL     1     -10.518   9.297   2.029  1.00  0.00     0.029 A 
ATOM     58  C   UNL     1     -10.455  10.372   1.142  1.00  0.00     0.049 A 
ATOM     59  H   UNL     1     -10.117  12.359   1.771  1.00  0.00     0.167 HD
ATOM     60  C   UNL     1     -10.178  11.396  -1.109  1.00  0.00     0.074 A 
ATOM     61  C   UNL     1      -9.244  12.488  -0.855  1.00  0.00     0.031 C 
ATOM     62  C   UNL     1     -10.743  10.478  -0.269  1.00  0.00     0.037 A 
BRANCH  49  63
ATOM     63  C   UNL     1      -7.651  12.807   3.633  1.00  0.00     0.064 A 
ATOM     64  C   UNL     1      -8.664  13.371   4.428  1.00  0.00     0.173 A 
ATOM     65  C   UNL     1      -6.657  13.702   3.178  1.00  0.00     0.173 A 
ATOM     66  F   UNL     1      -9.666  12.612   4.897  1.00  0.00    -0.203 F 
ATOM     67  C   UNL     1      -8.716  14.742   4.685  1.00  0.00     0.198 A 
ATOM     68  C   UNL     1      -6.680  15.058   3.486  1.00  0.00     0.198 A 
ATOM     69  F   UNL     1      -5.691  13.330   2.329  1.00  0.00    -0.203 F 
ATOM     70  F   UNL     1      -9.766  15.254   5.340  1.00  0.00    -0.200 F 
ATOM     71  C   UNL     1      -7.727  15.585   4.210  1.00  0.00     0.200 A 
ATOM     72  F   UNL     1      -5.719  15.859   3.004  1.00  0.00    -0.200 F 
ATOM     73  F   UNL     1      -7.808  16.907   4.405  1.00  0.00    -0.200 F 
ENDBRANCH  49  63
BRANCH  50  74
ATOM     74  C   UNL     1      -7.702  12.069  -5.112  1.00  0.00     0.064 A 
ATOM     75  C   UNL     1      -8.578  12.974  -5.731  1.00  0.00     0.173 A 
ATOM     76  C   UNL     1      -6.361  12.107  -5.548  1.00  0.00     0.173 A 
ATOM     77  F   UNL     1      -9.858  13.048  -5.340  1.00  0.00    -0.203 F 
ATOM     78  C   UNL     1      -8.137  13.863  -6.720  1.00  0.00     0.198 A 
ATOM     79  C   UNL     1      -5.927  12.980  -6.545  1.00  0.00     0.198 A 
ATOM     80  F   UNL     1      -5.416  11.363  -4.958  1.00  0.00    -0.203 F 
ATOM     81  F   UNL     1      -8.991  14.751  -7.249  1.00  0.00    -0.200 F 
ATOM     82  C   UNL     1      -6.812  13.867  -7.124  1.00  0.00     0.200 A 
ATOM     83  F   UNL     1      -4.633  12.994  -6.899  1.00  0.00    -0.200 F 
ATOM     84  F   UNL     1      -6.381  14.748  -8.037  1.00  0.00    -0.200 F 
ENDBRANCH  50  74
BRANCH  62  85
ATOM     85  C   UNL     1     -11.499   9.333  -0.886  1.00  0.00     0.064 A 
ATOM     86  C   UNL     1     -10.900   8.365  -1.711  1.00  0.00     0.173 A 
ATOM     87  C   UNL     1     -12.824   9.109  -0.489  1.00  0.00     0.173 A 
ATOM     88  F   UNL     1      -9.606   8.446  -2.038  1.00  0.00    -0.203 F 
ATOM     89  C   UNL     1     -11.610   7.253  -2.158  1.00  0.00     0.198 A 
ATOM     90  C   UNL     1     -13.519   7.975  -0.904  1.00  0.00     0.198 A 
ATOM     91  F   UNL     1     -13.427   9.963   0.352  1.00  0.00    -0.203 F 
ATOM     92  F   UNL     1     -11.015   6.351  -2.953  1.00  0.00    -0.200 F 
ATOM     93  C   UNL     1     -12.916   7.054  -1.746  1.00  0.00     0.200 A 
ATOM     94  F   UNL     1     -14.764   7.758  -0.459  1.00  0.00    -0.200 F 
ATOM     95  F   UNL     1     -13.585   5.959  -2.135  1.00  0.00    -0.200 F 
ENDBRANCH  62  85
ENDBRANCH  36  37
ENDBRANCH  29  31
ENDBRANCH  28  29
ENDBRANCH  27  28
ENDBRANCH  26  27
ENDBRANCH  25  26
ENDBRANCH  24  25
ENDBRANCH   1  24
TORSDOF 20
