REMARK SMILES CSc1ccccc1NC(=O)[C@@H]1CC=CC[C@H]1C(=O)OCCOCCOCCOC(=O)c1ccc(-c2c3nc(c(-c4c(F)c(F)c(F)c(F)c4F)c4ccc([nH]4)c(-c4c(F)c(F)c(F)c(F)c4F)c4nc(c(-c5c(F)c(F)c(F)c(F)c5F)c5ccc2[nH]5)C=C4)C=C3)cc1
REMARK SMILES IDX 24 1 23 2 22 3 21 4 20 5 18 6 19 7 17 8 12 9 13 10 14 11
REMARK SMILES IDX 16 12 15 13 10 14 9 15 11 17 8 18 3 19 4 20 5 21 7 22 6 23
REMARK SMILES IDX 2 24 1 25 25 26 26 27 27 28 28 29 29 30 30 31 31 32 32 33
REMARK SMILES IDX 33 34 94 35 34 36 93 37 35 38 36 39 37 40 87 41 38 42 92 43
REMARK SMILES IDX 86 44 88 45 39 46 91 47 85 48 84 49 40 51 72 52 52 53 71 54
REMARK SMILES IDX 53 55 56 56 70 57 89 58 54 59 55 60 69 62 90 63 57 64 41 65
REMARK SMILES IDX 42 66 50 67 43 68 44 69 48 70 51 71 45 72 46 73 49 74 47 75
REMARK SMILES IDX 73 76 74 77 82 78 75 79 76 80 80 81 83 82 77 83 78 84 81 85
REMARK SMILES IDX 79 86 58 87 59 88 67 89 60 90 61 91 65 92 68 93 62 94 63 95
REMARK SMILES IDX 66 96 64 97
REMARK H PARENT 9 16 88 50 56 61
REMARK Flexibility Score: inf
ROOT
ATOM      1  C   UNL     1       1.909  -4.580   8.437  1.00  0.00     0.188 C 
ENDROOT
BRANCH   1   2
ATOM      2  O   UNL     1       1.341  -3.756   9.448  1.00  0.00    -0.376 OA
BRANCH   2   3
ATOM      3  C   UNL     1       0.584  -2.638   8.999  1.00  0.00     0.202 C 
BRANCH   3   4
ATOM      4  C   UNL     1       1.339  -1.471   8.333  1.00  0.00     0.261 C 
BRANCH   4   5
ATOM      5  O   UNL     1       2.284  -1.783   7.280  1.00  0.00    -0.463 OA
BRANCH   5   6
ATOM      6  C   UNL     1       3.551  -1.960   7.726  1.00  0.00     0.310 C 
ATOM      7  O   UNL     1       3.851  -1.964   8.921  1.00  0.00    -0.252 OA
BRANCH   6   8
ATOM      8  C   UNL     1       4.643  -2.021   6.667  1.00  0.00     0.116 C 
ATOM      9  C   UNL     1       4.350  -2.285   5.144  1.00  0.00     0.097 C 
ATOM     10  C   UNL     1       5.653  -2.033   4.343  1.00  0.00     0.041 C 
ATOM     11  C   UNL     1       6.715  -1.145   4.910  1.00  0.00    -0.030 C 
ATOM     12  C   UNL     1       5.378  -0.682   6.913  1.00  0.00     0.043 C 
ATOM     13  C   UNL     1       6.580  -0.494   6.063  1.00  0.00    -0.030 C 
BRANCH   9  14
ATOM     14  C   UNL     1       3.833  -3.733   4.886  1.00  0.00     0.228 C 
ATOM     15  N   UNL     1       3.314  -4.215   3.688  1.00  0.00    -0.325 N 
ATOM     16  H   UNL     1       2.378  -4.518   3.724  1.00  0.00     0.169 HD
ATOM     17  O   UNL     1       3.802  -4.528   5.836  1.00  0.00    -0.274 OA
BRANCH  15  18
ATOM     18  C   UNL     1       3.950  -4.334   2.409  1.00  0.00     0.054 A 
ATOM     19  C   UNL     1       3.976  -5.575   1.719  1.00  0.00     0.031 A 
ATOM     20  C   UNL     1       4.793  -5.747   0.587  1.00  0.00     0.017 A 
ATOM     21  C   UNL     1       5.524  -4.686   0.079  1.00  0.00     0.001 A 
ATOM     22  C   UNL     1       4.546  -3.257   1.770  1.00  0.00     0.027 A 
ATOM     23  C   UNL     1       5.366  -3.430   0.647  1.00  0.00     0.002 A 
BRANCH  19  24
ATOM     24  S   UNL     1       3.040  -7.029   2.160  1.00  0.00    -0.127 SA
ATOM     25  C   UNL     1       1.712  -6.907   0.922  1.00  0.00     0.091 C 
ENDBRANCH  19  24
ENDBRANCH  15  18
ENDBRANCH   9  14
ENDBRANCH   6   8
ENDBRANCH   5   6
ENDBRANCH   4   5
ENDBRANCH   3   4
ENDBRANCH   2   3
ENDBRANCH   1   2
BRANCH   1  26
ATOM     26  C   UNL     1       0.967  -4.998   7.315  1.00  0.00     0.188 C 
BRANCH  26  27
ATOM     27  O   UNL     1       0.442  -3.922   6.551  1.00  0.00    -0.376 OA
BRANCH  27  28
ATOM     28  C   UNL     1      -0.521  -4.225   5.542  1.00  0.00     0.202 C 
BRANCH  28  29
ATOM     29  C   UNL     1      -1.334  -5.540   5.600  1.00  0.00     0.261 C 
BRANCH  29  30
ATOM     30  O   UNL     1      -0.589  -6.755   5.837  1.00  0.00    -0.460 OA
BRANCH  30  31
ATOM     31  C   UNL     1       0.432  -7.003   4.984  1.00  0.00     0.338 C 
ATOM     32  O   UNL     1       0.634  -6.394   3.947  1.00  0.00    -0.246 OA
BRANCH  31  33
ATOM     33  C   UNL     1       1.412  -7.925   5.635  1.00  0.00     0.060 A 
ATOM     34  C   UNL     1       2.773  -7.627   5.499  1.00  0.00     0.016 A 
ATOM     35  C   UNL     1       1.040  -9.004   6.437  1.00  0.00     0.016 A 
ATOM     36  C   UNL     1       3.761  -8.412   6.085  1.00  0.00     0.010 A 
ATOM     37  C   UNL     1       2.033  -9.805   7.033  1.00  0.00     0.010 A 
ATOM     38  C   UNL     1       3.401  -9.529   6.834  1.00  0.00    -0.014 A 
BRANCH  38  39
ATOM     39  C   UNL     1       4.467 -10.480   7.239  1.00  0.00     0.031 A 
ATOM     40  C   UNL     1       4.677 -11.712   6.402  1.00  0.00     0.074 A 
ATOM     41  C   UNL     1       5.307 -10.215   8.258  1.00  0.00     0.049 A 
ATOM     42  N   UNL     1       5.504 -12.710   6.580  1.00  0.00    -0.248 NA
ATOM     43  C   UNL     1       3.849 -11.826   5.190  1.00  0.00     0.031 C 
ATOM     44  C   UNL     1       5.293  -9.006   9.078  1.00  0.00     0.029 A 
ATOM     45  N   UNL     1       6.345 -10.957   8.772  1.00  0.00    -0.354 N 
ATOM     46  C   UNL     1       5.278 -13.579   5.521  1.00  0.00     0.074 A 
ATOM     47  C   UNL     1       4.235 -12.997   4.706  1.00  0.00     0.031 C 
ATOM     48  C   UNL     1       6.263  -9.097  10.005  1.00  0.00     0.029 A 
ATOM     49  C   UNL     1       6.937 -10.388   9.873  1.00  0.00     0.049 A 
ATOM     50  H   UNL     1       6.636 -11.815   8.387  1.00  0.00     0.167 HD
ATOM     51  C   UNL     1       5.886 -14.758   5.255  1.00  0.00     0.037 A 
ATOM     52  C   UNL     1       7.887 -10.873  10.700  1.00  0.00     0.037 A 
ATOM     53  C   UNL     1       6.946 -15.325   6.045  1.00  0.00     0.049 A 
ATOM     54  C   UNL     1       8.479 -12.237  10.431  1.00  0.00     0.074 A 
ATOM     55  C   UNL     1       7.630 -16.511   5.840  1.00  0.00     0.029 A 
ATOM     56  N   UNL     1       7.476 -14.749   7.188  1.00  0.00    -0.354 N 
ATOM     57  N   UNL     1       8.253 -13.061   9.436  1.00  0.00    -0.248 NA
ATOM     58  C   UNL     1       9.458 -12.742  11.407  1.00  0.00     0.031 C 
ATOM     59  C   UNL     1       8.530 -16.684   6.895  1.00  0.00     0.029 A 
ATOM     60  C   UNL     1       8.454 -15.574   7.720  1.00  0.00     0.049 A 
ATOM     61  H   UNL     1       7.199 -13.883   7.566  1.00  0.00     0.167 HD
ATOM     62  C   UNL     1       9.082 -14.156   9.648  1.00  0.00     0.074 A 
ATOM     63  C   UNL     1       9.831 -13.887  10.855  1.00  0.00     0.031 C 
ATOM     64  C   UNL     1       9.209 -15.287   8.912  1.00  0.00     0.037 A 
BRANCH  51  65
ATOM     65  C   UNL     1       5.391 -15.551   4.084  1.00  0.00     0.064 A 
ATOM     66  C   UNL     1       5.679 -15.186   2.761  1.00  0.00     0.173 A 
ATOM     67  C   UNL     1       4.677 -16.739   4.300  1.00  0.00     0.173 A 
ATOM     68  F   UNL     1       6.343 -14.050   2.502  1.00  0.00    -0.203 F 
ATOM     69  C   UNL     1       5.262 -15.981   1.696  1.00  0.00     0.198 A 
ATOM     70  C   UNL     1       4.287 -17.545   3.235  1.00  0.00     0.198 A 
ATOM     71  F   UNL     1       4.378 -17.131   5.548  1.00  0.00    -0.203 F 
ATOM     72  F   UNL     1       5.521 -15.601   0.437  1.00  0.00    -0.200 F 
ATOM     73  C   UNL     1       4.578 -17.164   1.935  1.00  0.00     0.200 A 
ATOM     74  F   UNL     1       3.638 -18.694   3.469  1.00  0.00    -0.200 F 
ATOM     75  F   UNL     1       4.197 -17.938   0.909  1.00  0.00    -0.200 F 
ENDBRANCH  51  65
BRANCH  52  76
ATOM     76  C   UNL     1       8.306 -10.107  11.908  1.00  0.00     0.064 A 
ATOM     77  C   UNL     1       9.625  -9.662  12.073  1.00  0.00     0.173 A 
ATOM     78  C   UNL     1       7.412  -9.891  12.970  1.00  0.00     0.173 A 
ATOM     79  F   UNL     1      10.530  -9.877  11.106  1.00  0.00    -0.203 F 
ATOM     80  C   UNL     1      10.044  -9.068  13.263  1.00  0.00     0.198 A 
ATOM     81  C   UNL     1       7.822  -9.264  14.144  1.00  0.00     0.198 A 
ATOM     82  F   UNL     1       6.142 -10.310  12.875  1.00  0.00    -0.203 F 
ATOM     83  F   UNL     1      11.331  -8.731  13.425  1.00  0.00    -0.200 F 
ATOM     84  C   UNL     1       9.142  -8.868  14.297  1.00  0.00     0.200 A 
ATOM     85  F   UNL     1       6.946  -9.070  15.139  1.00  0.00    -0.200 F 
ATOM     86  F   UNL     1       9.549  -8.315  15.448  1.00  0.00    -0.200 F 
ENDBRANCH  52  76
BRANCH  64  87
ATOM     87  C   UNL     1      10.226 -16.300   9.357  1.00  0.00     0.064 A 
ATOM     88  C   UNL     1      10.048 -17.068  10.517  1.00  0.00     0.173 A 
ATOM     89  C   UNL     1      11.376 -16.536   8.586  1.00  0.00     0.173 A 
ATOM     90  F   UNL     1       8.972 -16.876  11.295  1.00  0.00    -0.203 F 
ATOM     91  C   UNL     1      10.997 -18.011  10.906  1.00  0.00     0.198 A 
ATOM     92  C   UNL     1      12.305 -17.503   8.959  1.00  0.00     0.198 A 
ATOM     93  F   UNL     1      11.592 -15.838   7.461  1.00  0.00    -0.203 F 
ATOM     94  F   UNL     1      10.830 -18.695  12.046  1.00  0.00    -0.200 F 
ATOM     95  C   UNL     1      12.120 -18.233  10.123  1.00  0.00     0.200 A 
ATOM     96  F   UNL     1      13.380 -17.730   8.191  1.00  0.00    -0.200 F 
ATOM     97  F   UNL     1      13.027 -19.147  10.494  1.00  0.00    -0.200 F 
ENDBRANCH  64  87
ENDBRANCH  38  39
ENDBRANCH  31  33
ENDBRANCH  30  31
ENDBRANCH  29  30
ENDBRANCH  28  29
ENDBRANCH  27  28
ENDBRANCH  26  27
ENDBRANCH   1  26
TORSDOF 20
