REMARK SMILES CC[C@](C)(C(=O)OCCOCCOCCOC(=O)c1ccc(-c2c3nc(c(-c4c(F)c(F)c(F)c(F)c4F)c4ccc([nH]4)c(-c4c(F)c(F)c(F)c(F)c4F)c4nc(c(-c5c(F)c(F)c(F)c(F)c5F)c5ccc2[nH]5)C=C4)C=C3)cc1)[C@@H]1CCC[C@@H]1O
REMARK SMILES IDX 11 1 10 2 9 3 8 4 7 5 5 6 6 7 3 8 4 9 2 10 1 11 82 12 83 13
REMARK SMILES IDX 86 14 84 15 85 16 87 17 12 19 13 20 14 21 15 22 16 23 17 24
REMARK SMILES IDX 18 25 19 26 20 27 81 28 21 29 80 30 22 31 23 32 24 33 74 34
REMARK SMILES IDX 25 35 79 36 73 37 75 38 26 39 78 40 72 41 71 42 27 44 59 45
REMARK SMILES IDX 39 46 58 47 40 48 43 49 57 50 76 51 41 52 42 53 56 55 77 56
REMARK SMILES IDX 44 57 28 58 29 59 37 60 30 61 31 62 35 63 38 64 32 65 33 66
REMARK SMILES IDX 36 67 34 68 60 69 61 70 69 71 62 72 63 73 67 74 70 75 64 76
REMARK SMILES IDX 65 77 68 78 66 79 45 80 46 81 54 82 47 83 48 84 52 85 55 86
REMARK SMILES IDX 49 87 50 88 53 89 51 90
REMARK H PARENT 87 18 75 43 43 54
REMARK Flexibility Score: inf
ROOT
ATOM      1  C   UNL     1       6.563   3.063   0.033  1.00  0.00     0.188 C 
ENDROOT
BRANCH   1   2
ATOM      2  O   UNL     1       7.440   2.851  -1.059  1.00  0.00    -0.376 OA
BRANCH   2   3
ATOM      3  C   UNL     1       6.940   2.005  -2.089  1.00  0.00     0.202 C 
BRANCH   3   4
ATOM      4  C   UNL     1       5.694   2.504  -2.832  1.00  0.00     0.261 C 
BRANCH   4   5
ATOM      5  O   UNL     1       4.585   2.849  -1.976  1.00  0.00    -0.463 OA
BRANCH   5   6
ATOM      6  C   UNL     1       3.664   1.899  -1.678  1.00  0.00     0.312 C 
ATOM      7  O   UNL     1       3.797   0.741  -2.046  1.00  0.00    -0.252 OA
BRANCH   6   8
ATOM      8  C   UNL     1       2.424   2.479  -0.915  1.00  0.00     0.070 C 
ATOM      9  C   UNL     1       2.397   4.063  -0.931  1.00  0.00     0.024 C 
BRANCH   8  10
ATOM     10  C   UNL     1       1.168   2.149  -1.801  1.00  0.00     0.015 C 
ATOM     11  C   UNL     1       0.649   0.730  -1.875  1.00  0.00     0.005 C 
ENDBRANCH   8  10
BRANCH   8  12
ATOM     12  C   UNL     1       2.256   1.938   0.575  1.00  0.00     0.035 C 
ATOM     13  C   UNL     1       2.981   2.729   1.703  1.00  0.00     0.007 C 
ATOM     14  C   UNL     1       2.567   0.473   0.982  1.00  0.00     0.118 C 
ATOM     15  C   UNL     1       3.916   1.777   2.441  1.00  0.00     0.003 C 
ATOM     16  C   UNL     1       3.942   0.512   1.622  1.00  0.00     0.032 C 
BRANCH  14  17
ATOM     17  O   UNL     1       2.568  -0.503  -0.020  1.00  0.00    -0.393 OA
ATOM     18  H   UNL     1       3.274  -0.312  -0.658  1.00  0.00     0.210 HD
ENDBRANCH  14  17
ENDBRANCH   8  12
ENDBRANCH   6   8
ENDBRANCH   5   6
ENDBRANCH   4   5
ENDBRANCH   3   4
ENDBRANCH   2   3
ENDBRANCH   1   2
BRANCH   1  19
ATOM     19  C   UNL     1       5.885   4.445   0.044  1.00  0.00     0.188 C 
BRANCH  19  20
ATOM     20  O   UNL     1       6.272   5.472  -0.851  1.00  0.00    -0.376 OA
BRANCH  20  21
ATOM     21  C   UNL     1       7.650   5.656  -1.125  1.00  0.00     0.202 C 
BRANCH  21  22
ATOM     22  C   UNL     1       8.611   5.919   0.046  1.00  0.00     0.261 C 
BRANCH  22  23
ATOM     23  O   UNL     1       8.379   5.139   1.233  1.00  0.00    -0.460 OA
BRANCH  23  24
ATOM     24  C   UNL     1       7.778   5.798   2.259  1.00  0.00     0.338 C 
ATOM     25  O   UNL     1       7.465   6.972   2.297  1.00  0.00    -0.246 OA
BRANCH  24  26
ATOM     26  C   UNL     1       7.358   4.824   3.298  1.00  0.00     0.060 A 
ATOM     27  C   UNL     1       6.025   4.855   3.734  1.00  0.00     0.016 A 
ATOM     28  C   UNL     1       8.253   3.908   3.855  1.00  0.00     0.016 A 
ATOM     29  C   UNL     1       5.587   3.982   4.732  1.00  0.00     0.010 A 
ATOM     30  C   UNL     1       7.821   3.055   4.880  1.00  0.00     0.010 A 
ATOM     31  C   UNL     1       6.492   3.099   5.338  1.00  0.00    -0.014 A 
BRANCH  31  32
ATOM     32  C   UNL     1       6.100   2.378   6.578  1.00  0.00     0.031 A 
ATOM     33  C   UNL     1       6.215   3.107   7.888  1.00  0.00     0.074 A 
ATOM     34  C   UNL     1       5.655   1.109   6.559  1.00  0.00     0.049 A 
ATOM     35  N   UNL     1       5.963   2.686   9.101  1.00  0.00    -0.248 NA
ATOM     36  C   UNL     1       6.687   4.499   7.817  1.00  0.00     0.031 C 
ATOM     37  C   UNL     1       5.479   0.293   5.364  1.00  0.00     0.029 A 
ATOM     38  N   UNL     1       5.271   0.282   7.589  1.00  0.00    -0.354 N 
ATOM     39  C   UNL     1       6.249   3.757   9.936  1.00  0.00     0.074 A 
ATOM     40  C   UNL     1       6.705   4.843   9.095  1.00  0.00     0.031 C 
ATOM     41  C   UNL     1       5.005  -0.914   5.722  1.00  0.00     0.029 A 
ATOM     42  C   UNL     1       4.896  -0.975   7.179  1.00  0.00     0.049 A 
ATOM     43  H   UNL     1       5.265   0.564   8.532  1.00  0.00     0.167 HD
ATOM     44  C   UNL     1       6.153   3.830  11.284  1.00  0.00     0.037 A 
ATOM     45  C   UNL     1       4.536  -2.057   7.901  1.00  0.00     0.037 A 
ATOM     46  C   UNL     1       5.741   2.743  12.132  1.00  0.00     0.049 A 
ATOM     47  C   UNL     1       4.521  -1.974   9.410  1.00  0.00     0.074 A 
ATOM     48  C   UNL     1       5.617   2.724  13.509  1.00  0.00     0.029 A 
ATOM     49  N   UNL     1       5.410   1.473  11.683  1.00  0.00    -0.354 N 
ATOM     50  N   UNL     1       4.755  -0.947  10.189  1.00  0.00    -0.248 NA
ATOM     51  C   UNL     1       4.203  -3.212  10.139  1.00  0.00     0.031 C 
ATOM     52  C   UNL     1       5.271   1.427  13.900  1.00  0.00     0.029 A 
ATOM     53  C   UNL     1       5.113   0.654  12.761  1.00  0.00     0.049 A 
ATOM     54  H   UNL     1       5.389   1.195  10.739  1.00  0.00     0.167 HD
ATOM     55  C   UNL     1       4.583  -1.405  11.491  1.00  0.00     0.074 A 
ATOM     56  C   UNL     1       4.210  -2.799  11.398  1.00  0.00     0.031 C 
ATOM     57  C   UNL     1       4.726  -0.730  12.659  1.00  0.00     0.037 A 
BRANCH  44  58
ATOM     58  C   UNL     1       6.555   5.122  11.930  1.00  0.00     0.064 A 
ATOM     59  C   UNL     1       5.775   6.282  11.807  1.00  0.00     0.173 A 
ATOM     60  C   UNL     1       7.732   5.198  12.689  1.00  0.00     0.173 A 
ATOM     61  F   UNL     1       4.651   6.265  11.075  1.00  0.00    -0.203 F 
ATOM     62  C   UNL     1       6.174   7.477  12.398  1.00  0.00     0.198 A 
ATOM     63  C   UNL     1       8.112   6.386  13.304  1.00  0.00     0.198 A 
ATOM     64  F   UNL     1       8.513   4.117  12.836  1.00  0.00    -0.203 F 
ATOM     65  F   UNL     1       5.442   8.586  12.224  1.00  0.00    -0.200 F 
ATOM     66  C   UNL     1       7.338   7.527  13.151  1.00  0.00     0.200 A 
ATOM     67  F   UNL     1       9.231   6.430  14.040  1.00  0.00    -0.200 F 
ATOM     68  F   UNL     1       7.720   8.678  13.722  1.00  0.00    -0.200 F 
ENDBRANCH  44  58
BRANCH  45  69
ATOM     69  C   UNL     1       4.185  -3.336   7.224  1.00  0.00     0.064 A 
ATOM     70  C   UNL     1       2.889  -3.865   7.309  1.00  0.00     0.173 A 
ATOM     71  C   UNL     1       5.147  -4.086   6.532  1.00  0.00     0.173 A 
ATOM     72  F   UNL     1       1.939  -3.204   7.988  1.00  0.00    -0.203 F 
ATOM     73  C   UNL     1       2.576  -5.105   6.752  1.00  0.00     0.198 A 
ATOM     74  C   UNL     1       4.826  -5.310   5.947  1.00  0.00     0.198 A 
ATOM     75  F   UNL     1       6.406  -3.634   6.429  1.00  0.00    -0.203 F 
ATOM     76  F   UNL     1       1.346  -5.614   6.905  1.00  0.00    -0.200 F 
ATOM     77  C   UNL     1       3.544  -5.823   6.067  1.00  0.00     0.200 A 
ATOM     78  F   UNL     1       5.763  -5.997   5.280  1.00  0.00    -0.200 F 
ATOM     79  F   UNL     1       3.245  -7.017   5.537  1.00  0.00    -0.200 F 
ENDBRANCH  45  69
BRANCH  57  80
ATOM     80  C   UNL     1       4.430  -1.467  13.936  1.00  0.00     0.064 A 
ATOM     81  C   UNL     1       5.272  -2.477  14.423  1.00  0.00     0.173 A 
ATOM     82  C   UNL     1       3.313  -1.117  14.711  1.00  0.00     0.173 A 
ATOM     83  F   UNL     1       6.346  -2.861  13.716  1.00  0.00    -0.203 F 
ATOM     84  C   UNL     1       4.995  -3.125  15.625  1.00  0.00     0.198 A 
ATOM     85  C   UNL     1       3.057  -1.743  15.929  1.00  0.00     0.198 A 
ATOM     86  F   UNL     1       2.478  -0.152  14.297  1.00  0.00    -0.203 F 
ATOM     87  F   UNL     1       5.789  -4.119  16.047  1.00  0.00    -0.200 F 
ATOM     88  C   UNL     1       3.894  -2.751  16.381  1.00  0.00     0.200 A 
ATOM     89  F   UNL     1       2.002  -1.367  16.665  1.00  0.00    -0.200 F 
ATOM     90  F   UNL     1       3.636  -3.366  17.543  1.00  0.00    -0.200 F 
ENDBRANCH  57  80
ENDBRANCH  31  32
ENDBRANCH  24  26
ENDBRANCH  23  24
ENDBRANCH  22  23
ENDBRANCH  21  22
ENDBRANCH  20  21
ENDBRANCH  19  20
ENDBRANCH   1  19
TORSDOF 20
