REMARK SMILES O=C(OCCOCCOCCOC(=O)c1cc(=O)[nH]c2c(Br)cccc12)c1ccc(-c2c3nc(c(-c4c(F)c(F)c(F)c(F)c4F)c4ccc([nH]4)c(-c4c(F)c(F)c(F)c(F)c4F)c4nc(c(-c5c(F)c(F)c(F)c(F)c5F)c5ccc2[nH]5)C=C4)C=C3)cc1
REMARK SMILES IDX 7 1 6 2 5 3 4 4 3 5 2 6 1 7 27 8 28 9 89 10 29 11 88 12
REMARK SMILES IDX 30 13 31 14 32 15 82 16 33 17 87 18 81 19 83 20 34 21 86 22
REMARK SMILES IDX 80 23 79 24 35 26 67 27 47 28 66 29 48 30 51 31 65 32 84 33
REMARK SMILES IDX 49 34 50 35 64 37 85 38 52 39 36 40 37 41 45 42 38 43 39 44
REMARK SMILES IDX 43 45 46 46 40 47 41 48 44 49 42 50 68 51 69 52 77 53 70 54
REMARK SMILES IDX 71 55 75 56 78 57 72 58 73 59 76 60 74 61 53 62 54 63 62 64
REMARK SMILES IDX 55 65 56 66 60 67 63 68 57 69 58 70 61 71 59 72 8 73 9 74
REMARK SMILES IDX 10 75 11 76 12 77 13 78 14 79 15 80 16 81 26 82 17 83 20 84
REMARK SMILES IDX 25 85 18 86 19 87 21 88 24 89 22 91 23 92
REMARK H PARENT 83 25 51 36 19 90
REMARK Flexibility Score: inf
ROOT
ATOM      1  C   UNL     1       3.125   1.038   1.491  1.00  0.00     0.188 C 
ENDROOT
BRANCH   1   2
ATOM      2  O   UNL     1       4.488   0.805   1.196  1.00  0.00    -0.376 OA
BRANCH   2   3
ATOM      3  C   UNL     1       5.000   1.160  -0.073  1.00  0.00     0.202 C 
BRANCH   3   4
ATOM      4  C   UNL     1       4.332   0.619  -1.343  1.00  0.00     0.261 C 
BRANCH   4   5
ATOM      5  O   UNL     1       3.011   0.079  -1.194  1.00  0.00    -0.460 OA
BRANCH   5   6
ATOM      6  C   UNL     1       2.781  -1.261  -1.140  1.00  0.00     0.338 C 
ATOM      7  O   UNL     1       1.897  -1.791  -1.801  1.00  0.00    -0.246 OA
BRANCH   6   8
ATOM      8  C   UNL     1       3.350  -1.963   0.040  1.00  0.00     0.060 A 
ATOM      9  C   UNL     1       2.455  -2.577   0.933  1.00  0.00     0.016 A 
ATOM     10  C   UNL     1       4.718  -2.003   0.304  1.00  0.00     0.016 A 
ATOM     11  C   UNL     1       2.926  -3.190   2.099  1.00  0.00     0.010 A 
ATOM     12  C   UNL     1       5.185  -2.557   1.494  1.00  0.00     0.010 A 
ATOM     13  C   UNL     1       4.298  -3.180   2.384  1.00  0.00    -0.014 A 
BRANCH  13  14
ATOM     14  C   UNL     1       4.871  -4.071   3.415  1.00  0.00     0.031 A 
ATOM     15  C   UNL     1       5.150  -3.631   4.816  1.00  0.00     0.074 A 
ATOM     16  C   UNL     1       5.245  -5.293   2.993  1.00  0.00     0.049 A 
ATOM     17  N   UNL     1       5.597  -4.350   5.815  1.00  0.00    -0.248 NA
ATOM     18  C   UNL     1       4.915  -2.219   5.146  1.00  0.00     0.031 C 
ATOM     19  C   UNL     1       5.080  -5.787   1.622  1.00  0.00     0.029 A 
ATOM     20  N   UNL     1       5.875  -6.318   3.644  1.00  0.00    -0.354 N 
ATOM     21  C   UNL     1       5.640  -3.498   6.908  1.00  0.00     0.074 A 
ATOM     22  C   UNL     1       5.246  -2.189   6.434  1.00  0.00     0.031 C 
ATOM     23  C   UNL     1       5.633  -7.002   1.525  1.00  0.00     0.029 A 
ATOM     24  C   UNL     1       6.168  -7.381   2.827  1.00  0.00     0.049 A 
ATOM     25  H   UNL     1       6.096  -6.296   4.603  1.00  0.00     0.167 HD
ATOM     26  C   UNL     1       5.960  -3.804   8.187  1.00  0.00     0.037 A 
ATOM     27  C   UNL     1       6.791  -8.541   3.098  1.00  0.00     0.037 A 
ATOM     28  C   UNL     1       6.432  -5.094   8.618  1.00  0.00     0.049 A 
ATOM     29  C   UNL     1       7.194  -8.830   4.512  1.00  0.00     0.074 A 
ATOM     30  C   UNL     1       6.746  -5.510   9.900  1.00  0.00     0.029 A 
ATOM     31  N   UNL     1       6.695  -6.160   7.773  1.00  0.00    -0.354 N 
ATOM     32  N   UNL     1       7.065  -8.073   5.573  1.00  0.00    -0.248 NA
ATOM     33  C   UNL     1       7.798 -10.142   4.777  1.00  0.00     0.031 C 
ATOM     34  C   UNL     1       7.254  -6.809   9.823  1.00  0.00     0.029 A 
ATOM     35  C   UNL     1       7.205  -7.222   8.501  1.00  0.00     0.049 A 
ATOM     36  H   UNL     1       6.542  -6.163   6.800  1.00  0.00     0.167 HD
ATOM     37  C   UNL     1       7.533  -8.827   6.638  1.00  0.00     0.074 A 
ATOM     38  C   UNL     1       7.949 -10.104   6.094  1.00  0.00     0.031 C 
ATOM     39  C   UNL     1       7.604  -8.490   7.947  1.00  0.00     0.037 A 
BRANCH  26  40
ATOM     40  C   UNL     1       5.779  -2.761   9.249  1.00  0.00     0.064 A 
ATOM     41  C   UNL     1       4.509  -2.528   9.798  1.00  0.00     0.173 A 
ATOM     42  C   UNL     1       6.882  -2.139   9.849  1.00  0.00     0.173 A 
ATOM     43  F   UNL     1       3.430  -3.138   9.280  1.00  0.00    -0.203 F 
ATOM     44  C   UNL     1       4.349  -1.694  10.903  1.00  0.00     0.198 A 
ATOM     45  C   UNL     1       6.720  -1.321  10.966  1.00  0.00     0.198 A 
ATOM     46  F   UNL     1       8.122  -2.372   9.392  1.00  0.00    -0.203 F 
ATOM     47  F   UNL     1       3.129  -1.495  11.423  1.00  0.00    -0.200 F 
ATOM     48  C   UNL     1       5.455  -1.096  11.489  1.00  0.00     0.200 A 
ATOM     49  F   UNL     1       7.794  -0.781  11.560  1.00  0.00    -0.200 F 
ATOM     50  F   UNL     1       5.307  -0.326  12.576  1.00  0.00    -0.200 F 
ENDBRANCH  26  40
BRANCH  27  51
ATOM     51  C   UNL     1       6.968  -9.530   2.009  1.00  0.00     0.064 A 
ATOM     52  C   UNL     1       6.185 -10.690   1.966  1.00  0.00     0.173 A 
ATOM     53  C   UNL     1       7.859  -9.300   0.950  1.00  0.00     0.173 A 
ATOM     54  F   UNL     1       5.319 -10.948   2.957  1.00  0.00    -0.203 F 
ATOM     55  C   UNL     1       6.293 -11.591   0.911  1.00  0.00     0.198 A 
ATOM     56  C   UNL     1       7.948 -10.189  -0.118  1.00  0.00     0.198 A 
ATOM     57  F   UNL     1       8.612  -8.189   0.933  1.00  0.00    -0.203 F 
ATOM     58  F   UNL     1       5.548 -12.704   0.906  1.00  0.00    -0.200 F 
ATOM     59  C   UNL     1       7.169 -11.336  -0.134  1.00  0.00     0.200 A 
ATOM     60  F   UNL     1       8.776  -9.927  -1.139  1.00  0.00    -0.200 F 
ATOM     61  F   UNL     1       7.259 -12.195  -1.159  1.00  0.00    -0.200 F 
ENDBRANCH  27  51
BRANCH  39  62
ATOM     62  C   UNL     1       8.137  -9.511   8.904  1.00  0.00     0.064 A 
ATOM     63  C   UNL     1       9.505  -9.809   8.963  1.00  0.00     0.173 A 
ATOM     64  C   UNL     1       7.287 -10.108   9.848  1.00  0.00     0.173 A 
ATOM     65  F   UNL     1      10.352  -9.271   8.073  1.00  0.00    -0.203 F 
ATOM     66  C   UNL     1      10.005 -10.669   9.936  1.00  0.00     0.198 A 
ATOM     67  C   UNL     1       7.795 -10.945  10.837  1.00  0.00     0.198 A 
ATOM     68  F   UNL     1       5.972  -9.847   9.836  1.00  0.00    -0.203 F 
ATOM     69  F   UNL     1      11.314 -10.956   9.964  1.00  0.00    -0.200 F 
ATOM     70  C   UNL     1       9.153 -11.224  10.880  1.00  0.00     0.200 A 
ATOM     71  F   UNL     1       6.974 -11.466  11.759  1.00  0.00    -0.200 F 
ATOM     72  F   UNL     1       9.642 -12.028  11.834  1.00  0.00    -0.200 F 
ENDBRANCH  39  62
ENDBRANCH  13  14
ENDBRANCH   6   8
ENDBRANCH   5   6
ENDBRANCH   4   5
ENDBRANCH   3   4
ENDBRANCH   2   3
ENDBRANCH   1   2
BRANCH   1  73
ATOM     73  C   UNL     1       2.497   2.413   1.249  1.00  0.00     0.188 C 
BRANCH  73  74
ATOM     74  O   UNL     1       3.291   3.580   1.218  1.00  0.00    -0.376 OA
BRANCH  74  75
ATOM     75  C   UNL     1       4.358   3.752   2.130  1.00  0.00     0.202 C 
BRANCH  75  76
ATOM     76  C   UNL     1       4.135   3.614   3.640  1.00  0.00     0.261 C 
BRANCH  76  77
ATOM     77  O   UNL     1       3.655   2.343   4.103  1.00  0.00    -0.460 OA
BRANCH  77  78
ATOM     78  C   UNL     1       2.381   2.310   4.564  1.00  0.00     0.339 C 
ATOM     79  O   UNL     1       1.548   3.217   4.473  1.00  0.00    -0.246 OA
BRANCH  78  80
ATOM     80  C   UNL     1       2.098   1.026   5.226  1.00  0.00     0.074 A 
ATOM     81  C   UNL     1       2.746   0.874   6.391  1.00  0.00     0.088 A 
ATOM     82  C   UNL     1       1.110   0.023   4.783  1.00  0.00     0.014 A 
ATOM     83  C   UNL     1       2.476  -0.276   7.263  1.00  0.00     0.249 A 
ATOM     84  C   UNL     1       0.874  -1.091   5.608  1.00  0.00     0.063 A 
ATOM     85  C   UNL     1       0.413   0.112   3.570  1.00  0.00     0.011 A 
ATOM     86  O   UNL     1       3.081  -0.373   8.329  1.00  0.00    -0.270 OA
ATOM     87  N   UNL     1       1.569  -1.192   6.827  1.00  0.00    -0.321 N 
ATOM     88  C   UNL     1      -0.040  -2.084   5.220  1.00  0.00     0.042 A 
ATOM     89  C   UNL     1      -0.467  -0.897   3.167  1.00  0.00     0.002 A 
ATOM     90  H   UNL     1       1.387  -1.971   7.400  1.00  0.00     0.170 HD
ATOM     91  Br  UNL     1      -0.421  -3.573   6.333  1.00  0.00    -0.049 Br
ATOM     92  C   UNL     1      -0.699  -1.993   3.994  1.00  0.00     0.018 A 
ENDBRANCH  78  80
ENDBRANCH  77  78
ENDBRANCH  76  77
ENDBRANCH  75  76
ENDBRANCH  74  75
ENDBRANCH  73  74
ENDBRANCH   1  73
TORSDOF 17
