REMARK SMILES O=C(OCCOCCOCCOC(=O)c1cn(-c2ccccc2)c2c1N=C(O)C[C@@H]2c1cccs1)c1ccc(-c2c3nc(c(-c4c(F)c(F)c(F)c(F)c4F)c4ccc([nH]4)c(-c4c(F)c(F)c(F)c(F)c4F)c4nc(c(-c5c(F)c(F)c(F)c(F)c5F)c5ccc2[nH]5)C=C4)C=C3)cc1
REMARK SMILES IDX 7 1 6 2 5 3 4 4 3 5 2 6 1 7 36 8 37 9 98 10 38 11 97 12
REMARK SMILES IDX 39 13 40 14 41 15 91 16 42 17 96 18 90 19 92 20 43 21 95 22
REMARK SMILES IDX 89 23 88 24 44 26 76 27 56 28 75 29 57 30 60 31 74 32 93 33
REMARK SMILES IDX 58 34 59 35 73 37 94 38 61 39 45 40 46 41 54 42 47 43 48 44
REMARK SMILES IDX 52 45 55 46 49 47 50 48 53 49 51 50 77 51 78 52 86 53 79 54
REMARK SMILES IDX 80 55 84 56 87 57 81 58 82 59 85 60 83 61 62 62 63 63 71 64
REMARK SMILES IDX 64 65 65 66 69 67 72 68 66 69 67 70 70 71 68 72 8 73 9 74
REMARK SMILES IDX 10 75 11 76 12 77 13 78 14 79 15 80 16 81 25 82 17 83 24 84
REMARK SMILES IDX 26 85 30 86 27 87 29 88 18 89 19 90 23 91 20 92 22 93 21 94
REMARK SMILES IDX 31 95 32 96 35 97 33 98 34 99 28 100
REMARK H PARENT 92 25 60 36 28 101
REMARK Flexibility Score: inf
ROOT
ATOM      1  C   UNL     1       3.248  -0.962   1.355  1.00  0.00     0.188 C 
ENDROOT
BRANCH   1   2
ATOM      2  O   UNL     1       4.603  -0.587   1.398  1.00  0.00    -0.376 OA
BRANCH   2   3
ATOM      3  C   UNL     1       5.235   0.116   0.351  1.00  0.00     0.202 C 
BRANCH   3   4
ATOM      4  C   UNL     1       4.517   1.091  -0.588  1.00  0.00     0.261 C 
BRANCH   4   5
ATOM      5  O   UNL     1       3.112   1.252  -0.410  1.00  0.00    -0.460 OA
BRANCH   5   6
ATOM      6  C   UNL     1       2.068   0.782  -1.117  1.00  0.00     0.338 C 
ATOM      7  O   UNL     1       0.975   1.329  -0.981  1.00  0.00    -0.246 OA
BRANCH   6   8
ATOM      8  C   UNL     1       2.096  -0.455  -1.948  1.00  0.00     0.060 A 
ATOM      9  C   UNL     1       3.197  -0.974  -2.625  1.00  0.00     0.016 A 
ATOM     10  C   UNL     1       0.842  -1.083  -2.112  1.00  0.00     0.016 A 
ATOM     11  C   UNL     1       3.003  -1.938  -3.606  1.00  0.00     0.010 A 
ATOM     12  C   UNL     1       0.649  -2.064  -3.069  1.00  0.00     0.010 A 
ATOM     13  C   UNL     1       1.715  -2.409  -3.884  1.00  0.00    -0.014 A 
BRANCH  13  14
ATOM     14  C   UNL     1       1.542  -3.277  -5.039  1.00  0.00     0.031 A 
ATOM     15  C   UNL     1       2.314  -4.544  -4.976  1.00  0.00     0.074 A 
ATOM     16  C   UNL     1       0.736  -2.966  -6.076  1.00  0.00     0.049 A 
ATOM     17  N   UNL     1       3.300  -4.910  -5.727  1.00  0.00    -0.248 NA
ATOM     18  C   UNL     1       2.046  -5.455  -3.853  1.00  0.00     0.031 C 
ATOM     19  C   UNL     1      -0.255  -1.891  -6.181  1.00  0.00     0.029 A 
ATOM     20  N   UNL     1       0.602  -3.612  -7.269  1.00  0.00    -0.354 N 
ATOM     21  C   UNL     1       3.672  -6.177  -5.285  1.00  0.00     0.074 A 
ATOM     22  C   UNL     1       2.958  -6.406  -4.055  1.00  0.00     0.031 C 
ATOM     23  C   UNL     1      -1.033  -2.097  -7.270  1.00  0.00     0.029 A 
ATOM     24  C   UNL     1      -0.500  -3.221  -8.020  1.00  0.00     0.049 A 
ATOM     25  H   UNL     1       1.236  -4.300  -7.574  1.00  0.00     0.167 HD
ATOM     26  C   UNL     1       4.383  -7.018  -6.084  1.00  0.00     0.037 A 
ATOM     27  C   UNL     1      -0.956  -3.815  -9.152  1.00  0.00     0.037 A 
ATOM     28  C   UNL     1       5.073  -6.295  -7.120  1.00  0.00     0.049 A 
ATOM     29  C   UNL     1       0.168  -4.599  -9.723  1.00  0.00     0.074 A 
ATOM     30  C   UNL     1       6.055  -5.324  -7.125  1.00  0.00     0.029 A 
ATOM     31  N   UNL     1       4.515  -6.263  -8.374  1.00  0.00    -0.354 N 
ATOM     32  N   UNL     1       1.239  -4.059 -10.232  1.00  0.00    -0.248 NA
ATOM     33  C   UNL     1       0.305  -5.982  -9.290  1.00  0.00     0.031 C 
ATOM     34  C   UNL     1       5.687  -4.436  -8.178  1.00  0.00     0.029 A 
ATOM     35  C   UNL     1       4.553  -4.960  -8.799  1.00  0.00     0.049 A 
ATOM     36  H   UNL     1       4.156  -7.031  -8.874  1.00  0.00     0.167 HD
ATOM     37  C   UNL     1       2.279  -4.864  -9.794  1.00  0.00     0.074 A 
ATOM     38  C   UNL     1       1.638  -6.069  -9.271  1.00  0.00     0.031 C 
ATOM     39  C   UNL     1       3.538  -4.364  -9.633  1.00  0.00     0.037 A 
BRANCH  26  40
ATOM     40  C   UNL     1       4.161  -8.508  -6.146  1.00  0.00     0.064 A 
ATOM     41  C   UNL     1       5.022  -9.303  -6.928  1.00  0.00     0.173 A 
ATOM     42  C   UNL     1       2.966  -9.133  -5.730  1.00  0.00     0.173 A 
ATOM     43  F   UNL     1       6.178  -8.806  -7.394  1.00  0.00    -0.203 F 
ATOM     44  C   UNL     1       4.671 -10.595  -7.330  1.00  0.00     0.198 A 
ATOM     45  C   UNL     1       2.642 -10.439  -6.092  1.00  0.00     0.198 A 
ATOM     46  F   UNL     1       2.015  -8.476  -5.056  1.00  0.00    -0.203 F 
ATOM     47  F   UNL     1       5.463 -11.267  -8.178  1.00  0.00    -0.200 F 
ATOM     48  C   UNL     1       3.478 -11.159  -6.918  1.00  0.00     0.200 A 
ATOM     49  F   UNL     1       1.471 -10.959  -5.698  1.00  0.00    -0.200 F 
ATOM     50  F   UNL     1       3.109 -12.369  -7.355  1.00  0.00    -0.200 F 
ENDBRANCH  26  40
BRANCH  27  51
ATOM     51  C   UNL     1      -2.364  -4.048  -9.562  1.00  0.00     0.064 A 
ATOM     52  C   UNL     1      -2.690  -4.414 -10.880  1.00  0.00     0.173 A 
ATOM     53  C   UNL     1      -3.379  -4.212  -8.600  1.00  0.00     0.173 A 
ATOM     54  F   UNL     1      -1.765  -4.339 -11.848  1.00  0.00    -0.203 F 
ATOM     55  C   UNL     1      -3.948  -4.934 -11.208  1.00  0.00     0.198 A 
ATOM     56  C   UNL     1      -4.634  -4.729  -8.929  1.00  0.00     0.198 A 
ATOM     57  F   UNL     1      -3.140  -3.971  -7.303  1.00  0.00    -0.203 F 
ATOM     58  F   UNL     1      -4.201  -5.331 -12.464  1.00  0.00    -0.200 F 
ATOM     59  C   UNL     1      -4.914  -5.102 -10.230  1.00  0.00     0.200 A 
ATOM     60  F   UNL     1      -5.544  -4.927  -7.965  1.00  0.00    -0.200 F 
ATOM     61  F   UNL     1      -6.094  -5.662 -10.530  1.00  0.00    -0.200 F 
ENDBRANCH  27  51
BRANCH  39  62
ATOM     62  C   UNL     1       3.826  -2.990 -10.167  1.00  0.00     0.064 A 
ATOM     63  C   UNL     1       3.224  -1.814  -9.683  1.00  0.00     0.173 A 
ATOM     64  C   UNL     1       4.876  -2.848 -11.083  1.00  0.00     0.173 A 
ATOM     65  F   UNL     1       2.279  -1.861  -8.736  1.00  0.00    -0.203 F 
ATOM     66  C   UNL     1       3.641  -0.557 -10.123  1.00  0.00     0.198 A 
ATOM     67  C   UNL     1       5.314  -1.592 -11.493  1.00  0.00     0.198 A 
ATOM     68  F   UNL     1       5.522  -3.934 -11.536  1.00  0.00    -0.203 F 
ATOM     69  F   UNL     1       3.055   0.551  -9.647  1.00  0.00    -0.200 F 
ATOM     70  C   UNL     1       4.692  -0.448 -11.019  1.00  0.00     0.200 A 
ATOM     71  F   UNL     1       6.364  -1.491 -12.319  1.00  0.00    -0.200 F 
ATOM     72  F   UNL     1       5.128   0.760 -11.402  1.00  0.00    -0.200 F 
ENDBRANCH  39  62
ENDBRANCH  13  14
ENDBRANCH   6   8
ENDBRANCH   5   6
ENDBRANCH   4   5
ENDBRANCH   3   4
ENDBRANCH   2   3
ENDBRANCH   1   2
BRANCH   1  73
ATOM     73  C   UNL     1       2.260  -0.058   2.135  1.00  0.00     0.188 C 
BRANCH  73  74
ATOM     74  O   UNL     1       2.662   0.852   3.154  1.00  0.00    -0.376 OA
BRANCH  74  75
ATOM     75  C   UNL     1       3.967   0.815   3.695  1.00  0.00     0.202 C 
BRANCH  75  76
ATOM     76  C   UNL     1       4.298  -0.354   4.627  1.00  0.00     0.261 C 
BRANCH  76  77
ATOM     77  O   UNL     1       3.932  -1.646   4.141  1.00  0.00    -0.460 OA
BRANCH  77  78
ATOM     78  C   UNL     1       2.686  -2.094   4.482  1.00  0.00     0.342 C 
ATOM     79  O   UNL     1       1.845  -1.463   5.091  1.00  0.00    -0.246 OA
BRANCH  78  80
ATOM     80  C   UNL     1       2.460  -3.436   3.975  1.00  0.00     0.104 A 
ATOM     81  C   UNL     1       1.518  -3.858   3.046  1.00  0.00     0.109 A 
ATOM     82  C   UNL     1       3.174  -4.582   4.332  1.00  0.00     0.103 A 
ATOM     83  N   UNL     1       1.609  -5.236   2.905  1.00  0.00    -0.317 N 
ATOM     84  C   UNL     1       2.625  -5.683   3.730  1.00  0.00     0.058 A 
ATOM     85  N   UNL     1       4.280  -4.598   5.170  1.00  0.00    -0.215 NA
ATOM     86  C   UNL     1       3.136  -7.069   3.916  1.00  0.00     0.088 C 
ATOM     87  C   UNL     1       4.661  -5.779   5.517  1.00  0.00     0.187 C 
ATOM     88  C   UNL     1       3.987  -7.096   5.209  1.00  0.00     0.112 C 
BRANCH  83  89
ATOM     89  C   UNL     1       0.798  -6.013   2.046  1.00  0.00     0.045 A 
ATOM     90  C   UNL     1       0.004  -7.030   2.583  1.00  0.00     0.026 A 
ATOM     91  C   UNL     1       0.801  -5.761   0.669  1.00  0.00     0.026 A 
ATOM     92  C   UNL     1      -0.788  -7.804   1.734  1.00  0.00     0.002 A 
ATOM     93  C   UNL     1       0.036  -6.570  -0.176  1.00  0.00     0.002 A 
ATOM     94  C   UNL     1      -0.761  -7.586   0.356  1.00  0.00     0.000 A 
ENDBRANCH  83  89
BRANCH  86  95
ATOM     95  C   UNL     1       3.917  -7.671   2.758  1.00  0.00     0.014 A 
ATOM     96  C   UNL     1       4.318  -8.995   2.656  1.00  0.00     0.016 A 
ATOM     97  S   UNL     1       4.433  -6.779   1.386  1.00  0.00    -0.148 S 
ATOM     98  C   UNL     1       5.043  -9.267   1.464  1.00  0.00     0.012 A 
ATOM     99  C   UNL     1       5.152  -8.152   0.668  1.00  0.00     0.065 A 
ENDBRANCH  86  95
BRANCH  87 100
ATOM    100  O   UNL     1       5.734  -5.874   6.328  1.00  0.00    -0.496 OA
ATOM    101  H   UNL     1       6.209  -5.104   6.568  1.00  0.00     0.294 HD
ENDBRANCH  87 100
ENDBRANCH  78  80
ENDBRANCH  77  78
ENDBRANCH  76  77
ENDBRANCH  75  76
ENDBRANCH  74  75
ENDBRANCH  73  74
ENDBRANCH   1  73
TORSDOF 20
