REMARK SMILES C=CC[N@@H+](CC(=O)OCCOCCOCCOC(=O)c1ccc(-c2c3nc(c(-c4c(F)c(F)c(F)c(F)c4F)c4ccc([nH]4)c(-c4c(F)c(F)c(F)c(F)c4F)c4nc(c(-c5c(F)c(F)c(F)c(F)c5F)c5ccc2[nH]5)C=C4)C=C3)cc1)Cc1ccc([N+](=O)[O-])o1
REMARK SMILES IDX 12 1 11 2 10 3 9 4 8 5 6 6 7 7 5 8 4 9 3 11 2 12 1 13 83 14
REMARK SMILES IDX 84 15 85 16 91 17 86 18 87 19 88 20 89 21 90 22 13 23 14 24
REMARK SMILES IDX 15 25 16 26 17 27 18 28 19 29 20 30 21 31 82 32 22 33 81 34
REMARK SMILES IDX 23 35 24 36 25 37 75 38 26 39 80 40 74 41 76 42 27 43 79 44
REMARK SMILES IDX 73 45 72 46 28 48 60 49 40 50 59 51 41 52 44 53 58 54 77 55
REMARK SMILES IDX 42 56 43 57 57 59 78 60 45 61 29 62 30 63 38 64 31 65 32 66
REMARK SMILES IDX 36 67 39 68 33 69 34 70 37 71 35 72 61 73 62 74 70 75 63 76
REMARK SMILES IDX 64 77 68 78 71 79 65 80 66 81 69 82 67 83 46 84 47 85 55 86
REMARK SMILES IDX 48 87 49 88 53 89 56 90 50 91 51 92 54 93 52 94
REMARK H PARENT 4 10 76 47 44 58
REMARK Flexibility Score: inf
ROOT
ATOM      1  C   UNL     1      -3.905  -2.275  -0.937  1.00  0.00     0.188 C 
ENDROOT
BRANCH   1   2
ATOM      2  O   UNL     1      -4.902  -1.841  -2.022  1.00  0.00    -0.376 OA
BRANCH   2   3
ATOM      3  C   UNL     1      -5.693  -0.676  -1.825  1.00  0.00     0.202 C 
BRANCH   3   4
ATOM      4  C   UNL     1      -5.184   0.637  -1.176  1.00  0.00     0.261 C 
BRANCH   4   5
ATOM      5  O   UNL     1      -4.296   0.624  -0.040  1.00  0.00    -0.459 OA
BRANCH   5   6
ATOM      6  C   UNL     1      -4.761   0.161   1.146  1.00  0.00     0.361 C 
ATOM      7  O   UNL     1      -5.915  -0.217   1.323  1.00  0.00    -0.245 OA
BRANCH   6   8
ATOM      8  C   UNL     1      -3.713   0.179   2.264  1.00  0.00     0.387 C 
BRANCH   8   9
ATOM      9  N   UNL     1      -2.334  -0.269   1.978  1.00  0.00    -0.316 N 
ATOM     10  H   UNL     1      -1.886  -0.196   2.892  1.00  0.00     0.349 HD
BRANCH   9  11
ATOM     11  C   UNL     1      -1.520   0.664   1.206  1.00  0.00     0.291 C 
BRANCH  11  12
ATOM     12  C   UNL     1      -0.037   0.428   1.339  1.00  0.00     0.025 C 
ATOM     13  C   UNL     1       0.806   0.340   0.300  1.00  0.00     0.010 C 
ENDBRANCH  11  12
ENDBRANCH   9  11
BRANCH   9  14
ATOM     14  C   UNL     1      -2.126  -1.699   1.776  1.00  0.00     0.339 C 
BRANCH  14  15
ATOM     15  C   UNL     1      -2.552  -2.279   0.470  1.00  0.00     0.165 A 
ATOM     16  C   UNL     1      -2.963  -3.878  -0.155  1.00  0.00     0.059 A 
ATOM     17  O   UNL     1      -2.505  -1.177  -1.055  1.00  0.00    -0.400 OA
ATOM     18  C   UNL     1      -3.264  -3.784  -2.059  1.00  0.00     0.134 A 
ATOM     19  C   UNL     1      -2.915  -2.153  -2.614  1.00  0.00     0.433 A 
BRANCH  19  20
ATOM     20  N   UNL     1      -2.859  -1.445  -3.841  1.00  0.00     0.102 N 
ATOM     21  O   UNL     1      -2.831  -2.138  -4.866  1.00  0.00    -0.256 OA
ATOM     22  O   UNL     1      -2.843  -0.208  -3.787  1.00  0.00    -0.256 OA
ENDBRANCH  19  20
ENDBRANCH  14  15
ENDBRANCH   9  14
ENDBRANCH   8   9
ENDBRANCH   6   8
ENDBRANCH   5   6
ENDBRANCH   4   5
ENDBRANCH   3   4
ENDBRANCH   2   3
ENDBRANCH   1   2
BRANCH   1  23
ATOM     23  C   UNL     1      -1.716  -2.762  -1.239  1.00  0.00     0.188 C 
BRANCH  23  24
ATOM     24  O   UNL     1      -0.773  -1.967  -2.205  1.00  0.00    -0.376 OA
BRANCH  24  25
ATOM     25  C   UNL     1       0.485  -2.573  -2.525  1.00  0.00     0.202 C 
BRANCH  25  26
ATOM     26  C   UNL     1       0.460  -4.015  -3.083  1.00  0.00     0.261 C 
BRANCH  26  27
ATOM     27  O   UNL     1       0.052  -5.100  -2.202  1.00  0.00    -0.460 OA
BRANCH  27  28
ATOM     28  C   UNL     1       0.485  -5.131  -0.918  1.00  0.00     0.338 C 
ATOM     29  O   UNL     1       1.376  -4.450  -0.442  1.00  0.00    -0.246 OA
BRANCH  28  30
ATOM     30  C   UNL     1      -0.430  -5.983  -0.087  1.00  0.00     0.060 A 
ATOM     31  C   UNL     1      -0.533  -5.702   1.285  1.00  0.00     0.016 A 
ATOM     32  C   UNL     1      -1.226  -7.005  -0.625  1.00  0.00     0.016 A 
ATOM     33  C   UNL     1      -1.359  -6.471   2.121  1.00  0.00     0.010 A 
ATOM     34  C   UNL     1      -2.051  -7.784   0.214  1.00  0.00     0.010 A 
ATOM     35  C   UNL     1      -2.082  -7.558   1.605  1.00  0.00    -0.014 A 
BRANCH  35  36
ATOM     36  C   UNL     1      -2.526  -8.629   2.554  1.00  0.00     0.031 A 
ATOM     37  C   UNL     1      -1.541  -9.749   2.812  1.00  0.00     0.074 A 
ATOM     38  C   UNL     1      -3.680  -8.606   3.251  1.00  0.00     0.049 A 
ATOM     39  N   UNL     1      -1.602 -10.750   3.654  1.00  0.00    -0.248 NA
ATOM     40  C   UNL     1      -0.310  -9.722   2.006  1.00  0.00     0.031 C 
ATOM     41  C   UNL     1      -4.720  -7.586   3.153  1.00  0.00     0.029 A 
ATOM     42  N   UNL     1      -4.163  -9.480   4.205  1.00  0.00    -0.354 N 
ATOM     43  C   UNL     1      -0.413 -11.452   3.488  1.00  0.00     0.074 A 
ATOM     44  C   UNL     1       0.322 -10.802   2.428  1.00  0.00     0.031 C 
ATOM     45  C   UNL     1      -5.713  -7.888   4.013  1.00  0.00     0.029 A 
ATOM     46  C   UNL     1      -5.392  -9.131   4.718  1.00  0.00     0.049 A 
ATOM     47  H   UNL     1      -3.672 -10.283   4.493  1.00  0.00     0.167 HD
ATOM     48  C   UNL     1       0.050 -12.528   4.166  1.00  0.00     0.037 A 
ATOM     49  C   UNL     1      -6.165  -9.743   5.644  1.00  0.00     0.037 A 
ATOM     50  C   UNL     1      -0.674 -13.208   5.204  1.00  0.00     0.049 A 
ATOM     51  C   UNL     1      -5.672 -11.008   6.318  1.00  0.00     0.074 A 
ATOM     52  C   UNL     1      -0.290 -14.315   5.939  1.00  0.00     0.029 A 
ATOM     53  N   UNL     1      -1.942 -12.857   5.640  1.00  0.00    -0.354 N 
ATOM     54  N   UNL     1      -4.527 -11.634   6.183  1.00  0.00    -0.248 NA
ATOM     55  C   UNL     1      -6.582 -11.645   7.285  1.00  0.00     0.031 C 
ATOM     56  C   UNL     1      -1.354 -14.678   6.769  1.00  0.00     0.029 A 
ATOM     57  C   UNL     1      -2.369 -13.748   6.612  1.00  0.00     0.049 A 
ATOM     58  H   UNL     1      -2.462 -12.090   5.309  1.00  0.00     0.167 HD
ATOM     59  C   UNL     1      -4.566 -12.708   7.069  1.00  0.00     0.074 A 
ATOM     60  C   UNL     1      -5.837 -12.635   7.755  1.00  0.00     0.031 C 
ATOM     61  C   UNL     1      -3.634 -13.669   7.296  1.00  0.00     0.037 A 
BRANCH  48  62
ATOM     62  C   UNL     1       1.399 -13.057   3.768  1.00  0.00     0.064 A 
ATOM     63  C   UNL     1       2.578 -12.331   4.004  1.00  0.00     0.173 A 
ATOM     64  C   UNL     1       1.513 -14.302   3.132  1.00  0.00     0.173 A 
ATOM     65  F   UNL     1       2.523 -11.123   4.587  1.00  0.00    -0.203 F 
ATOM     66  C   UNL     1       3.814 -12.815   3.584  1.00  0.00     0.198 A 
ATOM     67  C   UNL     1       2.754 -14.800   2.749  1.00  0.00     0.198 A 
ATOM     68  F   UNL     1       0.418 -15.035   2.880  1.00  0.00    -0.203 F 
ATOM     69  F   UNL     1       4.916 -12.073   3.756  1.00  0.00    -0.200 F 
ATOM     70  C   UNL     1       3.902 -14.052   2.964  1.00  0.00     0.200 A 
ATOM     71  F   UNL     1       2.838 -16.001   2.161  1.00  0.00    -0.200 F 
ATOM     72  F   UNL     1       5.092 -14.518   2.560  1.00  0.00    -0.200 F 
ENDBRANCH  48  62
BRANCH  49  73
ATOM     73  C   UNL     1      -7.508  -9.193   6.006  1.00  0.00     0.064 A 
ATOM     74  C   UNL     1      -7.792  -8.741   7.306  1.00  0.00     0.173 A 
ATOM     75  C   UNL     1      -8.563  -9.188   5.081  1.00  0.00     0.173 A 
ATOM     76  F   UNL     1      -6.835  -8.762   8.246  1.00  0.00    -0.203 F 
ATOM     77  C   UNL     1      -9.077  -8.336   7.670  1.00  0.00     0.198 A 
ATOM     78  C   UNL     1      -9.838  -8.748   5.436  1.00  0.00     0.198 A 
ATOM     79  F   UNL     1      -8.360  -9.625   3.830  1.00  0.00    -0.203 F 
ATOM     80  F   UNL     1      -9.332  -7.980   8.937  1.00  0.00    -0.200 F 
ATOM     81  C   UNL     1     -10.098  -8.333   6.733  1.00  0.00     0.200 A 
ATOM     82  F   UNL     1     -10.821  -8.743   4.524  1.00  0.00    -0.200 F 
ATOM     83  F   UNL     1     -11.333  -7.949   7.083  1.00  0.00    -0.200 F 
ENDBRANCH  49  73
BRANCH  61  84
ATOM     84  C   UNL     1      -3.927 -14.696   8.358  1.00  0.00     0.064 A 
ATOM     85  C   UNL     1      -4.952 -15.644   8.218  1.00  0.00     0.173 A 
ATOM     86  C   UNL     1      -3.149 -14.749   9.527  1.00  0.00     0.173 A 
ATOM     87  F   UNL     1      -5.730 -15.641   7.124  1.00  0.00    -0.203 F 
ATOM     88  C   UNL     1      -5.220 -16.570   9.225  1.00  0.00     0.198 A 
ATOM     89  C   UNL     1      -3.391 -15.704  10.512  1.00  0.00     0.198 A 
ATOM     90  F   UNL     1      -2.143 -13.881   9.712  1.00  0.00    -0.203 F 
ATOM     91  F   UNL     1      -6.251 -17.416   9.097  1.00  0.00    -0.200 F 
ATOM     92  C   UNL     1      -4.436 -16.603  10.368  1.00  0.00     0.200 A 
ATOM     93  F   UNL     1      -2.615 -15.749  11.604  1.00  0.00    -0.200 F 
ATOM     94  F   UNL     1      -4.693 -17.494  11.335  1.00  0.00    -0.200 F 
ENDBRANCH  61  84
ENDBRANCH  35  36
ENDBRANCH  28  30
ENDBRANCH  27  28
ENDBRANCH  26  27
ENDBRANCH  25  26
ENDBRANCH  24  25
ENDBRANCH  23  24
ENDBRANCH   1  23
TORSDOF 23
