REMARK SMILES O=C(Cc1c(F)cc(Cl)cc1F)OCCOCCOCCOC(=O)c1ccc(-c2c3nc(c(-c4c(F)c(F)c(F)c(F)c4F)c4ccc([nH]4)c(-c4c(F)c(F)c(F)c(F)c4F)c4nc(c(-c5c(F)c(F)c(F)c(F)c5F)c5ccc2[nH]5)C=C4)C=C3)cc1
REMARK SMILES IDX 18 1 17 2 16 3 15 4 14 5 13 6 2 7 1 8 3 9 4 10 5 11 11 12
REMARK SMILES IDX 6 13 7 14 10 15 12 16 8 17 9 18 19 19 20 20 21 21 22 22
REMARK SMILES IDX 23 23 24 24 25 25 26 26 87 27 27 28 86 29 28 30 29 31 30 32
REMARK SMILES IDX 80 33 31 34 85 35 79 36 81 37 32 38 84 39 78 40 77 41 33 43
REMARK SMILES IDX 65 44 45 45 64 46 46 47 49 48 63 49 82 50 47 51 48 52 62 54
REMARK SMILES IDX 83 55 50 56 34 57 35 58 43 59 36 60 37 61 41 62 44 63 38 64
REMARK SMILES IDX 39 65 42 66 40 67 66 68 67 69 75 70 68 71 69 72 73 73 76 74
REMARK SMILES IDX 70 75 71 76 74 77 72 78 51 79 52 80 60 81 53 82 54 83 58 84
REMARK SMILES IDX 61 85 55 86 56 87 59 88 57 89
REMARK H PARENT 81 42 49 53
REMARK Flexibility Score: inf
ROOT
ATOM      1  C   UNL     1       2.325  -0.449  -2.764  1.00  0.00     0.188 C 
ENDROOT
BRANCH   1   2
ATOM      2  C   UNL     1       3.090   0.583  -1.919  1.00  0.00     0.188 C 
BRANCH   2   3
ATOM      3  O   UNL     1       4.457   0.281  -1.723  1.00  0.00    -0.376 OA
BRANCH   3   4
ATOM      4  C   UNL     1       4.905   0.174  -0.386  1.00  0.00     0.202 C 
BRANCH   4   5
ATOM      5  C   UNL     1       4.324  -1.022   0.361  1.00  0.00     0.261 C 
BRANCH   5   6
ATOM      6  O   UNL     1       2.896  -1.012   0.604  1.00  0.00    -0.463 OA
BRANCH   6   7
ATOM      7  C   UNL     1       2.130  -0.178   1.335  1.00  0.00     0.310 C 
ATOM      8  O   UNL     1       0.956  -0.481   1.550  1.00  0.00    -0.252 OA
BRANCH   7   9
ATOM      9  C   UNL     1       2.622   1.192   1.722  1.00  0.00     0.164 C 
BRANCH   9  10
ATOM     10  C   UNL     1       3.805   1.336   2.631  1.00  0.00     0.035 A 
ATOM     11  C   UNL     1       4.462   2.572   2.679  1.00  0.00     0.131 A 
ATOM     12  C   UNL     1       4.258   0.331   3.480  1.00  0.00     0.131 A 
ATOM     13  F   UNL     1       4.035   3.577   1.900  1.00  0.00    -0.207 F 
ATOM     14  C   UNL     1       5.558   2.790   3.505  1.00  0.00     0.060 A 
ATOM     15  C   UNL     1       5.364   0.518   4.301  1.00  0.00     0.060 A 
ATOM     16  F   UNL     1       3.651  -0.862   3.492  1.00  0.00    -0.207 F 
ATOM     17  C   UNL     1       6.011   1.751   4.309  1.00  0.00     0.046 A 
ATOM     18  Cl  UNL     1       7.377   1.992   5.322  1.00  0.00    -0.084 Cl
ENDBRANCH   9  10
ENDBRANCH   7   9
ENDBRANCH   6   7
ENDBRANCH   5   6
ENDBRANCH   4   5
ENDBRANCH   3   4
ENDBRANCH   2   3
ENDBRANCH   1   2
BRANCH   1  19
ATOM     19  O   UNL     1       3.025  -1.524  -3.372  1.00  0.00    -0.376 OA
BRANCH  19  20
ATOM     20  C   UNL     1       4.274  -1.282  -4.006  1.00  0.00     0.202 C 
BRANCH  20  21
ATOM     21  C   UNL     1       4.347  -0.209  -5.102  1.00  0.00     0.261 C 
BRANCH  21  22
ATOM     22  O   UNL     1       4.008   1.124  -4.669  1.00  0.00    -0.460 OA
BRANCH  22  23
ATOM     23  C   UNL     1       2.917   1.675  -5.255  1.00  0.00     0.338 C 
ATOM     24  O   UNL     1       2.201   1.177  -6.105  1.00  0.00    -0.246 OA
BRANCH  23  25
ATOM     25  C   UNL     1       2.585   2.966  -4.614  1.00  0.00     0.060 A 
ATOM     26  C   UNL     1       1.361   3.079  -3.939  1.00  0.00     0.016 A 
ATOM     27  C   UNL     1       3.417   4.078  -4.753  1.00  0.00     0.016 A 
ATOM     28  C   UNL     1       0.951   4.311  -3.426  1.00  0.00     0.010 A 
ATOM     29  C   UNL     1       2.991   5.320  -4.264  1.00  0.00     0.010 A 
ATOM     30  C   UNL     1       1.742   5.450  -3.628  1.00  0.00    -0.014 A 
BRANCH  30  31
ATOM     31  C   UNL     1       1.171   6.797  -3.364  1.00  0.00     0.031 A 
ATOM     32  C   UNL     1       0.514   7.533  -4.500  1.00  0.00     0.074 A 
ATOM     33  C   UNL     1       1.199   7.350  -2.138  1.00  0.00     0.049 A 
ATOM     34  N   UNL     1      -0.019   8.729  -4.522  1.00  0.00    -0.248 NA
ATOM     35  C   UNL     1       0.444   6.820  -5.786  1.00  0.00     0.031 C 
ATOM     36  C   UNL     1       1.747   6.721  -0.940  1.00  0.00     0.029 A 
ATOM     37  N   UNL     1       0.752   8.575  -1.703  1.00  0.00    -0.354 N 
ATOM     38  C   UNL     1      -0.490   8.907  -5.816  1.00  0.00     0.074 A 
ATOM     39  C   UNL     1      -0.151   7.714  -6.561  1.00  0.00     0.031 C 
ATOM     40  C   UNL     1       1.609   7.568   0.096  1.00  0.00     0.029 A 
ATOM     41  C   UNL     1       0.993   8.810  -0.372  1.00  0.00     0.049 A 
ATOM     42  H   UNL     1       0.300   9.223  -2.291  1.00  0.00     0.167 HD
ATOM     43  C   UNL     1      -1.156   9.965  -6.335  1.00  0.00     0.037 A 
ATOM     44  C   UNL     1       0.760   9.909   0.375  1.00  0.00     0.037 A 
ATOM     45  C   UNL     1      -1.487  11.158  -5.603  1.00  0.00     0.049 A 
ATOM     46  C   UNL     1       0.114  11.119  -0.254  1.00  0.00     0.074 A 
ATOM     47  C   UNL     1      -2.157  12.284  -6.049  1.00  0.00     0.029 A 
ATOM     48  N   UNL     1      -1.168  11.382  -4.272  1.00  0.00    -0.354 N 
ATOM     49  N   UNL     1      -0.334  11.278  -1.476  1.00  0.00    -0.248 NA
ATOM     50  C   UNL     1      -0.057  12.304   0.602  1.00  0.00     0.031 C 
ATOM     51  C   UNL     1      -2.197  13.211  -5.004  1.00  0.00     0.029 A 
ATOM     52  C   UNL     1      -1.604  12.641  -3.890  1.00  0.00     0.049 A 
ATOM     53  H   UNL     1      -0.702  10.743  -3.687  1.00  0.00     0.167 HD
ATOM     54  C   UNL     1      -0.862  12.563  -1.528  1.00  0.00     0.074 A 
ATOM     55  C   UNL     1      -0.690  13.139  -0.212  1.00  0.00     0.031 C 
ATOM     56  C   UNL     1      -1.438  13.204  -2.574  1.00  0.00     0.037 A 
BRANCH  43  57
ATOM     57  C   UNL     1      -1.563   9.891  -7.777  1.00  0.00     0.064 A 
ATOM     58  C   UNL     1      -2.605   9.054  -8.201  1.00  0.00     0.173 A 
ATOM     59  C   UNL     1      -0.947  10.711  -8.734  1.00  0.00     0.173 A 
ATOM     60  F   UNL     1      -3.217   8.241  -7.327  1.00  0.00    -0.203 F 
ATOM     61  C   UNL     1      -3.006   9.030  -9.534  1.00  0.00     0.198 A 
ATOM     62  C   UNL     1      -1.369  10.705 -10.060  1.00  0.00     0.198 A 
ATOM     63  F   UNL     1       0.052  11.533  -8.378  1.00  0.00    -0.203 F 
ATOM     64  F   UNL     1      -3.981   8.197  -9.925  1.00  0.00    -0.200 F 
ATOM     65  C   UNL     1      -2.395   9.862 -10.460  1.00  0.00     0.200 A 
ATOM     66  F   UNL     1      -0.787  11.521 -10.951  1.00  0.00    -0.200 F 
ATOM     67  F   UNL     1      -2.793   9.850 -11.740  1.00  0.00    -0.200 F 
ENDBRANCH  43  57
BRANCH  44  68
ATOM     68  C   UNL     1       1.141   9.920   1.813  1.00  0.00     0.064 A 
ATOM     69  C   UNL     1       0.165   9.949   2.818  1.00  0.00     0.173 A 
ATOM     70  C   UNL     1       2.486   9.911   2.212  1.00  0.00     0.173 A 
ATOM     71  F   UNL     1      -1.134   9.991   2.487  1.00  0.00    -0.203 F 
ATOM     72  C   UNL     1       0.518   9.974   4.166  1.00  0.00     0.198 A 
ATOM     73  C   UNL     1       2.838   9.908   3.560  1.00  0.00     0.198 A 
ATOM     74  F   UNL     1       3.461   9.892   1.291  1.00  0.00    -0.203 F 
ATOM     75  F   UNL     1      -0.435  10.040   5.105  1.00  0.00    -0.200 F 
ATOM     76  C   UNL     1       1.854   9.945   4.536  1.00  0.00     0.200 A 
ATOM     77  F   UNL     1       4.130   9.868   3.914  1.00  0.00    -0.200 F 
ATOM     78  F   UNL     1       2.193   9.958   5.832  1.00  0.00    -0.200 F 
ENDBRANCH  44  68
BRANCH  56  79
ATOM     79  C   UNL     1      -1.954  14.598  -2.351  1.00  0.00     0.064 A 
ATOM     80  C   UNL     1      -1.085  15.689  -2.208  1.00  0.00     0.173 A 
ATOM     81  C   UNL     1      -3.334  14.856  -2.373  1.00  0.00     0.173 A 
ATOM     82  F   UNL     1       0.241  15.495  -2.171  1.00  0.00    -0.203 F 
ATOM     83  C   UNL     1      -1.579  16.986  -2.086  1.00  0.00     0.198 A 
ATOM     84  C   UNL     1      -3.823  16.157  -2.280  1.00  0.00     0.198 A 
ATOM     85  F   UNL     1      -4.208  13.849  -2.517  1.00  0.00    -0.203 F 
ATOM     86  F   UNL     1      -0.731  18.011  -1.921  1.00  0.00    -0.200 F 
ATOM     87  C   UNL     1      -2.946  17.220  -2.133  1.00  0.00     0.200 A 
ATOM     88  F   UNL     1      -5.143  16.382  -2.344  1.00  0.00    -0.200 F 
ATOM     89  F   UNL     1      -3.417  18.471  -2.036  1.00  0.00    -0.200 F 
ENDBRANCH  56  79
ENDBRANCH  30  31
ENDBRANCH  23  25
ENDBRANCH  22  23
ENDBRANCH  21  22
ENDBRANCH  20  21
ENDBRANCH  19  20
ENDBRANCH   1  19
TORSDOF 18
