REMARK SMILES CC[NH2+][C@@]1(C(=O)OCCOCCOCCOC(=O)c2ccc(-c3c4nc(c(-c5c(F)c(F)c(F)c(F)c5F)c5ccc([nH]5)c(-c5c(F)c(F)c(F)c(F)c5F)c5nc(c(-c6c(F)c(F)c(F)c(F)c6F)c6ccc3[nH]6)C=C5)C=C4)cc2)CC[C@H]([NH+]2CCC(C(C)(C)C)CC2)C1
REMARK SMILES IDX 11 1 10 2 9 3 8 4 7 5 5 6 6 7 4 8 82 9 95 10 83 11 84 12
REMARK SMILES IDX 3 13 2 16 1 17 85 18 86 19 94 20 87 22 93 23 88 24 89 25
REMARK SMILES IDX 90 26 91 27 92 28 12 29 13 30 14 31 15 32 16 33 17 34 18 35
REMARK SMILES IDX 19 36 20 37 81 38 21 39 80 40 22 41 23 42 24 43 74 44 25 45
REMARK SMILES IDX 79 46 73 47 75 48 26 49 78 50 72 51 71 52 27 54 59 55 39 56
REMARK SMILES IDX 58 57 40 58 43 59 57 60 76 61 41 62 42 63 56 65 77 66 44 67
REMARK SMILES IDX 28 68 29 69 37 70 30 71 31 72 35 73 38 74 32 75 33 76 36 77
REMARK SMILES IDX 34 78 60 79 61 80 69 81 62 82 63 83 67 84 70 85 64 86 65 87
REMARK SMILES IDX 68 88 66 89 45 90 46 91 54 92 47 93 48 94 52 95 55 96 49 97
REMARK SMILES IDX 50 98 53 99 51 100
REMARK H PARENT 3 14 3 15 85 21 75 53 43 64
REMARK Flexibility Score: inf
ROOT
ATOM      1  C   UNL     1      -0.599   1.147   3.470  1.00  0.00     0.188 C 
ENDROOT
BRANCH   1   2
ATOM      2  O   UNL     1      -0.198   1.613   4.745  1.00  0.00    -0.376 OA
BRANCH   2   3
ATOM      3  C   UNL     1       0.273   2.954   4.852  1.00  0.00     0.202 C 
BRANCH   3   4
ATOM      4  C   UNL     1       1.297   3.432   3.814  1.00  0.00     0.261 C 
BRANCH   4   5
ATOM      5  O   UNL     1       0.695   3.618   2.512  1.00  0.00    -0.459 OA
BRANCH   5   6
ATOM      6  C   UNL     1       1.541   3.968   1.506  1.00  0.00     0.368 C 
ATOM      7  O   UNL     1       2.747   4.120   1.683  1.00  0.00    -0.245 OA
BRANCH   6   8
ATOM      8  C   UNL     1       0.875   3.999   0.079  1.00  0.00     0.200 C 
ATOM      9  C   UNL     1       1.450   5.177  -0.733  1.00  0.00     0.087 C 
ATOM     10  C   UNL     1      -0.638   4.265  -0.089  1.00  0.00     0.146 C 
ATOM     11  C   UNL     1       0.513   6.353  -0.505  1.00  0.00     0.072 C 
ATOM     12  C   UNL     1      -0.864   5.795  -0.157  1.00  0.00     0.191 C 
BRANCH   8  13
ATOM     13  N   UNL     1       1.339   2.781  -0.647  1.00  0.00    -0.332 N 
ATOM     14  H   UNL     1       0.984   2.831  -1.602  1.00  0.00     0.347 HD
ATOM     15  H   UNL     1       2.357   2.791  -0.585  1.00  0.00     0.347 HD
BRANCH  13  16
ATOM     16  C   UNL     1       0.918   1.510  -0.079  1.00  0.00     0.257 C 
ATOM     17  C   UNL     1       1.468   0.392  -0.950  1.00  0.00     0.071 C 
ENDBRANCH  13  16
ENDBRANCH   8  13
BRANCH  12  18
ATOM     18  N   UNL     1      -1.614   6.439   0.938  1.00  0.00    -0.332 N 
ATOM     19  C   UNL     1      -1.745   7.897   0.894  1.00  0.00     0.262 C 
ATOM     20  C   UNL     1      -1.364   6.033   2.309  1.00  0.00     0.262 C 
ATOM     21  H   UNL     1      -2.506   6.018   0.678  1.00  0.00     0.348 HD
ATOM     22  C   UNL     1      -0.556   8.694   1.464  1.00  0.00     0.066 C 
ATOM     23  C   UNL     1      -0.060   6.583   2.856  1.00  0.00     0.066 C 
ATOM     24  C   UNL     1       0.124   8.101   2.729  1.00  0.00     0.005 C 
BRANCH  24  25
ATOM     25  C   UNL     1       1.650   8.516   2.913  1.00  0.00    -0.035 C 
ATOM     26  C   UNL     1       1.745  10.035   3.131  1.00  0.00     0.011 C 
ATOM     27  C   UNL     1       2.267   7.812   4.145  1.00  0.00     0.011 C 
ATOM     28  C   UNL     1       2.565   8.162   1.718  1.00  0.00     0.011 C 
ENDBRANCH  24  25
ENDBRANCH  12  18
ENDBRANCH   6   8
ENDBRANCH   5   6
ENDBRANCH   4   5
ENDBRANCH   3   4
ENDBRANCH   2   3
ENDBRANCH   1   2
BRANCH   1  29
ATOM     29  C   UNL     1      -1.633   1.952   2.677  1.00  0.00     0.188 C 
BRANCH  29  30
ATOM     30  O   UNL     1      -2.490   2.896   3.282  1.00  0.00    -0.376 OA
BRANCH  30  31
ATOM     31  C   UNL     1      -3.198   2.543   4.454  1.00  0.00     0.202 C 
BRANCH  31  32
ATOM     32  C   UNL     1      -4.105   1.305   4.446  1.00  0.00     0.261 C 
BRANCH  32  33
ATOM     33  O   UNL     1      -3.546   0.159   3.790  1.00  0.00    -0.460 OA
BRANCH  33  34
ATOM     34  C   UNL     1      -4.080  -0.142   2.574  1.00  0.00     0.338 C 
ATOM     35  O   UNL     1      -5.015   0.398   2.021  1.00  0.00    -0.246 OA
BRANCH  34  36
ATOM     36  C   UNL     1      -3.171  -1.101   1.899  1.00  0.00     0.060 A 
ATOM     37  C   UNL     1      -2.694  -0.779   0.619  1.00  0.00     0.016 A 
ATOM     38  C   UNL     1      -2.733  -2.258   2.543  1.00  0.00     0.016 A 
ATOM     39  C   UNL     1      -1.761  -1.604  -0.009  1.00  0.00     0.010 A 
ATOM     40  C   UNL     1      -1.830  -3.105   1.896  1.00  0.00     0.010 A 
ATOM     41  C   UNL     1      -1.342  -2.786   0.617  1.00  0.00    -0.014 A 
BRANCH  41  42
ATOM     42  C   UNL     1      -0.514  -3.769  -0.120  1.00  0.00     0.031 A 
ATOM     43  C   UNL     1      -1.206  -4.776  -0.990  1.00  0.00     0.074 A 
ATOM     44  C   UNL     1       0.826  -3.785  -0.003  1.00  0.00     0.049 A 
ATOM     45  N   UNL     1      -0.708  -5.801  -1.631  1.00  0.00    -0.248 NA
ATOM     46  C   UNL     1      -2.660  -4.612  -1.144  1.00  0.00     0.031 C 
ATOM     47  C   UNL     1       1.614  -2.842   0.784  1.00  0.00     0.029 A 
ATOM     48  N   UNL     1       1.761  -4.628  -0.553  1.00  0.00    -0.354 N 
ATOM     49  C   UNL     1      -1.790  -6.421  -2.240  1.00  0.00     0.074 A 
ATOM     50  C   UNL     1      -2.968  -5.653  -1.902  1.00  0.00     0.031 C 
ATOM     51  C   UNL     1       2.918  -3.137   0.642  1.00  0.00     0.029 A 
ATOM     52  C   UNL     1       3.051  -4.340  -0.178  1.00  0.00     0.049 A 
ATOM     53  H   UNL     1       1.528  -5.368  -1.158  1.00  0.00     0.167 HD
ATOM     54  C   UNL     1      -1.799  -7.544  -2.995  1.00  0.00     0.037 A 
ATOM     55  C   UNL     1       4.200  -5.000  -0.433  1.00  0.00     0.037 A 
ATOM     56  C   UNL     1      -0.628  -8.319  -3.311  1.00  0.00     0.049 A 
ATOM     57  C   UNL     1       4.149  -6.287  -1.222  1.00  0.00     0.074 A 
ATOM     58  C   UNL     1      -0.538  -9.475  -4.065  1.00  0.00     0.029 A 
ATOM     59  N   UNL     1       0.655  -8.024  -2.875  1.00  0.00    -0.354 N 
ATOM     60  N   UNL     1       3.125  -6.872  -1.795  1.00  0.00    -0.248 NA
ATOM     61  C   UNL     1       5.414  -7.025  -1.370  1.00  0.00     0.031 C 
ATOM     62  C   UNL     1       0.789  -9.914  -4.035  1.00  0.00     0.029 A 
ATOM     63  C   UNL     1       1.538  -8.997  -3.315  1.00  0.00     0.049 A 
ATOM     64  H   UNL     1       0.902  -7.240  -2.334  1.00  0.00     0.167 HD
ATOM     65  C   UNL     1       3.619  -8.037  -2.371  1.00  0.00     0.074 A 
ATOM     66  C   UNL     1       5.042  -8.060  -2.110  1.00  0.00     0.031 C 
ATOM     67  C   UNL     1       2.953  -9.008  -3.042  1.00  0.00     0.037 A 
BRANCH  54  68
ATOM     68  C   UNL     1      -3.130  -8.039  -3.475  1.00  0.00     0.064 A 
ATOM     69  C   UNL     1      -3.852  -7.375  -4.477  1.00  0.00     0.173 A 
ATOM     70  C   UNL     1      -3.681  -9.211  -2.934  1.00  0.00     0.173 A 
ATOM     71  F   UNL     1      -3.378  -6.239  -5.010  1.00  0.00    -0.203 F 
ATOM     72  C   UNL     1      -5.088  -7.854  -4.904  1.00  0.00     0.198 A 
ATOM     73  C   UNL     1      -4.901  -9.704  -3.385  1.00  0.00     0.198 A 
ATOM     74  F   UNL     1      -3.031  -9.883  -1.971  1.00  0.00    -0.203 F 
ATOM     75  F   UNL     1      -5.784  -7.178  -5.827  1.00  0.00    -0.200 F 
ATOM     76  C   UNL     1      -5.607  -9.022  -4.364  1.00  0.00     0.200 A 
ATOM     77  F   UNL     1      -5.396 -10.838  -2.869  1.00  0.00    -0.200 F 
ATOM     78  F   UNL     1      -6.793  -9.485  -4.781  1.00  0.00    -0.200 F 
ENDBRANCH  54  68
BRANCH  55  79
ATOM     79  C   UNL     1       5.495  -4.503   0.111  1.00  0.00     0.064 A 
ATOM     80  C   UNL     1       6.532  -4.100  -0.743  1.00  0.00     0.173 A 
ATOM     81  C   UNL     1       5.742  -4.466   1.492  1.00  0.00     0.173 A 
ATOM     82  F   UNL     1       6.363  -4.150  -2.073  1.00  0.00    -0.203 F 
ATOM     83  C   UNL     1       7.769  -3.700  -0.238  1.00  0.00     0.198 A 
ATOM     84  C   UNL     1       6.965  -4.029   1.996  1.00  0.00     0.198 A 
ATOM     85  F   UNL     1       4.791  -4.853   2.355  1.00  0.00    -0.203 F 
ATOM     86  F   UNL     1       8.762  -3.381  -1.079  1.00  0.00    -0.200 F 
ATOM     87  C   UNL     1       7.981  -3.657   1.131  1.00  0.00     0.200 A 
ATOM     88  F   UNL     1       7.160  -3.979   3.321  1.00  0.00    -0.200 F 
ATOM     89  F   UNL     1       9.169  -3.272   1.617  1.00  0.00    -0.200 F 
ENDBRANCH  55  79
BRANCH  67  90
ATOM     90  C   UNL     1       3.754 -10.174  -3.553  1.00  0.00     0.064 A 
ATOM     91  C   UNL     1       4.286 -11.137  -2.682  1.00  0.00     0.173 A 
ATOM     92  C   UNL     1       3.947 -10.358  -4.931  1.00  0.00     0.173 A 
ATOM     93  F   UNL     1       4.141 -11.002  -1.355  1.00  0.00    -0.203 F 
ATOM     94  C   UNL     1       5.001 -12.228  -3.171  1.00  0.00     0.198 A 
ATOM     95  C   UNL     1       4.635 -11.466  -5.417  1.00  0.00     0.198 A 
ATOM     96  F   UNL     1       3.453  -9.471  -5.807  1.00  0.00    -0.203 F 
ATOM     97  F   UNL     1       5.539 -13.111  -2.318  1.00  0.00    -0.200 F 
ATOM     98  C   UNL     1       5.167 -12.396  -4.538  1.00  0.00     0.200 A 
ATOM     99  F   UNL     1       4.780 -11.636  -6.739  1.00  0.00    -0.200 F 
ATOM    100  F   UNL     1       5.846 -13.452  -5.007  1.00  0.00    -0.200 F 
ENDBRANCH  67  90
ENDBRANCH  41  42
ENDBRANCH  34  36
ENDBRANCH  33  34
ENDBRANCH  32  33
ENDBRANCH  31  32
ENDBRANCH  30  31
ENDBRANCH  29  30
ENDBRANCH   1  29
TORSDOF 21
