REMARK SMILES CC1(C(=O)N[C@@H](C(=O)OCCOCCOCCOC(=O)c2ccc(-c3c4nc(c(-c5c(F)c(F)c(F)c(F)c5F)c5ccc([nH]5)c(-c5c(F)c(F)c(F)c(F)c5F)c5nc(c(-c6c(F)c(F)c(F)c(F)c6F)c6ccc3[nH]6)C=C5)C=C4)cc2)c2ccccc2)CCCC1
REMARK SMILES IDX 13 1 12 2 11 3 10 4 9 5 7 6 8 7 6 8 5 9 3 10 4 11 2 13 1 14
REMARK SMILES IDX 90 15 93 16 91 17 92 18 84 19 85 20 89 21 86 22 88 23 87 24
REMARK SMILES IDX 14 25 15 26 16 27 17 28 18 29 19 30 20 31 21 32 22 33 83 34
REMARK SMILES IDX 23 35 82 36 24 37 25 38 26 39 76 40 27 41 81 42 75 43 77 44
REMARK SMILES IDX 28 45 80 46 74 47 73 48 29 50 61 51 41 52 60 53 42 54 45 55
REMARK SMILES IDX 59 56 78 57 43 58 44 59 58 61 79 62 46 63 30 64 31 65 39 66
REMARK SMILES IDX 32 67 33 68 37 69 40 70 34 71 35 72 38 73 36 74 62 75 63 76
REMARK SMILES IDX 71 77 64 78 65 79 69 80 72 81 66 82 67 83 70 84 68 85 47 86
REMARK SMILES IDX 48 87 56 88 49 89 50 90 54 91 57 92 51 93 52 94 55 95 53 96
REMARK H PARENT 5 12 77 49 45 60
REMARK Flexibility Score: inf
ROOT
ATOM      1  C   UNL     1       6.397  -2.870   0.876  1.00  0.00     0.188 C 
ENDROOT
BRANCH   1   2
ATOM      2  O   UNL     1       7.255  -2.785  -0.254  1.00  0.00    -0.376 OA
BRANCH   2   3
ATOM      3  C   UNL     1       7.058  -1.747  -1.208  1.00  0.00     0.202 C 
BRANCH   3   4
ATOM      4  C   UNL     1       5.660  -1.521  -1.813  1.00  0.00     0.261 C 
BRANCH   4   5
ATOM      5  O   UNL     1       4.571  -1.430  -0.868  1.00  0.00    -0.461 OA
BRANCH   5   6
ATOM      6  C   UNL     1       3.625  -2.403  -0.961  1.00  0.00     0.333 C 
ATOM      7  O   UNL     1       3.636  -3.268  -1.834  1.00  0.00    -0.249 OA
BRANCH   6   8
ATOM      8  C   UNL     1       2.528  -2.352   0.156  1.00  0.00     0.223 C 
BRANCH   8   9
ATOM      9  N   UNL     1       2.478  -1.179   1.046  1.00  0.00    -0.339 N 
ATOM     10  C   UNL     1       1.652  -0.104   1.107  1.00  0.00     0.226 C 
ATOM     11  O   UNL     1       1.854   0.693   2.026  1.00  0.00    -0.274 OA
ATOM     12  H   UNL     1       3.183  -1.174   1.732  1.00  0.00     0.164 HD
BRANCH  10  13
ATOM     13  C   UNL     1       0.545   0.108   0.077  1.00  0.00     0.046 C 
ATOM     14  C   UNL     1       1.177   0.343  -1.302  1.00  0.00     0.022 C 
ATOM     15  C   UNL     1      -0.336   1.322   0.446  1.00  0.00     0.016 C 
ATOM     16  C   UNL     1      -0.512  -1.006   0.132  1.00  0.00     0.016 C 
ATOM     17  C   UNL     1      -1.639   1.102  -0.317  1.00  0.00     0.001 C 
ATOM     18  C   UNL     1      -1.772  -0.408  -0.477  1.00  0.00     0.001 C 
ENDBRANCH  10  13
ENDBRANCH   8   9
BRANCH   8  19
ATOM     19  C   UNL     1       2.457  -3.670   0.946  1.00  0.00    -0.014 A 
ATOM     20  C   UNL     1       2.532  -3.745   2.348  1.00  0.00     0.006 A 
ATOM     21  C   UNL     1       2.252  -4.873   0.242  1.00  0.00     0.006 A 
ATOM     22  C   UNL     1       2.411  -4.974   3.007  1.00  0.00     0.000 A 
ATOM     23  C   UNL     1       2.154  -6.099   0.899  1.00  0.00     0.000 A 
ATOM     24  C   UNL     1       2.226  -6.148   2.284  1.00  0.00     0.000 A 
ENDBRANCH   8  19
ENDBRANCH   6   8
ENDBRANCH   5   6
ENDBRANCH   4   5
ENDBRANCH   3   4
ENDBRANCH   2   3
ENDBRANCH   1   2
BRANCH   1  25
ATOM     25  C   UNL     1       5.954  -1.584   1.590  1.00  0.00     0.188 C 
BRANCH  25  26
ATOM     26  O   UNL     1       6.436  -0.390   1.024  1.00  0.00    -0.376 OA
BRANCH  26  27
ATOM     27  C   UNL     1       7.354   0.380   1.779  1.00  0.00     0.202 C 
BRANCH  27  28
ATOM     28  C   UNL     1       8.586  -0.306   2.399  1.00  0.00     0.261 C 
BRANCH  28  29
ATOM     29  O   UNL     1       8.374  -1.599   2.999  1.00  0.00    -0.460 OA
BRANCH  29  30
ATOM     30  C   UNL     1       7.841  -1.623   4.239  1.00  0.00     0.338 C 
ATOM     31  O   UNL     1       7.555  -0.654   4.933  1.00  0.00    -0.246 OA
BRANCH  30  32
ATOM     32  C   UNL     1       7.407  -3.008   4.541  1.00  0.00     0.060 A 
ATOM     33  C   UNL     1       6.046  -3.237   4.792  1.00  0.00     0.016 A 
ATOM     34  C   UNL     1       8.314  -4.070   4.582  1.00  0.00     0.016 A 
ATOM     35  C   UNL     1       5.596  -4.516   5.117  1.00  0.00     0.010 A 
ATOM     36  C   UNL     1       7.863  -5.351   4.937  1.00  0.00     0.010 A 
ATOM     37  C   UNL     1       6.507  -5.573   5.238  1.00  0.00    -0.014 A 
BRANCH  37  38
ATOM     38  C   UNL     1       6.059  -6.822   5.906  1.00  0.00     0.031 A 
ATOM     39  C   UNL     1       6.247  -6.939   7.394  1.00  0.00     0.074 A 
ATOM     40  C   UNL     1       5.431  -7.806   5.237  1.00  0.00     0.049 A 
ATOM     41  N   UNL     1       5.908  -7.906   8.208  1.00  0.00    -0.248 NA
ATOM     42  C   UNL     1       6.909  -5.801   8.049  1.00  0.00     0.031 C 
ATOM     43  C   UNL     1       5.141  -7.803   3.808  1.00  0.00     0.029 A 
ATOM     44  N   UNL     1       4.919  -9.000   5.686  1.00  0.00    -0.354 N 
ATOM     45  C   UNL     1       6.319  -7.496   9.470  1.00  0.00     0.074 A 
ATOM     46  C   UNL     1       6.957  -6.207   9.308  1.00  0.00     0.031 C 
ATOM     47  C   UNL     1       4.505  -8.946   3.493  1.00  0.00     0.029 A 
ATOM     48  C   UNL     1       4.365  -9.770   4.694  1.00  0.00     0.049 A 
ATOM     49  H   UNL     1       4.947  -9.277   6.631  1.00  0.00     0.167 HD
ATOM     50  C   UNL     1       6.179  -8.132  10.658  1.00  0.00     0.037 A 
ATOM     51  C   UNL     1       3.822 -11.003   4.748  1.00  0.00     0.037 A 
ATOM     52  C   UNL     1       5.568  -9.425  10.821  1.00  0.00     0.049 A 
ATOM     53  C   UNL     1       3.735 -11.724   6.071  1.00  0.00     0.074 A 
ATOM     54  C   UNL     1       5.385 -10.153  11.984  1.00  0.00     0.029 A 
ATOM     55  N   UNL     1       5.056 -10.193   9.785  1.00  0.00    -0.354 N 
ATOM     56  N   UNL     1       4.109 -11.325   7.263  1.00  0.00    -0.248 NA
ATOM     57  C   UNL     1       3.142 -13.070   6.054  1.00  0.00     0.031 C 
ATOM     58  C   UNL     1       4.824 -11.389  11.643  1.00  0.00     0.029 A 
ATOM     59  C   UNL     1       4.584 -11.401  10.278  1.00  0.00     0.049 A 
ATOM     60  H   UNL     1       5.031  -9.921   8.840  1.00  0.00     0.167 HD
ATOM     61  C   UNL     1       3.774 -12.353   8.138  1.00  0.00     0.074 A 
ATOM     62  C   UNL     1       3.149 -13.387   7.341  1.00  0.00     0.031 C 
ATOM     63  C   UNL     1       3.965 -12.431   9.479  1.00  0.00     0.037 A 
BRANCH  50  64
ATOM     64  C   UNL     1       6.764  -7.451  11.863  1.00  0.00     0.064 A 
ATOM     65  C   UNL     1       6.230  -6.260  12.379  1.00  0.00     0.173 A 
ATOM     66  C   UNL     1       7.899  -7.986  12.493  1.00  0.00     0.173 A 
ATOM     67  F   UNL     1       5.157  -5.696  11.804  1.00  0.00    -0.203 F 
ATOM     68  C   UNL     1       6.839  -5.605  13.447  1.00  0.00     0.198 A 
ATOM     69  C   UNL     1       8.482  -7.348  13.584  1.00  0.00     0.198 A 
ATOM     70  F   UNL     1       8.449  -9.124  12.043  1.00  0.00    -0.203 F 
ATOM     71  F   UNL     1       6.357  -4.429  13.872  1.00  0.00    -0.200 F 
ATOM     72  C   UNL     1       7.962  -6.151  14.050  1.00  0.00     0.200 A 
ATOM     73  F   UNL     1       9.560  -7.885  14.173  1.00  0.00    -0.200 F 
ATOM     74  F   UNL     1       8.552  -5.516  15.072  1.00  0.00    -0.200 F 
ENDBRANCH  50  64
BRANCH  51  75
ATOM     75  C   UNL     1       3.322 -11.646   3.503  1.00  0.00     0.064 A 
ATOM     76  C   UNL     1       1.956 -11.889   3.305  1.00  0.00     0.173 A 
ATOM     77  C   UNL     1       4.207 -12.043   2.489  1.00  0.00     0.173 A 
ATOM     78  F   UNL     1       1.072 -11.556   4.257  1.00  0.00    -0.203 F 
ATOM     79  C   UNL     1       1.495 -12.515   2.148  1.00  0.00     0.198 A 
ATOM     80  C   UNL     1       3.743 -12.640   1.319  1.00  0.00     0.198 A 
ATOM     81  F   UNL     1       5.525 -11.841   2.631  1.00  0.00    -0.203 F 
ATOM     82  F   UNL     1       0.189 -12.777   2.005  1.00  0.00    -0.200 F 
ATOM     83  C   UNL     1       2.388 -12.882   1.152  1.00  0.00     0.200 A 
ATOM     84  F   UNL     1       4.608 -12.982   0.355  1.00  0.00    -0.200 F 
ATOM     85  F   UNL     1       1.944 -13.475   0.036  1.00  0.00    -0.200 F 
ENDBRANCH  51  75
BRANCH  63  86
ATOM     86  C   UNL     1       3.454 -13.660  10.184  1.00  0.00     0.064 A 
ATOM     87  C   UNL     1       4.026 -14.927   9.986  1.00  0.00     0.173 A 
ATOM     88  C   UNL     1       2.384 -13.564  11.088  1.00  0.00     0.173 A 
ATOM     89  F   UNL     1       5.045 -15.081   9.127  1.00  0.00    -0.203 F 
ATOM     90  C   UNL     1       3.518 -16.053  10.631  1.00  0.00     0.198 A 
ATOM     91  C   UNL     1       1.904 -14.685  11.761  1.00  0.00     0.198 A 
ATOM     92  F   UNL     1       1.804 -12.377  11.327  1.00  0.00    -0.203 F 
ATOM     93  F   UNL     1       4.038 -17.261  10.373  1.00  0.00    -0.200 F 
ATOM     94  C   UNL     1       2.462 -15.931  11.521  1.00  0.00     0.200 A 
ATOM     95  F   UNL     1       0.896 -14.560  12.635  1.00  0.00    -0.200 F 
ATOM     96  F   UNL     1       1.976 -17.015  12.141  1.00  0.00    -0.200 F 
ENDBRANCH  63  86
ENDBRANCH  37  38
ENDBRANCH  30  32
ENDBRANCH  29  30
ENDBRANCH  28  29
ENDBRANCH  27  28
ENDBRANCH  26  27
ENDBRANCH  25  26
ENDBRANCH   1  25
TORSDOF 20
