REMARK SMILES COc1cc([C@@H]2[NH2+][C@H](C(=O)OCCOCCOCCOC(=O)c3ccc(-c4c5nc(c(-c6c(F)c(F)c(F)c(F)c6F)c6ccc([nH]6)c(-c6c(F)c(F)c(F)c(F)c6F)c6nc(c(-c7c(F)c(F)c(F)c(F)c7F)c7ccc4[nH]7)C=C6)C=C5)cc3)CS2)ccc1OCc1ccc(Cl)cc1
REMARK SMILES IDX 15 1 14 2 13 3 12 4 11 5 9 6 10 7 8 8 6 9 7 10 87 11 86 14
REMARK SMILES IDX 5 15 3 16 4 17 90 18 89 19 88 20 2 21 1 22 91 23 92 24 93 25
REMARK SMILES IDX 94 26 99 27 95 28 98 29 96 30 97 31 16 32 17 33 18 34 19 35
REMARK SMILES IDX 20 36 21 37 22 38 23 39 24 40 85 41 25 42 84 43 26 44 27 45
REMARK SMILES IDX 28 46 78 47 29 48 83 49 77 50 79 51 30 52 82 53 76 54 75 55
REMARK SMILES IDX 31 57 63 58 43 59 62 60 44 61 47 62 61 63 80 64 45 65 46 66
REMARK SMILES IDX 60 68 81 69 48 70 32 71 33 72 41 73 34 74 35 75 39 76 42 77
REMARK SMILES IDX 36 78 37 79 40 80 38 81 64 82 65 83 73 84 66 85 67 86 71 87
REMARK SMILES IDX 74 88 68 89 69 90 72 91 70 92 49 93 50 94 58 95 51 96 52 97
REMARK SMILES IDX 56 98 59 99 53 100 54 101 57 102 55 103
REMARK H PARENT 7 12 7 13 79 56 47 67
REMARK Flexibility Score: inf
ROOT
ATOM      1  C   UNL     1       3.218   8.066  -3.135  1.00  0.00     0.188 C 
ENDROOT
BRANCH   1   2
ATOM      2  O   UNL     1       4.395   8.551  -2.495  1.00  0.00    -0.376 OA
BRANCH   2   3
ATOM      3  C   UNL     1       4.773   8.000  -1.242  1.00  0.00     0.202 C 
BRANCH   3   4
ATOM      4  C   UNL     1       3.824   8.267  -0.071  1.00  0.00     0.261 C 
BRANCH   4   5
ATOM      5  O   UNL     1       2.476   7.804  -0.289  1.00  0.00    -0.459 OA
BRANCH   5   6
ATOM      6  C   UNL     1       1.485   8.726  -0.210  1.00  0.00     0.365 C 
ATOM      7  O   UNL     1       1.671   9.912   0.052  1.00  0.00    -0.245 OA
BRANCH   6   8
ATOM      8  C   UNL     1       0.061   8.181  -0.414  1.00  0.00     0.304 C 
ATOM      9  C   UNL     1      -0.612   5.827  -0.409  1.00  0.00     0.274 C 
ATOM     10  N   UNL     1      -0.067   6.932  -1.206  1.00  0.00    -0.319 N 
ATOM     11  S   UNL     1      -1.241   6.442   1.163  1.00  0.00    -0.087 SA
ATOM     12  H   UNL     1      -0.688   7.106  -1.996  1.00  0.00     0.348 HD
ATOM     13  H   UNL     1       0.866   6.663  -1.521  1.00  0.00     0.348 HD
ATOM     14  C   UNL     1      -0.649   8.126   0.929  1.00  0.00     0.153 C 
BRANCH   9  15
ATOM     15  C   UNL     1       0.375   4.683  -0.260  1.00  0.00     0.024 A 
ATOM     16  C   UNL     1       1.069   2.371  -0.723  1.00  0.00     0.161 A 
ATOM     17  C   UNL     1       0.148   3.428  -0.867  1.00  0.00     0.061 A 
ATOM     18  C   UNL     1       2.242   2.569   0.013  1.00  0.00     0.161 A 
ATOM     19  C   UNL     1       2.492   3.825   0.569  1.00  0.00     0.051 A 
ATOM     20  C   UNL     1       1.563   4.854   0.461  1.00  0.00     0.015 A 
BRANCH  16  21
ATOM     21  O   UNL     1       0.880   1.195  -1.399  1.00  0.00    -0.493 OA
ATOM     22  C   UNL     1      -0.299   0.491  -1.008  1.00  0.00     0.278 C 
ENDBRANCH  16  21
BRANCH  18  23
ATOM     23  O   UNL     1       3.204   1.656   0.344  1.00  0.00    -0.485 OA
BRANCH  23  24
ATOM     24  C   UNL     1       2.858   0.280   0.507  1.00  0.00     0.265 C 
BRANCH  24  25
ATOM     25  C   UNL     1       1.825  -0.087   1.565  1.00  0.00    -0.011 A 
ATOM     26  C   UNL     1       1.213   0.845   2.417  1.00  0.00     0.009 A 
ATOM     27  C   UNL     1       1.437  -1.435   1.672  1.00  0.00     0.009 A 
ATOM     28  C   UNL     1       0.176   0.465   3.273  1.00  0.00     0.021 A 
ATOM     29  C   UNL     1       0.419  -1.822   2.547  1.00  0.00     0.021 A 
ATOM     30  C   UNL     1      -0.225  -0.865   3.326  1.00  0.00     0.041 A 
ATOM     31  Cl  UNL     1      -1.526  -1.326   4.351  1.00  0.00    -0.084 Cl
ENDBRANCH  24  25
ENDBRANCH  23  24
ENDBRANCH  18  23
ENDBRANCH   9  15
ENDBRANCH   6   8
ENDBRANCH   5   6
ENDBRANCH   4   5
ENDBRANCH   3   4
ENDBRANCH   2   3
ENDBRANCH   1   2
BRANCH   1  32
ATOM     32  C   UNL     1       2.799   6.595  -2.967  1.00  0.00     0.188 C 
BRANCH  32  33
ATOM     33  O   UNL     1       3.888   5.723  -2.720  1.00  0.00    -0.376 OA
BRANCH  33  34
ATOM     34  C   UNL     1       3.963   4.601  -3.584  1.00  0.00     0.202 C 
BRANCH  34  35
ATOM     35  C   UNL     1       4.745   4.973  -4.844  1.00  0.00     0.261 C 
BRANCH  35  36
ATOM     36  O   UNL     1       4.152   6.036  -5.616  1.00  0.00    -0.460 OA
BRANCH  36  37
ATOM     37  C   UNL     1       2.963   5.782  -6.207  1.00  0.00     0.338 C 
ATOM     38  O   UNL     1       2.340   4.735  -6.197  1.00  0.00    -0.246 OA
BRANCH  37  39
ATOM     39  C   UNL     1       2.438   7.063  -6.725  1.00  0.00     0.060 A 
ATOM     40  C   UNL     1       1.194   7.528  -6.275  1.00  0.00     0.016 A 
ATOM     41  C   UNL     1       3.189   7.821  -7.625  1.00  0.00     0.016 A 
ATOM     42  C   UNL     1       0.704   8.762  -6.720  1.00  0.00     0.010 A 
ATOM     43  C   UNL     1       2.688   9.041  -8.085  1.00  0.00     0.010 A 
ATOM     44  C   UNL     1       1.442   9.519  -7.641  1.00  0.00    -0.014 A 
BRANCH  44  45
ATOM     45  C   UNL     1       0.895  10.767  -8.231  1.00  0.00     0.031 A 
ATOM     46  C   UNL     1       0.258  10.712  -9.591  1.00  0.00     0.074 A 
ATOM     47  C   UNL     1       1.025  11.948  -7.598  1.00  0.00     0.049 A 
ATOM     48  N   UNL     1      -0.134  11.691 -10.366  1.00  0.00    -0.248 NA
ATOM     49  C   UNL     1       0.036   9.371 -10.155  1.00  0.00     0.031 C 
ATOM     50  C   UNL     1       1.595  12.137  -6.266  1.00  0.00     0.029 A 
ATOM     51  N   UNL     1       0.714  13.222  -8.015  1.00  0.00    -0.354 N 
ATOM     52  C   UNL     1      -0.628  11.089 -11.514  1.00  0.00     0.074 A 
ATOM     53  C   UNL     1      -0.485   9.659 -11.339  1.00  0.00     0.031 C 
ATOM     54  C   UNL     1       1.627  13.452  -5.988  1.00  0.00     0.029 A 
ATOM     55  C   UNL     1       1.122  14.200  -7.139  1.00  0.00     0.049 A 
ATOM     56  H   UNL     1       0.245  13.414  -8.858  1.00  0.00     0.167 HD
ATOM     57  C   UNL     1      -1.152  11.677 -12.615  1.00  0.00     0.037 A 
ATOM     58  C   UNL     1       1.133  15.542  -7.274  1.00  0.00     0.037 A 
ATOM     59  C   UNL     1      -1.304  13.098 -12.787  1.00  0.00     0.049 A 
ATOM     60  C   UNL     1       0.620  16.169  -8.549  1.00  0.00     0.074 A 
ATOM     61  C   UNL     1      -1.882  13.779 -13.844  1.00  0.00     0.029 A 
ATOM     62  N   UNL     1      -0.862  14.055 -11.888  1.00  0.00    -0.354 N 
ATOM     63  N   UNL     1       0.102  15.594  -9.607  1.00  0.00    -0.248 NA
ATOM     64  C   UNL     1       0.705  17.635  -8.652  1.00  0.00     0.031 C 
ATOM     65  C   UNL     1      -1.734  15.150 -13.615  1.00  0.00     0.029 A 
ATOM     66  C   UNL     1      -1.113  15.322 -12.389  1.00  0.00     0.049 A 
ATOM     67  H   UNL     1      -0.434  13.863 -11.022  1.00  0.00     0.167 HD
ATOM     68  C   UNL     1      -0.218  16.623 -10.485  1.00  0.00     0.074 A 
ATOM     69  C   UNL     1       0.143  17.861  -9.830  1.00  0.00     0.031 C 
ATOM     70  C   UNL     1      -0.756  16.549 -11.726  1.00  0.00     0.037 A 
BRANCH  57  71
ATOM     71  C   UNL     1      -1.581  10.796 -13.748  1.00  0.00     0.064 A 
ATOM     72  C   UNL     1      -2.756  10.033 -13.684  1.00  0.00     0.173 A 
ATOM     73  C   UNL     1      -0.854  10.788 -14.948  1.00  0.00     0.173 A 
ATOM     74  F   UNL     1      -3.479  10.001 -12.555  1.00  0.00    -0.203 F 
ATOM     75  C   UNL     1      -3.185   9.291 -14.781  1.00  0.00     0.198 A 
ATOM     76  C   UNL     1      -1.299  10.064 -16.050  1.00  0.00     0.198 A 
ATOM     77  F   UNL     1       0.274  11.506 -15.059  1.00  0.00    -0.203 F 
ATOM     78  F   UNL     1      -4.300   8.552 -14.693  1.00  0.00    -0.200 F 
ATOM     79  C   UNL     1      -2.462   9.316 -15.965  1.00  0.00     0.200 A 
ATOM     80  F   UNL     1      -0.607  10.101 -17.197  1.00  0.00    -0.200 F 
ATOM     81  F   UNL     1      -2.889   8.617 -17.027  1.00  0.00    -0.200 F 
ENDBRANCH  57  71
BRANCH  58  82
ATOM     82  C   UNL     1       1.703  16.404  -6.202  1.00  0.00     0.064 A 
ATOM     83  C   UNL     1       0.898  17.305  -5.491  1.00  0.00     0.173 A 
ATOM     84  C   UNL     1       3.077  16.396  -5.917  1.00  0.00     0.173 A 
ATOM     85  F   UNL     1      -0.416  17.378  -5.751  1.00  0.00    -0.203 F 
ATOM     86  C   UNL     1       1.449  18.187  -4.562  1.00  0.00     0.198 A 
ATOM     87  C   UNL     1       3.622  17.254  -4.964  1.00  0.00     0.198 A 
ATOM     88  F   UNL     1       3.895  15.562  -6.576  1.00  0.00    -0.203 F 
ATOM     89  F   UNL     1       0.667  19.087  -3.951  1.00  0.00    -0.200 F 
ATOM     90  C   UNL     1       2.810  18.158  -4.297  1.00  0.00     0.200 A 
ATOM     91  F   UNL     1       4.937  17.219  -4.707  1.00  0.00    -0.200 F 
ATOM     92  F   UNL     1       3.341  19.014  -3.413  1.00  0.00    -0.200 F 
ENDBRANCH  58  82
BRANCH  70  93
ATOM     93  C   UNL     1      -1.012  17.837 -12.455  1.00  0.00     0.064 A 
ATOM     94  C   UNL     1       0.040  18.603 -12.981  1.00  0.00     0.173 A 
ATOM     95  C   UNL     1      -2.324  18.282 -12.681  1.00  0.00     0.173 A 
ATOM     96  F   UNL     1       1.312  18.230 -12.780  1.00  0.00    -0.203 F 
ATOM     97  C   UNL     1      -0.213  19.775 -13.690  1.00  0.00     0.198 A 
ATOM     98  C   UNL     1      -2.573  19.437 -13.417  1.00  0.00     0.198 A 
ATOM     99  F   UNL     1      -3.366  17.582 -12.207  1.00  0.00    -0.203 F 
ATOM    100  F   UNL     1       0.809  20.512 -14.148  1.00  0.00    -0.200 F 
ATOM    101  C   UNL     1      -1.518  20.186 -13.915  1.00  0.00     0.200 A 
ATOM    102  F   UNL     1      -3.836  19.824 -13.647  1.00  0.00    -0.200 F 
ATOM    103  F   UNL     1      -1.759  21.307 -14.609  1.00  0.00    -0.200 F 
ENDBRANCH  70  93
ENDBRANCH  44  45
ENDBRANCH  37  39
ENDBRANCH  36  37
ENDBRANCH  35  36
ENDBRANCH  34  35
ENDBRANCH  33  34
ENDBRANCH  32  33
ENDBRANCH   1  32
TORSDOF 22
