REMARK SMILES O=C(OCCOCCOCCOC(=O)c1cc(/C=C/c2cc(O)cc(O)c2)ccc1O)c1ccc(-c2c3nc(c(-c4c(F)c(F)c(F)c(F)c4F)c4ccc([nH]4)c(-c4c(F)c(F)c(F)c(F)c4F)c4nc(c(-c5c(F)c(F)c(F)c(F)c5F)c5ccc2[nH]5)C=C4)C=C3)cc1
REMARK SMILES IDX 8 1 7 2 6 3 5 4 4 5 3 6 2 7 1 8 32 9 33 10 94 11 34 12 93 13
REMARK SMILES IDX 35 14 36 15 37 16 87 17 38 18 92 19 86 20 88 21 39 22 91 23
REMARK SMILES IDX 85 24 84 25 40 27 72 28 52 29 71 30 53 31 56 32 70 33 89 34
REMARK SMILES IDX 54 35 55 36 69 38 90 39 57 40 41 41 42 42 50 43 43 44 44 45
REMARK SMILES IDX 48 46 51 47 45 48 46 49 49 50 47 51 73 52 74 53 82 54 75 55
REMARK SMILES IDX 76 56 80 57 83 58 77 59 78 60 81 61 79 62 58 63 59 64 67 65
REMARK SMILES IDX 60 66 61 67 65 68 68 69 62 70 63 71 66 72 64 73 9 74 10 75
REMARK SMILES IDX 11 76 12 77 13 78 14 79 15 80 16 81 30 82 17 83 29 84 28 85
REMARK SMILES IDX 31 86 18 88 19 89 20 90 21 91 27 92 22 93 25 94 24 95 23 96
REMARK SMILES IDX 26 98
REMARK H PARENT 88 26 56 37 31 87 23 97 26 99
REMARK Flexibility Score: inf
ROOT
ATOM      1  C   UNL     1       1.881  -3.181   0.753  1.00  0.00     0.188 C 
ENDROOT
BRANCH   1   2
ATOM      2  C   UNL     1       2.381  -1.819   1.239  1.00  0.00     0.188 C 
BRANCH   2   3
ATOM      3  O   UNL     1       3.641  -1.497   0.633  1.00  0.00    -0.376 OA
BRANCH   3   4
ATOM      4  C   UNL     1       4.496  -0.717   1.473  1.00  0.00     0.202 C 
BRANCH   4   5
ATOM      5  C   UNL     1       4.335   0.795   1.280  1.00  0.00     0.261 C 
BRANCH   5   6
ATOM      6  O   UNL     1       2.968   1.160   1.026  1.00  0.00    -0.460 OA
BRANCH   6   7
ATOM      7  C   UNL     1       2.360   1.329  -0.174  1.00  0.00     0.338 C 
ATOM      8  O   UNL     1       1.167   1.635  -0.196  1.00  0.00    -0.246 OA
BRANCH   7   9
ATOM      9  C   UNL     1       3.067   1.235  -1.489  1.00  0.00     0.060 A 
ATOM     10  C   UNL     1       4.185   0.445  -1.758  1.00  0.00     0.016 A 
ATOM     11  C   UNL     1       2.514   1.971  -2.551  1.00  0.00     0.016 A 
ATOM     12  C   UNL     1       4.814   0.484  -3.001  1.00  0.00     0.010 A 
ATOM     13  C   UNL     1       3.091   1.954  -3.824  1.00  0.00     0.010 A 
ATOM     14  C   UNL     1       4.277   1.247  -4.038  1.00  0.00    -0.014 A 
BRANCH  14  15
ATOM     15  C   UNL     1       5.030   1.383  -5.301  1.00  0.00     0.031 A 
ATOM     16  C   UNL     1       5.712   2.683  -5.600  1.00  0.00     0.074 A 
ATOM     17  C   UNL     1       5.177   0.330  -6.123  1.00  0.00     0.049 A 
ATOM     18  N   UNL     1       6.397   3.037  -6.655  1.00  0.00    -0.248 NA
ATOM     19  C   UNL     1       5.631   3.719  -4.557  1.00  0.00     0.031 C 
ATOM     20  C   UNL     1       4.654  -1.009  -5.868  1.00  0.00     0.029 A 
ATOM     21  N   UNL     1       5.822   0.215  -7.328  1.00  0.00    -0.354 N 
ATOM     22  C   UNL     1       6.825   4.332  -6.405  1.00  0.00     0.074 A 
ATOM     23  C   UNL     1       6.299   4.716  -5.114  1.00  0.00     0.031 C 
ATOM     24  C   UNL     1       4.995  -1.811  -6.888  1.00  0.00     0.029 A 
ATOM     25  C   UNL     1       5.694  -1.027  -7.896  1.00  0.00     0.049 A 
ATOM     26  H   UNL     1       6.326   0.952  -7.744  1.00  0.00     0.167 HD
ATOM     27  C   UNL     1       7.599   5.124  -7.183  1.00  0.00     0.037 A 
ATOM     28  C   UNL     1       6.064  -1.473  -9.110  1.00  0.00     0.037 A 
ATOM     29  C   UNL     1       8.109   4.730  -8.467  1.00  0.00     0.049 A 
ATOM     30  C   UNL     1       6.813  -0.537 -10.014  1.00  0.00     0.074 A 
ATOM     31  C   UNL     1       8.875   5.459  -9.357  1.00  0.00     0.029 A 
ATOM     32  N   UNL     1       7.892   3.486  -9.046  1.00  0.00    -0.354 N 
ATOM     33  N   UNL     1       7.192   0.697  -9.785  1.00  0.00    -0.248 NA
ATOM     34  C   UNL     1       7.193  -1.050 -11.335  1.00  0.00     0.031 C 
ATOM     35  C   UNL     1       9.089   4.669 -10.493  1.00  0.00     0.029 A 
ATOM     36  C   UNL     1       8.489   3.434 -10.294  1.00  0.00     0.049 A 
ATOM     37  H   UNL     1       7.389   2.749  -8.630  1.00  0.00     0.167 HD
ATOM     38  C   UNL     1       7.873   1.104 -10.920  1.00  0.00     0.074 A 
ATOM     39  C   UNL     1       7.862  -0.021 -11.836  1.00  0.00     0.031 C 
ATOM     40  C   UNL     1       8.459   2.298 -11.181  1.00  0.00     0.037 A 
BRANCH  27  41
ATOM     41  C   UNL     1       7.882   6.502  -6.667  1.00  0.00     0.064 A 
ATOM     42  C   UNL     1       8.763   6.722  -5.598  1.00  0.00     0.173 A 
ATOM     43  C   UNL     1       7.223   7.610  -7.216  1.00  0.00     0.173 A 
ATOM     44  F   UNL     1       9.395   5.689  -5.019  1.00  0.00    -0.203 F 
ATOM     45  C   UNL     1       8.945   8.000  -5.073  1.00  0.00     0.198 A 
ATOM     46  C   UNL     1       7.425   8.889  -6.705  1.00  0.00     0.198 A 
ATOM     47  F   UNL     1       6.365   7.450  -8.235  1.00  0.00    -0.203 F 
ATOM     48  F   UNL     1       9.741   8.178  -4.010  1.00  0.00    -0.200 F 
ATOM     49  C   UNL     1       8.277   9.081  -5.628  1.00  0.00     0.200 A 
ATOM     50  F   UNL     1       6.778   9.934  -7.241  1.00  0.00    -0.200 F 
ATOM     51  F   UNL     1       8.440  10.307  -5.111  1.00  0.00    -0.200 F 
ENDBRANCH  27  41
BRANCH  28  52
ATOM     52  C   UNL     1       5.685  -2.844  -9.539  1.00  0.00     0.064 A 
ATOM     53  C   UNL     1       6.642  -3.852  -9.711  1.00  0.00     0.173 A 
ATOM     54  C   UNL     1       4.338  -3.181  -9.756  1.00  0.00     0.173 A 
ATOM     55  F   UNL     1       7.941  -3.579  -9.526  1.00  0.00    -0.203 F 
ATOM     56  C   UNL     1       6.269  -5.141 -10.091  1.00  0.00     0.198 A 
ATOM     57  C   UNL     1       3.965  -4.475 -10.111  1.00  0.00     0.198 A 
ATOM     58  F   UNL     1       3.378  -2.259  -9.591  1.00  0.00    -0.203 F 
ATOM     59  F   UNL     1       7.206  -6.082 -10.270  1.00  0.00    -0.200 F 
ATOM     60  C   UNL     1       4.931  -5.453 -10.283  1.00  0.00     0.200 A 
ATOM     61  F   UNL     1       2.669  -4.777 -10.263  1.00  0.00    -0.200 F 
ATOM     62  F   UNL     1       4.572  -6.697 -10.626  1.00  0.00    -0.200 F 
ENDBRANCH  28  52
BRANCH  40  63
ATOM     63  C   UNL     1       9.152   2.435 -12.500  1.00  0.00     0.064 A 
ATOM     64  C   UNL     1       8.430   2.605 -13.689  1.00  0.00     0.173 A 
ATOM     65  C   UNL     1      10.553   2.437 -12.567  1.00  0.00     0.173 A 
ATOM     66  F   UNL     1       7.089   2.588 -13.673  1.00  0.00    -0.203 F 
ATOM     67  C   UNL     1       9.089   2.759 -14.905  1.00  0.00     0.198 A 
ATOM     68  C   UNL     1      11.207   2.614 -13.781  1.00  0.00     0.198 A 
ATOM     69  F   UNL     1      11.283   2.278 -11.453  1.00  0.00    -0.203 F 
ATOM     70  F   UNL     1       8.382   2.883 -16.036  1.00  0.00    -0.200 F 
ATOM     71  C   UNL     1      10.476   2.771 -14.949  1.00  0.00     0.200 A 
ATOM     72  F   UNL     1      12.547   2.633 -13.821  1.00  0.00    -0.200 F 
ATOM     73  F   UNL     1      11.108   2.926 -16.120  1.00  0.00    -0.200 F 
ENDBRANCH  40  63
ENDBRANCH  14  15
ENDBRANCH   7   9
ENDBRANCH   6   7
ENDBRANCH   5   6
ENDBRANCH   4   5
ENDBRANCH   3   4
ENDBRANCH   2   3
ENDBRANCH   1   2
BRANCH   1  74
ATOM     74  O   UNL     1       2.595  -4.302   1.276  1.00  0.00    -0.376 OA
BRANCH  74  75
ATOM     75  C   UNL     1       3.963  -4.432   0.895  1.00  0.00     0.202 C 
BRANCH  75  76
ATOM     76  C   UNL     1       4.234  -4.954  -0.520  1.00  0.00     0.261 C 
BRANCH  76  77
ATOM     77  O   UNL     1       3.721  -4.131  -1.583  1.00  0.00    -0.460 OA
BRANCH  77  78
ATOM     78  C   UNL     1       2.669  -4.670  -2.244  1.00  0.00     0.342 C 
ATOM     79  O   UNL     1       2.021  -5.664  -1.927  1.00  0.00    -0.246 OA
BRANCH  78  80
ATOM     80  C   UNL     1       2.369  -3.916  -3.465  1.00  0.00     0.102 A 
ATOM     81  C   UNL     1       1.464  -2.842  -3.427  1.00  0.00     0.027 A 
ATOM     82  C   UNL     1       2.826  -4.418  -4.686  1.00  0.00     0.130 A 
ATOM     83  C   UNL     1       1.010  -2.263  -4.621  1.00  0.00    -0.025 A 
ATOM     84  C   UNL     1       2.362  -3.872  -5.875  1.00  0.00     0.048 A 
ATOM     85  C   UNL     1       1.467  -2.799  -5.839  1.00  0.00     0.012 A 
BRANCH  82  86
ATOM     86  O   UNL     1       3.724  -5.446  -4.712  1.00  0.00    -0.507 OA
ATOM     87  H   UNL     1       4.038  -5.815  -3.909  1.00  0.00     0.293 HD
ENDBRANCH  82  86
BRANCH  83  88
ATOM     88  C   UNL     1       0.017  -1.175  -4.699  1.00  0.00     0.009 C 
ATOM     89  C   UNL     1      -0.501  -0.455  -3.691  1.00  0.00     0.009 C 
BRANCH  89  90
ATOM     90  C   UNL     1      -1.523   0.586  -3.920  1.00  0.00    -0.018 A 
ATOM     91  C   UNL     1      -2.583   0.394  -4.822  1.00  0.00     0.054 A 
ATOM     92  C   UNL     1      -1.463   1.781  -3.191  1.00  0.00     0.054 A 
ATOM     93  C   UNL     1      -3.525   1.403  -5.021  1.00  0.00     0.119 A 
ATOM     94  C   UNL     1      -2.412   2.781  -3.413  1.00  0.00     0.119 A 
ATOM     95  C   UNL     1      -3.438   2.604  -4.331  1.00  0.00     0.092 A 
BRANCH  93  96
ATOM     96  O   UNL     1      -4.561   1.243  -5.895  1.00  0.00    -0.508 OA
ATOM     97  H   UNL     1      -4.648   0.445  -6.377  1.00  0.00     0.293 HD
ENDBRANCH  93  96
BRANCH  94  98
ATOM     98  O   UNL     1      -2.362   3.965  -2.735  1.00  0.00    -0.508 OA
ATOM     99  H   UNL     1      -3.008   4.624  -2.897  1.00  0.00     0.293 HD
ENDBRANCH  94  98
ENDBRANCH  89  90
ENDBRANCH  83  88
ENDBRANCH  78  80
ENDBRANCH  77  78
ENDBRANCH  76  77
ENDBRANCH  75  76
ENDBRANCH  74  75
ENDBRANCH   1  74
TORSDOF 22
