REMARK SMILES CC(=O)Oc1cc(CCC(=O)OCCOCCOCCOC(=O)c2ccc(-c3c4nc(c(-c5c(F)c(F)c(F)c(F)c5F)c5ccc([nH]5)c(-c5c(F)c(F)c(F)c(F)c5F)c5nc(c(-c6c(F)c(F)c(F)c(F)c6F)c6ccc3[nH]6)C=C5)C=C4)cc2)c(OC(C)=O)c2c1C(=O)c1ccccc1C2=O
REMARK SMILES IDX 16 1 15 2 14 3 13 4 12 5 10 6 11 7 9 8 8 9 7 10 5 11 6 12
REMARK SMILES IDX 93 13 92 14 94 15 87 16 102 17 95 18 96 19 101 20 103 21
REMARK SMILES IDX 97 22 100 23 98 24 99 25 4 26 2 27 1 28 3 29 88 30 89 31
REMARK SMILES IDX 90 32 91 33 17 34 18 35 19 36 20 37 21 38 22 39 23 40 24 41
REMARK SMILES IDX 25 42 86 43 26 44 85 45 27 46 28 47 29 48 79 49 30 50 84 51
REMARK SMILES IDX 78 52 80 53 31 54 83 55 77 56 76 57 32 59 64 60 44 61 63 62
REMARK SMILES IDX 45 63 48 64 62 65 81 66 46 67 47 68 61 70 82 71 49 72 33 73
REMARK SMILES IDX 34 74 42 75 35 76 36 77 40 78 43 79 37 80 38 81 41 82 39 83
REMARK SMILES IDX 65 84 66 85 74 86 67 87 68 88 72 89 75 90 69 91 70 92 73 93
REMARK SMILES IDX 71 94 50 95 51 96 59 97 52 98 53 99 57 100 60 101 54 102
REMARK SMILES IDX 55 103 58 104 56 105
REMARK H PARENT 80 58 48 69
REMARK Flexibility Score: inf
ROOT
ATOM      1  C   UNL     1      -1.641  10.014   3.811  1.00  0.00     0.188 C 
ENDROOT
BRANCH   1   2
ATOM      2  O   UNL     1      -1.043   9.881   2.523  1.00  0.00    -0.376 OA
BRANCH   2   3
ATOM      3  C   UNL     1      -1.719   8.957   1.675  1.00  0.00     0.202 C 
BRANCH   3   4
ATOM      4  C   UNL     1      -0.949   8.671   0.366  1.00  0.00     0.261 C 
BRANCH   4   5
ATOM      5  O   UNL     1       0.058   7.621   0.493  1.00  0.00    -0.463 OA
BRANCH   5   6
ATOM      6  C   UNL     1       1.314   7.903   0.068  1.00  0.00     0.306 C 
ATOM      7  O   UNL     1       1.599   8.901  -0.593  1.00  0.00    -0.252 OA
BRANCH   6   8
ATOM      8  C   UNL     1       2.376   6.822   0.319  1.00  0.00     0.127 C 
BRANCH   8   9
ATOM      9  C   UNL     1       2.538   5.869   1.522  1.00  0.00     0.051 C 
BRANCH   9  10
ATOM     10  C   UNL     1       1.402   4.961   1.927  1.00  0.00    -0.000 A 
ATOM     11  C   UNL     1       0.499   2.715   1.819  1.00  0.00     0.143 A 
ATOM     12  C   UNL     1       1.589   3.583   1.799  1.00  0.00     0.055 A 
ATOM     13  C   UNL     1      -0.809   3.192   1.954  1.00  0.00     0.080 A 
ATOM     14  C   UNL     1      -1.009   4.564   2.175  1.00  0.00     0.081 A 
ATOM     15  C   UNL     1      -1.949   2.252   1.789  1.00  0.00     0.198 C 
ATOM     16  C   UNL     1       0.140   5.410   2.336  1.00  0.00     0.146 A 
ATOM     17  C   UNL     1      -2.415   5.057   1.994  1.00  0.00     0.198 C 
ATOM     18  O   UNL     1      -1.807   1.039   1.895  1.00  0.00    -0.288 OA
ATOM     19  C   UNL     1      -3.276   2.783   1.464  1.00  0.00     0.034 A 
ATOM     20  C   UNL     1      -3.498   4.146   1.547  1.00  0.00     0.034 A 
ATOM     21  O   UNL     1      -2.735   6.228   2.111  1.00  0.00    -0.288 OA
ATOM     22  C   UNL     1      -4.304   1.917   1.052  1.00  0.00     0.013 A 
ATOM     23  C   UNL     1      -4.764   4.654   1.196  1.00  0.00     0.013 A 
ATOM     24  C   UNL     1      -5.559   2.425   0.711  1.00  0.00     0.001 A 
ATOM     25  C   UNL     1      -5.789   3.796   0.780  1.00  0.00     0.001 A 
BRANCH  11  26
ATOM     26  O   UNL     1       0.787   1.376   1.552  1.00  0.00    -0.426 OA
BRANCH  26  27
ATOM     27  C   UNL     1       0.663   1.118   0.192  1.00  0.00     0.308 C 
ATOM     28  C   UNL     1       1.057  -0.299  -0.079  1.00  0.00     0.139 C 
ATOM     29  O   UNL     1       0.355   1.926  -0.677  1.00  0.00    -0.252 OA
ENDBRANCH  26  27
ENDBRANCH  11  26
BRANCH  16  30
ATOM     30  O   UNL     1       0.041   6.731   2.896  1.00  0.00    -0.426 OA
BRANCH  30  31
ATOM     31  C   UNL     1       1.085   7.613   3.258  1.00  0.00     0.308 C 
ATOM     32  C   UNL     1       1.911   7.251   4.450  1.00  0.00     0.139 C 
ATOM     33  O   UNL     1       1.330   8.667   2.675  1.00  0.00    -0.252 OA
ENDBRANCH  30  31
ENDBRANCH  16  30
ENDBRANCH   9  10
ENDBRANCH   8   9
ENDBRANCH   6   8
ENDBRANCH   5   6
ENDBRANCH   4   5
ENDBRANCH   3   4
ENDBRANCH   2   3
ENDBRANCH   1   2
BRANCH   1  34
ATOM     34  C   UNL     1      -1.327   8.936   4.854  1.00  0.00     0.188 C 
BRANCH  34  35
ATOM     35  O   UNL     1      -1.872   7.624   4.763  1.00  0.00    -0.376 OA
BRANCH  35  36
ATOM     36  C   UNL     1      -3.234   7.456   5.146  1.00  0.00     0.202 C 
BRANCH  36  37
ATOM     37  C   UNL     1      -3.559   7.532   6.659  1.00  0.00     0.261 C 
BRANCH  37  38
ATOM     38  O   UNL     1      -2.719   8.423   7.408  1.00  0.00    -0.460 OA
BRANCH  38  39
ATOM     39  C   UNL     1      -1.547   7.878   7.843  1.00  0.00     0.338 C 
ATOM     40  O   UNL     1      -1.264   6.700   7.881  1.00  0.00    -0.246 OA
BRANCH  39  41
ATOM     41  C   UNL     1      -0.554   8.971   8.080  1.00  0.00     0.060 A 
ATOM     42  C   UNL     1       0.791   8.702   7.792  1.00  0.00     0.016 A 
ATOM     43  C   UNL     1      -0.923  10.252   8.503  1.00  0.00     0.016 A 
ATOM     44  C   UNL     1       1.773   9.683   7.975  1.00  0.00     0.010 A 
ATOM     45  C   UNL     1       0.060  11.233   8.702  1.00  0.00     0.010 A 
ATOM     46  C   UNL     1       1.421  10.936   8.491  1.00  0.00    -0.014 A 
BRANCH  46  47
ATOM     47  C   UNL     1       2.466  11.786   9.127  1.00  0.00     0.031 A 
ATOM     48  C   UNL     1       2.660  11.632  10.614  1.00  0.00     0.074 A 
ATOM     49  C   UNL     1       3.243  12.648   8.447  1.00  0.00     0.049 A 
ATOM     50  N   UNL     1       3.451  12.276  11.434  1.00  0.00    -0.248 NA
ATOM     51  C   UNL     1       1.829  10.606  11.265  1.00  0.00     0.031 C 
ATOM     52  C   UNL     1       3.208  12.873   7.006  1.00  0.00     0.029 A 
ATOM     53  N   UNL     1       4.215  13.511   8.901  1.00  0.00    -0.354 N 
ATOM     54  C   UNL     1       3.199  11.744  12.692  1.00  0.00     0.074 A 
ATOM     55  C   UNL     1       2.155  10.757  12.536  1.00  0.00     0.031 C 
ATOM     56  C   UNL     1       4.105  13.827   6.694  1.00  0.00     0.029 A 
ATOM     57  C   UNL     1       4.756  14.301   7.917  1.00  0.00     0.049 A 
ATOM     58  H   UNL     1       4.496  13.556   9.843  1.00  0.00     0.167 HD
ATOM     59  C   UNL     1       3.787  12.038  13.877  1.00  0.00     0.037 A 
ATOM     60  C   UNL     1       5.655  15.305   7.999  1.00  0.00     0.037 A 
ATOM     61  C   UNL     1       4.816  13.028  14.044  1.00  0.00     0.049 A 
ATOM     62  C   UNL     1       6.252  15.673   9.338  1.00  0.00     0.074 A 
ATOM     63  C   UNL     1       5.480  13.394  15.201  1.00  0.00     0.029 A 
ATOM     64  N   UNL     1       5.319  13.823  13.024  1.00  0.00    -0.354 N 
ATOM     65  N   UNL     1       6.027  15.153  10.521  1.00  0.00    -0.248 NA
ATOM     66  C   UNL     1       7.238  16.765   9.348  1.00  0.00     0.031 C 
ATOM     67  C   UNL     1       6.336  14.458  14.894  1.00  0.00     0.029 A 
ATOM     68  C   UNL     1       6.265  14.700  13.531  1.00  0.00     0.049 A 
ATOM     69  H   UNL     1       5.044  13.772  12.080  1.00  0.00     0.167 HD
ATOM     70  C   UNL     1       6.863  15.827  11.406  1.00  0.00     0.074 A 
ATOM     71  C   UNL     1       7.606  16.791  10.622  1.00  0.00     0.031 C 
ATOM     72  C   UNL     1       7.007  15.655  12.745  1.00  0.00     0.037 A 
BRANCH  59  73
ATOM     73  C   UNL     1       3.275  11.309  15.087  1.00  0.00     0.064 A 
ATOM     74  C   UNL     1       3.453   9.926  15.255  1.00  0.00     0.173 A 
ATOM     75  C   UNL     1       2.559  12.000  16.076  1.00  0.00     0.173 A 
ATOM     76  F   UNL     1       4.112   9.212  14.329  1.00  0.00    -0.203 F 
ATOM     77  C   UNL     1       2.885   9.256  16.335  1.00  0.00     0.198 A 
ATOM     78  C   UNL     1       2.029  11.333  17.177  1.00  0.00     0.198 A 
ATOM     79  F   UNL     1       2.361  13.322  15.969  1.00  0.00    -0.203 F 
ATOM     80  F   UNL     1       2.994   7.923  16.427  1.00  0.00    -0.200 F 
ATOM     81  C   UNL     1       2.178   9.960  17.297  1.00  0.00     0.200 A 
ATOM     82  F   UNL     1       1.357  12.018  18.113  1.00  0.00    -0.200 F 
ATOM     83  F   UNL     1       1.623   9.313  18.331  1.00  0.00    -0.200 F 
ENDBRANCH  59  73
BRANCH  60  84
ATOM     84  C   UNL     1       6.044  16.048   6.769  1.00  0.00     0.064 A 
ATOM     85  C   UNL     1       7.332  15.941   6.226  1.00  0.00     0.173 A 
ATOM     86  C   UNL     1       5.132  16.891   6.114  1.00  0.00     0.173 A 
ATOM     87  F   UNL     1       8.254  15.180   6.835  1.00  0.00    -0.203 F 
ATOM     88  C   UNL     1       7.694  16.649   5.080  1.00  0.00     0.198 A 
ATOM     89  C   UNL     1       5.485  17.575   4.953  1.00  0.00     0.198 A 
ATOM     90  F   UNL     1       3.891  17.042   6.601  1.00  0.00    -0.203 F 
ATOM     91  F   UNL     1       8.945  16.561   4.608  1.00  0.00    -0.200 F 
ATOM     92  C   UNL     1       6.767  17.457   4.439  1.00  0.00     0.200 A 
ATOM     93  F   UNL     1       4.585  18.352   4.335  1.00  0.00    -0.200 F 
ATOM     94  F   UNL     1       7.113  18.130   3.333  1.00  0.00    -0.200 F 
ENDBRANCH  60  84
BRANCH  72  95
ATOM     95  C   UNL     1       8.046  16.483  13.452  1.00  0.00     0.064 A 
ATOM     96  C   UNL     1       7.904  17.867  13.634  1.00  0.00     0.173 A 
ATOM     97  C   UNL     1       9.184  15.867  14.000  1.00  0.00     0.173 A 
ATOM     98  F   UNL     1       6.841  18.509  13.127  1.00  0.00    -0.203 F 
ATOM     99  C   UNL     1       8.876  18.606  14.306  1.00  0.00     0.198 A 
ATOM    100  C   UNL     1      10.134  16.603  14.703  1.00  0.00     0.198 A 
ATOM    101  F   UNL     1       9.367  14.545  13.869  1.00  0.00    -0.203 F 
ATOM    102  F   UNL     1       8.744  19.935  14.419  1.00  0.00    -0.200 F 
ATOM    103  C   UNL     1       9.985  17.974  14.846  1.00  0.00     0.200 A 
ATOM    104  F   UNL     1      11.195  15.985  15.241  1.00  0.00    -0.200 F 
ATOM    105  F   UNL     1      10.914  18.685  15.499  1.00  0.00    -0.200 F 
ENDBRANCH  72  95
ENDBRANCH  46  47
ENDBRANCH  39  41
ENDBRANCH  38  39
ENDBRANCH  37  38
ENDBRANCH  36  37
ENDBRANCH  35  36
ENDBRANCH  34  35
ENDBRANCH   1  34
TORSDOF 23
