REMARK SMILES CCCN(CCC)c1cc(C(=O)OCCOCCOCCOC(=O)c2ccc(-c3c4nc(c(-c5c(F)c(F)c(F)c(F)c5F)c5ccc([nH]5)c(-c5c(F)c(F)c(F)c(F)c5F)c5nc(c(-c6c(F)c(F)c(F)c(F)c6F)c6ccc3[nH]6)C=C5)C=C4)cc2)cc(C(F)(F)F)c1
REMARK SMILES IDX 17 1 16 2 15 3 14 4 13 5 11 6 12 7 10 8 8 9 9 10 94 11 89 12
REMARK SMILES IDX 88 13 4 14 3 15 2 16 1 17 5 18 6 19 7 20 90 21 91 22 92 23
REMARK SMILES IDX 93 24 18 25 19 26 20 27 21 28 22 29 23 30 24 31 25 32 26 33
REMARK SMILES IDX 87 34 27 35 86 36 28 37 29 38 30 39 80 40 31 41 85 42 79 43
REMARK SMILES IDX 81 44 32 45 84 46 78 47 77 48 33 50 65 51 45 52 64 53 46 54
REMARK SMILES IDX 49 55 63 56 82 57 47 58 48 59 62 61 83 62 50 63 34 64 35 65
REMARK SMILES IDX 43 66 36 67 37 68 41 69 44 70 38 71 39 72 42 73 40 74 66 75
REMARK SMILES IDX 67 76 75 77 68 78 69 79 73 80 76 81 70 82 71 83 74 84 72 85
REMARK SMILES IDX 51 86 52 87 60 88 53 89 54 90 58 91 61 92 55 93 56 94 59 95
REMARK SMILES IDX 57 96
REMARK H PARENT 81 49 49 60
REMARK Flexibility Score: inf
ROOT
ATOM      1  C   UNL     1      -0.541  -6.046  -3.684  1.00  0.00     0.188 C 
ENDROOT
BRANCH   1   2
ATOM      2  O   UNL     1      -0.408  -7.412  -4.026  1.00  0.00    -0.376 OA
BRANCH   2   3
ATOM      3  C   UNL     1       0.348  -8.278  -3.187  1.00  0.00     0.202 C 
BRANCH   3   4
ATOM      4  C   UNL     1       1.693  -7.826  -2.610  1.00  0.00     0.261 C 
BRANCH   4   5
ATOM      5  O   UNL     1       1.571  -6.678  -1.756  1.00  0.00    -0.460 OA
BRANCH   5   6
ATOM      6  C   UNL     1       2.484  -5.690  -1.981  1.00  0.00     0.338 C 
ATOM      7  O   UNL     1       3.396  -5.706  -2.770  1.00  0.00    -0.246 OA
BRANCH   6   8
ATOM      8  C   UNL     1       2.048  -4.473  -1.254  1.00  0.00     0.062 A 
ATOM      9  C   UNL     1       1.429  -2.122  -1.466  1.00  0.00     0.038 A 
ATOM     10  C   UNL     1       2.034  -3.271  -1.972  1.00  0.00     0.041 A 
ATOM     11  C   UNL     1       0.986  -2.175  -0.144  1.00  0.00     0.039 A 
ATOM     12  C   UNL     1       1.073  -3.343   0.637  1.00  0.00     0.058 A 
ATOM     13  C   UNL     1       1.569  -4.515   0.054  1.00  0.00     0.029 A 
BRANCH   9  14
ATOM     14  N   UNL     1       1.209  -1.018  -2.268  1.00  0.00    -0.372 N 
BRANCH  14  15
ATOM     15  C   UNL     1       1.724   0.307  -1.906  1.00  0.00     0.116 C 
BRANCH  15  16
ATOM     16  C   UNL     1       0.680   1.247  -1.283  1.00  0.00     0.018 C 
ATOM     17  C   UNL     1       0.689   1.297   0.241  1.00  0.00     0.006 C 
ENDBRANCH  15  16
ENDBRANCH  14  15
BRANCH  14  18
ATOM     18  C   UNL     1       0.298  -1.147  -3.415  1.00  0.00     0.116 C 
BRANCH  18  19
ATOM     19  C   UNL     1       1.009  -1.409  -4.748  1.00  0.00     0.018 C 
ATOM     20  C   UNL     1       0.915  -2.851  -5.230  1.00  0.00     0.006 C 
ENDBRANCH  18  19
ENDBRANCH  14  18
ENDBRANCH   9  14
BRANCH  12  21
ATOM     21  C   UNL     1       0.596  -3.341   2.067  1.00  0.00     0.416 C 
ATOM     22  F   UNL     1      -0.516  -4.102   2.248  1.00  0.00    -0.166 F 
ATOM     23  F   UNL     1       1.534  -3.833   2.924  1.00  0.00    -0.166 F 
ATOM     24  F   UNL     1       0.283  -2.100   2.534  1.00  0.00    -0.166 F 
ENDBRANCH  12  21
ENDBRANCH   6   8
ENDBRANCH   5   6
ENDBRANCH   4   5
ENDBRANCH   3   4
ENDBRANCH   2   3
ENDBRANCH   1   2
BRANCH   1  25
ATOM     25  C   UNL     1      -1.314  -5.627  -2.417  1.00  0.00     0.188 C 
BRANCH  25  26
ATOM     26  O   UNL     1      -1.849  -6.581  -1.525  1.00  0.00    -0.376 OA
BRANCH  26  27
ATOM     27  C   UNL     1      -2.765  -7.563  -1.981  1.00  0.00     0.202 C 
BRANCH  27  28
ATOM     28  C   UNL     1      -3.946  -7.226  -2.897  1.00  0.00     0.261 C 
BRANCH  28  29
ATOM     29  O   UNL     1      -3.647  -6.344  -3.983  1.00  0.00    -0.460 OA
BRANCH  29  30
ATOM     30  C   UNL     1      -4.264  -5.139  -3.914  1.00  0.00     0.338 C 
ATOM     31  O   UNL     1      -5.011  -4.730  -3.043  1.00  0.00    -0.246 OA
BRANCH  30  32
ATOM     32  C   UNL     1      -3.775  -4.281  -5.005  1.00  0.00     0.060 A 
ATOM     33  C   UNL     1      -3.202  -3.050  -4.667  1.00  0.00     0.016 A 
ATOM     34  C   UNL     1      -3.937  -4.651  -6.342  1.00  0.00     0.016 A 
ATOM     35  C   UNL     1      -2.799  -2.173  -5.672  1.00  0.00     0.010 A 
ATOM     36  C   UNL     1      -3.554  -3.761  -7.348  1.00  0.00     0.010 A 
ATOM     37  C   UNL     1      -2.999  -2.513  -7.018  1.00  0.00    -0.014 A 
BRANCH  37  38
ATOM     38  C   UNL     1      -2.768  -1.499  -8.072  1.00  0.00     0.031 A 
ATOM     39  C   UNL     1      -3.873  -0.543  -8.405  1.00  0.00     0.074 A 
ATOM     40  C   UNL     1      -1.591  -1.423  -8.716  1.00  0.00     0.049 A 
ATOM     41  N   UNL     1      -3.916   0.385  -9.325  1.00  0.00    -0.248 NA
ATOM     42  C   UNL     1      -5.098  -0.654  -7.597  1.00  0.00     0.031 C 
ATOM     43  C   UNL     1      -0.443  -2.283  -8.460  1.00  0.00     0.029 A 
ATOM     44  N   UNL     1      -1.167  -0.584  -9.716  1.00  0.00    -0.354 N 
ATOM     45  C   UNL     1      -5.173   0.959  -9.217  1.00  0.00     0.074 A 
ATOM     46  C   UNL     1      -5.864   0.277  -8.143  1.00  0.00     0.031 C 
ATOM     47  C   UNL     1       0.572  -1.909  -9.256  1.00  0.00     0.029 A 
ATOM     48  C   UNL     1       0.118  -0.832 -10.133  1.00  0.00     0.049 A 
ATOM     49  H   UNL     1      -1.730   0.128 -10.097  1.00  0.00     0.167 HD
ATOM     50  C   UNL     1      -5.708   1.956  -9.960  1.00  0.00     0.037 A 
ATOM     51  C   UNL     1       0.828  -0.278 -11.136  1.00  0.00     0.037 A 
ATOM     52  C   UNL     1      -5.033   2.604 -11.051  1.00  0.00     0.049 A 
ATOM     53  C   UNL     1       0.177   0.776 -11.998  1.00  0.00     0.074 A 
ATOM     54  C   UNL     1      -5.503   3.606 -11.882  1.00  0.00     0.029 A 
ATOM     55  N   UNL     1      -3.747   2.303 -11.473  1.00  0.00    -0.354 N 
ATOM     56  N   UNL     1      -1.012   1.317 -11.890  1.00  0.00    -0.248 NA
ATOM     57  C   UNL     1       0.961   1.279 -13.136  1.00  0.00     0.031 C 
ATOM     58  C   UNL     1      -4.519   3.875 -12.839  1.00  0.00     0.029 A 
ATOM     59  C   UNL     1      -3.414   3.084 -12.568  1.00  0.00     0.049 A 
ATOM     60  H   UNL     1      -3.158   1.633 -11.057  1.00  0.00     0.167 HD
ATOM     61  C   UNL     1      -1.110   2.236 -12.928  1.00  0.00     0.074 A 
ATOM     62  C   UNL     1       0.146   2.192 -13.645  1.00  0.00     0.031 C 
ATOM     63  C   UNL     1      -2.150   3.041 -13.259  1.00  0.00     0.037 A 
BRANCH  50  64
ATOM     64  C   UNL     1      -7.117   2.359  -9.646  1.00  0.00     0.064 A 
ATOM     65  C   UNL     1      -7.437   3.075  -8.484  1.00  0.00     0.173 A 
ATOM     66  C   UNL     1      -8.159   2.027 -10.524  1.00  0.00     0.173 A 
ATOM     67  F   UNL     1      -6.478   3.396  -7.603  1.00  0.00    -0.203 F 
ATOM     68  C   UNL     1      -8.755   3.425  -8.201  1.00  0.00     0.198 A 
ATOM     69  C   UNL     1      -9.471   2.401 -10.252  1.00  0.00     0.198 A 
ATOM     70  F   UNL     1      -7.904   1.339 -11.648  1.00  0.00    -0.203 F 
ATOM     71  F   UNL     1      -9.046   4.066  -7.061  1.00  0.00    -0.200 F 
ATOM     72  C   UNL     1      -9.769   3.093  -9.088  1.00  0.00     0.200 A 
ATOM     73  F   UNL     1     -10.448   2.087 -11.113  1.00  0.00    -0.200 F 
ATOM     74  F   UNL     1     -11.037   3.431  -8.814  1.00  0.00    -0.200 F 
ENDBRANCH  50  64
BRANCH  51  75
ATOM     75  C   UNL     1       2.216  -0.732 -11.420  1.00  0.00     0.064 A 
ATOM     76  C   UNL     1       3.306   0.136 -11.261  1.00  0.00     0.173 A 
ATOM     77  C   UNL     1       2.480  -2.025 -11.895  1.00  0.00     0.173 A 
ATOM     78  F   UNL     1       3.105   1.394 -10.840  1.00  0.00    -0.203 F 
ATOM     79  C   UNL     1       4.601  -0.264 -11.588  1.00  0.00     0.198 A 
ATOM     80  C   UNL     1       3.779  -2.435 -12.190  1.00  0.00     0.198 A 
ATOM     81  F   UNL     1       1.474  -2.893 -12.074  1.00  0.00    -0.203 F 
ATOM     82  F   UNL     1       5.615   0.605 -11.482  1.00  0.00    -0.200 F 
ATOM     83  C   UNL     1       4.837  -1.552 -12.046  1.00  0.00     0.200 A 
ATOM     84  F   UNL     1       4.002  -3.683 -12.624  1.00  0.00    -0.200 F 
ATOM     85  F   UNL     1       6.081  -1.935 -12.362  1.00  0.00    -0.200 F 
ENDBRANCH  51  75
BRANCH  63  86
ATOM     86  C   UNL     1      -1.962   3.978 -14.416  1.00  0.00     0.064 A 
ATOM     87  C   UNL     1      -1.938   3.522 -15.742  1.00  0.00     0.173 A 
ATOM     88  C   UNL     1      -1.866   5.361 -14.195  1.00  0.00     0.173 A 
ATOM     89  F   UNL     1      -2.012   2.209 -16.006  1.00  0.00    -0.203 F 
ATOM     90  C   UNL     1      -1.808   4.415 -16.803  1.00  0.00     0.198 A 
ATOM     91  C   UNL     1      -1.766   6.253 -15.259  1.00  0.00     0.198 A 
ATOM     92  F   UNL     1      -1.890   5.849 -12.946  1.00  0.00    -0.203 F 
ATOM     93  F   UNL     1      -1.748   3.955 -18.060  1.00  0.00    -0.200 F 
ATOM     94  C   UNL     1      -1.731   5.779 -16.562  1.00  0.00     0.200 A 
ATOM     95  F   UNL     1      -1.707   7.571 -15.024  1.00  0.00    -0.200 F 
ATOM     96  F   UNL     1      -1.620   6.637 -17.585  1.00  0.00    -0.200 F 
ENDBRANCH  63  86
ENDBRANCH  37  38
ENDBRANCH  30  32
ENDBRANCH  29  30
ENDBRANCH  28  29
ENDBRANCH  27  28
ENDBRANCH  26  27
ENDBRANCH  25  26
ENDBRANCH   1  25
TORSDOF 23
