REMARK SMILES C[C@@H]1SCCC[C@]1(CC(=O)OCCOCCOCCOC(=O)c1ccc(-c2c3nc(c(-c4c(F)c(F)c(F)c(F)c4F)c4ccc([nH]4)c(-c4c(F)c(F)c(F)c(F)c4F)c4nc(c(-c5c(F)c(F)c(F)c(F)c5F)c5ccc2[nH]5)C=C4)C=C3)cc1)C(C)(C)[NH3+]
REMARK SMILES IDX 15 1 14 2 13 3 12 4 11 5 9 6 10 7 8 8 7 9 1 10 2 11 3 12
REMARK SMILES IDX 4 13 6 14 5 15 86 16 87 17 88 18 89 19 16 23 17 24 18 25
REMARK SMILES IDX 19 26 20 27 21 28 22 29 23 30 24 31 85 32 25 33 84 34 26 35
REMARK SMILES IDX 27 36 28 37 78 38 29 39 83 40 77 41 79 42 30 43 82 44 76 45
REMARK SMILES IDX 75 46 31 48 63 49 43 50 62 51 44 52 47 53 61 54 80 55 45 56
REMARK SMILES IDX 46 57 60 59 81 60 48 61 32 62 33 63 41 64 34 65 35 66 39 67
REMARK SMILES IDX 42 68 36 69 37 70 40 71 38 72 64 73 65 74 73 75 66 76 67 77
REMARK SMILES IDX 71 78 74 79 68 80 69 81 72 82 70 83 49 84 50 85 58 86 51 87
REMARK SMILES IDX 52 88 56 89 59 90 53 91 54 92 57 93 55 94
REMARK H PARENT 89 20 89 21 89 22 79 47 47 58
REMARK Flexibility Score: inf
ROOT
ATOM      1  C   UNL     1       1.486   2.390   5.846  1.00  0.00     0.188 C 
ENDROOT
BRANCH   1   2
ATOM      2  O   UNL     1       2.248   1.555   6.700  1.00  0.00    -0.376 OA
BRANCH   2   3
ATOM      3  C   UNL     1       2.719   0.328   6.141  1.00  0.00     0.202 C 
BRANCH   3   4
ATOM      4  C   UNL     1       1.676  -0.566   5.445  1.00  0.00     0.261 C 
BRANCH   4   5
ATOM      5  O   UNL     1       1.061   0.011   4.259  1.00  0.00    -0.463 OA
BRANCH   5   6
ATOM      6  C   UNL     1      -0.260  -0.296   4.090  1.00  0.00     0.306 C 
ATOM      7  O   UNL     1      -0.894  -1.014   4.861  1.00  0.00    -0.252 OA
BRANCH   6   8
ATOM      8  C   UNL     1      -0.975   0.500   2.989  1.00  0.00     0.137 C 
BRANCH   8   9
ATOM      9  C   UNL     1      -0.702   0.378   1.411  1.00  0.00     0.046 C 
ATOM     10  C   UNL     1       0.990  -0.844  -0.244  1.00  0.00     0.020 C 
ATOM     11  C   UNL     1       0.388  -0.737   1.158  1.00  0.00     0.056 C 
ATOM     12  S   UNL     1      -0.207  -2.428   1.588  1.00  0.00    -0.158 SA
ATOM     13  C   UNL     1      -1.675  -2.494   0.536  1.00  0.00     0.070 C 
ATOM     14  C   UNL     1      -2.060   0.001   0.709  1.00  0.00     0.016 C 
ATOM     15  C   UNL     1      -2.631  -1.392   0.935  1.00  0.00     0.012 C 
BRANCH   9  16
ATOM     16  C   UNL     1      -0.321   1.850   0.816  1.00  0.00     0.096 C 
ATOM     17  C   UNL     1      -0.126   2.007  -0.715  1.00  0.00     0.079 C 
ATOM     18  C   UNL     1      -1.391   2.928   1.158  1.00  0.00     0.079 C 
BRANCH  16  19
ATOM     19  N   UNL     1       0.945   2.262   1.406  1.00  0.00    -0.353 N 
ATOM     20  H   UNL     1       1.662   1.569   1.194  1.00  0.00     0.344 HD
ATOM     21  H   UNL     1       0.839   2.342   2.418  1.00  0.00     0.344 HD
ATOM     22  H   UNL     1       1.222   3.166   1.022  1.00  0.00     0.344 HD
ENDBRANCH  16  19
ENDBRANCH   9  16
ENDBRANCH   8   9
ENDBRANCH   6   8
ENDBRANCH   5   6
ENDBRANCH   4   5
ENDBRANCH   3   4
ENDBRANCH   2   3
ENDBRANCH   1   2
BRANCH   1  23
ATOM     23  C   UNL     1       2.126   2.829   4.521  1.00  0.00     0.188 C 
BRANCH  23  24
ATOM     24  O   UNL     1       3.394   2.250   4.247  1.00  0.00    -0.376 OA
BRANCH  24  25
ATOM     25  C   UNL     1       3.977   2.578   2.990  1.00  0.00     0.202 C 
BRANCH  25  26
ATOM     26  C   UNL     1       4.641   3.959   2.983  1.00  0.00     0.261 C 
BRANCH  26  27
ATOM     27  O   UNL     1       3.723   5.050   3.200  1.00  0.00    -0.460 OA
BRANCH  27  28
ATOM     28  C   UNL     1       2.778   5.227   2.248  1.00  0.00     0.338 C 
ATOM     29  O   UNL     1       2.717   4.684   1.160  1.00  0.00    -0.246 OA
BRANCH  28  30
ATOM     30  C   UNL     1       1.666   6.015   2.825  1.00  0.00     0.060 A 
ATOM     31  C   UNL     1       0.400   5.428   2.817  1.00  0.00     0.016 A 
ATOM     32  C   UNL     1       1.827   7.293   3.349  1.00  0.00     0.016 A 
ATOM     33  C   UNL     1      -0.728   6.130   3.230  1.00  0.00     0.010 A 
ATOM     34  C   UNL     1       0.697   7.994   3.800  1.00  0.00     0.010 A 
ATOM     35  C   UNL     1      -0.595   7.434   3.705  1.00  0.00    -0.014 A 
BRANCH  35  36
ATOM     36  C   UNL     1      -1.810   8.252   3.972  1.00  0.00     0.031 A 
ATOM     37  C   UNL     1      -2.092   9.437   3.088  1.00  0.00     0.074 A 
ATOM     38  C   UNL     1      -2.680   7.931   4.949  1.00  0.00     0.049 A 
ATOM     39  N   UNL     1      -2.974  10.393   3.232  1.00  0.00    -0.248 NA
ATOM     40  C   UNL     1      -1.265   9.562   1.876  1.00  0.00     0.031 C 
ATOM     41  C   UNL     1      -2.592   6.756   5.817  1.00  0.00     0.029 A 
ATOM     42  N   UNL     1      -3.813   8.579   5.383  1.00  0.00    -0.354 N 
ATOM     43  C   UNL     1      -2.768  11.259   2.165  1.00  0.00     0.074 A 
ATOM     44  C   UNL     1      -1.684  10.716   1.378  1.00  0.00     0.031 C 
ATOM     45  C   UNL     1      -3.619   6.774   6.685  1.00  0.00     0.029 A 
ATOM     46  C   UNL     1      -4.393   7.996   6.485  1.00  0.00     0.049 A 
ATOM     47  H   UNL     1      -4.175   9.384   4.946  1.00  0.00     0.167 HD
ATOM     48  C   UNL     1      -3.423  12.408   1.876  1.00  0.00     0.037 A 
ATOM     49  C   UNL     1      -5.397   8.426   7.276  1.00  0.00     0.037 A 
ATOM     50  C   UNL     1      -4.540  12.916   2.629  1.00  0.00     0.049 A 
ATOM     51  C   UNL     1      -6.062   9.746   6.970  1.00  0.00     0.074 A 
ATOM     52  C   UNL     1      -5.287  14.058   2.394  1.00  0.00     0.029 A 
ATOM     53  N   UNL     1      -5.074  12.312   3.756  1.00  0.00    -0.354 N 
ATOM     54  N   UNL     1      -5.845  10.577   5.979  1.00  0.00    -0.248 NA
ATOM     55  C   UNL     1      -7.107  10.195   7.903  1.00  0.00     0.031 C 
ATOM     56  C   UNL     1      -6.235  14.176   3.413  1.00  0.00     0.029 A 
ATOM     57  C   UNL     1      -6.122  13.075   4.245  1.00  0.00     0.049 A 
ATOM     58  H   UNL     1      -4.756  11.468   4.150  1.00  0.00     0.167 HD
ATOM     59  C   UNL     1      -6.743  11.623   6.152  1.00  0.00     0.074 A 
ATOM     60  C   UNL     1      -7.523  11.315   7.331  1.00  0.00     0.031 C 
ATOM     61  C   UNL     1      -6.905  12.743   5.406  1.00  0.00     0.037 A 
BRANCH  48  62
ATOM     62  C   UNL     1      -2.931  13.230   0.722  1.00  0.00     0.064 A 
ATOM     63  C   UNL     1      -3.139  12.850  -0.610  1.00  0.00     0.173 A 
ATOM     64  C   UNL     1      -2.308  14.465   0.965  1.00  0.00     0.173 A 
ATOM     65  F   UNL     1      -3.715  11.672  -0.895  1.00  0.00    -0.203 F 
ATOM     66  C   UNL     1      -2.734  13.673  -1.659  1.00  0.00     0.198 A 
ATOM     67  C   UNL     1      -1.932  15.298  -0.084  1.00  0.00     0.198 A 
ATOM     68  F   UNL     1      -2.087  14.875   2.223  1.00  0.00    -0.203 F 
ATOM     69  F   UNL     1      -2.915  13.278  -2.926  1.00  0.00    -0.200 F 
ATOM     70  C   UNL     1      -2.143  14.900  -1.395  1.00  0.00     0.200 A 
ATOM     71  F   UNL     1      -1.374  16.488   0.174  1.00  0.00    -0.200 F 
ATOM     72  F   UNL     1      -1.775  15.700  -2.405  1.00  0.00    -0.200 F 
ENDBRANCH  48  62
BRANCH  49  73
ATOM     73  C   UNL     1      -5.799   7.651   8.483  1.00  0.00     0.064 A 
ATOM     74  C   UNL     1      -7.088   7.114   8.609  1.00  0.00     0.173 A 
ATOM     75  C   UNL     1      -4.925   7.498   9.572  1.00  0.00     0.173 A 
ATOM     76  F   UNL     1      -7.974   7.260   7.612  1.00  0.00    -0.203 F 
ATOM     77  C   UNL     1      -7.500   6.491   9.786  1.00  0.00     0.198 A 
ATOM     78  C   UNL     1      -5.324   6.840  10.733  1.00  0.00     0.198 A 
ATOM     79  F   UNL     1      -3.683   7.998   9.512  1.00  0.00    -0.203 F 
ATOM     80  F   UNL     1      -8.763   6.059   9.907  1.00  0.00    -0.200 F 
ATOM     81  C   UNL     1      -6.616   6.351  10.846  1.00  0.00     0.200 A 
ATOM     82  F   UNL     1      -4.463   6.698  11.749  1.00  0.00    -0.200 F 
ATOM     83  F   UNL     1      -7.016   5.763  11.982  1.00  0.00    -0.200 F 
ENDBRANCH  49  73
BRANCH  61  84
ATOM     84  C   UNL     1      -8.002  13.690   5.804  1.00  0.00     0.064 A 
ATOM     85  C   UNL     1      -7.920  14.472   6.966  1.00  0.00     0.173 A 
ATOM     86  C   UNL     1      -9.134  13.845   4.988  1.00  0.00     0.173 A 
ATOM     87  F   UNL     1      -6.865  14.354   7.787  1.00  0.00    -0.203 F 
ATOM     88  C   UNL     1      -8.945  15.349   7.312  1.00  0.00     0.198 A 
ATOM     89  C   UNL     1     -10.139  14.749   5.319  1.00  0.00     0.198 A 
ATOM     90  F   UNL     1      -9.258  13.129   3.860  1.00  0.00    -0.203 F 
ATOM     91  F   UNL     1      -8.870  16.046   8.454  1.00  0.00    -0.200 F 
ATOM     92  C   UNL     1     -10.049  15.493   6.484  1.00  0.00     0.200 A 
ATOM     93  F   UNL     1     -11.196  14.899   4.508  1.00  0.00    -0.200 F 
ATOM     94  F   UNL     1     -11.030  16.344   6.815  1.00  0.00    -0.200 F 
ENDBRANCH  61  84
ENDBRANCH  35  36
ENDBRANCH  28  30
ENDBRANCH  27  28
ENDBRANCH  26  27
ENDBRANCH  25  26
ENDBRANCH  24  25
ENDBRANCH  23  24
ENDBRANCH   1  23
TORSDOF 20
