REMARK SMILES COC(=O)c1ccc2oc(=O)c([C@H]3N=c4ccc(C(=O)OCCOCCOCCOC(=O)c5ccc(-c6c7nc(c(-c8c(F)c(F)c(F)c(F)c8F)c8ccc([nH]8)c(-c8c(F)c(F)c(F)c(F)c8F)c8nc(c(-c9c(F)c(F)c(F)c(F)c9F)c9ccc6[nH]9)C=C8)C=C7)cc5)cc4=N3)cc2c1
REMARK SMILES IDX 25 1 24 2 23 3 22 4 21 5 19 6 20 7 18 8 13 9 14 10 98 11
REMARK SMILES IDX 15 12 97 13 16 14 96 15 17 16 12 17 5 18 6 19 101 20 7 21
REMARK SMILES IDX 100 22 8 23 99 24 9 25 10 26 11 27 3 28 4 29 2 30 1 31 26 32
REMARK SMILES IDX 27 33 28 34 29 35 30 36 31 37 32 38 33 39 34 40 95 41 35 42
REMARK SMILES IDX 94 43 36 44 37 45 38 46 88 47 39 48 93 49 87 50 89 51 40 52
REMARK SMILES IDX 92 53 86 54 85 55 41 57 73 58 53 59 72 60 54 61 57 62 71 63
REMARK SMILES IDX 90 64 55 65 56 66 70 68 91 69 58 70 42 71 43 72 51 73 44 74
REMARK SMILES IDX 45 75 49 76 52 77 46 78 47 79 50 80 48 81 74 82 75 83 83 84
REMARK SMILES IDX 76 85 77 86 81 87 84 88 78 89 79 90 82 91 80 92 59 93 60 94
REMARK SMILES IDX 68 95 61 96 62 97 66 98 69 99 63 100 64 101 67 102 65 103
REMARK H PARENT 89 56 57 67
REMARK Flexibility Score: inf
ROOT
ATOM      1  C   UNL     1      -2.004   2.918 -15.386  1.00  0.00     0.188 C 
ENDROOT
BRANCH   1   2
ATOM      2  O   UNL     1      -2.161   3.391 -16.711  1.00  0.00    -0.376 OA
BRANCH   2   3
ATOM      3  C   UNL     1      -1.449   2.790 -17.780  1.00  0.00     0.202 C 
BRANCH   3   4
ATOM      4  C   UNL     1       0.038   2.416 -17.657  1.00  0.00     0.261 C 
BRANCH   4   5
ATOM      5  O   UNL     1       0.419   1.769 -16.434  1.00  0.00    -0.460 OA
BRANCH   5   6
ATOM      6  C   UNL     1       1.213   2.494 -15.604  1.00  0.00     0.338 C 
ATOM      7  O   UNL     1       1.656   3.612 -15.821  1.00  0.00    -0.246 OA
BRANCH   6   8
ATOM      8  C   UNL     1       1.351   1.806 -14.287  1.00  0.00     0.062 A 
ATOM      9  C   UNL     1       1.836   1.471  -9.832  1.00  0.00     0.260 C 
ATOM     10  N   UNL     1       2.016   0.200 -10.584  1.00  0.00    -0.251 NA
ATOM     11  N   UNL     1       1.371   2.564 -10.730  1.00  0.00    -0.251 NA
ATOM     12  C   UNL     1       1.762   0.560 -11.793  1.00  0.00     0.086 A 
ATOM     13  C   UNL     1       1.420   1.996 -11.887  1.00  0.00     0.087 A 
ATOM     14  C   UNL     1       1.773  -0.255 -13.012  1.00  0.00     0.031 A 
ATOM     15  C   UNL     1       1.226   2.602 -13.208  1.00  0.00     0.046 A 
ATOM     16  C   UNL     1       1.569   0.370 -14.182  1.00  0.00     0.018 A 
BRANCH   9  17
ATOM     17  C   UNL     1       0.967   1.266  -8.626  1.00  0.00     0.085 A 
ATOM     18  C   UNL     1       0.355   0.849  -3.812  1.00  0.00     0.060 A 
ATOM     19  C   UNL     1      -0.968   0.432  -4.021  1.00  0.00     0.019 A 
ATOM     20  C   UNL     1       1.161   1.195  -4.910  1.00  0.00     0.027 A 
ATOM     21  C   UNL     1      -1.478   0.349  -5.319  1.00  0.00     0.049 A 
ATOM     22  C   UNL     1       0.654   1.103  -6.210  1.00  0.00     0.019 A 
ATOM     23  C   UNL     1      -0.656   0.681  -6.396  1.00  0.00     0.138 A 
ATOM     24  C   UNL     1       1.460   1.399  -7.381  1.00  0.00     0.027 A 
ATOM     25  O   UNL     1      -1.192   0.570  -7.694  1.00  0.00    -0.422 OA
ATOM     26  C   UNL     1      -0.442   0.851  -8.840  1.00  0.00     0.343 A 
ATOM     27  O   UNL     1      -0.951   0.755  -9.954  1.00  0.00    -0.246 OA
BRANCH  18  28
ATOM     28  C   UNL     1       0.944   0.943  -2.451  1.00  0.00     0.337 C 
ATOM     29  O   UNL     1       1.894   1.659  -2.179  1.00  0.00    -0.246 OA
BRANCH  28  30
ATOM     30  O   UNL     1       0.316   0.086  -1.609  1.00  0.00    -0.465 OA
ATOM     31  C   UNL     1       0.869   0.045  -0.291  1.00  0.00     0.282 C 
ENDBRANCH  28  30
ENDBRANCH  18  28
ENDBRANCH   9  17
ENDBRANCH   6   8
ENDBRANCH   5   6
ENDBRANCH   4   5
ENDBRANCH   3   4
ENDBRANCH   2   3
ENDBRANCH   1   2
BRANCH   1  32
ATOM     32  C   UNL     1      -2.166   1.419 -15.056  1.00  0.00     0.188 C 
BRANCH  32  33
ATOM     33  O   UNL     1      -2.354   0.542 -16.138  1.00  0.00    -0.376 OA
BRANCH  33  34
ATOM     34  C   UNL     1      -3.644   0.343 -16.690  1.00  0.00     0.202 C 
BRANCH  34  35
ATOM     35  C   UNL     1      -4.951   1.023 -16.232  1.00  0.00     0.261 C 
BRANCH  35  36
ATOM     36  O   UNL     1      -4.865   2.127 -15.329  1.00  0.00    -0.460 OA
BRANCH  36  37
ATOM     37  C   UNL     1      -5.209   1.869 -14.039  1.00  0.00     0.338 C 
ATOM     38  O   UNL     1      -5.541   0.805 -13.560  1.00  0.00    -0.246 OA
BRANCH  37  39
ATOM     39  C   UNL     1      -4.933   3.088 -13.249  1.00  0.00     0.060 A 
ATOM     40  C   UNL     1      -5.643   4.261 -13.505  1.00  0.00     0.016 A 
ATOM     41  C   UNL     1      -3.932   3.059 -12.268  1.00  0.00     0.016 A 
ATOM     42  C   UNL     1      -5.357   5.409 -12.763  1.00  0.00     0.010 A 
ATOM     43  C   UNL     1      -3.637   4.214 -11.538  1.00  0.00     0.010 A 
ATOM     44  C   UNL     1      -4.361   5.393 -11.766  1.00  0.00    -0.014 A 
BRANCH  44  45
ATOM     45  C   UNL     1      -4.210   6.567 -10.870  1.00  0.00     0.031 A 
ATOM     46  C   UNL     1      -3.085   7.545 -11.014  1.00  0.00     0.074 A 
ATOM     47  C   UNL     1      -5.141   6.752  -9.914  1.00  0.00     0.049 A 
ATOM     48  N   UNL     1      -2.904   8.685 -10.391  1.00  0.00    -0.248 NA
ATOM     49  C   UNL     1      -2.023   7.205 -11.969  1.00  0.00     0.031 C 
ATOM     50  C   UNL     1      -6.259   5.844  -9.655  1.00  0.00     0.029 A 
ATOM     51  N   UNL     1      -5.310   7.763  -9.003  1.00  0.00    -0.354 N 
ATOM     52  C   UNL     1      -1.726   9.214 -10.899  1.00  0.00     0.074 A 
ATOM     53  C   UNL     1      -1.204   8.243 -11.840  1.00  0.00     0.031 C 
ATOM     54  C   UNL     1      -7.023   6.361  -8.682  1.00  0.00     0.029 A 
ATOM     55  C   UNL     1      -6.436   7.619  -8.231  1.00  0.00     0.049 A 
ATOM     56  H   UNL     1      -4.685   8.518  -8.911  1.00  0.00     0.167 HD
ATOM     57  C   UNL     1      -1.153  10.411 -10.620  1.00  0.00     0.037 A 
ATOM     58  C   UNL     1      -6.949   8.417  -7.274  1.00  0.00     0.037 A 
ATOM     59  C   UNL     1      -1.667  11.361  -9.663  1.00  0.00     0.049 A 
ATOM     60  C   UNL     1      -6.262   9.713  -6.948  1.00  0.00     0.074 A 
ATOM     61  C   UNL     1      -1.172  12.614  -9.342  1.00  0.00     0.029 A 
ATOM     62  N   UNL     1      -2.781  11.159  -8.861  1.00  0.00    -0.354 N 
ATOM     63  N   UNL     1      -5.202  10.249  -7.501  1.00  0.00    -0.248 NA
ATOM     64  C   UNL     1      -6.848  10.520  -5.868  1.00  0.00     0.031 C 
ATOM     65  C   UNL     1      -1.946  13.142  -8.305  1.00  0.00     0.029 A 
ATOM     66  C   UNL     1      -2.966  12.249  -8.021  1.00  0.00     0.049 A 
ATOM     67  H   UNL     1      -3.356  10.360  -8.883  1.00  0.00     0.167 HD
ATOM     68  C   UNL     1      -5.005  11.461  -6.854  1.00  0.00     0.074 A 
ATOM     69  C   UNL     1      -6.069  11.594  -5.881  1.00  0.00     0.031 C 
ATOM     70  C   UNL     1      -4.026  12.378  -7.051  1.00  0.00     0.037 A 
BRANCH  57  71
ATOM     71  C   UNL     1       0.096  10.784 -11.368  1.00  0.00     0.064 A 
ATOM     72  C   UNL     1       0.058  11.101 -12.735  1.00  0.00     0.173 A 
ATOM     73  C   UNL     1       1.322  10.925 -10.699  1.00  0.00     0.173 A 
ATOM     74  F   UNL     1      -1.089  10.988 -13.422  1.00  0.00    -0.203 F 
ATOM     75  C   UNL     1       1.201  11.527 -13.406  1.00  0.00     0.198 A 
ATOM     76  C   UNL     1       2.457  11.381 -11.367  1.00  0.00     0.198 A 
ATOM     77  F   UNL     1       1.413  10.654  -9.389  1.00  0.00    -0.203 F 
ATOM     78  F   UNL     1       1.145  11.797 -14.718  1.00  0.00    -0.200 F 
ATOM     79  C   UNL     1       2.397  11.676 -12.720  1.00  0.00     0.200 A 
ATOM     80  F   UNL     1       3.606  11.547 -10.697  1.00  0.00    -0.200 F 
ATOM     81  F   UNL     1       3.491  12.108 -13.363  1.00  0.00    -0.200 F 
ENDBRANCH  57  71
BRANCH  58  82
ATOM     82  C   UNL     1      -8.211   8.023  -6.597  1.00  0.00     0.064 A 
ATOM     83  C   UNL     1      -9.397   8.736  -6.816  1.00  0.00     0.173 A 
ATOM     84  C   UNL     1      -8.266   6.908  -5.746  1.00  0.00     0.173 A 
ATOM     85  F   UNL     1      -9.391   9.819  -7.607  1.00  0.00    -0.203 F 
ATOM     86  C   UNL     1     -10.589   8.354  -6.204  1.00  0.00     0.198 A 
ATOM     87  C   UNL     1      -9.464   6.509  -5.160  1.00  0.00     0.198 A 
ATOM     88  F   UNL     1      -7.159   6.189  -5.508  1.00  0.00    -0.203 F 
ATOM     89  F   UNL     1     -11.701   9.074  -6.404  1.00  0.00    -0.200 F 
ATOM     90  C   UNL     1     -10.624   7.236  -5.385  1.00  0.00     0.200 A 
ATOM     91  F   UNL     1      -9.497   5.418  -4.384  1.00  0.00    -0.200 F 
ATOM     92  F   UNL     1     -11.774   6.860  -4.810  1.00  0.00    -0.200 F 
ENDBRANCH  58  82
BRANCH  70  93
ATOM     93  C   UNL     1      -4.051  13.621  -6.206  1.00  0.00     0.064 A 
ATOM     94  C   UNL     1      -3.743  13.584  -4.838  1.00  0.00     0.173 A 
ATOM     95  C   UNL     1      -4.308  14.874  -6.785  1.00  0.00     0.173 A 
ATOM     96  F   UNL     1      -3.504  12.412  -4.231  1.00  0.00    -0.203 F 
ATOM     97  C   UNL     1      -3.705  14.752  -4.079  1.00  0.00     0.198 A 
ATOM     98  C   UNL     1      -4.237  16.042  -6.031  1.00  0.00     0.198 A 
ATOM     99  F   UNL     1      -4.603  14.968  -8.090  1.00  0.00    -0.203 F 
ATOM    100  F   UNL     1      -3.444  14.687  -2.766  1.00  0.00    -0.200 F 
ATOM    101  C   UNL     1      -3.939  15.980  -4.678  1.00  0.00     0.200 A 
ATOM    102  F   UNL     1      -4.446  17.230  -6.616  1.00  0.00    -0.200 F 
ATOM    103  F   UNL     1      -3.880  17.104  -3.951  1.00  0.00    -0.200 F 
ENDBRANCH  70  93
ENDBRANCH  44  45
ENDBRANCH  37  39
ENDBRANCH  36  37
ENDBRANCH  35  36
ENDBRANCH  34  35
ENDBRANCH  33  34
ENDBRANCH  32  33
ENDBRANCH   1  32
TORSDOF 20
