REMARK SMILES CN(C)C(=O)c1cccc(N2CCC3(CC2)[C@H](C(=O)OCCOCCOCCOC(=O)c2ccc(-c4c5nc(c(-c6c(F)c(F)c(F)c(F)c6F)c6ccc([nH]6)c(-c6c(F)c(F)c(F)c(F)c6F)c6nc(c(-c7c(F)c(F)c(F)c(F)c7F)c7ccc4[nH]7)C=C6)C=C5)cc2)CC(=O)N3C)n1
REMARK SMILES IDX 24 1 23 2 22 3 21 4 20 5 18 6 19 7 17 8 11 9 12 10 16 11
REMARK SMILES IDX 13 12 15 13 14 14 98 15 95 16 96 17 99 18 97 19 10 20 6 21
REMARK SMILES IDX 7 22 100 23 8 24 9 25 4 26 1 27 2 28 3 29 5 30 25 31 26 32
REMARK SMILES IDX 27 33 28 34 29 35 30 36 31 37 32 38 33 39 94 40 34 41 93 42
REMARK SMILES IDX 35 43 36 44 37 45 87 46 38 47 92 48 86 49 88 50 39 51 91 52
REMARK SMILES IDX 85 53 84 54 40 56 72 57 52 58 71 59 53 60 56 61 70 62 89 63
REMARK SMILES IDX 54 64 55 65 69 67 90 68 57 69 41 70 42 71 50 72 43 73 44 74
REMARK SMILES IDX 48 75 51 76 45 77 46 78 49 79 47 80 73 81 74 82 82 83 75 84
REMARK SMILES IDX 76 85 80 86 83 87 77 88 78 89 81 90 79 91 58 92 59 93 67 94
REMARK SMILES IDX 60 95 61 96 65 97 68 98 62 99 63 100 66 101 64 102
REMARK H PARENT 88 55 56 66
REMARK Flexibility Score: inf
ROOT
ATOM      1  C   UNL     1       1.353  -9.893   5.288  1.00  0.00     0.188 C 
ENDROOT
BRANCH   1   2
ATOM      2  O   UNL     1       2.170 -10.352   6.353  1.00  0.00    -0.376 OA
BRANCH   2   3
ATOM      3  C   UNL     1       3.477  -9.797   6.445  1.00  0.00     0.202 C 
BRANCH   3   4
ATOM      4  C   UNL     1       4.476 -10.100   5.311  1.00  0.00     0.261 C 
BRANCH   4   5
ATOM      5  O   UNL     1       3.979  -9.973   3.957  1.00  0.00    -0.463 OA
BRANCH   5   6
ATOM      6  C   UNL     1       3.741 -11.151   3.333  1.00  0.00     0.311 C 
ATOM      7  O   UNL     1       3.884 -12.241   3.887  1.00  0.00    -0.252 OA
BRANCH   6   8
ATOM      8  C   UNL     1       3.102 -11.084   1.946  1.00  0.00     0.134 C 
ATOM      9  N   UNL     1       1.418  -7.454   0.364  1.00  0.00    -0.356 N 
ATOM     10  C   UNL     1       2.805  -7.261   0.787  1.00  0.00     0.120 C 
ATOM     11  C   UNL     1       1.181  -8.638  -0.453  1.00  0.00     0.120 C 
ATOM     12  C   UNL     1       3.264  -8.476   1.616  1.00  0.00     0.051 C 
ATOM     13  C   UNL     1       1.604  -9.885   0.323  1.00  0.00     0.051 C 
ATOM     14  C   UNL     1       3.031  -9.852   0.962  1.00  0.00     0.060 C 
ATOM     15  N   UNL     1       4.061 -10.203  -0.038  1.00  0.00    -0.339 N 
ATOM     16  C   UNL     1       3.748 -12.209   1.118  1.00  0.00     0.118 C 
ATOM     17  C   UNL     1       4.541 -11.497   0.075  1.00  0.00     0.223 C 
ATOM     18  C   UNL     1       4.575  -9.331  -1.078  1.00  0.00     0.147 C 
ATOM     19  O   UNL     1       5.425 -12.008  -0.592  1.00  0.00    -0.275 OA
BRANCH   9  20
ATOM     20  C   UNL     1       0.648  -6.306   0.137  1.00  0.00     0.129 A 
ATOM     21  C   UNL     1       0.431  -3.987  -0.009  1.00  0.00     0.130 A 
ATOM     22  C   UNL     1      -0.957  -4.038  -0.065  1.00  0.00     0.034 A 
ATOM     23  N   UNL     1       1.234  -5.089   0.090  1.00  0.00    -0.226 NA
ATOM     24  C   UNL     1      -1.557  -5.281  -0.026  1.00  0.00     0.006 A 
ATOM     25  C   UNL     1      -0.748  -6.413   0.050  1.00  0.00     0.047 A 
BRANCH  21  26
ATOM     26  C   UNL     1       1.099  -2.665  -0.241  1.00  0.00     0.272 C 
ATOM     27  C   UNL     1       1.071  -0.232  -0.028  1.00  0.00     0.146 C 
ATOM     28  N   UNL     1       0.668  -1.535   0.473  1.00  0.00    -0.343 N 
ATOM     29  C   UNL     1      -0.062  -1.573   1.730  1.00  0.00     0.146 C 
ATOM     30  O   UNL     1       1.947  -2.581  -1.131  1.00  0.00    -0.267 OA
ENDBRANCH  21  26
ENDBRANCH   9  20
ENDBRANCH   6   8
ENDBRANCH   5   6
ENDBRANCH   4   5
ENDBRANCH   3   4
ENDBRANCH   2   3
ENDBRANCH   1   2
BRANCH   1  31
ATOM     31  C   UNL     1       1.170  -8.384   5.127  1.00  0.00     0.188 C 
BRANCH  31  32
ATOM     32  O   UNL     1       2.359  -7.601   5.112  1.00  0.00    -0.376 OA
BRANCH  32  33
ATOM     33  C   UNL     1       2.191  -6.257   4.640  1.00  0.00     0.202 C 
BRANCH  33  34
ATOM     34  C   UNL     1       1.129  -5.417   5.376  1.00  0.00     0.261 C 
BRANCH  34  35
ATOM     35  O   UNL     1      -0.205  -5.957   5.260  1.00  0.00    -0.460 OA
BRANCH  35  36
ATOM     36  C   UNL     1      -0.721  -5.988   4.010  1.00  0.00     0.338 C 
ATOM     37  O   UNL     1      -0.299  -5.382   3.044  1.00  0.00    -0.246 OA
BRANCH  36  38
ATOM     38  C   UNL     1      -1.767  -7.038   3.954  1.00  0.00     0.060 A 
ATOM     39  C   UNL     1      -1.681  -8.046   2.981  1.00  0.00     0.016 A 
ATOM     40  C   UNL     1      -2.819  -7.043   4.867  1.00  0.00     0.016 A 
ATOM     41  C   UNL     1      -2.680  -9.020   2.874  1.00  0.00     0.010 A 
ATOM     42  C   UNL     1      -3.818  -8.016   4.762  1.00  0.00     0.010 A 
ATOM     43  C   UNL     1      -3.777  -8.987   3.743  1.00  0.00    -0.014 A 
BRANCH  43  44
ATOM     44  C   UNL     1      -4.976  -9.831   3.496  1.00  0.00     0.031 A 
ATOM     45  C   UNL     1      -6.178  -9.190   2.855  1.00  0.00     0.074 A 
ATOM     46  C   UNL     1      -5.019 -11.132   3.835  1.00  0.00     0.049 A 
ATOM     47  N   UNL     1      -7.385  -9.665   2.678  1.00  0.00    -0.248 NA
ATOM     48  C   UNL     1      -5.989  -7.822   2.345  1.00  0.00     0.031 C 
ATOM     49  C   UNL     1      -3.913 -11.902   4.396  1.00  0.00     0.029 A 
ATOM     50  N   UNL     1      -6.056 -12.033   3.768  1.00  0.00    -0.354 N 
ATOM     51  C   UNL     1      -8.098  -8.654   2.046  1.00  0.00     0.074 A 
ATOM     52  C   UNL     1      -7.200  -7.529   1.897  1.00  0.00     0.031 C 
ATOM     53  C   UNL     1      -4.334 -13.157   4.639  1.00  0.00     0.029 A 
ATOM     54  C   UNL     1      -5.752 -13.265   4.295  1.00  0.00     0.049 A 
ATOM     55  H   UNL     1      -6.934 -11.816   3.378  1.00  0.00     0.167 HD
ATOM     56  C   UNL     1      -9.384  -8.663   1.621  1.00  0.00     0.037 A 
ATOM     57  C   UNL     1      -6.539 -14.339   4.509  1.00  0.00     0.037 A 
ATOM     58  C   UNL     1     -10.286  -9.773   1.773  1.00  0.00     0.049 A 
ATOM     59  C   UNL     1      -8.002 -14.281   4.134  1.00  0.00     0.074 A 
ATOM     60  C   UNL     1     -11.615  -9.863   1.399  1.00  0.00     0.029 A 
ATOM     61  N   UNL     1      -9.949 -10.989   2.347  1.00  0.00    -0.354 N 
ATOM     62  N   UNL     1      -8.675 -13.318   3.552  1.00  0.00    -0.248 NA
ATOM     63  C   UNL     1      -8.816 -15.464   4.455  1.00  0.00     0.031 C 
ATOM     64  C   UNL     1     -12.095 -11.119   1.784  1.00  0.00     0.029 A 
ATOM     65  C   UNL     1     -11.050 -11.830   2.349  1.00  0.00     0.049 A 
ATOM     66  H   UNL     1      -9.060 -11.220   2.700  1.00  0.00     0.167 HD
ATOM     67  C   UNL     1      -9.973 -13.794   3.401  1.00  0.00     0.074 A 
ATOM     68  C   UNL     1      -9.993 -15.135   3.943  1.00  0.00     0.031 C 
ATOM     69  C   UNL     1     -11.053 -13.175   2.863  1.00  0.00     0.037 A 
BRANCH  56  70
ATOM     70  C   UNL     1      -9.901  -7.418   0.963  1.00  0.00     0.064 A 
ATOM     71  C   UNL     1      -9.487  -7.042  -0.323  1.00  0.00     0.173 A 
ATOM     72  C   UNL     1     -10.849  -6.611   1.610  1.00  0.00     0.173 A 
ATOM     73  F   UNL     1      -8.566  -7.769  -0.975  1.00  0.00    -0.203 F 
ATOM     74  C   UNL     1      -9.988  -5.893  -0.929  1.00  0.00     0.198 A 
ATOM     75  C   UNL     1     -11.370  -5.480   0.989  1.00  0.00     0.198 A 
ATOM     76  F   UNL     1     -11.278  -6.927   2.842  1.00  0.00    -0.203 F 
ATOM     77  F   UNL     1      -9.542  -5.528  -2.139  1.00  0.00    -0.200 F 
ATOM     78  C   UNL     1     -10.935  -5.118  -0.277  1.00  0.00     0.200 A 
ATOM     79  F   UNL     1     -12.292  -4.737   1.618  1.00  0.00    -0.200 F 
ATOM     80  F   UNL     1     -11.421  -4.017  -0.865  1.00  0.00    -0.200 F 
ENDBRANCH  56  70
BRANCH  57  81
ATOM     81  C   UNL     1      -5.987 -15.569   5.142  1.00  0.00     0.064 A 
ATOM     82  C   UNL     1      -5.926 -16.779   4.435  1.00  0.00     0.173 A 
ATOM     83  C   UNL     1      -5.583 -15.580   6.485  1.00  0.00     0.173 A 
ATOM     84  F   UNL     1      -6.335 -16.829   3.158  1.00  0.00    -0.203 F 
ATOM     85  C   UNL     1      -5.515 -17.957   5.055  1.00  0.00     0.198 A 
ATOM     86  C   UNL     1      -5.140 -16.752   7.095  1.00  0.00     0.198 A 
ATOM     87  F   UNL     1      -5.631 -14.453   7.211  1.00  0.00    -0.203 F 
ATOM     88  F   UNL     1      -5.536 -19.112   4.376  1.00  0.00    -0.200 F 
ATOM     89  C   UNL     1      -5.118 -17.942   6.384  1.00  0.00     0.200 A 
ATOM     90  F   UNL     1      -4.753 -16.732   8.378  1.00  0.00    -0.200 F 
ATOM     91  F   UNL     1      -4.734 -19.077   6.984  1.00  0.00    -0.200 F 
ENDBRANCH  57  81
BRANCH  69  92
ATOM     92  C   UNL     1     -12.332 -13.957   2.770  1.00  0.00     0.064 A 
ATOM     93  C   UNL     1     -13.097 -14.267   3.905  1.00  0.00     0.173 A 
ATOM     94  C   UNL     1     -12.823 -14.363   1.519  1.00  0.00     0.173 A 
ATOM     95  F   UNL     1     -12.667 -13.913   5.125  1.00  0.00    -0.203 F 
ATOM     96  C   UNL     1     -14.290 -14.977   3.793  1.00  0.00     0.198 A 
ATOM     97  C   UNL     1     -14.032 -15.045   1.408  1.00  0.00     0.198 A 
ATOM     98  F   UNL     1     -12.137 -14.084   0.401  1.00  0.00    -0.203 F 
ATOM     99  F   UNL     1     -14.979 -15.303   4.895  1.00  0.00    -0.200 F 
ATOM    100  C   UNL     1     -14.760 -15.358   2.545  1.00  0.00     0.200 A 
ATOM    101  F   UNL     1     -14.492 -15.398   0.200  1.00  0.00    -0.200 F 
ATOM    102  F   UNL     1     -15.913 -16.034   2.439  1.00  0.00    -0.200 F 
ENDBRANCH  69  92
ENDBRANCH  43  44
ENDBRANCH  36  38
ENDBRANCH  35  36
ENDBRANCH  34  35
ENDBRANCH  33  34
ENDBRANCH  32  33
ENDBRANCH  31  32
ENDBRANCH   1  31
TORSDOF 19
