REMARK SMILES O=C(OCCOCCOCCOC(=O)[C@H]1C=C[C@H](NS(=O)(=O)c2ccc(F)c(F)c2F)C1)c1ccc(-c2c3nc(c(-c4c(F)c(F)c(F)c(F)c4F)c4ccc([nH]4)c(-c4c(F)c(F)c(F)c(F)c4F)c4nc(c(-c5c(F)c(F)c(F)c(F)c5F)c5ccc2[nH]5)C=C4)C=C3)cc1
REMARK SMILES IDX 8 1 7 2 6 3 5 4 4 5 3 6 2 7 1 8 33 9 34 10 95 11 35 12 94 13
REMARK SMILES IDX 36 14 37 15 38 16 88 17 39 18 93 19 87 20 89 21 40 22 92 23
REMARK SMILES IDX 86 24 85 25 41 27 73 28 53 29 72 30 54 31 57 32 71 33 90 34
REMARK SMILES IDX 55 35 56 36 70 38 91 39 58 40 42 41 43 42 51 43 44 44 45 45
REMARK SMILES IDX 49 46 52 47 46 48 47 49 50 50 48 51 74 52 75 53 83 54 76 55
REMARK SMILES IDX 77 56 81 57 84 58 78 59 79 60 82 61 80 62 59 63 60 64 68 65
REMARK SMILES IDX 61 66 62 67 66 68 69 69 63 70 64 71 67 72 65 73 9 74 10 75
REMARK SMILES IDX 11 76 12 77 13 78 14 79 15 80 16 81 32 82 17 83 18 84 19 85
REMARK SMILES IDX 20 87 21 88 22 89 23 90 24 91 30 92 25 93 28 94 31 95 26 96
REMARK SMILES IDX 29 97 27 98
REMARK H PARENT 89 26 57 37 19 86
REMARK Flexibility Score: inf
ROOT
ATOM      1  C   UNL     1       1.916   3.155   0.740  1.00  0.00     0.188 C 
ENDROOT
BRANCH   1   2
ATOM      2  C   UNL     1       2.453   2.007  -0.115  1.00  0.00     0.188 C 
BRANCH   2   3
ATOM      3  O   UNL     1       3.769   1.565   0.248  1.00  0.00    -0.376 OA
BRANCH   3   4
ATOM      4  C   UNL     1       4.607   1.349  -0.894  1.00  0.00     0.202 C 
BRANCH   4   5
ATOM      5  C   UNL     1       4.266   0.108  -1.747  1.00  0.00     0.261 C 
BRANCH   5   6
ATOM      6  O   UNL     1       2.935  -0.414  -1.545  1.00  0.00    -0.460 OA
BRANCH   6   7
ATOM      7  C   UNL     1       2.448  -1.256  -0.596  1.00  0.00     0.338 C 
ATOM      8  O   UNL     1       1.254  -1.550  -0.634  1.00  0.00    -0.246 OA
BRANCH   7   9
ATOM      9  C   UNL     1       3.278  -1.853   0.497  1.00  0.00     0.060 A 
ATOM     10  C   UNL     1       4.589  -1.487   0.762  1.00  0.00     0.016 A 
ATOM     11  C   UNL     1       2.713  -2.845   1.321  1.00  0.00     0.016 A 
ATOM     12  C   UNL     1       5.359  -2.135   1.706  1.00  0.00     0.010 A 
ATOM     13  C   UNL     1       3.448  -3.411   2.382  1.00  0.00     0.010 A 
ATOM     14  C   UNL     1       4.789  -3.046   2.582  1.00  0.00    -0.014 A 
BRANCH  14  15
ATOM     15  C   UNL     1       5.686  -3.663   3.602  1.00  0.00     0.031 A 
ATOM     16  C   UNL     1       6.137  -5.060   3.306  1.00  0.00     0.074 A 
ATOM     17  C   UNL     1       6.303  -2.893   4.540  1.00  0.00     0.049 A 
ATOM     18  N   UNL     1       6.987  -5.798   3.956  1.00  0.00    -0.248 NA
ATOM     19  C   UNL     1       5.697  -5.651   2.020  1.00  0.00     0.031 C 
ATOM     20  C   UNL     1       6.313  -1.442   4.447  1.00  0.00     0.029 A 
ATOM     21  N   UNL     1       7.070  -3.127   5.684  1.00  0.00    -0.354 N 
ATOM     22  C   UNL     1       7.247  -6.880   3.126  1.00  0.00     0.074 A 
ATOM     23  C   UNL     1       6.425  -6.754   1.952  1.00  0.00     0.031 C 
ATOM     24  C   UNL     1       7.025  -0.929   5.450  1.00  0.00     0.029 A 
ATOM     25  C   UNL     1       7.304  -1.959   6.464  1.00  0.00     0.049 A 
ATOM     26  H   UNL     1       7.416  -4.016   5.928  1.00  0.00     0.167 HD
ATOM     27  C   UNL     1       8.146  -7.861   3.338  1.00  0.00     0.037 A 
ATOM     28  C   UNL     1       7.419  -1.836   7.919  1.00  0.00     0.037 A 
ATOM     29  C   UNL     1       8.878  -7.955   4.563  1.00  0.00     0.049 A 
ATOM     30  C   UNL     1       8.499  -3.322   7.916  1.00  0.00     0.074 A 
ATOM     31  C   UNL     1       9.803  -8.897   4.961  1.00  0.00     0.029 A 
ATOM     32  N   UNL     1       8.725  -7.053   5.605  1.00  0.00    -0.354 N 
ATOM     33  N   UNL     1       8.230  -4.582   7.572  1.00  0.00    -0.248 NA
ATOM     34  C   UNL     1       9.915  -3.225   8.389  1.00  0.00     0.031 C 
ATOM     35  C   UNL     1      10.137  -8.616   6.289  1.00  0.00     0.029 A 
ATOM     36  C   UNL     1       9.509  -7.434   6.665  1.00  0.00     0.049 A 
ATOM     37  H   UNL     1       8.142  -6.259   5.587  1.00  0.00     0.167 HD
ATOM     38  C   UNL     1       9.304  -5.363   8.043  1.00  0.00     0.074 A 
ATOM     39  C   UNL     1      10.198  -4.468   8.729  1.00  0.00     0.031 C 
ATOM     40  C   UNL     1       9.751  -6.632   7.826  1.00  0.00     0.037 A 
BRANCH  27  41
ATOM     41  C   UNL     1       8.343  -8.902   2.289  1.00  0.00     0.064 A 
ATOM     42  C   UNL     1       7.874 -10.204   2.505  1.00  0.00     0.173 A 
ATOM     43  C   UNL     1       9.057  -8.641   1.111  1.00  0.00     0.173 A 
ATOM     44  F   UNL     1       7.179 -10.495   3.615  1.00  0.00    -0.203 F 
ATOM     45  C   UNL     1       8.136 -11.218   1.590  1.00  0.00     0.198 A 
ATOM     46  C   UNL     1       9.302  -9.655   0.188  1.00  0.00     0.198 A 
ATOM     47  F   UNL     1       9.511  -7.405   0.852  1.00  0.00    -0.203 F 
ATOM     48  F   UNL     1       7.704 -12.463   1.834  1.00  0.00    -0.200 F 
ATOM     49  C   UNL     1       8.851 -10.944   0.434  1.00  0.00     0.200 A 
ATOM     50  F   UNL     1       9.977  -9.387  -0.939  1.00  0.00    -0.200 F 
ATOM     51  F   UNL     1       9.105 -11.924  -0.444  1.00  0.00    -0.200 F 
ENDBRANCH  27  41
BRANCH  28  52
ATOM     52  C   UNL     1       6.871  -0.563   9.550  1.00  0.00     0.064 A 
ATOM     53  C   UNL     1       5.516  -0.095  10.134  1.00  0.00     0.173 A 
ATOM     54  C   UNL     1       7.742   0.273  10.593  1.00  0.00     0.173 A 
ATOM     55  F   UNL     1       4.434  -0.891  10.130  1.00  0.00    -0.203 F 
ATOM     56  C   UNL     1       5.199   1.069  10.905  1.00  0.00     0.198 A 
ATOM     57  C   UNL     1       7.437   1.456  11.312  1.00  0.00     0.198 A 
ATOM     58  F   UNL     1       8.925  -0.196  11.061  1.00  0.00    -0.203 F 
ATOM     59  F   UNL     1       3.916   1.305  11.219  1.00  0.00    -0.200 F 
ATOM     60  C   UNL     1       6.159   1.902  11.398  1.00  0.00     0.200 A 
ATOM     61  F   UNL     1       8.413   2.086  11.982  1.00  0.00    -0.200 F 
ATOM     62  F   UNL     1       5.849   2.987  12.116  1.00  0.00    -0.200 F 
ENDBRANCH  28  52
BRANCH  40  63
ATOM     63  C   UNL     1      10.761  -7.164   8.814  1.00  0.00     0.064 A 
ATOM     64  C   UNL     1      12.130  -7.256   8.510  1.00  0.00     0.173 A 
ATOM     65  C   UNL     1      10.339  -7.582  10.085  1.00  0.00     0.173 A 
ATOM     66  F   UNL     1      12.587  -6.843   7.319  1.00  0.00    -0.203 F 
ATOM     67  C   UNL     1      13.037  -7.750   9.443  1.00  0.00     0.198 A 
ATOM     68  C   UNL     1      11.252  -8.065  11.018  1.00  0.00     0.198 A 
ATOM     69  F   UNL     1       9.044  -7.498  10.426  1.00  0.00    -0.203 F 
ATOM     70  F   UNL     1      14.339  -7.825   9.134  1.00  0.00    -0.200 F 
ATOM     71  C   UNL     1      12.598  -8.151  10.696  1.00  0.00     0.200 A 
ATOM     72  F   UNL     1      10.831  -8.430  12.236  1.00  0.00    -0.200 F 
ATOM     73  F   UNL     1      13.477  -8.605  11.600  1.00  0.00    -0.200 F 
ENDBRANCH  40  63
ENDBRANCH  14  15
ENDBRANCH   7   9
ENDBRANCH   6   7
ENDBRANCH   5   6
ENDBRANCH   4   5
ENDBRANCH   3   4
ENDBRANCH   2   3
ENDBRANCH   1   2
BRANCH   1  74
ATOM     74  O   UNL     1       2.602   4.400   0.656  1.00  0.00    -0.376 OA
BRANCH  74  75
ATOM     75  C   UNL     1       3.989   4.402   0.965  1.00  0.00     0.202 C 
BRANCH  75  76
ATOM     76  C   UNL     1       4.404   4.125   2.417  1.00  0.00     0.261 C 
BRANCH  76  77
ATOM     77  O   UNL     1       3.777   2.989   3.049  1.00  0.00    -0.463 OA
BRANCH  77  78
ATOM     78  C   UNL     1       2.841   3.300   3.992  1.00  0.00     0.312 C 
ATOM     79  O   UNL     1       2.487   4.442   4.267  1.00  0.00    -0.252 OA
BRANCH  78  80
ATOM     80  C   UNL     1       2.322   2.094   4.778  1.00  0.00     0.123 C 
ATOM     81  C   UNL     1       1.887   0.844   4.081  1.00  0.00    -0.015 C 
ATOM     82  C   UNL     1       3.400   1.598   5.740  1.00  0.00     0.043 C 
ATOM     83  C   UNL     1       2.368  -0.254   4.681  1.00  0.00    -0.011 C 
ATOM     84  C   UNL     1       3.367   0.062   5.737  1.00  0.00     0.093 C 
BRANCH  84  85
ATOM     85  N   UNL     1       3.028  -0.465   7.056  1.00  0.00    -0.204 NA
ATOM     86  H   UNL     1       2.018  -0.605   7.062  1.00  0.00     0.142 HD
BRANCH  85  87
ATOM     87  S   UNL     1       3.718  -1.902   7.615  1.00  0.00     0.244 S 
ATOM     88  O   UNL     1       2.916  -2.284   8.757  1.00  0.00    -0.207 OA
ATOM     89  O   UNL     1       3.855  -2.795   6.489  1.00  0.00    -0.207 OA
BRANCH  87  90
ATOM     90  C   UNL     1       5.364  -1.517   8.223  1.00  0.00     0.121 A 
ATOM     91  C   UNL     1       6.220  -2.597   9.431  1.00  0.00     0.028 A 
ATOM     92  C   UNL     1       6.203  -0.036   7.622  1.00  0.00     0.181 A 
ATOM     93  C   UNL     1       7.968  -2.248   9.888  1.00  0.00     0.044 A 
ATOM     94  C   UNL     1       7.963   0.243   7.925  1.00  0.00     0.195 A 
ATOM     95  F   UNL     1       5.543   0.943   7.006  1.00  0.00    -0.202 F 
ATOM     96  C   UNL     1       8.881  -0.885   8.988  1.00  0.00     0.161 A 
ATOM     97  F   UNL     1       8.555   1.340   7.433  1.00  0.00    -0.200 F 
ATOM     98  F   UNL     1      10.161  -0.581   9.267  1.00  0.00    -0.204 F 
ENDBRANCH  87  90
ENDBRANCH  85  87
ENDBRANCH  84  85
ENDBRANCH  78  80
ENDBRANCH  77  78
ENDBRANCH  76  77
ENDBRANCH  75  76
ENDBRANCH  74  75
ENDBRANCH   1  74
TORSDOF 20
