REMARK SMILES CSc1ccc(/C=C2\C(C)=C(CC(=O)OCCOCCOCCOC(=O)c3ccc(-c4c5nc(c(-c6c(F)c(F)c(F)c(F)c6F)c6ccc([nH]6)c(-c6c(F)c(F)c(F)c(F)c6F)c6nc(c(-c7c(F)c(F)c(F)c(F)c7F)c7ccc4[nH]7)C=C6)C=C5)cc3)c3cc(F)ccc32)cc1
REMARK SMILES IDX 19 1 18 2 17 3 16 4 15 5 13 6 14 7 12 8 11 9 7 10 8 11 9 12
REMARK SMILES IDX 96 13 10 14 90 15 95 16 91 17 94 18 92 19 93 20 6 21 3 22
REMARK SMILES IDX 4 23 98 24 5 25 97 26 2 27 1 28 20 29 21 30 22 31 23 32
REMARK SMILES IDX 24 33 25 34 26 35 27 36 28 37 89 38 29 39 88 40 30 41 31 42
REMARK SMILES IDX 32 43 82 44 33 45 87 46 81 47 83 48 34 49 86 50 80 51 79 52
REMARK SMILES IDX 35 54 67 55 47 56 66 57 48 58 51 59 65 60 84 61 49 62 50 63
REMARK SMILES IDX 64 65 85 66 52 67 36 68 37 69 45 70 38 71 39 72 43 73 46 74
REMARK SMILES IDX 40 75 41 76 44 77 42 78 68 79 69 80 77 81 70 82 71 83 75 84
REMARK SMILES IDX 78 85 72 86 73 87 76 88 74 89 53 90 54 91 62 92 55 93 56 94
REMARK SMILES IDX 60 95 63 96 57 97 58 98 61 99 59 100
REMARK H PARENT 83 53 51 64
REMARK Flexibility Score: inf
ROOT
ATOM      1  C   UNL     1       1.449  -2.566  11.631  1.00  0.00     0.188 C 
ENDROOT
BRANCH   1   2
ATOM      2  O   UNL     1       0.427  -2.222  12.552  1.00  0.00    -0.376 OA
BRANCH   2   3
ATOM      3  C   UNL     1      -0.508  -1.212  12.178  1.00  0.00     0.202 C 
BRANCH   3   4
ATOM      4  C   UNL     1       0.084   0.114  11.695  1.00  0.00     0.261 C 
BRANCH   4   5
ATOM      5  O   UNL     1       0.591   0.046  10.339  1.00  0.00    -0.463 OA
BRANCH   5   6
ATOM      6  C   UNL     1       1.843   0.535  10.162  1.00  0.00     0.310 C 
ATOM      7  O   UNL     1       2.536   0.996  11.067  1.00  0.00    -0.252 OA
BRANCH   6   8
ATOM      8  C   UNL     1       2.362   0.524   8.729  1.00  0.00     0.159 C 
BRANCH   8   9
ATOM      9  C   UNL     1       1.741  -0.343   7.616  1.00  0.00    -0.025 C 
ATOM     10  C   UNL     1       2.767   1.673   4.918  1.00  0.00     0.017 C 
ATOM     11  C   UNL     1       2.483   0.661   5.747  1.00  0.00    -0.014 C 
ATOM     12  C   UNL     1       1.255   0.278   6.502  1.00  0.00    -0.039 C 
ATOM     13  C   UNL     1       3.434  -0.455   5.958  1.00  0.00    -0.010 A 
ATOM     14  C   UNL     1       0.231  -0.513   5.681  1.00  0.00     0.045 C 
ATOM     15  C   UNL     1       2.786  -1.202   6.951  1.00  0.00    -0.011 A 
ATOM     16  C   UNL     1       4.309  -1.028   5.036  1.00  0.00     0.012 A 
ATOM     17  C   UNL     1       2.812  -2.580   6.847  1.00  0.00     0.048 A 
ATOM     18  C   UNL     1       4.449  -2.415   5.047  1.00  0.00     0.040 A 
ATOM     19  C   UNL     1       3.667  -3.176   5.917  1.00  0.00     0.123 A 
ATOM     20  F   UNL     1       3.673  -4.510   5.795  1.00  0.00    -0.207 F 
BRANCH  10  21
ATOM     21  C   UNL     1       1.869   2.550   4.138  1.00  0.00    -0.025 A 
ATOM     22  C   UNL     1       0.699   2.856   1.646  1.00  0.00     0.007 A 
ATOM     23  C   UNL     1      -0.047   2.330   2.697  1.00  0.00     0.015 A 
ATOM     24  C   UNL     1       1.918   3.478   1.909  1.00  0.00     0.015 A 
ATOM     25  C   UNL     1       0.524   2.234   3.962  1.00  0.00     0.009 A 
ATOM     26  C   UNL     1       2.502   3.335   3.166  1.00  0.00     0.009 A 
BRANCH  22  27
ATOM     27  S   UNL     1       0.231   2.495  -0.034  1.00  0.00    -0.130 SA
ATOM     28  C   UNL     1       0.837   0.773  -0.074  1.00  0.00     0.091 C 
ENDBRANCH  22  27
ENDBRANCH  10  21
ENDBRANCH   8   9
ENDBRANCH   6   8
ENDBRANCH   5   6
ENDBRANCH   4   5
ENDBRANCH   3   4
ENDBRANCH   2   3
ENDBRANCH   1   2
BRANCH   1  29
ATOM     29  C   UNL     1       1.047  -2.885  10.188  1.00  0.00     0.188 C 
BRANCH  29  30
ATOM     30  O   UNL     1      -0.349  -3.011   9.990  1.00  0.00    -0.376 OA
BRANCH  30  31
ATOM     31  C   UNL     1      -0.731  -3.909   8.953  1.00  0.00     0.202 C 
BRANCH  31  32
ATOM     32  C   UNL     1      -0.758  -5.346   9.490  1.00  0.00     0.261 C 
BRANCH  32  33
ATOM     33  O   UNL     1       0.559  -5.876   9.754  1.00  0.00    -0.460 OA
BRANCH  33  34
ATOM     34  C   UNL     1       1.313  -6.104   8.655  1.00  0.00     0.338 C 
ATOM     35  O   UNL     1       0.967  -5.993   7.493  1.00  0.00    -0.246 OA
BRANCH  34  36
ATOM     36  C   UNL     1       2.714  -6.300   9.070  1.00  0.00     0.060 A 
ATOM     37  C   UNL     1       3.608  -5.243   8.890  1.00  0.00     0.016 A 
ATOM     38  C   UNL     1       3.171  -7.520   9.550  1.00  0.00     0.016 A 
ATOM     39  C   UNL     1       4.968  -5.401   9.098  1.00  0.00     0.010 A 
ATOM     40  C   UNL     1       4.538  -7.675   9.805  1.00  0.00     0.010 A 
ATOM     41  C   UNL     1       5.447  -6.627   9.550  1.00  0.00    -0.014 A 
BRANCH  41  42
ATOM     42  C   UNL     1       6.905  -6.844   9.652  1.00  0.00     0.031 A 
ATOM     43  C   UNL     1       7.563  -7.783   8.687  1.00  0.00     0.074 A 
ATOM     44  C   UNL     1       7.639  -6.188  10.569  1.00  0.00     0.049 A 
ATOM     45  N   UNL     1       8.758  -8.309   8.726  1.00  0.00    -0.248 NA
ATOM     46  C   UNL     1       6.761  -8.187   7.520  1.00  0.00     0.031 C 
ATOM     47  C   UNL     1       7.142  -5.155  11.478  1.00  0.00     0.029 A 
ATOM     48  N   UNL     1       8.967  -6.307  10.892  1.00  0.00    -0.354 N 
ATOM     49  C   UNL     1       8.831  -9.152   7.627  1.00  0.00     0.074 A 
ATOM     50  C   UNL     1       7.567  -9.057   6.928  1.00  0.00     0.031 C 
ATOM     51  C   UNL     1       8.149  -4.745  12.267  1.00  0.00     0.029 A 
ATOM     52  C   UNL     1       9.335  -5.542  11.970  1.00  0.00     0.049 A 
ATOM     53  H   UNL     1       9.594  -6.884  10.399  1.00  0.00     0.167 HD
ATOM     54  C   UNL     1       9.861  -9.943   7.251  1.00  0.00     0.037 A 
ATOM     55  C   UNL     1      10.481  -5.535  12.677  1.00  0.00     0.037 A 
ATOM     56  C   UNL     1      11.129  -9.990   7.930  1.00  0.00     0.049 A 
ATOM     57  C   UNL     1      11.580  -6.490  12.292  1.00  0.00     0.074 A 
ATOM     58  C   UNL     1      12.245 -10.747   7.624  1.00  0.00     0.029 A 
ATOM     59  N   UNL     1      11.449  -9.235   9.049  1.00  0.00    -0.354 N 
ATOM     60  N   UNL     1      11.630  -7.338  11.293  1.00  0.00    -0.248 NA
ATOM     61  C   UNL     1      12.774  -6.503  13.149  1.00  0.00     0.031 C 
ATOM     62  C   UNL     1      13.227 -10.482   8.584  1.00  0.00     0.029 A 
ATOM     63  C   UNL     1      12.739  -9.525   9.459  1.00  0.00     0.049 A 
ATOM     64  H   UNL     1      10.848  -8.589   9.486  1.00  0.00     0.167 HD
ATOM     65  C   UNL     1      12.866  -7.963  11.384  1.00  0.00     0.074 A 
ATOM     66  C   UNL     1      13.540  -7.389  12.530  1.00  0.00     0.031 C 
ATOM     67  C   UNL     1      13.396  -8.927  10.592  1.00  0.00     0.037 A 
BRANCH  54  68
ATOM     68  C   UNL     1       9.645 -10.863   6.089  1.00  0.00     0.064 A 
ATOM     69  C   UNL     1       9.608 -10.400   4.767  1.00  0.00     0.173 A 
ATOM     70  C   UNL     1       9.511 -12.243   6.308  1.00  0.00     0.173 A 
ATOM     71  F   UNL     1       9.710  -9.088   4.508  1.00  0.00    -0.203 F 
ATOM     72  C   UNL     1       9.433 -11.285   3.706  1.00  0.00     0.198 A 
ATOM     73  C   UNL     1       9.362 -13.127   5.245  1.00  0.00     0.198 A 
ATOM     74  F   UNL     1       9.537 -12.735   7.556  1.00  0.00    -0.203 F 
ATOM     75  F   UNL     1       9.365 -10.819   2.451  1.00  0.00    -0.200 F 
ATOM     76  C   UNL     1       9.319 -12.648   3.945  1.00  0.00     0.200 A 
ATOM     77  F   UNL     1       9.261 -14.443   5.478  1.00  0.00    -0.200 F 
ATOM     78  F   UNL     1       9.161 -13.498   2.921  1.00  0.00    -0.200 F 
ENDBRANCH  54  68
BRANCH  55  79
ATOM     79  C   UNL     1      10.629  -4.647  13.859  1.00  0.00     0.064 A 
ATOM     80  C   UNL     1      11.555  -3.596  13.858  1.00  0.00     0.173 A 
ATOM     81  C   UNL     1       9.875  -4.852  15.025  1.00  0.00     0.173 A 
ATOM     82  F   UNL     1      12.320  -3.379  12.778  1.00  0.00    -0.203 F 
ATOM     83  C   UNL     1      11.736  -2.796  14.985  1.00  0.00     0.198 A 
ATOM     84  C   UNL     1      10.035  -4.033  16.140  1.00  0.00     0.198 A 
ATOM     85  F   UNL     1       8.980  -5.849  15.080  1.00  0.00    -0.203 F 
ATOM     86  F   UNL     1      12.667  -1.833  14.976  1.00  0.00    -0.200 F 
ATOM     87  C   UNL     1      10.973  -3.012  16.122  1.00  0.00     0.200 A 
ATOM     88  F   UNL     1       9.289  -4.240  17.233  1.00  0.00    -0.200 F 
ATOM     89  F   UNL     1      11.150  -2.245  17.207  1.00  0.00    -0.200 F 
ENDBRANCH  55  79
BRANCH  67  90
ATOM     90  C   UNL     1      14.791  -9.380  10.906  1.00  0.00     0.064 A 
ATOM     91  C   UNL     1      15.068 -10.195  12.013  1.00  0.00     0.173 A 
ATOM     92  C   UNL     1      15.856  -9.025  10.064  1.00  0.00     0.173 A 
ATOM     93  F   UNL     1      14.085 -10.547  12.855  1.00  0.00    -0.203 F 
ATOM     94  C   UNL     1      16.367 -10.619  12.278  1.00  0.00     0.198 A 
ATOM     95  C   UNL     1      17.148  -9.474  10.317  1.00  0.00     0.198 A 
ATOM     96  F   UNL     1      15.639  -8.252   8.989  1.00  0.00    -0.203 F 
ATOM     97  F   UNL     1      16.618 -11.360  13.366  1.00  0.00    -0.200 F 
ATOM     98  C   UNL     1      17.404 -10.265  11.427  1.00  0.00     0.200 A 
ATOM     99  F   UNL     1      18.146  -9.142   9.487  1.00  0.00    -0.200 F 
ATOM    100  F   UNL     1      18.652 -10.680  11.681  1.00  0.00    -0.200 F 
ENDBRANCH  67  90
ENDBRANCH  41  42
ENDBRANCH  34  36
ENDBRANCH  33  34
ENDBRANCH  32  33
ENDBRANCH  31  32
ENDBRANCH  30  31
ENDBRANCH  29  30
ENDBRANCH   1  29
TORSDOF 20
