REMARK SMILES COc1ccc2c(c1)c(Cc1nc(-c3ccc(C(=O)OCCOCCOCCOC(=O)c4ccc(-c5c6nc(c(-c7c(F)c(F)c(F)c(F)c7F)c7ccc([nH]7)c(-c7c(F)c(F)c(F)c(F)c7F)c7nc(c(-c8c(F)c(F)c(F)c(F)c8F)c8ccc5[nH]8)C=C7)C=C6)cc4)cc3)cs1)c(C)n2C(=O)c1ccc(Cl)cc1
REMARK SMILES IDX 23 1 22 2 21 3 20 4 18 5 19 6 17 7 14 8 15 9 96 10 16 11
REMARK SMILES IDX 95 12 13 13 11 14 12 15 98 16 97 17 10 18 9 19 3 20 4 21
REMARK SMILES IDX 8 22 5 23 7 24 6 25 101 26 99 27 100 28 2 29 1 30 102 31
REMARK SMILES IDX 103 32 104 33 105 34 110 35 106 36 109 37 107 38 108 39
REMARK SMILES IDX 24 40 25 41 26 42 27 43 28 44 29 45 30 46 31 47 32 48 33 49
REMARK SMILES IDX 94 50 34 51 93 52 35 53 36 54 37 55 87 56 38 57 92 58 86 59
REMARK SMILES IDX 88 60 39 61 91 62 85 63 84 64 40 66 72 67 52 68 71 69 53 70
REMARK SMILES IDX 56 71 70 72 89 73 54 74 55 75 69 77 90 78 57 79 41 80 42 81
REMARK SMILES IDX 50 82 43 83 44 84 48 85 51 86 45 87 46 88 49 89 47 90 73 91
REMARK SMILES IDX 74 92 82 93 75 94 76 95 80 96 83 97 77 98 78 99 81 100
REMARK SMILES IDX 79 101 58 102 59 103 67 104 60 105 61 106 65 107 68 108
REMARK SMILES IDX 62 109 63 110 66 111 64 112
REMARK H PARENT 88 65 56 76
REMARK Flexibility Score: inf
ROOT
ATOM      1  O   UNL     1      -3.439   8.694  -5.531  1.00  0.00    -0.376 OA
ENDROOT
BRANCH   1   2
ATOM      2  C   UNL     1      -3.492   7.568  -6.389  1.00  0.00     0.202 C 
BRANCH   2   3
ATOM      3  C   UNL     1      -3.159   6.141  -5.882  1.00  0.00     0.261 C 
BRANCH   3   4
ATOM      4  O   UNL     1      -3.648   5.793  -4.553  1.00  0.00    -0.460 OA
BRANCH   4   5
ATOM      5  C   UNL     1      -2.778   5.119  -3.744  1.00  0.00     0.338 C 
ATOM      6  O   UNL     1      -1.698   4.671  -4.101  1.00  0.00    -0.246 OA
BRANCH   5   7
ATOM      7  C   UNL     1      -3.146   5.154  -2.284  1.00  0.00     0.060 A 
ATOM      8  C   UNL     1      -3.119   5.160   0.601  1.00  0.00     0.001 A 
ATOM      9  C   UNL     1      -2.682   6.235  -0.144  1.00  0.00     0.011 A 
ATOM     10  C   UNL     1      -3.592   4.063  -0.130  1.00  0.00     0.011 A 
ATOM     11  C   UNL     1      -2.749   6.257  -1.537  1.00  0.00     0.016 A 
ATOM     12  C   UNL     1      -3.581   4.048  -1.562  1.00  0.00     0.016 A 
BRANCH   8  13
ATOM     13  C   UNL     1      -2.957   5.232   2.060  1.00  0.00     0.081 A 
ATOM     14  C   UNL     1      -2.433   4.487   4.087  1.00  0.00     0.098 A 
ATOM     15  N   UNL     1      -2.749   4.117   2.855  1.00  0.00    -0.241 NA
ATOM     16  S   UNL     1      -2.510   6.178   4.397  1.00  0.00    -0.126 S 
ATOM     17  C   UNL     1      -2.904   6.435   2.754  1.00  0.00     0.095 A 
BRANCH  14  18
ATOM     18  C   UNL     1      -2.013   3.558   5.200  1.00  0.00     0.105 C 
BRANCH  18  19
ATOM     19  C   UNL     1      -0.522   3.307   5.206  1.00  0.00    -0.012 A 
ATOM     20  C   UNL     1       0.860   1.110   1.536  1.00  0.00     0.119 A 
ATOM     21  C   UNL     1       2.764   1.402   2.084  1.00  0.00     0.048 A 
ATOM     22  C   UNL     1      -0.388   1.791   2.657  1.00  0.00     0.057 A 
ATOM     23  C   UNL     1       3.114   2.221   3.601  1.00  0.00     0.031 A 
ATOM     24  C   UNL     1       0.144   2.623   4.156  1.00  0.00     0.008 A 
ATOM     25  C   UNL     1       1.798   2.795   4.598  1.00  0.00     0.057 A 
ATOM     26  N   UNL     1       1.756   3.283   5.911  1.00  0.00    -0.280 N 
ATOM     27  C   UNL     1       0.408   3.611   6.227  1.00  0.00     0.028 A 
ATOM     28  C   UNL     1       0.003   4.162   7.571  1.00  0.00     0.065 C 
BRANCH  20  29
ATOM     29  O   UNL     1       0.222   0.804   0.322  1.00  0.00    -0.497 OA
ATOM     30  C   UNL     1       0.020  -0.554  -0.099  1.00  0.00     0.278 C 
ENDBRANCH  20  29
BRANCH  26  31
ATOM     31  C   UNL     1       2.923   3.329   6.762  1.00  0.00     0.262 C 
ATOM     32  O   UNL     1       2.812   3.696   7.929  1.00  0.00    -0.268 OA
BRANCH  31  33
ATOM     33  C   UNL     1       4.286   2.860   6.377  1.00  0.00     0.040 A 
ATOM     34  C   UNL     1       5.109   3.599   5.510  1.00  0.00     0.015 A 
ATOM     35  C   UNL     1       4.688   1.585   6.802  1.00  0.00     0.015 A 
ATOM     36  C   UNL     1       6.243   2.986   4.944  1.00  0.00     0.021 A 
ATOM     37  C   UNL     1       5.831   0.990   6.254  1.00  0.00     0.021 A 
ATOM     38  C   UNL     1       6.575   1.673   5.292  1.00  0.00     0.041 A 
ATOM     39  Cl  UNL     1       7.841   0.857   4.458  1.00  0.00    -0.084 Cl
ENDBRANCH  31  33
ENDBRANCH  26  31
ENDBRANCH  18  19
ENDBRANCH  14  18
ENDBRANCH   8  13
ENDBRANCH   5   7
ENDBRANCH   4   5
ENDBRANCH   3   4
ENDBRANCH   2   3
ENDBRANCH   1   2
BRANCH   1  40
ATOM     40  C   UNL     1      -3.280   8.427  -4.161  1.00  0.00     0.188 C 
BRANCH  40  41
ATOM     41  C   UNL     1      -4.554   8.140  -3.329  1.00  0.00     0.188 C 
BRANCH  41  42
ATOM     42  O   UNL     1      -5.772   7.894  -3.985  1.00  0.00    -0.376 OA
BRANCH  42  43
ATOM     43  C   UNL     1      -6.273   8.960  -4.768  1.00  0.00     0.202 C 
BRANCH  43  44
ATOM     44  C   UNL     1      -6.157  10.419  -4.250  1.00  0.00     0.261 C 
BRANCH  44  45
ATOM     45  O   UNL     1      -4.840  10.834  -3.784  1.00  0.00    -0.460 OA
BRANCH  45  46
ATOM     46  C   UNL     1      -4.743  11.336  -2.512  1.00  0.00     0.338 C 
ATOM     47  O   UNL     1      -5.678  11.696  -1.816  1.00  0.00    -0.246 OA
BRANCH  46  48
ATOM     48  C   UNL     1      -3.391  10.995  -1.938  1.00  0.00     0.060 A 
ATOM     49  C   UNL     1      -2.169  11.181  -2.596  1.00  0.00     0.016 A 
ATOM     50  C   UNL     1      -3.396  10.207  -0.787  1.00  0.00     0.016 A 
ATOM     51  C   UNL     1      -1.037  10.382  -2.251  1.00  0.00     0.010 A 
ATOM     52  C   UNL     1      -2.260   9.462  -0.439  1.00  0.00     0.010 A 
ATOM     53  C   UNL     1      -1.106   9.401  -1.243  1.00  0.00    -0.014 A 
BRANCH  53  54
ATOM     54  C   UNL     1       0.091   8.606  -0.752  1.00  0.00     0.031 A 
ATOM     55  C   UNL     1       0.936   9.533   0.028  1.00  0.00     0.074 A 
ATOM     56  C   UNL     1       0.505   7.294  -0.862  1.00  0.00     0.049 A 
ATOM     57  N   UNL     1       2.039  10.025  -0.429  1.00  0.00    -0.248 NA
ATOM     58  C   UNL     1       0.438  10.195   1.238  1.00  0.00     0.031 C 
ATOM     59  C   UNL     1      -0.014   6.235  -1.716  1.00  0.00     0.029 A 
ATOM     60  N   UNL     1       1.490   6.564  -0.175  1.00  0.00    -0.354 N 
ATOM     61  C   UNL     1       2.507  10.855   0.571  1.00  0.00     0.074 A 
ATOM     62  C   UNL     1       1.389  11.112   1.437  1.00  0.00     0.031 C 
ATOM     63  C   UNL     1       0.318   4.994  -1.277  1.00  0.00     0.029 A 
ATOM     64  C   UNL     1       1.340   5.134  -0.254  1.00  0.00     0.049 A 
ATOM     65  H   UNL     1       2.223   6.995   0.320  1.00  0.00     0.167 HD
ATOM     66  C   UNL     1       3.846  10.948   0.773  1.00  0.00     0.037 A 
ATOM     67  C   UNL     1       2.214   4.106   0.012  1.00  0.00     0.037 A 
ATOM     68  C   UNL     1       4.572  10.409  -0.354  1.00  0.00     0.049 A 
ATOM     69  C   UNL     1       3.562   4.668  -0.015  1.00  0.00     0.074 A 
ATOM     70  C   UNL     1       4.870  10.825  -1.635  1.00  0.00     0.029 A 
ATOM     71  N   UNL     1       4.679   9.043  -0.340  1.00  0.00    -0.354 N 
ATOM     72  N   UNL     1       4.160   4.960  -1.133  1.00  0.00    -0.248 NA
ATOM     73  C   UNL     1       4.066   5.333   1.177  1.00  0.00     0.031 C 
ATOM     74  C   UNL     1       5.046   9.644  -2.417  1.00  0.00     0.029 A 
ATOM     75  C   UNL     1       4.932   8.536  -1.586  1.00  0.00     0.049 A 
ATOM     76  H   UNL     1       4.586   8.491   0.470  1.00  0.00     0.167 HD
ATOM     77  C   UNL     1       4.755   6.174  -0.865  1.00  0.00     0.074 A 
ATOM     78  C   UNL     1       4.816   6.272   0.593  1.00  0.00     0.031 C 
ATOM     79  C   UNL     1       4.822   7.124  -1.840  1.00  0.00     0.037 A 
BRANCH  66  80
ATOM     80  C   UNL     1       4.465  11.045   2.143  1.00  0.00     0.064 A 
ATOM     81  C   UNL     1       5.834  11.339   2.263  1.00  0.00     0.173 A 
ATOM     82  C   UNL     1       3.833  10.597   3.326  1.00  0.00     0.173 A 
ATOM     83  F   UNL     1       6.546  11.715   1.189  1.00  0.00    -0.203 F 
ATOM     84  C   UNL     1       6.518  11.181   3.472  1.00  0.00     0.198 A 
ATOM     85  C   UNL     1       4.503  10.495   4.542  1.00  0.00     0.198 A 
ATOM     86  F   UNL     1       2.580  10.128   3.334  1.00  0.00    -0.203 F 
ATOM     87  F   UNL     1       7.842  11.380   3.519  1.00  0.00    -0.200 F 
ATOM     88  C   UNL     1       5.850  10.768   4.612  1.00  0.00     0.200 A 
ATOM     89  F   UNL     1       3.842  10.056   5.622  1.00  0.00    -0.200 F 
ATOM     90  F   UNL     1       6.510  10.581   5.762  1.00  0.00    -0.200 F 
ENDBRANCH  66  80
BRANCH  67  91
ATOM     91  C   UNL     1       2.005   2.752   0.609  1.00  0.00     0.064 A 
ATOM     92  C   UNL     1       2.549   1.193  -0.060  1.00  0.00     0.173 A 
ATOM     93  C   UNL     1       1.464   2.723   2.332  1.00  0.00     0.173 A 
ATOM     94  F   UNL     1       3.170   1.178  -1.249  1.00  0.00    -0.203 F 
ATOM     95  C   UNL     1       2.533  -0.360   0.855  1.00  0.00     0.198 A 
ATOM     96  C   UNL     1       1.428   0.971   3.336  1.00  0.00     0.198 A 
ATOM     97  F   UNL     1       1.205   4.006   2.749  1.00  0.00    -0.203 F 
ATOM     98  F   UNL     1       3.105  -1.445   0.306  1.00  0.00    -0.200 F 
ATOM     99  C   UNL     1       1.969  -0.508   2.507  1.00  0.00     0.200 A 
ATOM    100  F   UNL     1       1.066   0.656   4.626  1.00  0.00    -0.200 F 
ATOM    101  F   UNL     1       2.045  -1.664   3.184  1.00  0.00    -0.200 F 
ENDBRANCH  67  91
BRANCH  79 102
ATOM    102  C   UNL     1       4.643   6.647  -3.249  1.00  0.00     0.064 A 
ATOM    103  C   UNL     1       3.403   6.315  -3.817  1.00  0.00     0.173 A 
ATOM    104  C   UNL     1       5.768   6.562  -4.070  1.00  0.00     0.173 A 
ATOM    105  F   UNL     1       2.278   6.471  -3.118  1.00  0.00    -0.203 F 
ATOM    106  C   UNL     1       3.299   5.867  -5.133  1.00  0.00     0.198 A 
ATOM    107  C   UNL     1       5.662   6.149  -5.396  1.00  0.00     0.198 A 
ATOM    108  F   UNL     1       6.970   6.917  -3.593  1.00  0.00    -0.203 F 
ATOM    109  F   UNL     1       2.102   5.546  -5.647  1.00  0.00    -0.200 F 
ATOM    110  C   UNL     1       4.432   5.786  -5.923  1.00  0.00     0.200 A 
ATOM    111  F   UNL     1       6.755   6.124  -6.170  1.00  0.00    -0.200 F 
ATOM    112  F   UNL     1       4.338   5.390  -7.200  1.00  0.00    -0.200 F 
ENDBRANCH  79 102
ENDBRANCH  53  54
ENDBRANCH  46  48
ENDBRANCH  45  46
ENDBRANCH  44  45
ENDBRANCH  43  44
ENDBRANCH  42  43
ENDBRANCH  41  42
ENDBRANCH  40  41
ENDBRANCH   1  40
TORSDOF 23
