REMARK SMILES C[C@H]1[NH2+]CC[C@H]1C(=O)N1CCC(C(=O)OCCOCCOCCOC(=O)c2ccc(-c3c4nc(c(-c5c(F)c(F)c(F)c(F)c5F)c5ccc([nH]5)c(-c5c(F)c(F)c(F)c(F)c5F)c5nc(c(-c6c(F)c(F)c(F)c(F)c6F)c6ccc3[nH]6)C=C5)C=C4)cc2)CC1
REMARK SMILES IDX 20 1 19 2 18 3 17 4 16 5 15 6 13 7 14 8 12 9 7 10 8 11 9 12
REMARK SMILES IDX 10 13 91 14 11 15 90 16 6 17 1 18 2 19 3 20 4 21 5 24 21 25
REMARK SMILES IDX 22 26 23 27 24 28 25 29 26 30 27 31 28 32 89 33 29 34 88 35
REMARK SMILES IDX 30 36 31 37 32 38 82 39 33 40 87 41 81 42 83 43 34 44 86 45
REMARK SMILES IDX 80 46 79 47 35 49 67 50 47 51 66 52 48 53 51 54 65 55 84 56
REMARK SMILES IDX 49 57 50 58 64 60 85 61 52 62 36 63 37 64 45 65 38 66 39 67
REMARK SMILES IDX 43 68 46 69 40 70 41 71 44 72 42 73 68 74 69 75 77 76 70 77
REMARK SMILES IDX 71 78 75 79 78 80 72 81 73 82 76 83 74 84 53 85 54 86 62 87
REMARK SMILES IDX 55 88 56 89 60 90 63 91 57 92 58 93 61 94 59 95
REMARK H PARENT 3 22 3 23 83 48 51 59
REMARK Flexibility Score: inf
ROOT
ATOM      1  C   UNL     1       4.511   6.964   3.989  1.00  0.00     0.188 C 
ENDROOT
BRANCH   1   2
ATOM      2  C   UNL     1       5.628   5.978   4.340  1.00  0.00     0.188 C 
BRANCH   2   3
ATOM      3  O   UNL     1       6.946   6.354   3.959  1.00  0.00    -0.376 OA
BRANCH   3   4
ATOM      4  C   UNL     1       7.172   6.642   2.577  1.00  0.00     0.202 C 
BRANCH   4   5
ATOM      5  C   UNL     1       6.849   5.534   1.560  1.00  0.00     0.261 C 
BRANCH   5   6
ATOM      6  O   UNL     1       5.478   5.078   1.576  1.00  0.00    -0.463 OA
BRANCH   6   7
ATOM      7  C   UNL     1       5.295   3.795   1.976  1.00  0.00     0.309 C 
ATOM      8  O   UNL     1       6.206   3.033   2.289  1.00  0.00    -0.252 OA
BRANCH   7   9
ATOM      9  C   UNL     1       3.839   3.395   2.163  1.00  0.00     0.103 C 
ATOM     10  C   UNL     1       0.996   2.061  -0.119  1.00  0.00     0.231 C 
ATOM     11  O   UNL     1       1.360   2.834  -1.007  1.00  0.00    -0.274 OA
ATOM     12  N   UNL     1       1.327   2.300   1.212  1.00  0.00    -0.342 N 
ATOM     13  C   UNL     1       1.358   3.681   1.686  1.00  0.00     0.120 C 
ATOM     14  C   UNL     1       2.292   1.451   1.881  1.00  0.00     0.120 C 
ATOM     15  C   UNL     1       2.755   4.315   1.578  1.00  0.00     0.037 C 
ATOM     16  C   UNL     1       3.692   1.974   1.604  1.00  0.00     0.037 C 
BRANCH  10  17
ATOM     17  C   UNL     1       0.029   0.916  -0.442  1.00  0.00     0.142 C 
ATOM     18  C   UNL     1       1.660  -1.146  -0.153  1.00  0.00     0.076 C 
ATOM     19  C   UNL     1       0.493  -0.479  -0.865  1.00  0.00     0.192 C 
ATOM     20  N   UNL     1      -0.704  -1.335  -0.689  1.00  0.00    -0.343 N 
ATOM     21  C   UNL     1      -1.666  -0.646   0.173  1.00  0.00     0.261 C 
ATOM     22  H   UNL     1      -0.432  -2.218  -0.259  1.00  0.00     0.346 HD
ATOM     23  H   UNL     1      -1.130  -1.519  -1.598  1.00  0.00     0.346 HD
ATOM     24  C   UNL     1      -1.042   0.667   0.603  1.00  0.00     0.081 C 
ENDBRANCH  10  17
ENDBRANCH   7   9
ENDBRANCH   6   7
ENDBRANCH   5   6
ENDBRANCH   4   5
ENDBRANCH   3   4
ENDBRANCH   2   3
ENDBRANCH   1   2
BRANCH   1  25
ATOM     25  O   UNL     1       4.606   7.540   2.700  1.00  0.00    -0.376 OA
BRANCH  25  26
ATOM     26  C   UNL     1       3.858   8.724   2.428  1.00  0.00     0.202 C 
BRANCH  26  27
ATOM     27  C   UNL     1       3.973   9.893   3.433  1.00  0.00     0.261 C 
BRANCH  27  28
ATOM     28  O   UNL     1       3.577   9.607   4.793  1.00  0.00    -0.460 OA
BRANCH  28  29
ATOM     29  C   UNL     1       2.371   9.026   4.980  1.00  0.00     0.338 C 
ATOM     30  O   UNL     1       1.462   8.970   4.167  1.00  0.00    -0.246 OA
BRANCH  29  31
ATOM     31  C   UNL     1       2.406   8.217   6.232  1.00  0.00     0.060 A 
ATOM     32  C   UNL     1       1.752   6.976   6.219  1.00  0.00     0.016 A 
ATOM     33  C   UNL     1       3.104   8.614   7.378  1.00  0.00     0.016 A 
ATOM     34  C   UNL     1       1.730   6.170   7.361  1.00  0.00     0.010 A 
ATOM     35  C   UNL     1       3.072   7.810   8.529  1.00  0.00     0.010 A 
ATOM     36  C   UNL     1       2.340   6.608   8.543  1.00  0.00    -0.014 A 
BRANCH  36  37
ATOM     37  C   UNL     1       1.984   5.944   9.829  1.00  0.00     0.031 A 
ATOM     38  C   UNL     1       0.904   6.575  10.672  1.00  0.00     0.074 A 
ATOM     39  C   UNL     1       2.533   4.780  10.224  1.00  0.00     0.049 A 
ATOM     40  N   UNL     1       0.397   6.186  11.816  1.00  0.00    -0.248 NA
ATOM     41  C   UNL     1       0.315   7.818  10.148  1.00  0.00     0.031 C 
ATOM     42  C   UNL     1       3.552   4.030   9.497  1.00  0.00     0.029 A 
ATOM     43  N   UNL     1       2.297   4.023  11.350  1.00  0.00    -0.354 N 
ATOM     44  C   UNL     1      -0.563   7.135  12.145  1.00  0.00     0.074 A 
ATOM     45  C   UNL     1      -0.541   8.139  11.104  1.00  0.00     0.031 C 
ATOM     46  C   UNL     1       3.860   2.922  10.197  1.00  0.00     0.029 A 
ATOM     47  C   UNL     1       3.077   2.895  11.433  1.00  0.00     0.049 A 
ATOM     48  H   UNL     1       1.631   4.268  12.032  1.00  0.00     0.167 HD
ATOM     49  C   UNL     1      -1.402   7.166  13.207  1.00  0.00     0.037 A 
ATOM     50  C   UNL     1       3.158   1.958  12.401  1.00  0.00     0.037 A 
ATOM     51  C   UNL     1      -1.434   6.176  14.251  1.00  0.00     0.049 A 
ATOM     52  C   UNL     1       2.263   2.053  13.615  1.00  0.00     0.074 A 
ATOM     53  C   UNL     1      -2.255   6.122  15.364  1.00  0.00     0.029 A 
ATOM     54  N   UNL     1      -0.601   5.070  14.316  1.00  0.00    -0.354 N 
ATOM     55  N   UNL     1       1.341   2.939  13.903  1.00  0.00    -0.248 NA
ATOM     56  C   UNL     1       2.418   1.004  14.636  1.00  0.00     0.031 C 
ATOM     57  C   UNL     1      -1.881   5.015  16.132  1.00  0.00     0.029 A 
ATOM     58  C   UNL     1      -0.874   4.339  15.462  1.00  0.00     0.049 A 
ATOM     59  H   UNL     1       0.083   4.837  13.647  1.00  0.00     0.167 HD
ATOM     60  C   UNL     1       0.781   2.533  15.111  1.00  0.00     0.074 A 
ATOM     61  C   UNL     1       1.458   1.314  15.495  1.00  0.00     0.031 C 
ATOM     62  C   UNL     1      -0.208   3.117  15.834  1.00  0.00     0.037 A 
BRANCH  49  63
ATOM     63  C   UNL     1      -2.341   8.334  13.309  1.00  0.00     0.064 A 
ATOM     64  C   UNL     1      -3.419   8.496  12.425  1.00  0.00     0.173 A 
ATOM     65  C   UNL     1      -2.172   9.293  14.319  1.00  0.00     0.173 A 
ATOM     66  F   UNL     1      -3.615   7.618  11.430  1.00  0.00    -0.203 F 
ATOM     67  C   UNL     1      -4.274   9.591  12.531  1.00  0.00     0.198 A 
ATOM     68  C   UNL     1      -3.049  10.367  14.443  1.00  0.00     0.198 A 
ATOM     69  F   UNL     1      -1.159   9.185  15.192  1.00  0.00    -0.203 F 
ATOM     70  F   UNL     1      -5.262   9.755  11.641  1.00  0.00    -0.200 F 
ATOM     71  C   UNL     1      -4.093  10.520  13.544  1.00  0.00     0.200 A 
ATOM     72  F   UNL     1      -2.880  11.256  15.431  1.00  0.00    -0.200 F 
ATOM     73  F   UNL     1      -4.920  11.569  13.649  1.00  0.00    -0.200 F 
ENDBRANCH  49  63
BRANCH  50  74
ATOM     74  C   UNL     1       4.129   0.836  12.279  1.00  0.00     0.064 A 
ATOM     75  C   UNL     1       3.694  -0.490  12.132  1.00  0.00     0.173 A 
ATOM     76  C   UNL     1       5.511   1.060  12.360  1.00  0.00     0.173 A 
ATOM     77  F   UNL     1       2.381  -0.762  12.084  1.00  0.00    -0.203 F 
ATOM     78  C   UNL     1       4.601  -1.548  12.096  1.00  0.00     0.198 A 
ATOM     79  C   UNL     1       6.419   0.004  12.291  1.00  0.00     0.198 A 
ATOM     80  F   UNL     1       5.982   2.306  12.511  1.00  0.00    -0.203 F 
ATOM     81  F   UNL     1       4.154  -2.809  12.017  1.00  0.00    -0.200 F 
ATOM     82  C   UNL     1       5.963  -1.299  12.169  1.00  0.00     0.200 A 
ATOM     83  F   UNL     1       7.735   0.250  12.355  1.00  0.00    -0.200 F 
ATOM     84  F   UNL     1       6.835  -2.316  12.136  1.00  0.00    -0.200 F 
ENDBRANCH  50  74
BRANCH  62  85
ATOM     85  C   UNL     1      -0.666   2.416  17.084  1.00  0.00     0.064 A 
ATOM     86  C   UNL     1       0.146   2.317  18.224  1.00  0.00     0.173 A 
ATOM     87  C   UNL     1      -1.952   1.854  17.149  1.00  0.00     0.173 A 
ATOM     88  F   UNL     1       1.387   2.828  18.217  1.00  0.00    -0.203 F 
ATOM     89  C   UNL     1      -0.294   1.646  19.364  1.00  0.00     0.198 A 
ATOM     90  C   UNL     1      -2.402   1.217  18.302  1.00  0.00     0.198 A 
ATOM     91  F   UNL     1      -2.777   1.930  16.094  1.00  0.00    -0.203 F 
ATOM     92  F   UNL     1       0.524   1.508  20.416  1.00  0.00    -0.200 F 
ATOM     93  C   UNL     1      -1.569   1.102  19.404  1.00  0.00     0.200 A 
ATOM     94  F   UNL     1      -3.642   0.709  18.344  1.00  0.00    -0.200 F 
ATOM     95  F   UNL     1      -1.991   0.458  20.501  1.00  0.00    -0.200 F 
ENDBRANCH  62  85
ENDBRANCH  36  37
ENDBRANCH  29  31
ENDBRANCH  28  29
ENDBRANCH  27  28
ENDBRANCH  26  27
ENDBRANCH  25  26
ENDBRANCH   1  25
TORSDOF 18
