REMARK SMILES CC(C)(C)OC(=O)N[C@@H](Cc1c[nH]c2cccc(Cl)c12)C(=O)OCCOCCOCCOC(=O)c1ccc(-c2c3nc(c(-c4c(F)c(F)c(F)c(F)c4F)c4ccc([nH]4)c(-c4c(F)c(F)c(F)c(F)c4F)c4nc(c(-c5c(F)c(F)c(F)c(F)c5F)c5ccc2[nH]5)C=C4)C=C3)cc1
REMARK SMILES IDX 27 1 26 2 25 3 24 4 23 5 21 6 22 7 9 8 8 9 6 10 7 11 5 13
REMARK SMILES IDX 2 14 1 15 3 16 4 17 10 18 11 19 12 20 20 21 13 22 14 23
REMARK SMILES IDX 18 24 15 26 17 27 19 28 16 29 28 30 29 31 30 32 31 33 32 34
REMARK SMILES IDX 33 35 34 36 35 37 36 38 97 39 37 40 96 41 38 42 39 43 40 44
REMARK SMILES IDX 90 45 41 46 95 47 89 48 91 49 42 50 94 51 88 52 87 53 43 55
REMARK SMILES IDX 75 56 55 57 74 58 56 59 59 60 73 61 92 62 57 63 58 64 72 66
REMARK SMILES IDX 93 67 60 68 44 69 45 70 53 71 46 72 47 73 51 74 54 75 48 76
REMARK SMILES IDX 49 77 52 78 50 79 76 80 77 81 85 82 78 83 79 84 83 85 86 86
REMARK SMILES IDX 80 87 81 88 84 89 82 90 61 91 62 92 70 93 63 94 64 95 68 96
REMARK SMILES IDX 71 97 65 98 66 99 69 100 67 101
REMARK H PARENT 8 12 13 25 91 54 59 65
REMARK Flexibility Score: inf
ROOT
ATOM      1  C   UNL     1      -0.823  -5.682   0.414  1.00  0.00     0.188 C 
ENDROOT
BRANCH   1   2
ATOM      2  O   UNL     1      -0.960  -7.064   0.114  1.00  0.00    -0.376 OA
BRANCH   2   3
ATOM      3  C   UNL     1      -0.469  -8.017   1.050  1.00  0.00     0.202 C 
BRANCH   3   4
ATOM      4  C   UNL     1       0.934  -7.850   1.674  1.00  0.00     0.261 C 
BRANCH   4   5
ATOM      5  O   UNL     1       1.252  -6.539   2.188  1.00  0.00    -0.462 OA
BRANCH   5   6
ATOM      6  C   UNL     1       2.295  -5.876   1.624  1.00  0.00     0.329 C 
ATOM      7  O   UNL     1       3.000  -6.344   0.734  1.00  0.00    -0.250 OA
BRANCH   6   8
ATOM      8  C   UNL     1       2.593  -4.505   2.280  1.00  0.00     0.200 C 
BRANCH   8   9
ATOM      9  N   UNL     1       1.554  -3.891   3.120  1.00  0.00    -0.308 N 
ATOM     10  C   UNL     1       0.994  -2.654   3.028  1.00  0.00     0.408 C 
ATOM     11  O   UNL     1       0.231  -2.250   3.913  1.00  0.00    -0.225 OA
ATOM     12  H   UNL     1       1.215  -4.455   3.852  1.00  0.00     0.168 HD
BRANCH  10  13
ATOM     13  O   UNL     1       1.293  -1.976   1.897  1.00  0.00    -0.444 OA
BRANCH  13  14
ATOM     14  C   UNL     1       0.767  -0.631   1.679  1.00  0.00     0.106 C 
ATOM     15  C   UNL     1       1.233  -0.232   0.268  1.00  0.00     0.056 C 
ATOM     16  C   UNL     1       1.367   0.355   2.688  1.00  0.00     0.056 C 
ATOM     17  C   UNL     1      -0.769  -0.568   1.685  1.00  0.00     0.056 C 
ENDBRANCH  13  14
ENDBRANCH  10  13
ENDBRANCH   8   9
BRANCH   8  18
ATOM     18  C   UNL     1       3.887  -4.686   3.104  1.00  0.00     0.075 C 
BRANCH  18  19
ATOM     19  C   UNL     1       3.684  -5.563   4.319  1.00  0.00    -0.018 A 
ATOM     20  C   UNL     1       3.773  -6.944   4.297  1.00  0.00     0.087 A 
ATOM     21  C   UNL     1       3.293  -5.189   5.660  1.00  0.00     0.021 A 
ATOM     22  N   UNL     1       3.405  -7.425   5.519  1.00  0.00    -0.361 N 
ATOM     23  C   UNL     1       3.090  -6.387   6.361  1.00  0.00     0.047 A 
ATOM     24  C   UNL     1       3.046  -3.995   6.381  1.00  0.00     0.050 A 
ATOM     25  H   UNL     1       3.369  -8.378   5.761  1.00  0.00     0.166 HD
ATOM     26  C   UNL     1       2.641  -6.434   7.690  1.00  0.00     0.027 A 
ATOM     27  C   UNL     1       2.587  -4.016   7.701  1.00  0.00     0.021 A 
ATOM     28  Cl  UNL     1       3.362  -2.497   5.620  1.00  0.00    -0.084 Cl
ATOM     29  C   UNL     1       2.384  -5.229   8.345  1.00  0.00     0.004 A 
ENDBRANCH  18  19
ENDBRANCH   8  18
ENDBRANCH   6   8
ENDBRANCH   5   6
ENDBRANCH   4   5
ENDBRANCH   3   4
ENDBRANCH   2   3
ENDBRANCH   1   2
BRANCH   1  30
ATOM     30  C   UNL     1      -1.182  -5.171   1.822  1.00  0.00     0.188 C 
BRANCH  30  31
ATOM     31  O   UNL     1      -1.246  -6.159   2.829  1.00  0.00    -0.376 OA
BRANCH  31  32
ATOM     32  C   UNL     1      -2.465  -6.487   3.471  1.00  0.00     0.202 C 
BRANCH  32  33
ATOM     33  C   UNL     1      -3.743  -6.744   2.664  1.00  0.00     0.261 C 
BRANCH  33  34
ATOM     34  O   UNL     1      -3.840  -6.028   1.447  1.00  0.00    -0.460 OA
BRANCH  34  35
ATOM     35  C   UNL     1      -4.151  -4.737   1.639  1.00  0.00     0.338 C 
ATOM     36  O   UNL     1      -4.292  -4.152   2.705  1.00  0.00    -0.246 OA
BRANCH  35  37
ATOM     37  C   UNL     1      -4.271  -4.080   0.345  1.00  0.00     0.060 A 
ATOM     38  C   UNL     1      -4.025  -2.707   0.346  1.00  0.00     0.016 A 
ATOM     39  C   UNL     1      -5.062  -4.722  -0.611  1.00  0.00     0.016 A 
ATOM     40  C   UNL     1      -4.854  -1.926  -0.409  1.00  0.00     0.010 A 
ATOM     41  C   UNL     1      -5.907  -3.938  -1.351  1.00  0.00     0.010 A 
ATOM     42  C   UNL     1      -5.866  -2.561  -1.140  1.00  0.00    -0.014 A 
BRANCH  42  43
ATOM     43  C   UNL     1      -6.888  -1.710  -1.697  1.00  0.00     0.031 A 
ATOM     44  C   UNL     1      -6.397  -0.923  -2.841  1.00  0.00     0.074 A 
ATOM     45  C   UNL     1      -8.141  -1.688  -1.208  1.00  0.00     0.049 A 
ATOM     46  N   UNL     1      -6.281   0.359  -2.924  1.00  0.00    -0.248 NA
ATOM     47  C   UNL     1      -5.793  -1.666  -3.958  1.00  0.00     0.031 C 
ATOM     48  C   UNL     1      -8.758  -2.592  -0.234  1.00  0.00     0.029 A 
ATOM     49  N   UNL     1      -9.170  -0.878  -1.567  1.00  0.00    -0.354 N 
ATOM     50  C   UNL     1      -5.760   0.597  -4.189  1.00  0.00     0.074 A 
ATOM     51  C   UNL     1      -5.319  -0.671  -4.705  1.00  0.00     0.031 C 
ATOM     52  C   UNL     1     -10.101  -2.425  -0.263  1.00  0.00     0.029 A 
ATOM     53  C   UNL     1     -10.418  -1.322  -1.155  1.00  0.00     0.049 A 
ATOM     54  H   UNL     1      -9.042  -0.045  -2.077  1.00  0.00     0.167 HD
ATOM     55  C   UNL     1      -5.993   1.777  -4.816  1.00  0.00     0.037 A 
ATOM     56  C   UNL     1     -11.611  -0.853  -1.596  1.00  0.00     0.037 A 
ATOM     57  C   UNL     1      -6.315   2.816  -3.873  1.00  0.00     0.049 A 
ATOM     58  C   UNL     1     -11.364   0.481  -2.201  1.00  0.00     0.074 A 
ATOM     59  C   UNL     1      -5.645   3.406  -2.819  1.00  0.00     0.029 A 
ATOM     60  N   UNL     1      -7.635   3.157  -3.718  1.00  0.00    -0.354 N 
ATOM     61  N   UNL     1     -11.037   1.542  -1.518  1.00  0.00    -0.248 NA
ATOM     62  C   UNL     1     -11.053   0.535  -3.623  1.00  0.00     0.031 C 
ATOM     63  C   UNL     1      -6.648   3.689  -1.848  1.00  0.00     0.029 A 
ATOM     64  C   UNL     1      -7.878   3.298  -2.378  1.00  0.00     0.049 A 
ATOM     65  H   UNL     1      -8.291   3.279  -4.442  1.00  0.00     0.167 HD
ATOM     66  C   UNL     1     -10.114   2.204  -2.314  1.00  0.00     0.074 A 
ATOM     67  C   UNL     1     -10.239   1.594  -3.634  1.00  0.00     0.031 C 
ATOM     68  C   UNL     1      -9.141   2.978  -1.755  1.00  0.00     0.037 A 
BRANCH  55  69
ATOM     69  C   UNL     1      -6.340   1.864  -6.280  1.00  0.00     0.064 A 
ATOM     70  C   UNL     1      -6.478   3.135  -6.867  1.00  0.00     0.173 A 
ATOM     71  C   UNL     1      -6.842   0.782  -7.039  1.00  0.00     0.173 A 
ATOM     72  F   UNL     1      -6.058   4.234  -6.224  1.00  0.00    -0.203 F 
ATOM     73  C   UNL     1      -7.146   3.314  -8.081  1.00  0.00     0.198 A 
ATOM     74  C   UNL     1      -7.455   0.960  -8.275  1.00  0.00     0.198 A 
ATOM     75  F   UNL     1      -6.871  -0.472  -6.576  1.00  0.00    -0.203 F 
ATOM     76  F   UNL     1      -7.375   4.554  -8.534  1.00  0.00    -0.200 F 
ATOM     77  C   UNL     1      -7.639   2.228  -8.780  1.00  0.00     0.200 A 
ATOM     78  F   UNL     1      -7.944  -0.105  -8.925  1.00  0.00    -0.200 F 
ATOM     79  F   UNL     1      -8.336   2.403  -9.910  1.00  0.00    -0.200 F 
ENDBRANCH  55  69
BRANCH  56  80
ATOM     80  C   UNL     1     -12.876  -1.593  -1.817  1.00  0.00     0.064 A 
ATOM     81  C   UNL     1     -14.087  -0.905  -2.010  1.00  0.00     0.173 A 
ATOM     82  C   UNL     1     -12.881  -2.966  -2.129  1.00  0.00     0.173 A 
ATOM     83  F   UNL     1     -14.158   0.414  -1.779  1.00  0.00    -0.203 F 
ATOM     84  C   UNL     1     -15.223  -1.546  -2.516  1.00  0.00     0.198 A 
ATOM     85  C   UNL     1     -14.018  -3.606  -2.626  1.00  0.00     0.198 A 
ATOM     86  F   UNL     1     -11.758  -3.694  -2.055  1.00  0.00    -0.203 F 
ATOM     87  F   UNL     1     -16.338  -0.841  -2.751  1.00  0.00    -0.200 F 
ATOM     88  C   UNL     1     -15.184  -2.893  -2.833  1.00  0.00     0.200 A 
ATOM     89  F   UNL     1     -13.957  -4.902  -2.964  1.00  0.00    -0.200 F 
ATOM     90  F   UNL     1     -16.252  -3.493  -3.378  1.00  0.00    -0.200 F 
ENDBRANCH  56  80
BRANCH  68  91
ATOM     91  C   UNL     1      -9.271   3.323  -0.299  1.00  0.00     0.064 A 
ATOM     92  C   UNL     1      -9.190   2.379   0.740  1.00  0.00     0.173 A 
ATOM     93  C   UNL     1      -9.303   4.678   0.057  1.00  0.00     0.173 A 
ATOM     94  F   UNL     1      -9.067   1.072   0.475  1.00  0.00    -0.203 F 
ATOM     95  C   UNL     1      -9.165   2.779   2.075  1.00  0.00     0.198 A 
ATOM     96  C   UNL     1      -9.241   5.075   1.389  1.00  0.00     0.198 A 
ATOM     97  F   UNL     1      -9.330   5.622  -0.897  1.00  0.00    -0.203 F 
ATOM     98  F   UNL     1      -9.087   1.862   3.051  1.00  0.00    -0.200 F 
ATOM     99  C   UNL     1      -9.178   4.126   2.397  1.00  0.00     0.200 A 
ATOM    100  F   UNL     1      -9.205   6.379   1.693  1.00  0.00    -0.200 F 
ATOM    101  F   UNL     1      -9.099   4.513   3.678  1.00  0.00    -0.200 F 
ENDBRANCH  68  91
ENDBRANCH  42  43
ENDBRANCH  35  37
ENDBRANCH  34  35
ENDBRANCH  33  34
ENDBRANCH  32  33
ENDBRANCH  31  32
ENDBRANCH  30  31
ENDBRANCH   1  30
TORSDOF 22
