REMARK SMILES CC[NH2+][C@]1(C(=O)OCCOCCOCCOC(=O)c2ccc(-c3c4nc(c(-c5c(F)c(F)c(F)c(F)c5F)c5ccc([nH]5)c(-c5c(F)c(F)c(F)c(F)c5F)c5nc(c(-c6c(F)c(F)c(F)c(F)c6F)c6ccc3[nH]6)C=C5)C=C4)cc2)CCC[C@@H]1CCSc1ccccc1F
REMARK SMILES IDX 11 1 10 2 9 3 8 4 7 5 5 6 6 7 4 8 82 9 85 10 83 11 84 12
REMARK SMILES IDX 3 13 2 16 1 17 86 18 87 19 88 20 89 21 90 22 94 23 91 24
REMARK SMILES IDX 93 25 95 26 92 27 12 28 13 29 14 30 15 31 16 32 17 33 18 34
REMARK SMILES IDX 19 35 20 36 81 37 21 38 80 39 22 40 23 41 24 42 74 43 25 44
REMARK SMILES IDX 79 45 73 46 75 47 26 48 78 49 72 50 71 51 27 53 59 54 39 55
REMARK SMILES IDX 58 56 40 57 43 58 57 59 76 60 41 61 42 62 56 64 77 65 44 66
REMARK SMILES IDX 28 67 29 68 37 69 30 70 31 71 35 72 38 73 32 74 33 75 36 76
REMARK SMILES IDX 34 77 60 78 61 79 69 80 62 81 63 82 67 83 70 84 64 85 65 86
REMARK SMILES IDX 68 87 66 88 45 89 46 90 54 91 47 92 48 93 52 94 55 95 49 96
REMARK SMILES IDX 50 97 53 98 51 99
REMARK H PARENT 3 14 3 15 75 52 43 63
REMARK Flexibility Score: inf
ROOT
ATOM      1  C   UNL     1       0.842   0.203  -0.833  1.00  0.00     0.188 C 
ENDROOT
BRANCH   1   2
ATOM      2  O   UNL     1       1.885  -0.172  -1.727  1.00  0.00    -0.376 OA
BRANCH   2   3
ATOM      3  C   UNL     1       3.216   0.133  -1.321  1.00  0.00     0.202 C 
BRANCH   3   4
ATOM      4  C   UNL     1       3.621   1.601  -1.450  1.00  0.00     0.261 C 
BRANCH   4   5
ATOM      5  O   UNL     1       2.747   2.521  -0.775  1.00  0.00    -0.459 OA
BRANCH   5   6
ATOM      6  C   UNL     1       1.774   3.113  -1.530  1.00  0.00     0.368 C 
ATOM      7  O   UNL     1       1.555   2.801  -2.698  1.00  0.00    -0.245 OA
BRANCH   6   8
ATOM      8  C   UNL     1       0.978   4.267  -0.727  1.00  0.00     0.197 C 
ATOM      9  C   UNL     1       1.355   5.467  -1.691  1.00  0.00     0.081 C 
ATOM     10  C   UNL     1      -0.585   4.152  -1.119  1.00  0.00     0.063 C 
ATOM     11  C   UNL     1       0.198   6.441  -1.708  1.00  0.00     0.008 C 
ATOM     12  C   UNL     1      -1.041   5.587  -1.510  1.00  0.00     0.011 C 
BRANCH   8  13
ATOM     13  N   UNL     1       1.341   4.069   0.825  1.00  0.00    -0.332 N 
ATOM     14  H   UNL     1       0.527   3.532   1.125  1.00  0.00     0.347 HD
ATOM     15  H   UNL     1       2.332   4.006   0.588  1.00  0.00     0.347 HD
BRANCH  13  16
ATOM     16  C   UNL     1       1.824   5.010   2.619  1.00  0.00     0.257 C 
ATOM     17  C   UNL     1       1.232   4.925   4.212  1.00  0.00     0.071 C 
ENDBRANCH  13  16
ENDBRANCH   8  13
BRANCH  10  18
ATOM     18  C   UNL     1      -1.786   3.421  -0.443  1.00  0.00     0.022 C 
BRANCH  18  19
ATOM     19  C   UNL     1      -1.740   2.706   0.897  1.00  0.00     0.075 C 
BRANCH  19  20
ATOM     20  S   UNL     1      -1.836   3.850   2.300  1.00  0.00    -0.123 SA
BRANCH  20  21
ATOM     21  C   UNL     1      -0.127   4.285   2.209  1.00  0.00     0.043 A 
ATOM     22  C   UNL     1       0.366   5.810   1.359  1.00  0.00     0.018 A 
ATOM     23  C   UNL     1       1.116   3.009   2.583  1.00  0.00     0.136 A 
ATOM     24  C   UNL     1       2.112   6.013   0.817  1.00  0.00     0.001 A 
ATOM     25  C   UNL     1       2.841   3.208   2.064  1.00  0.00     0.040 A 
ATOM     26  F   UNL     1       0.729   1.877   3.184  1.00  0.00    -0.206 F 
ATOM     27  C   UNL     1       3.321   4.693   1.125  1.00  0.00     0.003 A 
ENDBRANCH  20  21
ENDBRANCH  19  20
ENDBRANCH  18  19
ENDBRANCH  10  18
ENDBRANCH   6   8
ENDBRANCH   5   6
ENDBRANCH   4   5
ENDBRANCH   3   4
ENDBRANCH   2   3
ENDBRANCH   1   2
BRANCH   1  28
ATOM     28  C   UNL     1       0.930  -0.422   0.546  1.00  0.00     0.188 C 
BRANCH  28  29
ATOM     29  O   UNL     1       2.081  -0.087   1.299  1.00  0.00    -0.376 OA
BRANCH  29  30
ATOM     30  C   UNL     1       2.190  -0.713   2.579  1.00  0.00     0.202 C 
BRANCH  30  31
ATOM     31  C   UNL     1       1.768  -2.189   2.785  1.00  0.00     0.261 C 
BRANCH  31  32
ATOM     32  O   UNL     1       0.568  -2.665   2.134  1.00  0.00    -0.460 OA
BRANCH  32  33
ATOM     33  C   UNL     1      -0.625  -2.116   2.467  1.00  0.00     0.338 C 
ATOM     34  O   UNL     1      -0.832  -1.357   3.396  1.00  0.00    -0.246 OA
BRANCH  33  35
ATOM     35  C   UNL     1      -1.583  -2.355   1.339  1.00  0.00     0.060 A 
ATOM     36  C   UNL     1      -2.364  -1.279   0.885  1.00  0.00     0.016 A 
ATOM     37  C   UNL     1      -1.659  -3.579   0.669  1.00  0.00     0.016 A 
ATOM     38  C   UNL     1      -3.215  -1.421  -0.219  1.00  0.00     0.010 A 
ATOM     39  C   UNL     1      -2.535  -3.731  -0.419  1.00  0.00     0.010 A 
ATOM     40  C   UNL     1      -3.333  -2.659  -0.863  1.00  0.00    -0.014 A 
BRANCH  40  41
ATOM     41  C   UNL     1      -4.389  -2.883  -1.891  1.00  0.00     0.031 A 
ATOM     42  C   UNL     1      -5.650  -3.600  -1.486  1.00  0.00     0.074 A 
ATOM     43  C   UNL     1      -4.251  -2.461  -3.163  1.00  0.00     0.049 A 
ATOM     44  N   UNL     1      -6.654  -4.012  -2.219  1.00  0.00    -0.248 NA
ATOM     45  C   UNL     1      -5.795  -3.892  -0.051  1.00  0.00     0.031 C 
ATOM     46  C   UNL     1      -3.119  -1.699  -3.683  1.00  0.00     0.029 A 
ATOM     47  N   UNL     1      -5.072  -2.631  -4.255  1.00  0.00    -0.354 N 
ATOM     48  C   UNL     1      -7.539  -4.626  -1.341  1.00  0.00     0.074 A 
ATOM     49  C   UNL     1      -6.944  -4.550  -0.023  1.00  0.00     0.031 C 
ATOM     50  C   UNL     1      -3.304  -1.485  -4.998  1.00  0.00     0.029 A 
ATOM     51  C   UNL     1      -4.543  -2.137  -5.425  1.00  0.00     0.049 A 
ATOM     52  H   UNL     1      -5.953  -3.066  -4.204  1.00  0.00     0.167 HD
ATOM     53  C   UNL     1      -8.737  -5.199  -1.607  1.00  0.00     0.037 A 
ATOM     54  C   UNL     1      -4.985  -2.235  -6.696  1.00  0.00     0.037 A 
ATOM     55  C   UNL     1      -9.329  -5.274  -2.918  1.00  0.00     0.049 A 
ATOM     56  C   UNL     1      -6.275  -2.968  -6.982  1.00  0.00     0.074 A 
ATOM     57  C   UNL     1     -10.548  -5.821  -3.283  1.00  0.00     0.029 A 
ATOM     58  N   UNL     1      -8.741  -4.801  -4.082  1.00  0.00    -0.354 N 
ATOM     59  N   UNL     1      -7.112  -3.535  -6.147  1.00  0.00    -0.248 NA
ATOM     60  C   UNL     1      -6.680  -3.077  -8.393  1.00  0.00     0.031 C 
ATOM     61  C   UNL     1     -10.663  -5.747  -4.675  1.00  0.00     0.029 A 
ATOM     62  C   UNL     1      -9.553  -5.081  -5.170  1.00  0.00     0.049 A 
ATOM     63  H   UNL     1      -7.876  -4.334  -4.128  1.00  0.00     0.167 HD
ATOM     64  C   UNL     1      -8.149  -4.040  -6.924  1.00  0.00     0.074 A 
ATOM     65  C   UNL     1      -7.849  -3.693  -8.296  1.00  0.00     0.031 C 
ATOM     66  C   UNL     1      -9.250  -4.730  -6.535  1.00  0.00     0.037 A 
BRANCH  53  67
ATOM     67  C   UNL     1      -9.476  -5.837  -0.463  1.00  0.00     0.064 A 
ATOM     68  C   UNL     1     -10.049  -5.079   0.569  1.00  0.00     0.173 A 
ATOM     69  C   UNL     1      -9.648  -7.230  -0.425  1.00  0.00     0.173 A 
ATOM     70  F   UNL     1      -9.906  -3.745   0.588  1.00  0.00    -0.203 F 
ATOM     71  C   UNL     1     -10.742  -5.694   1.610  1.00  0.00     0.198 A 
ATOM     72  C   UNL     1     -10.372  -7.838   0.597  1.00  0.00     0.198 A 
ATOM     73  F   UNL     1      -9.127  -8.003  -1.389  1.00  0.00    -0.203 F 
ATOM     74  F   UNL     1     -11.237  -4.954   2.612  1.00  0.00    -0.200 F 
ATOM     75  C   UNL     1     -10.910  -7.071   1.618  1.00  0.00     0.200 A 
ATOM     76  F   UNL     1     -10.548  -9.166   0.593  1.00  0.00    -0.200 F 
ATOM     77  F   UNL     1     -11.587  -7.659   2.614  1.00  0.00    -0.200 F 
ENDBRANCH  53  67
BRANCH  54  78
ATOM     78  C   UNL     1      -4.184  -1.664  -7.816  1.00  0.00     0.064 A 
ATOM     79  C   UNL     1      -4.677  -0.615  -8.605  1.00  0.00     0.173 A 
ATOM     80  C   UNL     1      -2.926  -2.189  -8.152  1.00  0.00     0.173 A 
ATOM     81  F   UNL     1      -5.890  -0.100  -8.353  1.00  0.00    -0.203 F 
ATOM     82  C   UNL     1      -3.957  -0.130  -9.697  1.00  0.00     0.198 A 
ATOM     83  C   UNL     1      -2.190  -1.679  -9.220  1.00  0.00     0.198 A 
ATOM     84  F   UNL     1      -2.410  -3.204  -7.443  1.00  0.00    -0.203 F 
ATOM     85  F   UNL     1      -4.483   0.828 -10.472  1.00  0.00    -0.200 F 
ATOM     86  C   UNL     1      -2.710  -0.657  -9.998  1.00  0.00     0.200 A 
ATOM     87  F   UNL     1      -0.982  -2.186  -9.502  1.00  0.00    -0.200 F 
ATOM     88  F   UNL     1      -2.018  -0.191 -11.047  1.00  0.00    -0.200 F 
ENDBRANCH  54  78
BRANCH  66  89
ATOM     89  C   UNL     1     -10.237  -5.129  -7.599  1.00  0.00     0.064 A 
ATOM     90  C   UNL     1      -9.934  -6.100  -8.566  1.00  0.00     0.173 A 
ATOM     91  C   UNL     1     -11.521  -4.561  -7.627  1.00  0.00     0.173 A 
ATOM     92  F   UNL     1      -8.720  -6.669  -8.594  1.00  0.00    -0.203 F 
ATOM     93  C   UNL     1     -10.865  -6.462  -9.537  1.00  0.00     0.198 A 
ATOM     94  C   UNL     1     -12.463  -4.953  -8.575  1.00  0.00     0.198 A 
ATOM     95  F   UNL     1     -11.871  -3.635  -6.721  1.00  0.00    -0.203 F 
ATOM     96  F   UNL     1     -10.532  -7.350 -10.484  1.00  0.00    -0.200 F 
ATOM     97  C   UNL     1     -12.131  -5.895  -9.536  1.00  0.00     0.200 A 
ATOM     98  F   UNL     1     -13.692  -4.418  -8.558  1.00  0.00    -0.200 F 
ATOM     99  F   UNL     1     -13.028  -6.252 -10.465  1.00  0.00    -0.200 F 
ENDBRANCH  66  89
ENDBRANCH  40  41
ENDBRANCH  33  35
ENDBRANCH  32  33
ENDBRANCH  31  32
ENDBRANCH  30  31
ENDBRANCH  29  30
ENDBRANCH  28  29
ENDBRANCH   1  28
TORSDOF 23
