REMARK SMILES COc1cc(/C=C/C(=O)c2ccc(OCC(=O)OCCOCCOCCOC(=O)c3ccc(-c4c5nc(c(-c6c(F)c(F)c(F)c(F)c6F)c6ccc([nH]6)c(-c6c(F)c(F)c(F)c(F)c6F)c6nc(c(-c7c(F)c(F)c(F)c(F)c7F)c7ccc4[nH]7)C=C6)C=C5)cc3)cc2)cc2c1OCCO2
REMARK SMILES IDX 20 1 19 2 18 3 16 4 17 5 15 6 14 7 13 8 10 9 11 10 94 11
REMARK SMILES IDX 12 12 93 13 8 14 9 15 7 16 6 17 5 18 3 19 4 20 97 21 96 22
REMARK SMILES IDX 98 23 95 24 101 25 99 26 100 27 2 28 1 29 21 30 22 31 23 32
REMARK SMILES IDX 24 33 25 34 26 35 27 36 28 37 29 38 30 39 31 40 92 41 32 42
REMARK SMILES IDX 91 43 33 44 34 45 35 46 85 47 36 48 90 49 84 50 86 51 37 52
REMARK SMILES IDX 89 53 83 54 82 55 38 57 70 58 50 59 69 60 51 61 54 62 68 63
REMARK SMILES IDX 87 64 52 65 53 66 67 68 88 69 55 70 39 71 40 72 48 73 41 74
REMARK SMILES IDX 42 75 46 76 49 77 43 78 44 79 47 80 45 81 71 82 72 83 80 84
REMARK SMILES IDX 73 85 74 86 78 87 81 88 75 89 76 90 79 91 77 92 56 93 57 94
REMARK SMILES IDX 65 95 58 96 59 97 63 98 66 99 60 100 61 101 64 102 62 103
REMARK H PARENT 86 56 54 67
REMARK Flexibility Score: inf
ROOT
ATOM      1  C   UNL     1      -7.026   2.459  -2.979  1.00  0.00     0.202 C 
ENDROOT
BRANCH   1   2
ATOM      2  C   UNL     1      -8.223   3.409  -2.821  1.00  0.00     0.261 C 
BRANCH   2   3
ATOM      3  O   UNL     1      -7.789   4.785  -2.684  1.00  0.00    -0.461 OA
BRANCH   3   4
ATOM      4  C   UNL     1      -8.256   5.489  -1.620  1.00  0.00     0.344 C 
ATOM      5  O   UNL     1      -9.159   5.107  -0.883  1.00  0.00    -0.248 OA
BRANCH   4   6
ATOM      6  C   UNL     1      -7.435   6.765  -1.316  1.00  0.00     0.351 C 
BRANCH   6   7
ATOM      7  O   UNL     1      -6.527   7.250  -2.299  1.00  0.00    -0.482 OA
BRANCH   7   8
ATOM      8  C   UNL     1      -5.320   7.794  -1.929  1.00  0.00     0.120 A 
ATOM      9  C   UNL     1      -2.601   8.515  -1.473  1.00  0.00     0.022 A 
ATOM     10  C   UNL     1      -3.112   8.425  -2.772  1.00  0.00     0.016 A 
ATOM     11  C   UNL     1      -3.494   8.387  -0.405  1.00  0.00     0.016 A 
ATOM     12  C   UNL     1      -4.452   8.059  -2.994  1.00  0.00     0.047 A 
ATOM     13  C   UNL     1      -4.854   8.046  -0.637  1.00  0.00     0.047 A 
BRANCH   9  14
ATOM     14  C   UNL     1      -1.119   8.693  -1.324  1.00  0.00     0.185 C 
ATOM     15  O   UNL     1      -0.557   9.611  -1.914  1.00  0.00    -0.289 OA
BRANCH  14  16
ATOM     16  C   UNL     1      -0.330   7.649  -0.580  1.00  0.00     0.053 C 
ATOM     17  C   UNL     1       0.766   7.122  -1.167  1.00  0.00     0.012 C 
BRANCH  17  18
ATOM     18  C   UNL     1       1.520   5.923  -0.728  1.00  0.00    -0.018 A 
ATOM     19  C   UNL     1       1.629   3.447  -0.657  1.00  0.00     0.165 A 
ATOM     20  C   UNL     1       0.993   4.655  -0.993  1.00  0.00     0.058 A 
ATOM     21  C   UNL     1       2.919   3.504  -0.144  1.00  0.00     0.203 A 
ATOM     22  C   UNL     1       3.510   4.768   0.048  1.00  0.00     0.165 A 
ATOM     23  O   UNL     1       3.595   2.332   0.078  1.00  0.00    -0.483 OA
ATOM     24  C   UNL     1       2.804   5.965  -0.196  1.00  0.00     0.058 A 
ATOM     25  O   UNL     1       4.822   4.911   0.440  1.00  0.00    -0.486 OA
ATOM     26  C   UNL     1       4.861   2.514   0.712  1.00  0.00     0.271 C 
ATOM     27  C   UNL     1       5.570   3.725   0.141  1.00  0.00     0.271 C 
BRANCH  19  28
ATOM     28  O   UNL     1       0.890   2.329  -0.944  1.00  0.00    -0.493 OA
ATOM     29  C   UNL     1       1.164   1.136  -0.215  1.00  0.00     0.278 C 
ENDBRANCH  19  28
ENDBRANCH  17  18
ENDBRANCH  14  16
ENDBRANCH   9  14
ENDBRANCH   7   8
ENDBRANCH   6   7
ENDBRANCH   4   6
ENDBRANCH   3   4
ENDBRANCH   2   3
ENDBRANCH   1   2
BRANCH   1  30
ATOM     30  O   UNL     1      -6.200   2.370  -1.821  1.00  0.00    -0.376 OA
BRANCH  30  31
ATOM     31  C   UNL     1      -5.444   3.530  -1.486  1.00  0.00     0.188 C 
BRANCH  31  32
ATOM     32  C   UNL     1      -4.862   4.344  -2.648  1.00  0.00     0.188 C 
BRANCH  32  33
ATOM     33  O   UNL     1      -4.084   3.531  -3.516  1.00  0.00    -0.376 OA
BRANCH  33  34
ATOM     34  C   UNL     1      -2.709   3.880  -3.525  1.00  0.00     0.202 C 
BRANCH  34  35
ATOM     35  C   UNL     1      -1.943   3.100  -2.449  1.00  0.00     0.261 C 
BRANCH  35  36
ATOM     36  O   UNL     1      -2.219   3.377  -1.041  1.00  0.00    -0.460 OA
BRANCH  36  37
ATOM     37  C   UNL     1      -2.249   4.653  -0.639  1.00  0.00     0.338 C 
ATOM     38  O   UNL     1      -2.156   5.635  -1.381  1.00  0.00    -0.246 OA
BRANCH  37  39
ATOM     39  C   UNL     1      -2.414   4.862   0.809  1.00  0.00     0.060 A 
ATOM     40  C   UNL     1      -3.563   5.527   1.241  1.00  0.00     0.016 A 
ATOM     41  C   UNL     1      -1.345   4.701   1.694  1.00  0.00     0.016 A 
ATOM     42  C   UNL     1      -3.625   6.080   2.524  1.00  0.00     0.010 A 
ATOM     43  C   UNL     1      -1.424   5.218   2.999  1.00  0.00     0.010 A 
ATOM     44  C   UNL     1      -2.561   5.924   3.427  1.00  0.00    -0.014 A 
BRANCH  44  45
ATOM     45  C   UNL     1      -2.696   6.387   4.838  1.00  0.00     0.031 A 
ATOM     46  C   UNL     1      -1.852   7.492   5.419  1.00  0.00     0.074 A 
ATOM     47  C   UNL     1      -3.605   5.778   5.626  1.00  0.00     0.049 A 
ATOM     48  N   UNL     1      -1.771   7.901   6.663  1.00  0.00    -0.248 NA
ATOM     49  C   UNL     1      -0.998   8.241   4.487  1.00  0.00     0.031 C 
ATOM     50  C   UNL     1      -4.515   4.718   5.191  1.00  0.00     0.029 A 
ATOM     51  N   UNL     1      -3.911   5.956   6.953  1.00  0.00    -0.354 N 
ATOM     52  C   UNL     1      -0.844   8.936   6.673  1.00  0.00     0.074 A 
ATOM     53  C   UNL     1      -0.393   9.098   5.304  1.00  0.00     0.031 C 
ATOM     54  C   UNL     1      -5.287   4.351   6.223  1.00  0.00     0.029 A 
ATOM     55  C   UNL     1      -4.873   5.090   7.410  1.00  0.00     0.049 A 
ATOM     56  H   UNL     1      -3.482   6.637   7.521  1.00  0.00     0.167 HD
ATOM     57  C   UNL     1      -0.406   9.674   7.725  1.00  0.00     0.037 A 
ATOM     58  C   UNL     1      -5.345   4.870   8.652  1.00  0.00     0.037 A 
ATOM     59  C   UNL     1      -0.863   9.526   9.087  1.00  0.00     0.049 A 
ATOM     60  C   UNL     1      -4.799   5.654   9.806  1.00  0.00     0.074 A 
ATOM     61  C   UNL     1      -0.475  10.239  10.211  1.00  0.00     0.029 A 
ATOM     62  N   UNL     1      -1.808   8.606   9.514  1.00  0.00    -0.354 N 
ATOM     63  N   UNL     1      -3.892   6.599   9.806  1.00  0.00    -0.248 NA
ATOM     64  C   UNL     1      -5.329   5.327  11.137  1.00  0.00     0.031 C 
ATOM     65  C   UNL     1      -1.156   9.725  11.321  1.00  0.00     0.029 A 
ATOM     66  C   UNL     1      -1.999   8.719  10.884  1.00  0.00     0.049 A 
ATOM     67  H   UNL     1      -2.275   7.965   8.930  1.00  0.00     0.167 HD
ATOM     68  C   UNL     1      -3.745   6.983  11.130  1.00  0.00     0.074 A 
ATOM     69  C   UNL     1      -4.671   6.184  11.906  1.00  0.00     0.031 C 
ATOM     70  C   UNL     1      -2.911   7.914  11.653  1.00  0.00     0.037 A 
BRANCH  57  71
ATOM     71  C   UNL     1       0.655  10.706   7.469  1.00  0.00     0.064 A 
ATOM     72  C   UNL     1       0.356  11.940   6.875  1.00  0.00     0.173 A 
ATOM     73  C   UNL     1       1.969  10.493   7.916  1.00  0.00     0.173 A 
ATOM     74  F   UNL     1      -0.885  12.193   6.433  1.00  0.00    -0.203 F 
ATOM     75  C   UNL     1       1.337  12.919   6.726  1.00  0.00     0.198 A 
ATOM     76  C   UNL     1       2.942  11.481   7.784  1.00  0.00     0.198 A 
ATOM     77  F   UNL     1       2.302   9.336   8.506  1.00  0.00    -0.203 F 
ATOM     78  F   UNL     1       1.035  14.085   6.139  1.00  0.00    -0.200 F 
ATOM     79  C   UNL     1       2.626  12.692   7.187  1.00  0.00     0.200 A 
ATOM     80  F   UNL     1       4.182  11.265   8.245  1.00  0.00    -0.200 F 
ATOM     81  F   UNL     1       3.564  13.641   7.057  1.00  0.00    -0.200 F 
ENDBRANCH  57  71
BRANCH  58  82
ATOM     82  C   UNL     1      -6.370   3.817   8.858  1.00  0.00     0.064 A 
ATOM     83  C   UNL     1      -7.694   4.151   9.166  1.00  0.00     0.173 A 
ATOM     84  C   UNL     1      -6.051   2.459   8.710  1.00  0.00     0.173 A 
ATOM     85  F   UNL     1      -8.037   5.436   9.341  1.00  0.00    -0.203 F 
ATOM     86  C   UNL     1      -8.664   3.163   9.318  1.00  0.00     0.198 A 
ATOM     87  C   UNL     1      -7.027   1.475   8.834  1.00  0.00     0.198 A 
ATOM     88  F   UNL     1      -4.795   2.093   8.413  1.00  0.00    -0.203 F 
ATOM     89  F   UNL     1      -9.919   3.505   9.639  1.00  0.00    -0.200 F 
ATOM     90  C   UNL     1      -8.332   1.828   9.141  1.00  0.00     0.200 A 
ATOM     91  F   UNL     1      -6.705   0.188   8.645  1.00  0.00    -0.200 F 
ATOM     92  F   UNL     1      -9.270   0.880   9.268  1.00  0.00    -0.200 F 
ENDBRANCH  58  82
BRANCH  70  93
ATOM     93  C   UNL     1      -2.973   8.124  13.137  1.00  0.00     0.064 A 
ATOM     94  C   UNL     1      -2.415   7.197  14.030  1.00  0.00     0.173 A 
ATOM     95  C   UNL     1      -3.593   9.263  13.671  1.00  0.00     0.173 A 
ATOM     96  F   UNL     1      -1.830   6.083  13.566  1.00  0.00    -0.203 F 
ATOM     97  C   UNL     1      -2.496   7.392  15.406  1.00  0.00     0.198 A 
ATOM     98  C   UNL     1      -3.654   9.465  15.048  1.00  0.00     0.198 A 
ATOM     99  F   UNL     1      -4.142  10.178  12.859  1.00  0.00    -0.203 F 
ATOM    100  F   UNL     1      -1.996   6.472  16.242  1.00  0.00    -0.200 F 
ATOM    101  C   UNL     1      -3.112   8.527  15.914  1.00  0.00     0.200 A 
ATOM    102  F   UNL     1      -4.245  10.563  15.537  1.00  0.00    -0.200 F 
ATOM    103  F   UNL     1      -3.193   8.710  17.239  1.00  0.00    -0.200 F 
ENDBRANCH  70  93
ENDBRANCH  44  45
ENDBRANCH  37  39
ENDBRANCH  36  37
ENDBRANCH  35  36
ENDBRANCH  34  35
ENDBRANCH  33  34
ENDBRANCH  32  33
ENDBRANCH  31  32
ENDBRANCH  30  31
ENDBRANCH   1  30
TORSDOF 23
