REMARK SMILES CC#CC[C@H](C(=O)OCCOCCOCCOC(=O)c1ccc(-c2c3nc(c(-c4c(F)c(F)c(F)c(F)c4F)c4ccc([nH]4)c(-c4c(F)c(F)c(F)c(F)c4F)c4nc(c(-c5c(F)c(F)c(F)c(F)c5F)c5ccc2[nH]5)C=C4)C=C3)cc1)c1cccc(Br)c1
REMARK SMILES IDX 12 1 11 2 10 3 9 4 8 5 6 6 7 7 5 8 4 9 3 10 1 11 2 12 83 13
REMARK SMILES IDX 84 14 89 15 85 16 87 17 86 18 88 19 13 20 14 21 15 22 16 23
REMARK SMILES IDX 17 24 18 25 19 26 20 27 21 28 82 29 22 30 81 31 23 32 24 33
REMARK SMILES IDX 25 34 75 35 26 36 80 37 74 38 76 39 27 40 79 41 73 42 72 43
REMARK SMILES IDX 28 45 60 46 40 47 59 48 41 49 44 50 58 51 77 52 42 53 43 54
REMARK SMILES IDX 57 56 78 57 45 58 29 59 30 60 38 61 31 62 32 63 36 64 39 65
REMARK SMILES IDX 33 66 34 67 37 68 35 69 61 70 62 71 70 72 63 73 64 74 68 75
REMARK SMILES IDX 71 76 65 77 66 78 69 79 67 80 46 81 47 82 55 83 48 84 49 85
REMARK SMILES IDX 53 86 56 87 50 88 51 89 54 90 52 91
REMARK H PARENT 76 44 44 55
REMARK Flexibility Score: inf
ROOT
ATOM      1  C   UNL     1      -1.653  -3.390   2.136  1.00  0.00     0.188 C 
ENDROOT
BRANCH   1   2
ATOM      2  O   UNL     1      -2.391  -2.351   1.514  1.00  0.00    -0.376 OA
BRANCH   2   3
ATOM      3  C   UNL     1      -2.907  -2.646   0.216  1.00  0.00     0.202 C 
BRANCH   3   4
ATOM      4  C   UNL     1      -1.900  -3.060  -0.880  1.00  0.00     0.261 C 
BRANCH   4   5
ATOM      5  O   UNL     1      -1.062  -4.214  -0.588  1.00  0.00    -0.463 OA
BRANCH   5   6
ATOM      6  C   UNL     1       0.285  -4.034  -0.688  1.00  0.00     0.314 C 
ATOM      7  O   UNL     1       0.791  -2.951  -0.980  1.00  0.00    -0.252 OA
BRANCH   6   8
ATOM      8  C   UNL     1       1.185  -5.213  -0.289  1.00  0.00     0.141 C 
BRANCH   8   9
ATOM      9  C   UNL     1       1.839  -4.836   1.072  1.00  0.00     0.109 C 
BRANCH   9  10
ATOM     10  C   UNL     1       2.706  -5.876   1.671  1.00  0.00    -0.102 C 
ATOM     11  C   UNL     1       3.990  -7.967   2.704  1.00  0.00     0.107 C 
ATOM     12  C   UNL     1       3.318  -6.783   2.155  1.00  0.00    -0.107 C 
ENDBRANCH   9  10
ENDBRANCH   8   9
BRANCH   8  13
ATOM     13  C   UNL     1       0.686  -6.661  -0.308  1.00  0.00    -0.032 A 
ATOM     14  C   UNL     1      -0.583  -7.064   0.103  1.00  0.00     0.005 A 
ATOM     15  C   UNL     1       1.633  -7.681  -0.563  1.00  0.00     0.020 A 
ATOM     16  C   UNL     1      -0.870  -8.414   0.348  1.00  0.00     0.001 A 
ATOM     17  C   UNL     1       1.349  -9.023  -0.300  1.00  0.00     0.018 A 
ATOM     18  C   UNL     1       0.103  -9.392   0.180  1.00  0.00     0.016 A 
ATOM     19  Br  UNL     1       2.690 -10.337  -0.522  1.00  0.00    -0.051 Br
ENDBRANCH   8  13
ENDBRANCH   6   8
ENDBRANCH   5   6
ENDBRANCH   4   5
ENDBRANCH   3   4
ENDBRANCH   2   3
ENDBRANCH   1   2
BRANCH   1  20
ATOM     20  C   UNL     1      -2.396  -4.707   2.392  1.00  0.00     0.188 C 
BRANCH  20  21
ATOM     21  O   UNL     1      -3.297  -5.105   1.372  1.00  0.00    -0.376 OA
BRANCH  21  22
ATOM     22  C   UNL     1      -3.949  -6.366   1.496  1.00  0.00     0.202 C 
BRANCH  22  23
ATOM     23  C   UNL     1      -4.642  -6.710   2.822  1.00  0.00     0.261 C 
BRANCH  23  24
ATOM     24  O   UNL     1      -3.842  -6.547   4.008  1.00  0.00    -0.460 OA
BRANCH  24  25
ATOM     25  C   UNL     1      -2.691  -7.254   4.103  1.00  0.00     0.338 C 
ATOM     26  O   UNL     1      -2.337  -8.164   3.377  1.00  0.00    -0.246 OA
BRANCH  25  27
ATOM     27  C   UNL     1      -1.813  -6.565   5.092  1.00  0.00     0.060 A 
ATOM     28  C   UNL     1      -0.442  -6.452   4.817  1.00  0.00     0.016 A 
ATOM     29  C   UNL     1      -2.340  -5.966   6.241  1.00  0.00     0.016 A 
ATOM     30  C   UNL     1       0.407  -5.788   5.710  1.00  0.00     0.010 A 
ATOM     31  C   UNL     1      -1.490  -5.310   7.138  1.00  0.00     0.010 A 
ATOM     32  C   UNL     1      -0.105  -5.251   6.899  1.00  0.00    -0.014 A 
BRANCH  32  33
ATOM     33  C   UNL     1       0.807  -4.817   7.992  1.00  0.00     0.031 A 
ATOM     34  C   UNL     1       1.018  -5.752   9.153  1.00  0.00     0.074 A 
ATOM     35  C   UNL     1       1.434  -3.627   7.973  1.00  0.00     0.049 A 
ATOM     36  N   UNL     1       1.676  -5.569  10.270  1.00  0.00    -0.248 NA
ATOM     37  C   UNL     1       0.387  -7.077   9.039  1.00  0.00     0.031 C 
ATOM     38  C   UNL     1       1.359  -2.646   6.895  1.00  0.00     0.029 A 
ATOM     39  N   UNL     1       2.252  -3.038   8.909  1.00  0.00    -0.354 N 
ATOM     40  C   UNL     1       1.528  -6.747  10.992  1.00  0.00     0.074 A 
ATOM     41  C   UNL     1       0.686  -7.622  10.207  1.00  0.00     0.031 C 
ATOM     42  C   UNL     1       2.092  -1.570   7.234  1.00  0.00     0.029 A 
ATOM     43  C   UNL     1       2.652  -1.768   8.571  1.00  0.00     0.049 A 
ATOM     44  H   UNL     1       2.526  -3.485   9.743  1.00  0.00     0.167 HD
ATOM     45  C   UNL     1       2.052  -7.074  12.198  1.00  0.00     0.037 A 
ATOM     46  C   UNL     1       3.361  -0.861   9.274  1.00  0.00     0.037 A 
ATOM     47  C   UNL     1       2.887  -6.202  12.981  1.00  0.00     0.049 A 
ATOM     48  C   UNL     1       3.859  -1.213  10.656  1.00  0.00     0.074 A 
ATOM     49  C   UNL     1       3.478  -6.447  14.208  1.00  0.00     0.029 A 
ATOM     50  N   UNL     1       3.240  -4.910  12.619  1.00  0.00    -0.354 N 
ATOM     51  N   UNL     1       3.732  -2.333  11.326  1.00  0.00    -0.248 NA
ATOM     52  C   UNL     1       4.603  -0.170  11.380  1.00  0.00     0.031 C 
ATOM     53  C   UNL     1       4.129  -5.280  14.621  1.00  0.00     0.029 A 
ATOM     54  C   UNL     1       4.013  -4.334  13.615  1.00  0.00     0.049 A 
ATOM     55  H   UNL     1       2.980  -4.468  11.779  1.00  0.00     0.167 HD
ATOM     56  C   UNL     1       4.408  -2.144  12.526  1.00  0.00     0.074 A 
ATOM     57  C   UNL     1       4.955  -0.804  12.488  1.00  0.00     0.031 C 
ATOM     58  C   UNL     1       4.564  -3.003  13.565  1.00  0.00     0.037 A 
BRANCH  45  59
ATOM     59  C   UNL     1       1.705  -8.424  12.761  1.00  0.00     0.064 A 
ATOM     60  C   UNL     1       2.173  -9.614  12.182  1.00  0.00     0.173 A 
ATOM     61  C   UNL     1       0.909  -8.527  13.913  1.00  0.00     0.173 A 
ATOM     62  F   UNL     1       2.926  -9.575  11.072  1.00  0.00    -0.203 F 
ATOM     63  C   UNL     1       1.826 -10.855  12.711  1.00  0.00     0.198 A 
ATOM     64  C   UNL     1       0.597  -9.768  14.462  1.00  0.00     0.198 A 
ATOM     65  F   UNL     1       0.439  -7.423  14.512  1.00  0.00    -0.203 F 
ATOM     66  F   UNL     1       2.232 -11.978  12.104  1.00  0.00    -0.200 F 
ATOM     67  C   UNL     1       1.045 -10.930  13.855  1.00  0.00     0.200 A 
ATOM     68  F   UNL     1      -0.143  -9.837  15.577  1.00  0.00    -0.200 F 
ATOM     69  F   UNL     1       0.717 -12.125  14.367  1.00  0.00    -0.200 F 
ENDBRANCH  45  59
BRANCH  46  70
ATOM     70  C   UNL     1       3.637   0.484   8.696  1.00  0.00     0.064 A 
ATOM     71  C   UNL     1       4.945   0.887   8.390  1.00  0.00     0.173 A 
ATOM     72  C   UNL     1       2.605   1.408   8.473  1.00  0.00     0.173 A 
ATOM     73  F   UNL     1       5.973   0.055   8.615  1.00  0.00    -0.203 F 
ATOM     74  C   UNL     1       5.212   2.167   7.904  1.00  0.00     0.198 A 
ATOM     75  C   UNL     1       2.869   2.675   7.954  1.00  0.00     0.198 A 
ATOM     76  F   UNL     1       1.336   1.080   8.757  1.00  0.00    -0.203 F 
ATOM     77  F   UNL     1       6.478   2.544   7.678  1.00  0.00    -0.200 F 
ATOM     78  C   UNL     1       4.173   3.057   7.680  1.00  0.00     0.200 A 
ATOM     79  F   UNL     1       1.860   3.528   7.730  1.00  0.00    -0.200 F 
ATOM     80  F   UNL     1       4.429   4.286   7.212  1.00  0.00    -0.200 F 
ENDBRANCH  46  70
BRANCH  58  81
ATOM     81  C   UNL     1       5.404  -2.549  14.728  1.00  0.00     0.064 A 
ATOM     82  C   UNL     1       4.982  -1.537  15.603  1.00  0.00     0.173 A 
ATOM     83  C   UNL     1       6.633  -3.173  14.998  1.00  0.00     0.173 A 
ATOM     84  F   UNL     1       3.821  -0.899  15.388  1.00  0.00    -0.203 F 
ATOM     85  C   UNL     1       5.772  -1.145  16.681  1.00  0.00     0.198 A 
ATOM     86  C   UNL     1       7.402  -2.806  16.099  1.00  0.00     0.198 A 
ATOM     87  F   UNL     1       7.083  -4.156  14.203  1.00  0.00    -0.203 F 
ATOM     88  F   UNL     1       5.373  -0.136  17.470  1.00  0.00    -0.200 F 
ATOM     89  C   UNL     1       6.976  -1.785  16.934  1.00  0.00     0.200 A 
ATOM     90  F   UNL     1       8.554  -3.441  16.353  1.00  0.00    -0.200 F 
ATOM     91  F   UNL     1       7.729  -1.413  17.979  1.00  0.00    -0.200 F 
ENDBRANCH  58  81
ENDBRANCH  32  33
ENDBRANCH  25  27
ENDBRANCH  24  25
ENDBRANCH  23  24
ENDBRANCH  22  23
ENDBRANCH  21  22
ENDBRANCH  20  21
ENDBRANCH   1  20
TORSDOF 20
