REMARK SMILES CCCCNC(=O)c1cnn([C@@H](C)C(=O)OCCOCCOCCOC(=O)c2ccc(-c3c4nc(c(-c5c(F)c(F)c(F)c(F)c5F)c5ccc([nH]5)c(-c5c(F)c(F)c(F)c(F)c5F)c5nc(c(-c6c(F)c(F)c(F)c(F)c6F)c6ccc3[nH]6)C=C5)C=C4)cc2)c1
REMARK SMILES IDX 19 1 18 2 17 3 16 4 14 5 15 6 12 7 13 8 11 9 8 10 9 11 91 12
REMARK SMILES IDX 10 13 6 14 5 15 7 17 4 18 3 19 2 20 1 21 20 22 21 23 22 24
REMARK SMILES IDX 23 25 24 26 25 27 26 28 27 29 28 30 29 31 90 32 30 33 89 34
REMARK SMILES IDX 31 35 32 36 33 37 83 38 34 39 88 40 82 41 84 42 35 43 87 44
REMARK SMILES IDX 81 45 80 46 36 48 68 49 48 50 67 51 49 52 52 53 66 54 85 55
REMARK SMILES IDX 50 56 51 57 65 59 86 60 53 61 37 62 38 63 46 64 39 65 40 66
REMARK SMILES IDX 44 67 47 68 41 69 42 70 45 71 43 72 69 73 70 74 78 75 71 76
REMARK SMILES IDX 72 77 76 78 79 79 73 80 74 81 77 82 75 83 54 84 55 85 63 86
REMARK SMILES IDX 56 87 57 88 61 89 64 90 58 91 59 92 62 93 60 94
REMARK H PARENT 5 16 84 47 52 58
REMARK Flexibility Score: inf
ROOT
ATOM      1  O   UNL     1      -2.339   2.104  11.193  1.00  0.00    -0.376 OA
ENDROOT
BRANCH   1   2
ATOM      2  C   UNL     1      -1.017   2.575  11.434  1.00  0.00     0.202 C 
BRANCH   2   3
ATOM      3  C   UNL     1       0.200   1.626  11.309  1.00  0.00     0.261 C 
BRANCH   3   4
ATOM      4  O   UNL     1       0.305   0.867  10.080  1.00  0.00    -0.462 OA
BRANCH   4   5
ATOM      5  C   UNL     1       0.362  -0.479  10.167  1.00  0.00     0.330 C 
ATOM      6  O   UNL     1       0.362  -1.074  11.246  1.00  0.00    -0.250 OA
BRANCH   5   7
ATOM      7  C   UNL     1       0.370  -1.265   8.864  1.00  0.00     0.213 C 
ATOM      8  C   UNL     1       1.612  -2.142   8.797  1.00  0.00     0.046 C 
BRANCH   7   9
ATOM      9  N   UNL     1       0.171  -0.569   7.590  1.00  0.00    -0.258 N 
ATOM     10  C   UNL     1      -0.594  -0.055   5.571  1.00  0.00     0.077 A 
ATOM     11  C   UNL     1       0.472   0.774   5.989  1.00  0.00     0.149 A 
ATOM     12  C   UNL     1      -0.758  -0.920   6.635  1.00  0.00     0.123 A 
ATOM     13  N   UNL     1       1.006   0.396   7.157  1.00  0.00    -0.180 NA
BRANCH  10  14
ATOM     14  C   UNL     1      -1.414  -0.020   4.374  1.00  0.00     0.254 C 
ATOM     15  N   UNL     1      -0.816   0.152   3.149  1.00  0.00    -0.352 N 
ATOM     16  H   UNL     1      -1.431   0.338   2.403  1.00  0.00     0.163 HD
ATOM     17  O   UNL     1      -2.633  -0.175   4.423  1.00  0.00    -0.269 OA
BRANCH  15  18
ATOM     18  C   UNL     1       0.591   0.101   2.796  1.00  0.00     0.116 C 
BRANCH  18  19
ATOM     19  C   UNL     1       0.937  -1.143   1.977  1.00  0.00     0.021 C 
BRANCH  19  20
ATOM     20  C   UNL     1       0.403  -1.147   0.542  1.00  0.00    -0.002 C 
ATOM     21  C   UNL     1       0.925   0.006  -0.302  1.00  0.00     0.004 C 
ENDBRANCH  19  20
ENDBRANCH  18  19
ENDBRANCH  15  18
ENDBRANCH  10  14
ENDBRANCH   7   9
ENDBRANCH   5   7
ENDBRANCH   4   5
ENDBRANCH   3   4
ENDBRANCH   2   3
ENDBRANCH   1   2
BRANCH   1  22
ATOM     22  C   UNL     1      -2.557   1.285  10.058  1.00  0.00     0.188 C 
BRANCH  22  23
ATOM     23  C   UNL     1      -2.014   1.733   8.690  1.00  0.00     0.188 C 
BRANCH  23  24
ATOM     24  O   UNL     1      -0.920   2.618   8.711  1.00  0.00    -0.376 OA
BRANCH  24  25
ATOM     25  C   UNL     1      -0.916   3.967   8.287  1.00  0.00     0.202 C 
BRANCH  25  26
ATOM     26  C   UNL     1      -2.121   4.895   8.393  1.00  0.00     0.261 C 
BRANCH  26  27
ATOM     27  O   UNL     1      -3.344   4.220   8.541  1.00  0.00    -0.460 OA
BRANCH  27  28
ATOM     28  C   UNL     1      -3.834   3.712   7.403  1.00  0.00     0.338 C 
ATOM     29  O   UNL     1      -3.350   3.797   6.272  1.00  0.00    -0.246 OA
BRANCH  28  30
ATOM     30  C   UNL     1      -5.057   2.988   7.745  1.00  0.00     0.060 A 
ATOM     31  C   UNL     1      -5.676   2.299   6.705  1.00  0.00     0.016 A 
ATOM     32  C   UNL     1      -5.720   3.350   8.927  1.00  0.00     0.016 A 
ATOM     33  C   UNL     1      -7.040   2.364   6.659  1.00  0.00     0.010 A 
ATOM     34  C   UNL     1      -7.075   3.443   8.868  1.00  0.00     0.010 A 
ATOM     35  C   UNL     1      -7.681   3.086   7.669  1.00  0.00    -0.014 A 
BRANCH  35  36
ATOM     36  C   UNL     1      -9.017   3.551   7.418  1.00  0.00     0.031 A 
ATOM     37  C   UNL     1     -10.015   2.529   7.747  1.00  0.00     0.074 A 
ATOM     38  C   UNL     1      -9.237   4.816   7.013  1.00  0.00     0.049 A 
ATOM     39  N   UNL     1     -10.698   1.811   6.923  1.00  0.00    -0.248 NA
ATOM     40  C   UNL     1     -10.087   2.086   9.148  1.00  0.00     0.031 C 
ATOM     41  C   UNL     1      -8.278   5.929   6.960  1.00  0.00     0.029 A 
ATOM     42  N   UNL     1     -10.408   5.401   6.649  1.00  0.00    -0.354 N 
ATOM     43  C   UNL     1     -11.464   0.984   7.733  1.00  0.00     0.074 A 
ATOM     44  C   UNL     1     -10.861   1.007   9.036  1.00  0.00     0.031 C 
ATOM     45  C   UNL     1      -8.951   7.092   6.805  1.00  0.00     0.029 A 
ATOM     46  C   UNL     1     -10.357   6.790   6.605  1.00  0.00     0.049 A 
ATOM     47  H   UNL     1     -11.221   4.888   6.434  1.00  0.00     0.167 HD
ATOM     48  C   UNL     1     -12.727   0.651   7.363  1.00  0.00     0.037 A 
ATOM     49  C   UNL     1     -11.434   7.604   6.497  1.00  0.00     0.037 A 
ATOM     50  C   UNL     1     -12.943   0.935   5.967  1.00  0.00     0.049 A 
ATOM     51  C   UNL     1     -12.549   6.787   5.957  1.00  0.00     0.074 A 
ATOM     52  C   UNL     1     -12.556   0.371   4.772  1.00  0.00     0.029 A 
ATOM     53  N   UNL     1     -13.325   2.227   5.708  1.00  0.00    -0.354 N 
ATOM     54  N   UNL     1     -12.554   6.287   4.750  1.00  0.00    -0.248 NA
ATOM     55  C   UNL     1     -13.494   6.174   6.884  1.00  0.00     0.031 C 
ATOM     56  C   UNL     1     -12.535   1.436   3.822  1.00  0.00     0.029 A 
ATOM     57  C   UNL     1     -12.942   2.612   4.452  1.00  0.00     0.049 A 
ATOM     58  H   UNL     1     -13.812   2.802   6.343  1.00  0.00     0.167 HD
ATOM     59  C   UNL     1     -13.180   5.059   4.881  1.00  0.00     0.074 A 
ATOM     60  C   UNL     1     -13.876   5.117   6.160  1.00  0.00     0.031 C 
ATOM     61  C   UNL     1     -12.815   4.008   4.091  1.00  0.00     0.037 A 
BRANCH  48  62
ATOM     62  C   UNL     1     -13.880   0.557   8.334  1.00  0.00     0.064 A 
ATOM     63  C   UNL     1     -15.110   0.051   7.874  1.00  0.00     0.173 A 
ATOM     64  C   UNL     1     -13.922   1.206   9.590  1.00  0.00     0.173 A 
ATOM     65  F   UNL     1     -15.193  -0.553   6.679  1.00  0.00    -0.203 F 
ATOM     66  C   UNL     1     -16.294   0.229   8.594  1.00  0.00     0.198 A 
ATOM     67  C   UNL     1     -15.093   1.328  10.332  1.00  0.00     0.198 A 
ATOM     68  F   UNL     1     -12.871   1.854  10.104  1.00  0.00    -0.203 F 
ATOM     69  F   UNL     1     -17.459  -0.168   8.065  1.00  0.00    -0.200 F 
ATOM     70  C   UNL     1     -16.285   0.866   9.822  1.00  0.00     0.200 A 
ATOM     71  F   UNL     1     -15.063   1.973  11.507  1.00  0.00    -0.200 F 
ATOM     72  F   UNL     1     -17.425   1.081  10.489  1.00  0.00    -0.200 F 
ENDBRANCH  48  62
BRANCH  49  73
ATOM     73  C   UNL     1     -11.643   8.917   7.144  1.00  0.00     0.064 A 
ATOM     74  C   UNL     1     -12.581   9.837   6.653  1.00  0.00     0.173 A 
ATOM     75  C   UNL     1     -11.117   9.178   8.425  1.00  0.00     0.173 A 
ATOM     76  F   UNL     1     -13.164   9.633   5.463  1.00  0.00    -0.203 F 
ATOM     77  C   UNL     1     -12.982  10.946   7.407  1.00  0.00     0.198 A 
ATOM     78  C   UNL     1     -11.516  10.284   9.175  1.00  0.00     0.198 A 
ATOM     79  F   UNL     1     -10.280   8.309   9.011  1.00  0.00    -0.203 F 
ATOM     80  F   UNL     1     -13.921  11.776   6.930  1.00  0.00    -0.200 F 
ATOM     81  C   UNL     1     -12.456  11.163   8.671  1.00  0.00     0.200 A 
ATOM     82  F   UNL     1     -11.032  10.457  10.414  1.00  0.00    -0.200 F 
ATOM     83  F   UNL     1     -12.885  12.190   9.418  1.00  0.00    -0.200 F 
ENDBRANCH  49  73
BRANCH  61  84
ATOM     84  C   UNL     1     -12.080   4.335   2.825  1.00  0.00     0.064 A 
ATOM     85  C   UNL     1     -10.777   4.856   2.778  1.00  0.00     0.173 A 
ATOM     86  C   UNL     1     -12.697   4.022   1.608  1.00  0.00     0.173 A 
ATOM     87  F   UNL     1     -10.094   5.104   3.903  1.00  0.00    -0.203 F 
ATOM     88  C   UNL     1     -10.140   5.091   1.560  1.00  0.00     0.198 A 
ATOM     89  C   UNL     1     -12.046   4.221   0.396  1.00  0.00     0.198 A 
ATOM     90  F   UNL     1     -13.925   3.479   1.599  1.00  0.00    -0.203 F 
ATOM     91  F   UNL     1      -8.902   5.609   1.536  1.00  0.00    -0.200 F 
ATOM     92  C   UNL     1     -10.773   4.766   0.371  1.00  0.00     0.200 A 
ATOM     93  F   UNL     1     -12.646   3.863  -0.748  1.00  0.00    -0.200 F 
ATOM     94  F   UNL     1     -10.148   4.958  -0.800  1.00  0.00    -0.200 F 
ENDBRANCH  61  84
ENDBRANCH  35  36
ENDBRANCH  28  30
ENDBRANCH  27  28
ENDBRANCH  26  27
ENDBRANCH  25  26
ENDBRANCH  24  25
ENDBRANCH  23  24
ENDBRANCH  22  23
ENDBRANCH   1  22
TORSDOF 22
