REMARK SMILES Cc1ccc(NC(=O)C[NH+]2CCN(c3ccc(C(=O)OCCOCCOCCOC(=O)c4ccc(-c5c6nc(c(-c7c(F)c(F)c(F)c(F)c7F)c7ccc([nH]7)c(-c7c(F)c(F)c(F)c(F)c7F)c7nc(c(-c8c(F)c(F)c(F)c(F)c8F)c8ccc5[nH]8)C=C7)C=C6)cc4)cc3NS(C)(=O)=O)CC2)cc1
REMARK SMILES IDX 24 1 23 2 22 3 21 4 20 5 18 6 19 7 17 8 14 9 15 10 96 11
REMARK SMILES IDX 16 12 95 13 13 14 10 15 11 16 103 17 12 19 102 20 9 21 7 22
REMARK SMILES IDX 6 23 8 25 5 26 1 27 2 28 3 29 105 30 4 31 104 32 97 33 98 35
REMARK SMILES IDX 99 36 100 37 101 38 25 39 26 40 27 41 28 42 29 43 30 44
REMARK SMILES IDX 31 45 32 46 33 47 94 48 34 49 93 50 35 51 36 52 37 53 87 54
REMARK SMILES IDX 38 55 92 56 86 57 88 58 39 59 91 60 85 61 84 62 40 64 72 65
REMARK SMILES IDX 52 66 71 67 53 68 56 69 70 70 89 71 54 72 55 73 69 75 90 76
REMARK SMILES IDX 57 77 41 78 42 79 50 80 43 81 44 82 48 83 51 84 45 85 46 86
REMARK SMILES IDX 49 87 47 88 73 89 74 90 82 91 75 92 76 93 80 94 83 95 77 96
REMARK SMILES IDX 78 97 81 98 79 99 58 100 59 101 67 102 60 103 61 104 65 105
REMARK SMILES IDX 68 106 62 107 63 108 66 109 64 110
REMARK H PARENT 10 18 6 24 97 34 88 63 56 74
REMARK Flexibility Score: inf
ROOT
ATOM      1  C   UNL     1       9.678  -1.401  -0.913  1.00  0.00     0.188 C 
ENDROOT
BRANCH   1   2
ATOM      2  O   UNL     1       9.351  -2.748  -1.313  1.00  0.00    -0.376 OA
BRANCH   2   3
ATOM      3  C   UNL     1       8.971  -3.142  -2.631  1.00  0.00     0.202 C 
BRANCH   3   4
ATOM      4  C   UNL     1       7.566  -3.945  -3.106  1.00  0.00     0.261 C 
BRANCH   4   5
ATOM      5  O   UNL     1       5.887  -3.756  -2.723  1.00  0.00    -0.460 OA
BRANCH   5   6
ATOM      6  C   UNL     1       4.921  -4.046  -1.721  1.00  0.00     0.338 C 
ATOM      7  O   UNL     1       4.928  -4.897  -0.835  1.00  0.00    -0.246 OA
BRANCH   6   8
ATOM      8  C   UNL     1       3.619  -3.390  -1.509  1.00  0.00     0.062 A 
ATOM      9  C   UNL     1       0.968  -3.271  -0.611  1.00  0.00     0.062 A 
ATOM     10  C   UNL     1       1.305  -3.885  -1.836  1.00  0.00     0.029 A 
ATOM     11  C   UNL     1       1.972  -2.806   0.270  1.00  0.00     0.073 A 
ATOM     12  C   UNL     1       2.612  -3.935  -2.291  1.00  0.00     0.018 A 
ATOM     13  C   UNL     1       3.290  -2.866  -0.196  1.00  0.00     0.044 A 
BRANCH   9  14
ATOM     14  N   UNL     1      -0.385  -2.975  -0.389  1.00  0.00    -0.359 N 
ATOM     15  N   UNL     1      -3.197  -2.756  -1.123  1.00  0.00    -0.324 N 
ATOM     16  C   UNL     1      -2.192  -2.032  -1.916  1.00  0.00     0.284 C 
ATOM     17  C   UNL     1      -2.608  -4.083  -0.820  1.00  0.00     0.284 C 
ATOM     18  H   UNL     1      -4.066  -2.837  -1.651  1.00  0.00     0.348 HD
ATOM     19  C   UNL     1      -0.814  -1.872  -1.269  1.00  0.00     0.178 C 
ATOM     20  C   UNL     1      -1.296  -4.062  -0.002  1.00  0.00     0.178 C 
BRANCH  15  21
ATOM     21  C   UNL     1      -3.567  -2.041   0.129  1.00  0.00     0.364 C 
BRANCH  21  22
ATOM     22  C   UNL     1      -4.363  -0.750  -0.138  1.00  0.00     0.279 C 
ATOM     23  N   UNL     1      -3.806   0.503  -0.094  1.00  0.00    -0.321 N 
ATOM     24  H   UNL     1      -4.433   1.228  -0.321  1.00  0.00     0.170 HD
ATOM     25  O   UNL     1      -5.549  -0.811  -0.489  1.00  0.00    -0.268 OA
BRANCH  23  26
ATOM     26  C   UNL     1      -2.512   0.945   0.213  1.00  0.00     0.041 A 
ATOM     27  C   UNL     1       1.725   1.538   0.044  1.00  0.00     0.044 C 
ATOM     28  C   UNL     1       0.238   1.493   0.246  1.00  0.00    -0.051 A 
ATOM     29  C   UNL     1      -0.339   0.648   1.195  1.00  0.00     0.005 A 
ATOM     30  C   UNL     1      -0.610   2.232  -0.577  1.00  0.00     0.005 A 
ATOM     31  C   UNL     1      -1.711   0.379   1.193  1.00  0.00     0.026 A 
ATOM     32  C   UNL     1      -1.984   1.971  -0.579  1.00  0.00     0.026 A 
ENDBRANCH  23  26
ENDBRANCH  21  22
ENDBRANCH  15  21
ENDBRANCH   9  14
BRANCH  11  33
ATOM     33  N   UNL     1       1.512  -2.132   1.482  1.00  0.00    -0.282 N 
ATOM     34  H   UNL     1       0.686  -1.601   1.413  1.00  0.00     0.180 HD
BRANCH  33  35
ATOM     35  S   UNL     1       2.268  -2.182   2.990  1.00  0.00     0.229 S 
ATOM     36  C   UNL     1       2.321  -0.454   3.459  1.00  0.00     0.183 C 
ATOM     37  O   UNL     1       1.332  -2.810   3.895  1.00  0.00    -0.207 OA
ATOM     38  O   UNL     1       3.638  -2.635   2.869  1.00  0.00    -0.207 OA
ENDBRANCH  33  35
ENDBRANCH  11  33
ENDBRANCH   6   8
ENDBRANCH   5   6
ENDBRANCH   4   5
ENDBRANCH   3   4
ENDBRANCH   2   3
ENDBRANCH   1   2
BRANCH   1  39
ATOM     39  C   UNL     1       9.761  -0.246  -1.906  1.00  0.00     0.188 C 
BRANCH  39  40
ATOM     40  O   UNL     1       8.712  -0.368  -2.845  1.00  0.00    -0.376 OA
BRANCH  40  41
ATOM     41  C   UNL     1       8.690   0.601  -3.874  1.00  0.00     0.202 C 
BRANCH  41  42
ATOM     42  C   UNL     1       7.999   1.893  -3.410  1.00  0.00     0.261 C 
BRANCH  42  43
ATOM     43  O   UNL     1       6.691   1.592  -2.857  1.00  0.00    -0.460 OA
BRANCH  43  44
ATOM     44  C   UNL     1       6.536   1.673  -1.491  1.00  0.00     0.338 C 
ATOM     45  O   UNL     1       6.873   2.626  -0.814  1.00  0.00    -0.246 OA
BRANCH  44  46
ATOM     46  C   UNL     1       6.115   0.332  -0.935  1.00  0.00     0.060 A 
ATOM     47  C   UNL     1       6.265  -0.110   0.390  1.00  0.00     0.016 A 
ATOM     48  C   UNL     1       5.960  -0.649  -1.844  1.00  0.00     0.016 A 
ATOM     49  C   UNL     1       6.481  -1.529   0.725  1.00  0.00     0.010 A 
ATOM     50  C   UNL     1       6.535  -1.868  -1.480  1.00  0.00     0.010 A 
ATOM     51  C   UNL     1       6.738  -2.515  -0.240  1.00  0.00    -0.014 A 
BRANCH  51  52
ATOM     52  C   UNL     1       7.394  -4.046   0.034  1.00  0.00     0.031 A 
ATOM     53  C   UNL     1       7.038  -5.624  -0.472  1.00  0.00     0.074 A 
ATOM     54  C   UNL     1       8.381  -4.104   0.963  1.00  0.00     0.049 A 
ATOM     55  N   UNL     1       6.866  -6.640   0.364  1.00  0.00    -0.248 NA
ATOM     56  C   UNL     1       6.732  -6.173  -1.841  1.00  0.00     0.031 C 
ATOM     57  C   UNL     1       9.152  -5.273   1.389  1.00  0.00     0.029 A 
ATOM     58  N   UNL     1       8.825  -3.086   1.819  1.00  0.00    -0.354 N 
ATOM     59  C   UNL     1       6.445  -7.777  -0.348  1.00  0.00     0.074 A 
ATOM     60  C   UNL     1       6.309  -7.413  -1.695  1.00  0.00     0.031 C 
ATOM     61  C   UNL     1       9.678  -5.021   2.598  1.00  0.00     0.029 A 
ATOM     62  C   UNL     1       9.213  -3.712   3.013  1.00  0.00     0.049 A 
ATOM     63  H   UNL     1       8.859  -2.122   1.622  1.00  0.00     0.167 HD
ATOM     64  C   UNL     1       6.286  -9.038   0.133  1.00  0.00     0.037 A 
ATOM     65  C   UNL     1       8.642  -3.382   4.201  1.00  0.00     0.037 A 
ATOM     66  C   UNL     1       6.860  -9.110   1.435  1.00  0.00     0.049 A 
ATOM     67  C   UNL     1       7.980  -4.564   4.870  1.00  0.00     0.074 A 
ATOM     68  C   UNL     1       8.182  -9.267   1.808  1.00  0.00     0.029 A 
ATOM     69  N   UNL     1       6.196  -8.514   2.487  1.00  0.00    -0.354 N 
ATOM     70  N   UNL     1       7.728  -5.699   4.278  1.00  0.00    -0.248 NA
ATOM     71  C   UNL     1       7.530  -4.549   6.258  1.00  0.00     0.031 C 
ATOM     72  C   UNL     1       8.334  -8.673   3.080  1.00  0.00     0.029 A 
ATOM     73  C   UNL     1       7.086  -8.260   3.510  1.00  0.00     0.049 A 
ATOM     74  H   UNL     1       5.235  -8.301   2.505  1.00  0.00     0.167 HD
ATOM     75  C   UNL     1       7.057  -6.525   5.143  1.00  0.00     0.074 A 
ATOM     76  C   UNL     1       6.989  -5.773   6.378  1.00  0.00     0.031 C 
ATOM     77  C   UNL     1       6.596  -7.754   4.772  1.00  0.00     0.037 A 
BRANCH  64  78
ATOM     78  C   UNL     1       5.992 -10.184  -0.818  1.00  0.00     0.064 A 
ATOM     79  C   UNL     1       6.856 -11.287  -0.910  1.00  0.00     0.173 A 
ATOM     80  C   UNL     1       4.961 -10.139  -1.787  1.00  0.00     0.173 A 
ATOM     81  F   UNL     1       7.818 -11.484   0.001  1.00  0.00    -0.203 F 
ATOM     82  C   UNL     1       6.793 -12.190  -1.978  1.00  0.00     0.198 A 
ATOM     83  C   UNL     1       4.935 -11.007  -2.887  1.00  0.00     0.198 A 
ATOM     84  F   UNL     1       4.021  -9.180  -1.739  1.00  0.00    -0.203 F 
ATOM     85  F   UNL     1       7.674 -13.198  -2.050  1.00  0.00    -0.200 F 
ATOM     86  C   UNL     1       5.868 -12.020  -2.992  1.00  0.00     0.200 A 
ATOM     87  F   UNL     1       4.048 -10.815  -3.876  1.00  0.00    -0.200 F 
ATOM     88  F   UNL     1       5.885 -12.819  -4.069  1.00  0.00    -0.200 F 
ENDBRANCH  64  78
BRANCH  65  89
ATOM     89  C   UNL     1       8.231  -1.949   4.298  1.00  0.00     0.064 A 
ATOM     90  C   UNL     1       9.197  -0.957   4.005  1.00  0.00     0.173 A 
ATOM     91  C   UNL     1       6.898  -1.532   4.360  1.00  0.00     0.173 A 
ATOM     92  F   UNL     1      10.500  -1.282   3.953  1.00  0.00    -0.203 F 
ATOM     93  C   UNL     1       8.837   0.342   3.655  1.00  0.00     0.198 A 
ATOM     94  C   UNL     1       6.540  -0.220   4.022  1.00  0.00     0.198 A 
ATOM     95  F   UNL     1       5.926  -2.409   4.638  1.00  0.00    -0.203 F 
ATOM     96  F   UNL     1       9.774   1.214   3.253  1.00  0.00    -0.200 F 
ATOM     97  C   UNL     1       7.505   0.703   3.643  1.00  0.00     0.200 A 
ATOM     98  F   UNL     1       5.247   0.127   3.948  1.00  0.00    -0.200 F 
ATOM     99  F   UNL     1       7.141   1.916   3.200  1.00  0.00    -0.200 F 
ENDBRANCH  65  89
BRANCH  77 100
ATOM    100  C   UNL     1       5.684  -8.662   5.559  1.00  0.00     0.064 A 
ATOM    101  C   UNL     1       4.711  -8.205   6.457  1.00  0.00     0.173 A 
ATOM    102  C   UNL     1       5.655 -10.055   5.280  1.00  0.00     0.173 A 
ATOM    103  F   UNL     1       4.565  -6.901   6.722  1.00  0.00    -0.203 F 
ATOM    104  C   UNL     1       3.813  -9.081   7.072  1.00  0.00     0.198 A 
ATOM    105  C   UNL     1       4.711 -10.910   5.837  1.00  0.00     0.198 A 
ATOM    106  F   UNL     1       6.528 -10.625   4.435  1.00  0.00    -0.203 F 
ATOM    107  F   UNL     1       2.934  -8.606   7.965  1.00  0.00    -0.200 F 
ATOM    108  C   UNL     1       3.800 -10.426   6.749  1.00  0.00     0.200 A 
ATOM    109  F   UNL     1       4.679 -12.199   5.469  1.00  0.00    -0.200 F 
ATOM    110  F   UNL     1       2.902 -11.249   7.304  1.00  0.00    -0.200 F 
ENDBRANCH  77 100
ENDBRANCH  51  52
ENDBRANCH  44  46
ENDBRANCH  43  44
ENDBRANCH  42  43
ENDBRANCH  41  42
ENDBRANCH  40  41
ENDBRANCH  39  40
ENDBRANCH   1  39
TORSDOF 23
