REMARK SMILES C[C@H]1SC[C@H](C(=O)OCCOCCOCCOC(=O)c2ccc(-c3c4nc(c(-c5c(F)c(F)c(F)c(F)c5F)c5ccc([nH]5)c(-c5c(F)c(F)c(F)c(F)c5F)c5nc(c(-c6c(F)c(F)c(F)c(F)c6F)c6ccc3[nH]6)C=C5)C=C4)cc2)N1C(=O)[C@@H]1CSc2ccccc21
REMARK SMILES IDX 12 1 11 2 10 3 9 4 8 5 6 6 7 7 5 8 1 9 2 10 3 11 83 12 4 13
REMARK SMILES IDX 84 14 85 15 86 16 87 17 94 18 88 19 89 20 93 21 90 22 92 23
REMARK SMILES IDX 91 24 13 25 14 26 15 27 16 28 17 29 18 30 19 31 20 32 21 33
REMARK SMILES IDX 82 34 22 35 81 36 23 37 24 38 25 39 75 40 26 41 80 42 74 43
REMARK SMILES IDX 76 44 27 45 79 46 73 47 72 48 28 50 60 51 40 52 59 53 41 54
REMARK SMILES IDX 44 55 58 56 77 57 42 58 43 59 57 61 78 62 45 63 29 64 30 65
REMARK SMILES IDX 38 66 31 67 32 68 36 69 39 70 33 71 34 72 37 73 35 74 61 75
REMARK SMILES IDX 62 76 70 77 63 78 64 79 68 80 71 81 65 82 66 83 69 84 67 85
REMARK SMILES IDX 46 86 47 87 55 88 48 89 49 90 53 91 56 92 50 93 51 94 54 95
REMARK SMILES IDX 52 96
REMARK H PARENT 76 49 44 60
REMARK Flexibility Score: inf
ROOT
ATOM      1  C   UNL     1       7.597  -5.848   4.344  1.00  0.00     0.188 C 
ENDROOT
BRANCH   1   2
ATOM      2  O   UNL     1       7.655  -6.924   3.420  1.00  0.00    -0.376 OA
BRANCH   2   3
ATOM      3  C   UNL     1       7.646  -6.672   2.019  1.00  0.00     0.202 C 
BRANCH   3   4
ATOM      4  C   UNL     1       6.507  -5.840   1.408  1.00  0.00     0.261 C 
BRANCH   4   5
ATOM      5  O   UNL     1       6.400  -4.492   1.899  1.00  0.00    -0.462 OA
BRANCH   5   6
ATOM      6  C   UNL     1       5.299  -4.202   2.644  1.00  0.00     0.329 C 
ATOM      7  O   UNL     1       4.451  -5.019   2.992  1.00  0.00    -0.250 OA
BRANCH   6   8
ATOM      8  C   UNL     1       5.212  -2.709   3.027  1.00  0.00     0.206 C 
ATOM      9  C   UNL     1       3.618  -0.436   4.404  1.00  0.00     0.043 C 
ATOM     10  C   UNL     1       4.172  -0.545   2.985  1.00  0.00     0.141 C 
ATOM     11  S   UNL     1       5.943  -0.121   2.992  1.00  0.00    -0.135 SA
ATOM     12  N   UNL     1       4.135  -1.900   2.440  1.00  0.00    -0.316 N 
ATOM     13  C   UNL     1       6.483  -1.853   3.024  1.00  0.00     0.109 C 
BRANCH  12  14
ATOM     14  C   UNL     1       3.609  -2.261   1.206  1.00  0.00     0.232 C 
ATOM     15  O   UNL     1       4.000  -3.275   0.616  1.00  0.00    -0.274 OA
BRANCH  14  16
ATOM     16  C   UNL     1       2.562  -1.410   0.494  1.00  0.00     0.120 C 
ATOM     17  C   UNL     1       3.272  -0.313  -0.312  1.00  0.00     0.093 C 
ATOM     18  C   UNL     1       1.522  -0.797   1.390  1.00  0.00    -0.021 A 
ATOM     19  S   UNL     1       2.451   1.277   0.030  1.00  0.00    -0.125 SA
ATOM     20  C   UNL     1       1.427   0.592   1.298  1.00  0.00     0.011 A 
ATOM     21  C   UNL     1       0.743  -1.502   2.305  1.00  0.00     0.006 A 
ATOM     22  C   UNL     1       0.657   1.307   2.200  1.00  0.00     0.015 A 
ATOM     23  C   UNL     1      -0.059  -0.789   3.195  1.00  0.00     0.000 A 
ATOM     24  C   UNL     1      -0.077   0.611   3.162  1.00  0.00     0.001 A 
ENDBRANCH  14  16
ENDBRANCH  12  14
ENDBRANCH   6   8
ENDBRANCH   5   6
ENDBRANCH   4   5
ENDBRANCH   3   4
ENDBRANCH   2   3
ENDBRANCH   1   2
BRANCH   1  25
ATOM     25  C   UNL     1       8.323  -4.535   4.029  1.00  0.00     0.188 C 
BRANCH  25  26
ATOM     26  O   UNL     1       9.125  -4.542   2.877  1.00  0.00    -0.376 OA
BRANCH  26  27
ATOM     27  C   UNL     1      10.532  -4.539   3.029  1.00  0.00     0.202 C 
BRANCH  27  28
ATOM     28  C   UNL     1      11.214  -5.421   4.092  1.00  0.00     0.261 C 
BRANCH  28  29
ATOM     29  O   UNL     1      10.533  -5.597   5.347  1.00  0.00    -0.460 OA
BRANCH  29  30
ATOM     30  C   UNL     1      10.611  -4.597   6.254  1.00  0.00     0.338 C 
ATOM     31  O   UNL     1      11.214  -3.540   6.132  1.00  0.00    -0.246 OA
BRANCH  30  32
ATOM     32  C   UNL     1       9.632  -4.884   7.332  1.00  0.00     0.060 A 
ATOM     33  C   UNL     1       8.578  -3.984   7.557  1.00  0.00     0.016 A 
ATOM     34  C   UNL     1       9.736  -6.045   8.100  1.00  0.00     0.016 A 
ATOM     35  C   UNL     1       7.641  -4.231   8.565  1.00  0.00     0.010 A 
ATOM     36  C   UNL     1       8.814  -6.276   9.128  1.00  0.00     0.010 A 
ATOM     37  C   UNL     1       7.779  -5.357   9.386  1.00  0.00    -0.014 A 
BRANCH  37  38
ATOM     38  C   UNL     1       6.981  -5.481  10.634  1.00  0.00     0.031 A 
ATOM     39  C   UNL     1       7.625  -5.073  11.932  1.00  0.00     0.074 A 
ATOM     40  C   UNL     1       5.719  -5.947  10.631  1.00  0.00     0.049 A 
ATOM     41  N   UNL     1       7.182  -5.188  13.158  1.00  0.00    -0.248 NA
ATOM     42  C   UNL     1       8.957  -4.456  11.828  1.00  0.00     0.031 C 
ATOM     43  C   UNL     1       4.959  -6.327   9.444  1.00  0.00     0.029 A 
ATOM     44  N   UNL     1       4.861  -6.196  11.676  1.00  0.00    -0.354 N 
ATOM     45  C   UNL     1       8.184  -4.673  13.970  1.00  0.00     0.074 A 
ATOM     46  C   UNL     1       9.269  -4.271  13.101  1.00  0.00     0.031 C 
ATOM     47  C   UNL     1       3.753  -6.783   9.828  1.00  0.00     0.029 A 
ATOM     48  C   UNL     1       3.672  -6.764  11.289  1.00  0.00     0.049 A 
ATOM     49  H   UNL     1       5.078  -5.986  12.613  1.00  0.00     0.167 HD
ATOM     50  C   UNL     1       8.198  -4.542  15.318  1.00  0.00     0.037 A 
ATOM     51  C   UNL     1       2.653  -7.243  12.031  1.00  0.00     0.037 A 
ATOM     52  C   UNL     1       7.121  -4.945  16.183  1.00  0.00     0.049 A 
ATOM     53  C   UNL     1       2.729  -7.168  13.538  1.00  0.00     0.074 A 
ATOM     54  C   UNL     1       7.036  -4.839  17.560  1.00  0.00     0.029 A 
ATOM     55  N   UNL     1       5.945  -5.543  15.754  1.00  0.00    -0.354 N 
ATOM     56  N   UNL     1       3.670  -6.662  14.299  1.00  0.00    -0.248 NA
ATOM     57  C   UNL     1       1.597  -7.732  14.289  1.00  0.00     0.031 C 
ATOM     58  C   UNL     1       5.837  -5.430  17.971  1.00  0.00     0.029 A 
ATOM     59  C   UNL     1       5.141  -5.838  16.844  1.00  0.00     0.049 A 
ATOM     60  H   UNL     1       5.715  -5.729  14.815  1.00  0.00     0.167 HD
ATOM     61  C   UNL     1       3.228  -6.813  15.609  1.00  0.00     0.074 A 
ATOM     62  C   UNL     1       1.929  -7.447  15.540  1.00  0.00     0.031 C 
ATOM     63  C   UNL     1       3.842  -6.457  16.765  1.00  0.00     0.037 A 
BRANCH  50  64
ATOM     64  C   UNL     1       9.435  -3.966  15.946  1.00  0.00     0.064 A 
ATOM     65  C   UNL     1       9.788  -2.618  15.787  1.00  0.00     0.173 A 
ATOM     66  C   UNL     1      10.263  -4.770  16.746  1.00  0.00     0.173 A 
ATOM     67  F   UNL     1       9.040  -1.809  15.021  1.00  0.00    -0.203 F 
ATOM     68  C   UNL     1      10.938  -2.103  16.382  1.00  0.00     0.198 A 
ATOM     69  C   UNL     1      11.392  -4.244  17.367  1.00  0.00     0.198 A 
ATOM     70  F   UNL     1       9.970  -6.066  16.934  1.00  0.00    -0.203 F 
ATOM     71  F   UNL     1      11.283  -0.825  16.173  1.00  0.00    -0.200 F 
ATOM     72  C   UNL     1      11.733  -2.913  17.178  1.00  0.00     0.200 A 
ATOM     73  F   UNL     1      12.150  -5.025  18.148  1.00  0.00    -0.200 F 
ATOM     74  F   UNL     1      12.833  -2.414  17.758  1.00  0.00    -0.200 F 
ENDBRANCH  50  64
BRANCH  51  75
ATOM     75  C   UNL     1       1.471  -7.862  11.370  1.00  0.00     0.064 A 
ATOM     76  C   UNL     1       0.202  -7.270  11.454  1.00  0.00     0.173 A 
ATOM     77  C   UNL     1       1.576  -9.077  10.677  1.00  0.00     0.173 A 
ATOM     78  F   UNL     1       0.042  -6.124  12.132  1.00  0.00    -0.203 F 
ATOM     79  C   UNL     1      -0.917  -7.880  10.891  1.00  0.00     0.198 A 
ATOM     80  C   UNL     1       0.461  -9.669  10.086  1.00  0.00     0.198 A 
ATOM     81  F   UNL     1       2.763  -9.692  10.574  1.00  0.00    -0.203 F 
ATOM     82  F   UNL     1      -2.126  -7.321  11.038  1.00  0.00    -0.200 F 
ATOM     83  C   UNL     1      -0.786  -9.076  10.202  1.00  0.00     0.200 A 
ATOM     84  F   UNL     1       0.595 -10.821   9.413  1.00  0.00    -0.200 F 
ATOM     85  F   UNL     1      -1.863  -9.662   9.662  1.00  0.00    -0.200 F 
ENDBRANCH  51  75
BRANCH  63  86
ATOM     86  C   UNL     1       3.099  -6.689  18.052  1.00  0.00     0.064 A 
ATOM     87  C   UNL     1       2.876  -7.978  18.559  1.00  0.00     0.173 A 
ATOM     88  C   UNL     1       2.647  -5.600  18.814  1.00  0.00     0.173 A 
ATOM     89  F   UNL     1       3.277  -9.055  17.868  1.00  0.00    -0.203 F 
ATOM     90  C   UNL     1       2.201  -8.167  19.764  1.00  0.00     0.198 A 
ATOM     91  C   UNL     1       2.005  -5.792  20.035  1.00  0.00     0.198 A 
ATOM     92  F   UNL     1       2.842  -4.345  18.382  1.00  0.00    -0.203 F 
ATOM     93  F   UNL     1       1.953  -9.409  20.202  1.00  0.00    -0.200 F 
ATOM     94  C   UNL     1       1.775  -7.075  20.504  1.00  0.00     0.200 A 
ATOM     95  F   UNL     1       1.612  -4.733  20.757  1.00  0.00    -0.200 F 
ATOM     96  F   UNL     1       1.136  -7.259  21.668  1.00  0.00    -0.200 F 
ENDBRANCH  63  86
ENDBRANCH  37  38
ENDBRANCH  30  32
ENDBRANCH  29  30
ENDBRANCH  28  29
ENDBRANCH  27  28
ENDBRANCH  26  27
ENDBRANCH  25  26
ENDBRANCH   1  25
TORSDOF 19
