REMARK SMILES CC[C@@H](NC(=O)N[C@H]1CCCCC[C@@H]1C(=O)OCCOCCOCCOC(=O)c1ccc(-c2c3nc(c(-c4c(F)c(F)c(F)c(F)c4F)c4ccc([nH]4)c(-c4c(F)c(F)c(F)c(F)c4F)c4nc(c(-c5c(F)c(F)c(F)c(F)c5F)c5ccc2[nH]5)C=C4)C=C3)cc1)C(C)C
REMARK SMILES IDX 21 1 20 2 19 3 18 4 17 5 15 6 16 7 14 8 8 9 7 10 4 11 5 12
REMARK SMILES IDX 6 14 3 16 2 17 1 18 92 19 93 20 94 21 9 22 10 23 11 24 13 26
REMARK SMILES IDX 12 27 22 29 23 30 24 31 25 32 26 33 27 34 28 35 29 36 30 37
REMARK SMILES IDX 91 38 31 39 90 40 32 41 33 42 34 43 84 44 35 45 89 46 83 47
REMARK SMILES IDX 85 48 36 49 88 50 82 51 81 52 37 54 69 55 49 56 68 57 50 58
REMARK SMILES IDX 53 59 67 60 86 61 51 62 52 63 66 65 87 66 54 67 38 68 39 69
REMARK SMILES IDX 47 70 40 71 41 72 45 73 48 74 42 75 43 76 46 77 44 78 70 79
REMARK SMILES IDX 71 80 79 81 72 82 73 83 77 84 80 85 74 86 75 87 78 88 76 89
REMARK SMILES IDX 55 90 56 91 64 92 57 93 58 94 62 95 65 96 59 97 60 98 63 99
REMARK SMILES IDX 61 100
REMARK H PARENT 4 13 7 15 85 53 53 64
REMARK Flexibility Score: 90.00
ROOT
ATOM      1  C   UNL     1      -2.344   1.010  -8.891  1.00  0.00     0.188 C 
ENDROOT
BRANCH   1   2
ATOM      2  O   UNL     1      -2.508  -0.187  -9.638  1.00  0.00    -0.376 OA
BRANCH   2   3
ATOM      3  C   UNL     1      -3.296  -1.203  -9.024  1.00  0.00     0.202 C 
BRANCH   3   4
ATOM      4  C   UNL     1      -2.733  -1.842  -7.742  1.00  0.00     0.261 C 
BRANCH   4   5
ATOM      5  O   UNL     1      -2.236  -0.910  -6.750  1.00  0.00    -0.463 OA
BRANCH   5   6
ATOM      6  C   UNL     1      -0.884  -0.840  -6.691  1.00  0.00     0.311 C 
ATOM      7  O   UNL     1      -0.133  -1.563  -7.342  1.00  0.00    -0.252 OA
BRANCH   6   8
ATOM      8  C   UNL     1      -0.316   0.189  -5.723  1.00  0.00     0.121 C 
BRANCH   8   9
ATOM      9  C   UNL     1       0.071  -0.785  -4.168  1.00  0.00     0.098 C 
BRANCH   9  10
ATOM     10  N   UNL     1       1.313  -1.540  -4.406  1.00  0.00    -0.335 N 
ATOM     11  N   UNL     1       2.996   0.028  -3.952  1.00  0.00    -0.335 N 
ATOM     12  C   UNL     1       2.596  -1.139  -4.489  1.00  0.00     0.315 C 
ATOM     13  H   UNL     1       3.893   0.333  -4.221  1.00  0.00     0.165 HD
ATOM     14  O   UNL     1       3.415  -1.843  -5.076  1.00  0.00    -0.249 OA
ATOM     15  H   UNL     1       1.183  -2.509  -4.525  1.00  0.00     0.165 HD
BRANCH  11  16
ATOM     16  C   UNL     1       2.279   0.914  -3.014  1.00  0.00     0.086 C 
BRANCH  16  17
ATOM     17  C   UNL     1       2.571   0.308  -1.592  1.00  0.00     0.022 C 
ATOM     18  C   UNL     1       3.716   1.021  -0.871  1.00  0.00     0.006 C 
ENDBRANCH  16  17
BRANCH  16  19
ATOM     19  C   UNL     1       0.877   1.521  -3.869  1.00  0.00     0.005 C 
ATOM     20  C   UNL     1      -1.109   1.187  -3.694  1.00  0.00     0.009 C 
ATOM     21  C   UNL     1       1.634   2.697  -4.722  1.00  0.00     0.009 C 
ENDBRANCH  16  19
ENDBRANCH  11  16
ENDBRANCH   9  10
BRANCH   9  22
ATOM     22  C   UNL     1      -0.046  -0.211  -2.401  1.00  0.00     0.026 C 
BRANCH  22  23
ATOM     23  C   UNL     1      -0.076   1.593  -1.748  1.00  0.00     0.002 C 
BRANCH  23  24
ATOM     24  C   UNL     1      -0.438   3.129  -2.737  1.00  0.00     0.000 CG0
ATOM     25  G   UNL     1      -0.807   3.305  -4.549  1.00  0.00     0.000 G0
ENDBRANCH  23  24
ENDBRANCH  22  23
ENDBRANCH   9  22
ENDBRANCH   8   9
BRANCH   8  26
ATOM     26  C   UNL     1      -0.931   1.922  -5.809  1.00  0.00     0.017 C 
BRANCH  26  27
ATOM     27  C   UNL     1      -0.807   3.305  -4.549  1.00  0.00     0.001 CG0
ATOM     28  G   UNL     1      -0.438   3.129  -2.737  1.00  0.00     0.000 G0
ENDBRANCH  26  27
ENDBRANCH   8  26
ENDBRANCH   6   8
ENDBRANCH   5   6
ENDBRANCH   4   5
ENDBRANCH   3   4
ENDBRANCH   2   3
ENDBRANCH   1   2
BRANCH   1  29
ATOM     29  C   UNL     1      -3.627   1.633  -8.359  1.00  0.00     0.188 C 
BRANCH  29  30
ATOM     30  O   UNL     1      -4.428   0.852  -7.497  1.00  0.00    -0.376 OA
BRANCH  30  31
ATOM     31  C   UNL     1      -5.802   1.222  -7.360  1.00  0.00     0.202 C 
BRANCH  31  32
ATOM     32  C   UNL     1      -6.516   2.294  -8.236  1.00  0.00     0.261 C 
BRANCH  32  33
ATOM     33  O   UNL     1      -5.736   3.309  -8.898  1.00  0.00    -0.460 OA
BRANCH  33  34
ATOM     34  C   UNL     1      -5.095   4.224  -8.128  1.00  0.00     0.338 C 
ATOM     35  O   UNL     1      -5.243   4.383  -6.938  1.00  0.00    -0.246 OA
BRANCH  34  36
ATOM     36  C   UNL     1      -3.967   4.815  -8.928  1.00  0.00     0.060 A 
ATOM     37  C   UNL     1      -2.726   4.993  -8.290  1.00  0.00     0.016 A 
ATOM     38  C   UNL     1      -4.083   5.128 -10.285  1.00  0.00     0.016 A 
ATOM     39  C   UNL     1      -1.625   5.517  -8.982  1.00  0.00     0.010 A 
ATOM     40  C   UNL     1      -2.989   5.684 -10.970  1.00  0.00     0.010 A 
ATOM     41  C   UNL     1      -1.762   5.915 -10.317  1.00  0.00    -0.014 A 
BRANCH  41  42
ATOM     42  C   UNL     1      -0.737   6.780 -10.970  1.00  0.00     0.031 A 
ATOM     43  C   UNL     1      -0.986   8.266 -10.994  1.00  0.00     0.074 A 
ATOM     44  C   UNL     1       0.378   6.295 -11.548  1.00  0.00     0.049 A 
ATOM     45  N   UNL     1      -0.361   9.215 -11.644  1.00  0.00    -0.248 NA
ATOM     46  C   UNL     1      -2.109   8.740 -10.170  1.00  0.00     0.031 C 
ATOM     47  C   UNL     1       0.810   4.902 -11.527  1.00  0.00     0.029 A 
ATOM     48  N   UNL     1       1.345   6.937 -12.289  1.00  0.00    -0.354 N 
ATOM     49  C   UNL     1      -1.034  10.390 -11.334  1.00  0.00     0.074 A 
ATOM     50  C   UNL     1      -2.122  10.034 -10.450  1.00  0.00     0.031 C 
ATOM     51  C   UNL     1       1.946   4.788 -12.240  1.00  0.00     0.029 A 
ATOM     52  C   UNL     1       2.292   6.090 -12.815  1.00  0.00     0.049 A 
ATOM     53  H   UNL     1       1.357   7.911 -12.430  1.00  0.00     0.167 HD
ATOM     54  C   UNL     1      -0.775  11.653 -11.753  1.00  0.00     0.037 A 
ATOM     55  C   UNL     1       3.293   6.330 -13.688  1.00  0.00     0.037 A 
ATOM     56  C   UNL     1       0.306  12.011 -12.632  1.00  0.00     0.049 A 
ATOM     57  C   UNL     1       3.490   7.724 -14.242  1.00  0.00     0.074 A 
ATOM     58  C   UNL     1       0.654  13.265 -13.103  1.00  0.00     0.029 A 
ATOM     59  N   UNL     1       1.207  11.113 -13.183  1.00  0.00    -0.354 N 
ATOM     60  N   UNL     1       2.848   8.831 -13.956  1.00  0.00    -0.248 NA
ATOM     61  C   UNL     1       4.546   7.896 -15.255  1.00  0.00     0.031 C 
ATOM     62  C   UNL     1       1.721  13.117 -13.994  1.00  0.00     0.029 A 
ATOM     63  C   UNL     1       2.088  11.781 -14.018  1.00  0.00     0.049 A 
ATOM     64  H   UNL     1       1.219  10.144 -13.006  1.00  0.00     0.167 HD
ATOM     65  C   UNL     1       3.450   9.832 -14.711  1.00  0.00     0.074 A 
ATOM     66  C   UNL     1       4.505   9.204 -15.476  1.00  0.00     0.031 C 
ATOM     67  C   UNL     1       3.157  11.155 -14.757  1.00  0.00     0.037 A 
BRANCH  54  68
ATOM     68  C   UNL     1      -1.722  12.733 -11.310  1.00  0.00     0.064 A 
ATOM     69  C   UNL     1      -1.806  13.152  -9.974  1.00  0.00     0.173 A 
ATOM     70  C   UNL     1      -2.562  13.359 -12.245  1.00  0.00     0.173 A 
ATOM     71  F   UNL     1      -1.035  12.578  -9.037  1.00  0.00    -0.203 F 
ATOM     72  C   UNL     1      -2.726  14.121  -9.583  1.00  0.00     0.198 A 
ATOM     73  C   UNL     1      -3.453  14.355 -11.857  1.00  0.00     0.198 A 
ATOM     74  F   UNL     1      -2.519  13.004 -13.538  1.00  0.00    -0.203 F 
ATOM     75  F   UNL     1      -2.837  14.453  -8.289  1.00  0.00    -0.200 F 
ATOM     76  C   UNL     1      -3.545  14.726 -10.525  1.00  0.00     0.200 A 
ATOM     77  F   UNL     1      -4.231  14.949 -12.773  1.00  0.00    -0.200 F 
ATOM     78  F   UNL     1      -4.431  15.657 -10.146  1.00  0.00    -0.200 F 
ENDBRANCH  54  68
BRANCH  55  79
ATOM     79  C   UNL     1       4.190   5.223 -14.123  1.00  0.00     0.064 A 
ATOM     80  C   UNL     1       5.550   5.223 -13.779  1.00  0.00     0.173 A 
ATOM     81  C   UNL     1       3.723   4.166 -14.918  1.00  0.00     0.173 A 
ATOM     82  F   UNL     1       6.056   6.232 -13.054  1.00  0.00    -0.203 F 
ATOM     83  C   UNL     1       6.407   4.216 -14.220  1.00  0.00     0.198 A 
ATOM     84  C   UNL     1       4.574   3.143 -15.334  1.00  0.00     0.198 A 
ATOM     85  F   UNL     1       2.436   4.126 -15.293  1.00  0.00    -0.203 F 
ATOM     86  F   UNL     1       7.712   4.270 -13.918  1.00  0.00    -0.200 F 
ATOM     87  C   UNL     1       5.917   3.173 -14.990  1.00  0.00     0.200 A 
ATOM     88  F   UNL     1       4.096   2.135 -16.075  1.00  0.00    -0.200 F 
ATOM     89  F   UNL     1       6.741   2.204 -15.412  1.00  0.00    -0.200 F 
ENDBRANCH  55  79
BRANCH  67  90
ATOM     90  C   UNL     1       4.024  12.048 -15.602  1.00  0.00     0.064 A 
ATOM     91  C   UNL     1       3.962  12.038 -17.002  1.00  0.00     0.173 A 
ATOM     92  C   UNL     1       4.863  12.995 -14.990  1.00  0.00     0.173 A 
ATOM     93  F   UNL     1       3.188  11.147 -17.638  1.00  0.00    -0.203 F 
ATOM     94  C   UNL     1       4.714  12.937 -17.758  1.00  0.00     0.198 A 
ATOM     95  C   UNL     1       5.588  13.910 -15.747  1.00  0.00     0.198 A 
ATOM     96  F   UNL     1       4.954  13.053 -13.653  1.00  0.00    -0.203 F 
ATOM     97  F   UNL     1       4.662  12.890 -19.097  1.00  0.00    -0.200 F 
ATOM     98  C   UNL     1       5.516  13.879 -17.131  1.00  0.00     0.200 A 
ATOM     99  F   UNL     1       6.346  14.832 -15.136  1.00  0.00    -0.200 F 
ATOM    100  F   UNL     1       6.218  14.758 -17.860  1.00  0.00    -0.200 F 
ENDBRANCH  67  90
ENDBRANCH  41  42
ENDBRANCH  34  36
ENDBRANCH  33  34
ENDBRANCH  32  33
ENDBRANCH  31  32
ENDBRANCH  30  31
ENDBRANCH  29  30
ENDBRANCH   1  29
TORSDOF 21
