REMARK SMILES CC(C)C[C@H](NC(=O)[C@H]1N2C(=O)c3ccccc3[C@@H]2SC1(C)C)C(=O)N[C@@H](C)C(=O)OCCOCCOCCOC(=O)c1ccc(-c2c3nc(c(-c4c(F)c(F)c(F)c(F)c4F)c4ccc([nH]4)c(-c4c(F)c(F)c(F)c(F)c4F)c4nc(c(-c5c(F)c(F)c(F)c(F)c5F)c5ccc2[nH]5)C=C4)C=C3)cc1
REMARK SMILES IDX 35 1 34 2 33 3 32 4 31 5 29 6 30 7 27 8 28 9 26 10 24 11
REMARK SMILES IDX 25 12 5 14 4 15 2 16 1 17 3 18 6 19 7 20 8 22 9 23 10 24
REMARK SMILES IDX 21 25 11 26 19 27 20 28 22 29 23 30 12 31 13 32 18 33 14 34
REMARK SMILES IDX 17 35 15 36 16 37 36 38 37 39 38 40 39 41 40 42 41 43 42 44
REMARK SMILES IDX 43 45 44 46 105 47 45 48 104 49 46 50 47 51 48 52 98 53
REMARK SMILES IDX 49 54 103 55 97 56 99 57 50 58 102 59 96 60 95 61 51 63
REMARK SMILES IDX 83 64 63 65 82 66 64 67 67 68 81 69 100 70 65 71 66 72 80 74
REMARK SMILES IDX 101 75 68 76 52 77 53 78 61 79 54 80 55 81 59 82 62 83 56 84
REMARK SMILES IDX 57 85 60 86 58 87 84 88 85 89 93 90 86 91 87 92 91 93 94 94
REMARK SMILES IDX 88 95 89 96 92 97 90 98 69 99 70 100 78 101 71 102 72 103
REMARK SMILES IDX 76 104 79 105 73 106 74 107 77 108 75 109
REMARK H PARENT 26 13 6 21 99 62 67 73
REMARK Flexibility Score: inf
ROOT
ATOM      1  C   UNL     1      -5.073   2.983  -4.216  1.00  0.00     0.188 C 
ENDROOT
BRANCH   1   2
ATOM      2  O   UNL     1      -4.310   3.532  -5.288  1.00  0.00    -0.376 OA
BRANCH   2   3
ATOM      3  C   UNL     1      -4.696   3.041  -6.571  1.00  0.00     0.202 C 
BRANCH   3   4
ATOM      4  C   UNL     1      -4.812   1.509  -6.763  1.00  0.00     0.261 C 
BRANCH   4   5
ATOM      5  O   UNL     1      -4.512   0.709  -5.597  1.00  0.00    -0.462 OA
BRANCH   5   6
ATOM      6  C   UNL     1      -3.265   0.168  -5.512  1.00  0.00     0.328 C 
ATOM      7  O   UNL     1      -2.443   0.210  -6.421  1.00  0.00    -0.250 OA
BRANCH   6   8
ATOM      8  C   UNL     1      -3.046  -0.674  -4.220  1.00  0.00     0.189 C 
ATOM      9  C   UNL     1      -3.541  -2.090  -4.505  1.00  0.00     0.043 C 
BRANCH   8  10
ATOM     10  N   UNL     1      -3.695  -0.258  -2.966  1.00  0.00    -0.341 N 
ATOM     11  C   UNL     1      -3.184  -0.129  -1.701  1.00  0.00     0.243 C 
ATOM     12  O   UNL     1      -3.987  -0.238  -0.767  1.00  0.00    -0.273 OA
ATOM     13  H   UNL     1      -4.650  -0.037  -3.050  1.00  0.00     0.164 HD
BRANCH  11  14
ATOM     14  C   UNL     1      -1.683   0.210  -1.398  1.00  0.00     0.171 C 
BRANCH  14  15
ATOM     15  C   UNL     1      -1.186   1.306  -2.330  1.00  0.00     0.038 C 
BRANCH  15  16
ATOM     16  C   UNL     1      -2.089   2.535  -2.336  1.00  0.00    -0.015 C 
ATOM     17  C   UNL     1      -2.364   3.140  -0.959  1.00  0.00     0.007 C 
ATOM     18  C   UNL     1      -1.534   3.494  -3.379  1.00  0.00     0.007 C 
ENDBRANCH  15  16
ENDBRANCH  14  15
BRANCH  14  19
ATOM     19  N   UNL     1      -0.747  -0.899  -1.316  1.00  0.00    -0.342 N 
ATOM     20  C   UNL     1       0.525  -0.942  -0.790  1.00  0.00     0.244 C 
ATOM     21  H   UNL     1      -1.071  -1.748  -1.694  1.00  0.00     0.164 HD
ATOM     22  O   UNL     1       1.085  -2.034  -0.930  1.00  0.00    -0.273 OA
BRANCH  20  23
ATOM     23  C   UNL     1       1.318   0.344  -0.327  1.00  0.00     0.191 C 
ATOM     24  N   UNL     1       0.562   1.356   0.411  1.00  0.00    -0.309 N 
ATOM     25  C   UNL     1       2.607   0.167   0.539  1.00  0.00     0.042 C 
ATOM     26  C   UNL     1       0.715   2.710   0.131  1.00  0.00     0.256 C 
ATOM     27  C   UNL     1       0.418   1.148   1.829  1.00  0.00     0.176 C 
ATOM     28  S   UNL     1       2.054   0.521   2.299  1.00  0.00    -0.123 SA
ATOM     29  C   UNL     1       3.278  -1.200   0.525  1.00  0.00     0.026 C 
ATOM     30  C   UNL     1       3.666   1.219   0.125  1.00  0.00     0.026 C 
ATOM     31  O   UNL     1       1.144   3.176  -0.887  1.00  0.00    -0.269 OA
ATOM     32  C   UNL     1       0.290   3.452   1.331  1.00  0.00     0.046 A 
ATOM     33  C   UNL     1       0.076   2.516   2.338  1.00  0.00    -0.002 A 
ATOM     34  C   UNL     1       0.013   4.802   1.475  1.00  0.00     0.014 A 
ATOM     35  C   UNL     1      -0.469   2.934   3.542  1.00  0.00     0.007 A 
ATOM     36  C   UNL     1      -0.569   5.218   2.669  1.00  0.00     0.001 A 
ATOM     37  C   UNL     1      -0.808   4.289   3.694  1.00  0.00     0.000 A 
ENDBRANCH  20  23
ENDBRANCH  14  19
ENDBRANCH  11  14
ENDBRANCH   8  10
ENDBRANCH   6   8
ENDBRANCH   5   6
ENDBRANCH   4   5
ENDBRANCH   3   4
ENDBRANCH   2   3
ENDBRANCH   1   2
BRANCH   1  38
ATOM     38  C   UNL     1      -5.100   3.881  -2.988  1.00  0.00     0.188 C 
BRANCH  38  39
ATOM     39  O   UNL     1      -6.195   4.782  -3.015  1.00  0.00    -0.376 OA
BRANCH  39  40
ATOM     40  C   UNL     1      -5.959   5.936  -3.825  1.00  0.00     0.202 C 
BRANCH  40  41
ATOM     41  C   UNL     1      -5.122   7.005  -3.103  1.00  0.00     0.261 C 
BRANCH  41  42
ATOM     42  O   UNL     1      -3.691   6.890  -3.327  1.00  0.00    -0.460 OA
BRANCH  42  43
ATOM     43  C   UNL     1      -2.925   7.336  -2.292  1.00  0.00     0.338 C 
ATOM     44  O   UNL     1      -3.328   7.687  -1.192  1.00  0.00    -0.246 OA
BRANCH  43  45
ATOM     45  C   UNL     1      -1.472   7.206  -2.556  1.00  0.00     0.060 A 
ATOM     46  C   UNL     1      -0.677   8.117  -3.257  1.00  0.00     0.016 A 
ATOM     47  C   UNL     1      -0.839   6.175  -1.890  1.00  0.00     0.016 A 
ATOM     48  C   UNL     1       0.735   7.929  -3.340  1.00  0.00     0.010 A 
ATOM     49  C   UNL     1       0.529   5.965  -2.025  1.00  0.00     0.010 A 
ATOM     50  C   UNL     1       1.352   6.814  -2.752  1.00  0.00    -0.014 A 
BRANCH  50  51
ATOM     51  C   UNL     1       2.818   6.521  -2.658  1.00  0.00     0.031 A 
ATOM     52  C   UNL     1       3.507   5.482  -3.517  1.00  0.00     0.074 A 
ATOM     53  C   UNL     1       3.474   6.876  -1.532  1.00  0.00     0.049 A 
ATOM     54  N   UNL     1       4.790   5.225  -3.641  1.00  0.00    -0.248 NA
ATOM     55  C   UNL     1       2.645   4.565  -4.276  1.00  0.00     0.031 C 
ATOM     56  C   UNL     1       2.863   7.545  -0.383  1.00  0.00     0.029 A 
ATOM     57  N   UNL     1       4.771   6.650  -1.135  1.00  0.00    -0.354 N 
ATOM     58  C   UNL     1       4.889   4.162  -4.534  1.00  0.00     0.074 A 
ATOM     59  C   UNL     1       3.535   3.755  -4.843  1.00  0.00     0.031 C 
ATOM     60  C   UNL     1       3.781   7.674   0.587  1.00  0.00     0.029 A 
ATOM     61  C   UNL     1       5.065   7.176   0.098  1.00  0.00     0.049 A 
ATOM     62  H   UNL     1       5.426   6.159  -1.682  1.00  0.00     0.167 HD
ATOM     63  C   UNL     1       6.010   3.611  -5.069  1.00  0.00     0.037 A 
ATOM     64  C   UNL     1       6.246   7.324   0.730  1.00  0.00     0.037 A 
ATOM     65  C   UNL     1       7.350   3.984  -4.676  1.00  0.00     0.049 A 
ATOM     66  C   UNL     1       7.511   6.904   0.035  1.00  0.00     0.074 A 
ATOM     67  C   UNL     1       8.559   3.674  -5.277  1.00  0.00     0.029 A 
ATOM     68  N   UNL     1       7.652   4.709  -3.534  1.00  0.00    -0.354 N 
ATOM     69  N   UNL     1       7.655   6.219  -1.071  1.00  0.00    -0.248 NA
ATOM     70  C   UNL     1       8.779   7.334   0.643  1.00  0.00     0.031 C 
ATOM     71  C   UNL     1       9.592   4.167  -4.470  1.00  0.00     0.029 A 
ATOM     72  C   UNL     1       9.025   4.838  -3.400  1.00  0.00     0.049 A 
ATOM     73  H   UNL     1       6.987   5.079  -2.909  1.00  0.00     0.167 HD
ATOM     74  C   UNL     1       9.021   6.162  -1.312  1.00  0.00     0.074 A 
ATOM     75  C   UNL     1       9.664   6.900  -0.245  1.00  0.00     0.031 C 
ATOM     76  C   UNL     1       9.676   5.554  -2.332  1.00  0.00     0.037 A 
BRANCH  63  77
ATOM     77  C   UNL     1       5.873   2.636  -6.215  1.00  0.00     0.064 A 
ATOM     78  C   UNL     1       5.332   3.057  -7.442  1.00  0.00     0.173 A 
ATOM     79  C   UNL     1       6.448   1.354  -6.172  1.00  0.00     0.173 A 
ATOM     80  F   UNL     1       4.790   4.279  -7.559  1.00  0.00    -0.203 F 
ATOM     81  C   UNL     1       5.363   2.238  -8.569  1.00  0.00     0.198 A 
ATOM     82  C   UNL     1       6.506   0.549  -7.311  1.00  0.00     0.198 A 
ATOM     83  F   UNL     1       7.006   0.897  -5.040  1.00  0.00    -0.203 F 
ATOM     84  F   UNL     1       4.833   2.669  -9.722  1.00  0.00    -0.200 F 
ATOM     85  C   UNL     1       5.964   0.992  -8.508  1.00  0.00     0.200 A 
ATOM     86  F   UNL     1       7.116  -0.644  -7.260  1.00  0.00    -0.200 F 
ATOM     87  F   UNL     1       6.034   0.225  -9.605  1.00  0.00    -0.200 F 
ENDBRANCH  63  77
BRANCH  64  88
ATOM     88  C   UNL     1       6.279   8.142   1.968  1.00  0.00     0.064 A 
ATOM     89  C   UNL     1       6.663   9.490   1.891  1.00  0.00     0.173 A 
ATOM     90  C   UNL     1       5.840   7.655   3.205  1.00  0.00     0.173 A 
ATOM     91  F   UNL     1       7.092   9.996   0.725  1.00  0.00    -0.203 F 
ATOM     92  C   UNL     1       6.612  10.319   3.006  1.00  0.00     0.198 A 
ATOM     93  C   UNL     1       5.769   8.493   4.317  1.00  0.00     0.198 A 
ATOM     94  F   UNL     1       5.438   6.381   3.322  1.00  0.00    -0.203 F 
ATOM     95  F   UNL     1       6.997  11.598   2.903  1.00  0.00    -0.200 F 
ATOM     96  C   UNL     1       6.156   9.823   4.216  1.00  0.00     0.200 A 
ATOM     97  F   UNL     1       5.307   8.021   5.483  1.00  0.00    -0.200 F 
ATOM     98  F   UNL     1       6.082  10.629   5.284  1.00  0.00    -0.200 F 
ENDBRANCH  64  88
BRANCH  76  99
ATOM     99  C   UNL     1      11.174   5.646  -2.356  1.00  0.00     0.064 A 
ATOM    100  C   UNL     1      11.966   4.970  -1.416  1.00  0.00     0.173 A 
ATOM    101  C   UNL     1      11.829   6.368  -3.366  1.00  0.00     0.173 A 
ATOM    102  F   UNL     1      11.390   4.273  -0.424  1.00  0.00    -0.203 F 
ATOM    103  C   UNL     1      13.356   5.032  -1.472  1.00  0.00     0.198 A 
ATOM    104  C   UNL     1      13.220   6.402  -3.437  1.00  0.00     0.198 A 
ATOM    105  F   UNL     1      11.121   7.027  -4.295  1.00  0.00    -0.203 F 
ATOM    106  F   UNL     1      14.091   4.414  -0.537  1.00  0.00    -0.200 F 
ATOM    107  C   UNL     1      13.982   5.740  -2.487  1.00  0.00     0.200 A 
ATOM    108  F   UNL     1      13.822   7.074  -4.428  1.00  0.00    -0.200 F 
ATOM    109  F   UNL     1      15.319   5.788  -2.547  1.00  0.00    -0.200 F 
ENDBRANCH  76  99
ENDBRANCH  50  51
ENDBRANCH  43  45
ENDBRANCH  42  43
ENDBRANCH  41  42
ENDBRANCH  40  41
ENDBRANCH  39  40
ENDBRANCH  38  39
ENDBRANCH   1  38
TORSDOF 23
