REMARK SMILES N#C/C(=C/c1cccn1-c1ccc(C(=O)OCCOCCOCCOC(=O)c2ccc(-c3c4nc(c(-c5c(F)c(F)c(F)c(F)c5F)c5ccc([nH]5)c(-c5c(F)c(F)c(F)c(F)c5F)c5nc(c(-c6c(F)c(F)c(F)c(F)c6F)c6ccc3[nH]6)C=C5)C=C4)cc2)cc1)C(=O)Nc1ccc(O)cc1
REMARK SMILES IDX 19 1 18 2 17 3 16 4 14 5 15 6 13 7 10 8 11 9 92 10 12 11
REMARK SMILES IDX 91 12 9 13 5 14 6 15 7 16 8 17 4 18 3 19 2 20 1 21 93 22
REMARK SMILES IDX 94 23 95 24 96 26 97 27 102 28 98 29 101 30 99 31 100 32
REMARK SMILES IDX 20 34 21 35 22 36 23 37 24 38 25 39 26 40 27 41 28 42 29 43
REMARK SMILES IDX 90 44 30 45 89 46 31 47 32 48 33 49 83 50 34 51 88 52 82 53
REMARK SMILES IDX 84 54 35 55 87 56 81 57 80 58 36 60 68 61 48 62 67 63 49 64
REMARK SMILES IDX 52 65 66 66 85 67 50 68 51 69 65 71 86 72 53 73 37 74 38 75
REMARK SMILES IDX 46 76 39 77 40 78 44 79 47 80 41 81 42 82 45 83 43 84 69 85
REMARK SMILES IDX 70 86 78 87 71 88 72 89 76 90 79 91 73 92 74 93 77 94 75 95
REMARK SMILES IDX 54 96 55 97 63 98 56 99 57 100 61 101 64 102 58 103 59 104
REMARK SMILES IDX 62 105 60 106
REMARK H PARENT 95 25 100 33 84 59 52 70
REMARK Flexibility Score: inf
ROOT
ATOM      1  O   UNL     1       5.754   1.085 -10.067  1.00  0.00    -0.376 OA
ENDROOT
BRANCH   1   2
ATOM      2  C   UNL     1       4.377   1.412 -10.117  1.00  0.00     0.202 C 
BRANCH   2   3
ATOM      3  C   UNL     1       3.382   1.374  -8.934  1.00  0.00     0.261 C 
BRANCH   3   4
ATOM      4  O   UNL     1       3.887   1.188  -7.605  1.00  0.00    -0.460 OA
BRANCH   4   5
ATOM      5  C   UNL     1       3.874  -0.087  -7.139  1.00  0.00     0.338 C 
ATOM      6  O   UNL     1       3.500  -1.071  -7.756  1.00  0.00    -0.246 OA
BRANCH   5   7
ATOM      7  C   UNL     1       4.561  -0.176  -5.820  1.00  0.00     0.060 A 
ATOM      8  C   UNL     1       5.867  -0.453  -3.335  1.00  0.00     0.046 A 
ATOM      9  C   UNL     1       6.039  -1.436  -4.326  1.00  0.00     0.027 A 
ATOM     10  C   UNL     1       4.995   0.634  -3.582  1.00  0.00     0.027 A 
ATOM     11  C   UNL     1       5.396  -1.280  -5.567  1.00  0.00     0.018 A 
ATOM     12  C   UNL     1       4.377   0.790  -4.830  1.00  0.00     0.018 A 
BRANCH   8  13
ATOM     13  N   UNL     1       6.674  -0.606  -1.866  1.00  0.00    -0.317 N 
ATOM     14  C   UNL     1       5.719  -0.956  -0.970  1.00  0.00     0.047 A 
ATOM     15  C   UNL     1       6.872  -1.593  -0.831  1.00  0.00     0.028 A 
ATOM     16  C   UNL     1       8.626  -0.582  -0.323  1.00  0.00     0.020 A 
ATOM     17  C   UNL     1       8.345   0.190  -1.139  1.00  0.00     0.092 A 
BRANCH  14  18
ATOM     18  C   UNL     1       4.351  -0.925  -0.943  1.00  0.00     0.052 C 
ATOM     19  C   UNL     1       3.794  -0.088  -0.045  1.00  0.00     0.119 C 
BRANCH  19  20
ATOM     20  C   UNL     1       2.274  -0.088  -0.045  1.00  0.00     0.105 C 
ATOM     21  N   UNL     1       1.013  -0.088  -0.045  1.00  0.00    -0.192 NA
ENDBRANCH  19  20
BRANCH  19  22
ATOM     22  C   UNL     1       4.474   0.778   1.005  1.00  0.00     0.266 C 
ATOM     23  O   UNL     1       3.777   1.271   1.899  1.00  0.00    -0.268 OA
ATOM     24  N   UNL     1       5.834   1.018   1.072  1.00  0.00    -0.321 N 
ATOM     25  H   UNL     1       6.134   1.645   1.769  1.00  0.00     0.170 HD
BRANCH  24  26
ATOM     26  C   UNL     1       6.846   0.461   0.246  1.00  0.00     0.041 A 
ATOM     27  C   UNL     1       7.519  -1.275   0.937  1.00  0.00     0.030 A 
ATOM     28  C   UNL     1       6.970   1.258  -1.573  1.00  0.00     0.030 A 
ATOM     29  C   UNL     1       8.526  -2.398  -0.402  1.00  0.00     0.048 A 
ATOM     30  C   UNL     1       8.027   0.165  -2.916  1.00  0.00     0.048 A 
ATOM     31  C   UNL     1       8.654  -1.577  -2.199  1.00  0.00     0.115 A 
BRANCH  31  32
ATOM     32  O   UNL     1       9.269  -2.411  -3.128  1.00  0.00    -0.508 OA
ATOM     33  H   UNL     1       9.592  -3.250  -2.864  1.00  0.00     0.293 HD
ENDBRANCH  31  32
ENDBRANCH  24  26
ENDBRANCH  19  22
ENDBRANCH  14  18
ENDBRANCH   8  13
ENDBRANCH   5   7
ENDBRANCH   4   5
ENDBRANCH   3   4
ENDBRANCH   2   3
ENDBRANCH   1   2
BRANCH   1  34
ATOM     34  C   UNL     1       6.395   0.771  -8.855  1.00  0.00     0.188 C 
BRANCH  34  35
ATOM     35  C   UNL     1       6.690   1.906  -7.857  1.00  0.00     0.188 C 
BRANCH  35  36
ATOM     36  O   UNL     1       5.971   3.118  -7.903  1.00  0.00    -0.376 OA
BRANCH  36  37
ATOM     37  C   UNL     1       6.007   4.012  -9.001  1.00  0.00     0.202 C 
BRANCH  37  38
ATOM     38  C   UNL     1       7.060   4.033 -10.116  1.00  0.00     0.261 C 
BRANCH  38  39
ATOM     39  O   UNL     1       7.900   2.902 -10.251  1.00  0.00    -0.460 OA
BRANCH  39  40
ATOM     40  C   UNL     1       9.002   2.991  -9.484  1.00  0.00     0.338 C 
ATOM     41  O   UNL     1       9.228   3.806  -8.602  1.00  0.00    -0.246 OA
BRANCH  40  42
ATOM     42  C   UNL     1      10.004   2.022  -9.941  1.00  0.00     0.060 A 
ATOM     43  C   UNL     1      10.946   1.694  -8.967  1.00  0.00     0.016 A 
ATOM     44  C   UNL     1      10.371   2.252 -11.268  1.00  0.00     0.016 A 
ATOM     45  C   UNL     1      12.273   1.970  -9.241  1.00  0.00     0.010 A 
ATOM     46  C   UNL     1      11.689   2.581 -11.532  1.00  0.00     0.010 A 
ATOM     47  C   UNL     1      12.636   2.507 -10.497  1.00  0.00    -0.014 A 
BRANCH  47  48
ATOM     48  C   UNL     1      14.080   2.465 -10.835  1.00  0.00     0.031 A 
ATOM     49  C   UNL     1      14.295   0.892 -11.223  1.00  0.00     0.074 A 
ATOM     50  C   UNL     1      14.833   3.644 -10.671  1.00  0.00     0.049 A 
ATOM     51  N   UNL     1      15.361   0.163 -11.191  1.00  0.00    -0.248 NA
ATOM     52  C   UNL     1      13.142  -0.006 -11.656  1.00  0.00     0.031 C 
ATOM     53  C   UNL     1      14.297   5.034 -10.520  1.00  0.00     0.029 A 
ATOM     54  N   UNL     1      16.196   3.991 -10.687  1.00  0.00    -0.354 N 
ATOM     55  C   UNL     1      15.091  -1.068 -11.862  1.00  0.00     0.074 A 
ATOM     56  C   UNL     1      13.686  -1.182 -11.982  1.00  0.00     0.031 C 
ATOM     57  C   UNL     1      15.273   5.973 -10.307  1.00  0.00     0.029 A 
ATOM     58  C   UNL     1      16.589   5.364 -10.322  1.00  0.00     0.049 A 
ATOM     59  H   UNL     1      16.878   3.327 -10.937  1.00  0.00     0.167 HD
ATOM     60  C   UNL     1      16.090  -1.785 -12.453  1.00  0.00     0.037 A 
ATOM     61  C   UNL     1      17.876   5.882 -10.053  1.00  0.00     0.037 A 
ATOM     62  C   UNL     1      17.299  -1.145 -12.129  1.00  0.00     0.049 A 
ATOM     63  C   UNL     1      18.747   4.808 -10.524  1.00  0.00     0.074 A 
ATOM     64  C   UNL     1      18.008  -1.188 -10.970  1.00  0.00     0.029 A 
ATOM     65  N   UNL     1      17.613  -0.041 -12.875  1.00  0.00    -0.354 N 
ATOM     66  N   UNL     1      18.816   4.421 -11.758  1.00  0.00    -0.248 NA
ATOM     67  C   UNL     1      19.198   3.925  -9.463  1.00  0.00     0.031 C 
ATOM     68  C   UNL     1      18.464   0.123 -10.859  1.00  0.00     0.029 A 
ATOM     69  C   UNL     1      18.229   0.846 -12.038  1.00  0.00     0.049 A 
ATOM     70  H   UNL     1      17.429   0.090 -13.833  1.00  0.00     0.167 HD
ATOM     71  C   UNL     1      18.909   3.064 -11.604  1.00  0.00     0.074 A 
ATOM     72  C   UNL     1      19.095   2.827 -10.180  1.00  0.00     0.031 C 
ATOM     73  C   UNL     1      18.363   2.201 -12.495  1.00  0.00     0.037 A 
BRANCH  60  74
ATOM     74  C   UNL     1      16.229  -2.856 -13.489  1.00  0.00     0.064 A 
ATOM     75  C   UNL     1      17.494  -3.506 -13.582  1.00  0.00     0.173 A 
ATOM     76  C   UNL     1      15.405  -2.937 -14.611  1.00  0.00     0.173 A 
ATOM     77  F   UNL     1      18.347  -3.513 -12.545  1.00  0.00    -0.203 F 
ATOM     78  C   UNL     1      17.960  -4.058 -14.768  1.00  0.00     0.198 A 
ATOM     79  C   UNL     1      15.854  -3.559 -15.784  1.00  0.00     0.198 A 
ATOM     80  F   UNL     1      14.214  -2.324 -14.630  1.00  0.00    -0.203 F 
ATOM     81  F   UNL     1      19.225  -4.496 -14.849  1.00  0.00    -0.200 F 
ATOM     82  C   UNL     1      17.140  -4.080 -15.874  1.00  0.00     0.200 A 
ATOM     83  F   UNL     1      15.062  -3.583 -16.865  1.00  0.00    -0.200 F 
ATOM     84  F   UNL     1      17.595  -4.573 -17.033  1.00  0.00    -0.200 F 
ENDBRANCH  60  74
BRANCH  61  85
ATOM     85  C   UNL     1      18.732   7.009  -9.373  1.00  0.00     0.064 A 
ATOM     86  C   UNL     1      18.319   8.293  -9.022  1.00  0.00     0.173 A 
ATOM     87  C   UNL     1      20.093   6.742  -8.935  1.00  0.00     0.173 A 
ATOM     88  F   UNL     1      17.162   8.772  -9.493  1.00  0.00    -0.203 F 
ATOM     89  C   UNL     1      19.111   9.146  -8.195  1.00  0.00     0.198 A 
ATOM     90  C   UNL     1      20.832   7.536  -8.049  1.00  0.00     0.198 A 
ATOM     91  F   UNL     1      20.796   5.689  -9.378  1.00  0.00    -0.203 F 
ATOM     92  F   UNL     1      18.681  10.383  -7.907  1.00  0.00    -0.200 F 
ATOM     93  C   UNL     1      20.328   8.742  -7.658  1.00  0.00     0.200 A 
ATOM     94  F   UNL     1      22.021   7.109  -7.591  1.00  0.00    -0.200 F 
ATOM     95  F   UNL     1      21.018   9.515  -6.805  1.00  0.00    -0.200 F 
ENDBRANCH  61  85
BRANCH  73  96
ATOM     96  C   UNL     1      17.761   2.831 -13.764  1.00  0.00     0.064 A 
ATOM     97  C   UNL     1      18.590   3.492 -14.684  1.00  0.00     0.173 A 
ATOM     98  C   UNL     1      16.377   2.896 -14.053  1.00  0.00     0.173 A 
ATOM     99  F   UNL     1      19.918   3.482 -14.505  1.00  0.00    -0.203 F 
ATOM    100  C   UNL     1      18.080   4.161 -15.808  1.00  0.00     0.198 A 
ATOM    101  C   UNL     1      15.862   3.578 -15.170  1.00  0.00     0.198 A 
ATOM    102  F   UNL     1      15.487   2.286 -13.266  1.00  0.00    -0.203 F 
ATOM    103  F   UNL     1      18.921   4.755 -16.667  1.00  0.00    -0.200 F 
ATOM    104  C   UNL     1      16.718   4.206 -16.052  1.00  0.00     0.200 A 
ATOM    105  F   UNL     1      14.537   3.610 -15.394  1.00  0.00    -0.200 F 
ATOM    106  F   UNL     1      16.238   4.831 -17.138  1.00  0.00    -0.200 F 
ENDBRANCH  73  96
ENDBRANCH  47  48
ENDBRANCH  40  42
ENDBRANCH  39  40
ENDBRANCH  38  39
ENDBRANCH  37  38
ENDBRANCH  36  37
ENDBRANCH  35  36
ENDBRANCH  34  35
ENDBRANCH   1  34
TORSDOF 23
