REMARK SMILES CN(C(=O)N(CC(=O)OCCOCCOCCOC(=O)c1ccc(-c2c3nc(c(-c4c(F)c(F)c(F)c(F)c4F)c4ccc([nH]4)c(-c4c(F)c(F)c(F)c(F)c4F)c4nc(c(-c5c(F)c(F)c(F)c(F)c5F)c5ccc2[nH]5)C=C4)C=C3)cc1)C(C)(C)C)C1CCCCCC1
REMARK SMILES IDX 11 1 10 2 9 3 7 4 8 5 6 6 5 7 3 8 4 9 2 10 1 11 88 12 89 13
REMARK SMILES IDX 90 14 91 15 94 17 93 18 92 19 84 21 85 22 86 23 87 24 12 25
REMARK SMILES IDX 13 26 14 27 15 28 16 29 17 30 18 31 19 32 20 33 21 34 22 35
REMARK SMILES IDX 83 36 23 37 82 38 24 39 25 40 26 41 76 42 27 43 81 44 75 45
REMARK SMILES IDX 77 46 28 47 80 48 74 49 73 50 29 52 61 53 41 54 60 55 42 56
REMARK SMILES IDX 45 57 59 58 78 59 43 60 44 61 58 63 79 64 46 65 30 66 31 67
REMARK SMILES IDX 39 68 32 69 33 70 37 71 40 72 34 73 35 74 38 75 36 76 62 77
REMARK SMILES IDX 63 78 71 79 64 80 65 81 69 82 72 83 66 84 67 85 70 86 68 87
REMARK SMILES IDX 47 88 48 89 56 90 49 91 50 92 54 93 57 94 51 95 52 96 55 97
REMARK SMILES IDX 53 98
REMARK H PARENT 77 51 45 62
REMARK Flexibility Score: 90.00
ROOT
ATOM      1  C   UNL     1      -3.423  -3.005   1.392  1.00  0.00     0.202 C 
ENDROOT
BRANCH   1   2
ATOM      2  C   UNL     1      -2.101  -2.245   1.540  1.00  0.00     0.261 C 
BRANCH   2   3
ATOM      3  O   UNL     1      -1.532  -1.810   0.285  1.00  0.00    -0.462 OA
BRANCH   3   4
ATOM      4  C   UNL     1      -0.312  -2.327  -0.030  1.00  0.00     0.325 C 
ATOM      5  O   UNL     1       0.249  -3.216   0.604  1.00  0.00    -0.250 OA
BRANCH   4   6
ATOM      6  C   UNL     1       0.346  -1.696  -1.267  1.00  0.00     0.244 C 
BRANCH   6   7
ATOM      7  N   UNL     1      -0.332  -0.578  -1.953  1.00  0.00    -0.309 N 
BRANCH   7   8
ATOM      8  C   UNL     1      -0.288   0.753  -1.513  1.00  0.00     0.320 C 
ATOM      9  O   UNL     1      -1.057   1.592  -1.986  1.00  0.00    -0.248 OA
BRANCH   8  10
ATOM     10  N   UNL     1       0.759   1.177  -0.707  1.00  0.00    -0.325 N 
ATOM     11  C   UNL     1       1.239   0.503   0.493  1.00  0.00     0.149 C 
BRANCH  10  12
ATOM     12  C   UNL     1       1.277   2.564  -0.879  1.00  0.00     0.086 C 
BRANCH  12  13
ATOM     13  C   UNL     1       1.455   3.008  -2.354  1.00  0.00     0.025 C 
BRANCH  13  14
ATOM     14  C   UNL     1       0.494   4.081  -2.882  1.00  0.00     0.002 C 
BRANCH  14  15
ATOM     15  C   UNL     1       0.888   5.502  -2.478  1.00  0.00     0.000 CG0
ATOM     16  G   UNL     1       0.573   5.876  -1.034  1.00  0.00     0.000 G0
ENDBRANCH  14  15
ENDBRANCH  13  14
ENDBRANCH  12  13
BRANCH  12  17
ATOM     17  C   UNL     1       0.534   3.561   0.022  1.00  0.00     0.025 C 
BRANCH  17  18
ATOM     18  C   UNL     1       1.170   4.950   0.018  1.00  0.00     0.002 C 
BRANCH  18  19
ATOM     19  C   UNL     1       0.573   5.876  -1.034  1.00  0.00     0.000 CG0
ATOM     20  G   UNL     1       0.888   5.502  -2.478  1.00  0.00     0.000 G0
ENDBRANCH  18  19
ENDBRANCH  17  18
ENDBRANCH  12  17
ENDBRANCH  10  12
ENDBRANCH   8  10
ENDBRANCH   7   8
BRANCH   7  21
ATOM     21  C   UNL     1      -0.909  -0.812  -3.341  1.00  0.00     0.037 C 
ATOM     22  C   UNL     1      -2.372  -0.322  -3.471  1.00  0.00     0.034 C 
ATOM     23  C   UNL     1      -0.040  -0.088  -4.397  1.00  0.00     0.034 C 
ATOM     24  C   UNL     1      -0.905  -2.293  -3.765  1.00  0.00     0.034 C 
ENDBRANCH   7  21
ENDBRANCH   6   7
ENDBRANCH   4   6
ENDBRANCH   3   4
ENDBRANCH   2   3
ENDBRANCH   1   2
BRANCH   1  25
ATOM     25  O   UNL     1      -3.339  -4.225   0.666  1.00  0.00    -0.376 OA
BRANCH  25  26
ATOM     26  C   UNL     1      -3.223  -4.136  -0.752  1.00  0.00     0.188 C 
BRANCH  26  27
ATOM     27  C   UNL     1      -3.962  -2.992  -1.451  1.00  0.00     0.188 C 
BRANCH  27  28
ATOM     28  O   UNL     1      -5.368  -3.077  -1.227  1.00  0.00    -0.376 OA
BRANCH  28  29
ATOM     29  C   UNL     1      -6.120  -2.613  -2.350  1.00  0.00     0.202 C 
BRANCH  29  30
ATOM     30  C   UNL     1      -6.617  -3.804  -3.171  1.00  0.00     0.261 C 
BRANCH  30  31
ATOM     31  O   UNL     1      -5.554  -4.722  -3.504  1.00  0.00    -0.460 OA
BRANCH  31  32
ATOM     32  C   UNL     1      -4.998  -4.579  -4.724  1.00  0.00     0.338 C 
ATOM     33  O   UNL     1      -5.252  -3.735  -5.563  1.00  0.00    -0.246 OA
BRANCH  32  34
ATOM     34  C   UNL     1      -3.933  -5.585  -4.880  1.00  0.00     0.060 A 
ATOM     35  C   UNL     1      -2.645  -5.257  -4.466  1.00  0.00     0.016 A 
ATOM     36  C   UNL     1      -4.167  -6.795  -5.526  1.00  0.00     0.016 A 
ATOM     37  C   UNL     1      -1.565  -6.093  -4.748  1.00  0.00     0.010 A 
ATOM     38  C   UNL     1      -3.092  -7.663  -5.765  1.00  0.00     0.010 A 
ATOM     39  C   UNL     1      -1.774  -7.309  -5.409  1.00  0.00    -0.014 A 
BRANCH  39  40
ATOM     40  C   UNL     1      -0.627  -8.172  -5.813  1.00  0.00     0.031 A 
ATOM     41  C   UNL     1      -0.378  -8.432  -7.275  1.00  0.00     0.074 A 
ATOM     42  C   UNL     1       0.207  -8.713  -4.903  1.00  0.00     0.049 A 
ATOM     43  N   UNL     1       0.380  -9.335  -7.845  1.00  0.00    -0.248 NA
ATOM     44  C   UNL     1      -1.085  -7.557  -8.223  1.00  0.00     0.031 C 
ATOM     45  C   UNL     1       0.161  -8.478  -3.461  1.00  0.00     0.029 A 
ATOM     46  N   UNL     1       1.258  -9.585  -5.064  1.00  0.00    -0.354 N 
ATOM     47  C   UNL     1       0.193  -9.178  -9.212  1.00  0.00     0.074 A 
ATOM     48  C   UNL     1      -0.738  -8.083  -9.389  1.00  0.00     0.031 C 
ATOM     49  C   UNL     1       1.144  -9.178  -2.871  1.00  0.00     0.029 A 
ATOM     50  C   UNL     1       1.832  -9.979  -3.879  1.00  0.00     0.049 A 
ATOM     51  H   UNL     1       1.570  -9.898  -5.944  1.00  0.00     0.167 HD
ATOM     52  C   UNL     1       0.740  -9.892 -10.226  1.00  0.00     0.037 A 
ATOM     53  C   UNL     1       2.761 -10.922  -3.625  1.00  0.00     0.037 A 
ATOM     54  C   UNL     1       1.705 -10.945 -10.051  1.00  0.00     0.049 A 
ATOM     55  C   UNL     1       3.308 -11.748  -4.758  1.00  0.00     0.074 A 
ATOM     56  C   UNL     1       2.309 -11.734 -11.015  1.00  0.00     0.029 A 
ATOM     57  N   UNL     1       2.223 -11.342  -8.828  1.00  0.00    -0.354 N 
ATOM     58  N   UNL     1       3.052 -11.668  -6.041  1.00  0.00    -0.248 NA
ATOM     59  C   UNL     1       4.250 -12.821  -4.402  1.00  0.00     0.031 C 
ATOM     60  C   UNL     1       3.171 -12.630 -10.371  1.00  0.00     0.029 A 
ATOM     61  C   UNL     1       3.130 -12.373  -9.011  1.00  0.00     0.049 A 
ATOM     62  H   UNL     1       1.981 -10.950  -7.958  1.00  0.00     0.167 HD
ATOM     63  C   UNL     1       3.799 -12.671  -6.644  1.00  0.00     0.074 A 
ATOM     64  C   UNL     1       4.539 -13.333  -5.590  1.00  0.00     0.031 C 
ATOM     65  C   UNL     1       3.858 -13.021  -7.952  1.00  0.00     0.037 A 
BRANCH  52  66
ATOM     66  C   UNL     1       0.271  -9.590 -11.617  1.00  0.00     0.064 A 
ATOM     67  C   UNL     1       0.681  -8.442 -12.308  1.00  0.00     0.173 A 
ATOM     68  C   UNL     1      -0.579 -10.489 -12.281  1.00  0.00     0.173 A 
ATOM     69  F   UNL     1       1.479  -7.544 -11.711  1.00  0.00    -0.203 F 
ATOM     70  C   UNL     1       0.242  -8.195 -13.607  1.00  0.00     0.198 A 
ATOM     71  C   UNL     1      -0.996 -10.252 -13.587  1.00  0.00     0.198 A 
ATOM     72  F   UNL     1      -0.997 -11.605 -11.663  1.00  0.00    -0.203 F 
ATOM     73  F   UNL     1       0.616  -7.072 -14.237  1.00  0.00    -0.200 F 
ATOM     74  C   UNL     1      -0.590  -9.103 -14.248  1.00  0.00     0.200 A 
ATOM     75  F   UNL     1      -1.792 -11.134 -14.206  1.00  0.00    -0.200 F 
ATOM     76  F   UNL     1      -1.006  -8.866 -15.499  1.00  0.00    -0.200 F 
ENDBRANCH  52  66
BRANCH  53  77
ATOM     77  C   UNL     1       3.184 -11.189  -2.224  1.00  0.00     0.064 A 
ATOM     78  C   UNL     1       4.484 -10.893  -1.793  1.00  0.00     0.173 A 
ATOM     79  C   UNL     1       2.303 -11.762  -1.294  1.00  0.00     0.173 A 
ATOM     80  F   UNL     1       5.375 -10.379  -2.654  1.00  0.00    -0.203 F 
ATOM     81  C   UNL     1       4.888 -11.165  -0.487  1.00  0.00     0.198 A 
ATOM     82  C   UNL     1       2.698 -12.005   0.019  1.00  0.00     0.198 A 
ATOM     83  F   UNL     1       1.052 -12.075  -1.660  1.00  0.00    -0.203 F 
ATOM     84  F   UNL     1       6.150 -10.913  -0.112  1.00  0.00    -0.200 F 
ATOM     85  C   UNL     1       3.993 -11.712   0.420  1.00  0.00     0.200 A 
ATOM     86  F   UNL     1       1.827 -12.526   0.893  1.00  0.00    -0.200 F 
ATOM     87  F   UNL     1       4.380 -11.968   1.677  1.00  0.00    -0.200 F 
ENDBRANCH  53  77
BRANCH  65  88
ATOM     88  C   UNL     1       4.763 -14.159  -8.317  1.00  0.00     0.064 A 
ATOM     89  C   UNL     1       4.411 -15.488  -8.042  1.00  0.00     0.173 A 
ATOM     90  C   UNL     1       5.977 -13.920  -8.978  1.00  0.00     0.173 A 
ATOM     91  F   UNL     1       3.268 -15.764  -7.397  1.00  0.00    -0.203 F 
ATOM     92  C   UNL     1       5.253 -16.538  -8.400  1.00  0.00     0.198 A 
ATOM     93  C   UNL     1       6.805 -14.974  -9.354  1.00  0.00     0.198 A 
ATOM     94  F   UNL     1       6.354 -12.666  -9.266  1.00  0.00    -0.203 F 
ATOM     95  F   UNL     1       4.916 -17.799  -8.094  1.00  0.00    -0.200 F 
ATOM     96  C   UNL     1       6.445 -16.281  -9.060  1.00  0.00     0.200 A 
ATOM     97  F   UNL     1       7.953 -14.725  -9.999  1.00  0.00    -0.200 F 
ATOM     98  F   UNL     1       7.253 -17.293  -9.407  1.00  0.00    -0.200 F 
ENDBRANCH  65  88
ENDBRANCH  39  40
ENDBRANCH  32  34
ENDBRANCH  31  32
ENDBRANCH  30  31
ENDBRANCH  29  30
ENDBRANCH  28  29
ENDBRANCH  27  28
ENDBRANCH  26  27
ENDBRANCH  25  26
ENDBRANCH   1  25
TORSDOF 22
