REMARK SMILES NS(=O)(=O)c1ccc(-c2coc(=O)n2-c2ccc(C(=O)OCCOCCOCCOC(=O)c3ccc(-c4c5nc(c(-c6c(F)c(F)c(F)c(F)c6F)c6ccc([nH]6)c(-c6c(F)c(F)c(F)c(F)c6F)c6nc(c(-c7c(F)c(F)c(F)c(F)c7F)c7ccc4[nH]7)C=C6)C=C5)cc3)cc2)cc1
REMARK SMILES IDX 25 1 24 2 23 3 22 4 21 5 19 6 20 7 18 8 15 9 16 10 97 11
REMARK SMILES IDX 17 12 96 13 14 14 9 15 10 16 11 17 12 18 13 19 8 20 5 21
REMARK SMILES IDX 6 22 99 23 7 24 98 25 2 26 3 27 4 28 1 29 26 32 27 33 28 34
REMARK SMILES IDX 29 35 30 36 31 37 32 38 33 39 34 40 95 41 35 42 94 43 36 44
REMARK SMILES IDX 37 45 38 46 88 47 39 48 93 49 87 50 89 51 40 52 92 53 86 54
REMARK SMILES IDX 85 55 41 57 73 58 53 59 72 60 54 61 57 62 71 63 90 64 55 65
REMARK SMILES IDX 56 66 70 68 91 69 58 70 42 71 43 72 51 73 44 74 45 75 49 76
REMARK SMILES IDX 52 77 46 78 47 79 50 80 48 81 74 82 75 83 83 84 76 85 77 86
REMARK SMILES IDX 81 87 84 88 78 89 79 90 82 91 80 92 59 93 60 94 68 95 61 96
REMARK SMILES IDX 62 97 66 98 69 99 63 100 64 101 67 102 65 103
REMARK H PARENT 1 30 1 31 89 56 57 67
REMARK Flexibility Score: inf
ROOT
ATOM      1  C   UNL     1       9.623   5.143   2.344  1.00  0.00     0.188 C 
ENDROOT
BRANCH   1   2
ATOM      2  O   UNL     1      10.739   4.315   2.126  1.00  0.00    -0.376 OA
BRANCH   2   3
ATOM      3  C   UNL     1      10.635   3.147   1.331  1.00  0.00     0.202 C 
BRANCH   3   4
ATOM      4  C   UNL     1       9.337   2.576   0.714  1.00  0.00     0.261 C 
BRANCH   4   5
ATOM      5  O   UNL     1       8.185   3.421   0.668  1.00  0.00    -0.460 OA
BRANCH   5   6
ATOM      6  C   UNL     1       7.219   3.155   1.579  1.00  0.00     0.338 C 
ATOM      7  O   UNL     1       7.218   2.258   2.406  1.00  0.00    -0.246 OA
BRANCH   6   8
ATOM      8  C   UNL     1       6.227   4.252   1.584  1.00  0.00     0.060 A 
ATOM      9  C   UNL     1       4.246   6.216   1.722  1.00  0.00     0.053 A 
ATOM     10  C   UNL     1       4.922   5.836   2.884  1.00  0.00     0.028 A 
ATOM     11  C   UNL     1       4.644   5.688   0.481  1.00  0.00     0.028 A 
ATOM     12  C   UNL     1       5.883   4.825   2.818  1.00  0.00     0.018 A 
ATOM     13  C   UNL     1       5.652   4.725   0.405  1.00  0.00     0.018 A 
BRANCH   9  14
ATOM     14  N   UNL     1       3.064   6.979   1.816  1.00  0.00    -0.242 N 
ATOM     15  C   UNL     1       1.835   6.657   1.311  1.00  0.00     0.095 A 
ATOM     16  C   UNL     1       1.021   7.646   1.663  1.00  0.00     0.228 A 
ATOM     17  O   UNL     1       1.632   8.651   2.410  1.00  0.00    -0.415 OA
ATOM     18  C   UNL     1       2.940   8.170   2.532  1.00  0.00     0.424 A 
ATOM     19  O   UNL     1       3.799   8.755   3.166  1.00  0.00    -0.223 OA
BRANCH  15  20
ATOM     20  C   UNL     1       1.470   5.370   0.721  1.00  0.00     0.002 A 
ATOM     21  C   UNL     1       0.876   2.870  -0.399  1.00  0.00     0.082 A 
ATOM     22  C   UNL     1       1.446   2.933   0.871  1.00  0.00     0.022 A 
ATOM     23  C   UNL     1       0.587   4.043  -1.107  1.00  0.00     0.022 A 
ATOM     24  C   UNL     1       1.731   4.181   1.428  1.00  0.00     0.012 A 
ATOM     25  C   UNL     1       0.880   5.290  -0.545  1.00  0.00     0.012 A 
BRANCH  21  26
ATOM     26  S   UNL     1       0.531   1.320  -1.175  1.00  0.00     0.238 S 
ATOM     27  O   UNL     1       1.270   1.262  -2.413  1.00  0.00    -0.207 OA
ATOM     28  O   UNL     1      -0.892   1.086  -1.098  1.00  0.00    -0.207 OA
BRANCH  26  29
ATOM     29  N   UNL     1       1.239   0.167  -0.179  1.00  0.00    -0.225 NA
ATOM     30  H   UNL     1       1.079  -0.763  -0.568  1.00  0.00     0.137 HD
ATOM     31  H   UNL     1       0.826   0.221   0.752  1.00  0.00     0.137 HD
ENDBRANCH  26  29
ENDBRANCH  21  26
ENDBRANCH  15  20
ENDBRANCH   9  14
ENDBRANCH   6   8
ENDBRANCH   5   6
ENDBRANCH   4   5
ENDBRANCH   3   4
ENDBRANCH   2   3
ENDBRANCH   1   2
BRANCH   1  32
ATOM     32  C   UNL     1       9.174   6.095   1.213  1.00  0.00     0.188 C 
BRANCH  32  33
ATOM     33  O   UNL     1       9.460   5.849  -0.150  1.00  0.00    -0.376 OA
BRANCH  33  34
ATOM     34  C   UNL     1      10.764   5.774  -0.705  1.00  0.00     0.202 C 
BRANCH  34  35
ATOM     35  C   UNL     1      11.997   6.495  -0.166  1.00  0.00     0.261 C 
BRANCH  35  36
ATOM     36  O   UNL     1      11.984   6.690   1.227  1.00  0.00    -0.460 OA
BRANCH  36  37
ATOM     37  C   UNL     1      11.500   7.893   1.589  1.00  0.00     0.338 C 
ATOM     38  O   UNL     1      11.078   8.774   0.859  1.00  0.00    -0.246 OA
BRANCH  37  39
ATOM     39  C   UNL     1      11.598   8.014   3.047  1.00  0.00     0.060 A 
ATOM     40  C   UNL     1      11.071   9.197   3.563  1.00  0.00     0.016 A 
ATOM     41  C   UNL     1      12.615   7.289   3.678  1.00  0.00     0.016 A 
ATOM     42  C   UNL     1      11.853   9.878   4.455  1.00  0.00     0.010 A 
ATOM     43  C   UNL     1      13.408   7.976   4.549  1.00  0.00     0.010 A 
ATOM     44  C   UNL     1      13.079   9.305   4.804  1.00  0.00    -0.014 A 
BRANCH  44  45
ATOM     45  C   UNL     1      14.056  10.148   5.439  1.00  0.00     0.031 A 
ATOM     46  C   UNL     1      13.804  10.303   6.881  1.00  0.00     0.074 A 
ATOM     47  C   UNL     1      15.110  10.621   4.747  1.00  0.00     0.049 A 
ATOM     48  N   UNL     1      13.477  11.376   7.518  1.00  0.00    -0.248 NA
ATOM     49  C   UNL     1      13.705   9.067   7.675  1.00  0.00     0.031 C 
ATOM     50  C   UNL     1      15.537  10.299   3.381  1.00  0.00     0.029 A 
ATOM     51  N   UNL     1      16.093  11.446   5.186  1.00  0.00    -0.354 N 
ATOM     52  C   UNL     1      13.317  10.974   8.837  1.00  0.00     0.074 A 
ATOM     53  C   UNL     1      13.250   9.539   8.832  1.00  0.00     0.031 C 
ATOM     54  C   UNL     1      16.801  10.742   3.192  1.00  0.00     0.029 A 
ATOM     55  C   UNL     1      17.216  11.482   4.369  1.00  0.00     0.049 A 
ATOM     56  H   UNL     1      16.018  11.974   6.013  1.00  0.00     0.167 HD
ATOM     57  C   UNL     1      13.545  11.835   9.862  1.00  0.00     0.037 A 
ATOM     58  C   UNL     1      18.418  11.996   4.735  1.00  0.00     0.037 A 
ATOM     59  C   UNL     1      13.470  13.204   9.423  1.00  0.00     0.049 A 
ATOM     60  C   UNL     1      18.163  12.905   5.889  1.00  0.00     0.074 A 
ATOM     61  C   UNL     1      12.464  13.993   8.900  1.00  0.00     0.029 A 
ATOM     62  N   UNL     1      14.645  13.852   9.128  1.00  0.00    -0.354 N 
ATOM     63  N   UNL     1      17.481  14.015   5.794  1.00  0.00    -0.248 NA
ATOM     64  C   UNL     1      18.232  12.328   7.226  1.00  0.00     0.031 C 
ATOM     65  C   UNL     1      13.102  14.814   7.924  1.00  0.00     0.029 A 
ATOM     66  C   UNL     1      14.466  14.520   7.942  1.00  0.00     0.049 A 
ATOM     67  H   UNL     1      15.467  13.839   9.669  1.00  0.00     0.167 HD
ATOM     68  C   UNL     1      16.707  14.062   6.947  1.00  0.00     0.074 A 
ATOM     69  C   UNL     1      17.255  13.024   7.816  1.00  0.00     0.031 C 
ATOM     70  C   UNL     1      15.517  14.730   6.972  1.00  0.00     0.037 A 
BRANCH  57  71
ATOM     71  C   UNL     1      14.201  11.414  11.149  1.00  0.00     0.064 A 
ATOM     72  C   UNL     1      14.242  12.321  12.222  1.00  0.00     0.173 A 
ATOM     73  C   UNL     1      15.028  10.273  11.282  1.00  0.00     0.173 A 
ATOM     74  F   UNL     1      13.517  13.449  12.189  1.00  0.00    -0.203 F 
ATOM     75  C   UNL     1      15.095  12.130  13.311  1.00  0.00     0.198 A 
ATOM     76  C   UNL     1      15.829  10.056  12.398  1.00  0.00     0.198 A 
ATOM     77  F   UNL     1      15.187   9.379  10.299  1.00  0.00    -0.203 F 
ATOM     78  F   UNL     1      15.192  13.080  14.250  1.00  0.00    -0.200 F 
ATOM     79  C   UNL     1      15.889  11.001  13.398  1.00  0.00     0.200 A 
ATOM     80  F   UNL     1      16.603   8.963  12.450  1.00  0.00    -0.200 F 
ATOM     81  F   UNL     1      16.747  10.845  14.413  1.00  0.00    -0.200 F 
ENDBRANCH  57  71
BRANCH  58  82
ATOM     82  C   UNL     1      19.758  11.434   4.433  1.00  0.00     0.064 A 
ATOM     83  C   UNL     1      20.924  12.193   4.617  1.00  0.00     0.173 A 
ATOM     84  C   UNL     1      19.941  10.053   4.212  1.00  0.00     0.173 A 
ATOM     85  F   UNL     1      20.838  13.503   4.889  1.00  0.00    -0.203 F 
ATOM     86  C   UNL     1      22.195  11.605   4.591  1.00  0.00     0.198 A 
ATOM     87  C   UNL     1      21.208   9.469   4.180  1.00  0.00     0.198 A 
ATOM     88  F   UNL     1      18.891   9.225   4.116  1.00  0.00    -0.203 F 
ATOM     89  F   UNL     1      23.284  12.351   4.825  1.00  0.00    -0.200 F 
ATOM     90  C   UNL     1      22.335  10.242   4.380  1.00  0.00     0.200 A 
ATOM     91  F   UNL     1      21.323   8.144   4.015  1.00  0.00    -0.200 F 
ATOM     92  F   UNL     1      23.546   9.670   4.410  1.00  0.00    -0.200 F 
ENDBRANCH  58  82
BRANCH  70  93
ATOM     93  C   UNL     1      15.168  15.572   5.773  1.00  0.00     0.064 A 
ATOM     94  C   UNL     1      14.903  15.036   4.499  1.00  0.00     0.173 A 
ATOM     95  C   UNL     1      14.930  16.939   5.955  1.00  0.00     0.173 A 
ATOM     96  F   UNL     1      15.009  13.721   4.274  1.00  0.00    -0.203 F 
ATOM     97  C   UNL     1      14.458  15.839   3.450  1.00  0.00     0.198 A 
ATOM     98  C   UNL     1      14.452  17.733   4.915  1.00  0.00     0.198 A 
ATOM     99  F   UNL     1      15.107  17.494   7.163  1.00  0.00    -0.203 F 
ATOM    100  F   UNL     1      14.217  15.301   2.245  1.00  0.00    -0.200 F 
ATOM    101  C   UNL     1      14.224  17.186   3.662  1.00  0.00     0.200 A 
ATOM    102  F   UNL     1      14.178  19.026   5.139  1.00  0.00    -0.200 F 
ATOM    103  F   UNL     1      13.751  17.952   2.669  1.00  0.00    -0.200 F 
ENDBRANCH  70  93
ENDBRANCH  44  45
ENDBRANCH  37  39
ENDBRANCH  36  37
ENDBRANCH  35  36
ENDBRANCH  34  35
ENDBRANCH  33  34
ENDBRANCH  32  33
ENDBRANCH   1  32
TORSDOF 21
