REMARK SMILES Cc1ccccc1-n1c(S[C@@H](C)C(=O)OCCOCCOCCOC(=O)c2ccc(-c3c4nc(c(-c5c(F)c(F)c(F)c(F)c5F)c5ccc([nH]5)c(-c5c(F)c(F)c(F)c(F)c5F)c5nc(c(-c6c(F)c(F)c(F)c(F)c6F)c6ccc3[nH]6)C=C5)C=C4)cc2)nc2sc3c(c2c1=O)C[C@@H](C(C)C)OC3
REMARK SMILES IDX 19 1 18 2 17 3 16 4 15 5 13 6 14 7 11 8 12 9 10 10 9 11 8 12
REMARK SMILES IDX 96 13 90 14 95 15 97 16 91 17 94 18 92 19 93 20 98 21 104 22
REMARK SMILES IDX 99 23 103 24 7 25 1 26 2 27 3 28 4 29 6 30 5 31 100 32
REMARK SMILES IDX 101 33 102 34 20 35 21 36 22 37 23 38 24 39 25 40 26 41
REMARK SMILES IDX 27 42 28 43 89 44 29 45 88 46 30 47 31 48 32 49 82 50 33 51
REMARK SMILES IDX 87 52 81 53 83 54 34 55 86 56 80 57 79 58 35 60 67 61 47 62
REMARK SMILES IDX 66 63 48 64 51 65 65 66 84 67 49 68 50 69 64 71 85 72 52 73
REMARK SMILES IDX 36 74 37 75 45 76 38 77 39 78 43 79 46 80 40 81 41 82 44 83
REMARK SMILES IDX 42 84 68 85 69 86 77 87 70 88 71 89 75 90 78 91 72 92 73 93
REMARK SMILES IDX 76 94 74 95 53 96 54 97 62 98 55 99 56 100 60 101 63 102
REMARK SMILES IDX 57 103 58 104 61 105 59 106
REMARK H PARENT 83 59 51 70
REMARK Flexibility Score: inf
ROOT
ATOM      1  C   UNL     1      -3.607   1.839  -4.841  1.00  0.00     0.188 C 
ENDROOT
BRANCH   1   2
ATOM      2  O   UNL     1      -4.647   1.559  -3.933  1.00  0.00    -0.376 OA
BRANCH   2   3
ATOM      3  C   UNL     1      -4.354   1.625  -2.555  1.00  0.00     0.202 C 
BRANCH   3   4
ATOM      4  C   UNL     1      -3.431   0.550  -1.973  1.00  0.00     0.261 C 
BRANCH   4   5
ATOM      5  O   UNL     1      -2.034   0.748  -2.279  1.00  0.00    -0.462 OA
BRANCH   5   6
ATOM      6  C   UNL     1      -1.062  -0.266  -2.837  1.00  0.00     0.319 C 
ATOM      7  O   UNL     1      -1.811  -1.000  -3.549  1.00  0.00    -0.251 OA
BRANCH   6   8
ATOM      8  C   UNL     1       1.061  -0.266  -2.343  1.00  0.00     0.161 C 
ATOM      9  C   UNL     1       2.138  -1.387  -1.760  1.00  0.00     0.032 C 
BRANCH   8  10
ATOM     10  S   UNL     1       2.450   1.517  -1.948  1.00  0.00    -0.072 SA
BRANCH  10  11
ATOM     11  C   UNL     1       2.176   3.002  -0.814  1.00  0.00     0.177 A 
ATOM     12  N   UNL     1       1.515   2.928   0.406  1.00  0.00    -0.255 N 
ATOM     13  C   UNL     1       1.501   3.862   1.417  1.00  0.00     0.267 A 
ATOM     14  N   UNL     1       2.756   4.156  -1.125  1.00  0.00    -0.212 NA
ATOM     15  C   UNL     1       1.887   5.119   0.984  1.00  0.00     0.081 A 
ATOM     16  O   UNL     1       1.197   3.652   2.592  1.00  0.00    -0.268 OA
ATOM     17  C   UNL     1       2.571   5.197  -0.204  1.00  0.00     0.132 A 
ATOM     18  C   UNL     1       1.668   6.270   1.743  1.00  0.00    -0.014 A 
ATOM     19  S   UNL     1       3.274   6.785  -0.205  1.00  0.00    -0.117 S 
ATOM     20  C   UNL     1       2.534   7.227   1.306  1.00  0.00     0.037 A 
ATOM     21  C   UNL     1       0.860   6.416   3.002  1.00  0.00     0.070 C 
ATOM     22  C   UNL     1       2.861   8.422   2.147  1.00  0.00     0.207 C 
ATOM     23  C   UNL     1       1.634   7.277   3.992  1.00  0.00     0.125 C 
ATOM     24  O   UNL     1       1.986   8.511   3.313  1.00  0.00    -0.372 OA
BRANCH  12  25
ATOM     25  C   UNL     1       0.836   1.887   0.888  1.00  0.00     0.054 A 
ATOM     26  C   UNL     1       3.024   0.566   1.250  1.00  0.00     0.046 C 
ATOM     27  C   UNL     1       1.554   0.800   1.266  1.00  0.00    -0.027 A 
ATOM     28  C   UNL     1       0.683  -0.185   1.432  1.00  0.00     0.005 A 
ATOM     29  C   UNL     1      -0.702   0.017   1.661  1.00  0.00     0.000 A 
ATOM     30  C   UNL     1      -0.546   2.184   1.160  1.00  0.00     0.027 A 
ATOM     31  C   UNL     1      -1.322   1.231   1.688  1.00  0.00     0.002 A 
ENDBRANCH  12  25
BRANCH  23  32
ATOM     32  C   UNL     1       2.842   6.574   4.679  1.00  0.00     0.012 C 
ATOM     33  C   UNL     1       3.479   7.533   5.687  1.00  0.00     0.010 C 
ATOM     34  C   UNL     1       2.498   5.265   5.410  1.00  0.00     0.010 C 
ENDBRANCH  23  32
ENDBRANCH  10  11
ENDBRANCH   8  10
ENDBRANCH   6   8
ENDBRANCH   5   6
ENDBRANCH   4   5
ENDBRANCH   3   4
ENDBRANCH   2   3
ENDBRANCH   1   2
BRANCH   1  35
ATOM     35  C   UNL     1      -2.458   2.732  -4.429  1.00  0.00     0.188 C 
BRANCH  35  36
ATOM     36  O   UNL     1      -2.709   3.971  -3.796  1.00  0.00    -0.376 OA
BRANCH  36  37
ATOM     37  C   UNL     1      -1.527   4.796  -3.653  1.00  0.00     0.202 C 
BRANCH  37  38
ATOM     38  C   UNL     1      -0.367   4.504  -4.649  1.00  0.00     0.261 C 
BRANCH  38  39
ATOM     39  O   UNL     1       0.329   3.300  -4.154  1.00  0.00    -0.460 OA
BRANCH  39  40
ATOM     40  C   UNL     1       0.429   2.136  -4.870  1.00  0.00     0.338 C 
ATOM     41  O   UNL     1       0.461   2.034  -6.081  1.00  0.00    -0.246 OA
BRANCH  40  42
ATOM     42  C   UNL     1       0.260   0.967  -3.897  1.00  0.00     0.060 A 
ATOM     43  C   UNL     1       0.316  -0.799  -4.305  1.00  0.00     0.016 A 
ATOM     44  C   UNL     1      -0.080   1.378  -2.176  1.00  0.00     0.016 A 
ATOM     45  C   UNL     1       0.021  -2.090  -3.018  1.00  0.00     0.010 A 
ATOM     46  C   UNL     1      -0.411   0.002  -0.972  1.00  0.00     0.010 A 
ATOM     47  C   UNL     1      -0.416  -1.758  -1.296  1.00  0.00    -0.014 A 
BRANCH  47  48
ATOM     48  C   UNL     1      -0.755  -3.045  -0.035  1.00  0.00     0.031 A 
ATOM     49  C   UNL     1      -0.097  -2.908   1.560  1.00  0.00     0.074 A 
ATOM     50  C   UNL     1      -1.831  -3.929   0.358  1.00  0.00     0.049 A 
ATOM     51  N   UNL     1      -0.913  -2.636   2.544  1.00  0.00    -0.248 NA
ATOM     52  C   UNL     1       1.267  -2.880   2.172  1.00  0.00     0.031 C 
ATOM     53  C   UNL     1      -1.510  -5.162   1.156  1.00  0.00     0.029 A 
ATOM     54  N   UNL     1      -3.263  -3.904   0.640  1.00  0.00    -0.354 N 
ATOM     55  C   UNL     1      -0.332  -1.946   3.612  1.00  0.00     0.074 A 
ATOM     56  C   UNL     1       1.075  -2.272   3.394  1.00  0.00     0.031 C 
ATOM     57  C   UNL     1      -2.502  -5.514   2.012  1.00  0.00     0.029 A 
ATOM     58  C   UNL     1      -3.667  -4.634   1.870  1.00  0.00     0.049 A 
ATOM     59  H   UNL     1      -3.910  -3.439   0.061  1.00  0.00     0.167 HD
ATOM     60  C   UNL     1      -1.105  -1.019   4.356  1.00  0.00     0.037 A 
ATOM     61  C   UNL     1      -4.695  -4.547   2.848  1.00  0.00     0.037 A 
ATOM     62  C   UNL     1      -2.500  -0.901   3.834  1.00  0.00     0.049 A 
ATOM     63  C   UNL     1      -5.774  -3.472   2.753  1.00  0.00     0.074 A 
ATOM     64  C   UNL     1      -3.116  -1.877   3.112  1.00  0.00     0.029 A 
ATOM     65  N   UNL     1      -3.510   0.097   3.759  1.00  0.00    -0.354 N 
ATOM     66  N   UNL     1      -5.667  -2.354   3.406  1.00  0.00    -0.248 NA
ATOM     67  C   UNL     1      -7.102  -3.538   2.143  1.00  0.00     0.031 C 
ATOM     68  C   UNL     1      -3.668  -1.221   2.017  1.00  0.00     0.029 A 
ATOM     69  C   UNL     1      -4.393  -0.278   2.701  1.00  0.00     0.049 A 
ATOM     70  H   UNL     1      -3.586   0.896   4.328  1.00  0.00     0.167 HD
ATOM     71  C   UNL     1      -6.434  -1.418   2.767  1.00  0.00     0.074 A 
ATOM     72  C   UNL     1      -7.503  -2.247   2.247  1.00  0.00     0.031 C 
ATOM     73  C   UNL     1      -5.859  -0.186   2.479  1.00  0.00     0.037 A 
BRANCH  60  74
ATOM     74  C   UNL     1      -0.723  -0.139   5.508  1.00  0.00     0.064 A 
ATOM     75  C   UNL     1      -1.571  -0.207   6.636  1.00  0.00     0.173 A 
ATOM     76  C   UNL     1       0.281   0.840   5.551  1.00  0.00     0.173 A 
ATOM     77  F   UNL     1      -2.592  -1.076   6.655  1.00  0.00    -0.203 F 
ATOM     78  C   UNL     1      -1.414   0.613   7.750  1.00  0.00     0.198 A 
ATOM     79  C   UNL     1       0.444   1.664   6.684  1.00  0.00     0.198 A 
ATOM     80  F   UNL     1       1.095   1.039   4.506  1.00  0.00    -0.203 F 
ATOM     81  F   UNL     1      -2.261   0.501   8.784  1.00  0.00    -0.200 F 
ATOM     82  C   UNL     1      -0.395   1.540   7.783  1.00  0.00     0.200 A 
ATOM     83  F   UNL     1       1.416   2.589   6.717  1.00  0.00    -0.200 F 
ATOM     84  F   UNL     1      -0.226   2.311   8.868  1.00  0.00    -0.200 F 
ENDBRANCH  60  74
BRANCH  61  85
ATOM     85  C   UNL     1      -4.566  -4.986   4.384  1.00  0.00     0.064 A 
ATOM     86  C   UNL     1      -4.841  -6.270   4.880  1.00  0.00     0.173 A 
ATOM     87  C   UNL     1      -4.355  -4.029   5.437  1.00  0.00     0.173 A 
ATOM     88  F   UNL     1      -5.189  -7.252   4.038  1.00  0.00    -0.203 F 
ATOM     89  C   UNL     1      -4.832  -6.569   6.275  1.00  0.00     0.198 A 
ATOM     90  C   UNL     1      -4.349  -4.321   6.808  1.00  0.00     0.198 A 
ATOM     91  F   UNL     1      -4.197  -2.729   5.208  1.00  0.00    -0.203 F 
ATOM     92  F   UNL     1      -5.116  -7.810   6.698  1.00  0.00    -0.200 F 
ATOM     93  C   UNL     1      -4.568  -5.601   7.232  1.00  0.00     0.200 A 
ATOM     94  F   UNL     1      -4.164  -3.337   7.704  1.00  0.00    -0.200 F 
ATOM     95  F   UNL     1      -4.555  -5.888   8.543  1.00  0.00    -0.200 F 
ENDBRANCH  61  85
BRANCH  73  96
ATOM     96  C   UNL     1      -6.361   0.833   1.471  1.00  0.00     0.064 A 
ATOM     97  C   UNL     1      -7.498   0.705   0.652  1.00  0.00     0.173 A 
ATOM     98  C   UNL     1      -5.583   1.989   1.224  1.00  0.00     0.173 A 
ATOM     99  F   UNL     1      -8.295  -0.363   0.706  1.00  0.00    -0.203 F 
ATOM    100  C   UNL     1      -7.845   1.663  -0.309  1.00  0.00     0.198 A 
ATOM    101  C   UNL     1      -5.911   2.926   0.241  1.00  0.00     0.198 A 
ATOM    102  F   UNL     1      -4.459   2.229   1.915  1.00  0.00    -0.203 F 
ATOM    103  F   UNL     1      -8.938   1.475  -1.062  1.00  0.00    -0.200 F 
ATOM    104  C   UNL     1      -7.053   2.773  -0.515  1.00  0.00     0.200 A 
ATOM    105  F   UNL     1      -5.072   3.943  -0.007  1.00  0.00    -0.200 F 
ATOM    106  F   UNL     1      -7.357   3.657  -1.474  1.00  0.00    -0.200 F 
ENDBRANCH  73  96
ENDBRANCH  47  48
ENDBRANCH  40  42
ENDBRANCH  39  40
ENDBRANCH  38  39
ENDBRANCH  37  38
ENDBRANCH  36  37
ENDBRANCH  35  36
ENDBRANCH   1  35
TORSDOF 21
