REMARK SMILES COc1cccc(-c2cc(OCC(=O)OCCOCCOCCOC(=O)c3ccc(-c4c5nc(c(-c6c(F)c(F)c(F)c(F)c6F)c6ccc([nH]6)c(-c6c(F)c(F)c(F)c(F)c6F)c6nc(c(-c7c(F)c(F)c(F)c(F)c7F)c7ccc4[nH]7)C=C6)C=C5)cc3)nc(Nc3ccccc3Br)n2)c1
REMARK SMILES IDX 19 1 18 2 17 3 16 4 15 5 13 6 14 7 12 8 11 9 10 10 8 11 9 12
REMARK SMILES IDX 100 13 91 14 90 15 7 16 3 17 4 18 101 19 5 20 6 21 2 22 1 23
REMARK SMILES IDX 92 24 93 26 94 27 98 28 95 29 97 30 99 31 96 32 20 33 21 34
REMARK SMILES IDX 22 35 23 36 24 37 25 38 26 39 27 40 28 41 89 42 29 43 88 44
REMARK SMILES IDX 30 45 31 46 32 47 82 48 33 49 87 50 81 51 83 52 34 53 86 54
REMARK SMILES IDX 80 55 79 56 35 58 67 59 47 60 66 61 48 62 51 63 65 64 84 65
REMARK SMILES IDX 49 66 50 67 64 69 85 70 52 71 36 72 37 73 45 74 38 75 39 76
REMARK SMILES IDX 43 77 46 78 40 79 41 80 44 81 42 82 68 83 69 84 77 85 70 86
REMARK SMILES IDX 71 87 75 88 78 89 72 90 73 91 76 92 74 93 53 94 54 95 62 96
REMARK SMILES IDX 55 97 56 98 60 99 63 100 57 101 58 102 61 103 59 104
REMARK H PARENT 92 25 83 57 51 68
REMARK Flexibility Score: inf
ROOT
ATOM      1  C   UNL     1       5.343   0.448  -1.491  1.00  0.00     0.188 C 
ENDROOT
BRANCH   1   2
ATOM      2  O   UNL     1       5.849  -0.629  -2.277  1.00  0.00    -0.376 OA
BRANCH   2   3
ATOM      3  C   UNL     1       7.234  -0.911  -2.104  1.00  0.00     0.202 C 
BRANCH   3   4
ATOM      4  C   UNL     1       8.156   0.239  -2.545  1.00  0.00     0.261 C 
BRANCH   4   5
ATOM      5  O   UNL     1       7.953   1.448  -1.755  1.00  0.00    -0.461 OA
BRANCH   5   6
ATOM      6  C   UNL     1       7.828   2.620  -2.443  1.00  0.00     0.344 C 
ATOM      7  O   UNL     1       8.043   2.729  -3.647  1.00  0.00    -0.248 OA
BRANCH   6   8
ATOM      8  C   UNL     1       7.241   3.796  -1.613  1.00  0.00     0.353 C 
BRANCH   8   9
ATOM      9  O   UNL     1       7.189   3.686  -0.198  1.00  0.00    -0.466 OA
BRANCH   9  10
ATOM     10  C   UNL     1       6.355   4.566   0.480  1.00  0.00     0.219 A 
ATOM     11  C   UNL     1       4.173   5.090   1.252  1.00  0.00     0.080 A 
ATOM     12  C   UNL     1       4.991   4.588   0.258  1.00  0.00     0.097 A 
ATOM     13  N   UNL     1       4.713   5.687   2.301  1.00  0.00    -0.212 NA
ATOM     14  C   UNL     1       6.046   5.676   2.446  1.00  0.00     0.231 A 
ATOM     15  N   UNL     1       6.903   5.141   1.562  1.00  0.00    -0.177 NA
BRANCH  11  16
ATOM     16  C   UNL     1       2.711   4.891   1.404  1.00  0.00     0.004 A 
ATOM     17  C   UNL     1       0.816   3.529   2.202  1.00  0.00     0.119 A 
ATOM     18  C   UNL     1      -0.088   4.496   1.788  1.00  0.00     0.046 A 
ATOM     19  C   UNL     1       2.193   3.749   2.054  1.00  0.00     0.056 A 
ATOM     20  C   UNL     1       0.402   5.688   1.249  1.00  0.00     0.005 A 
ATOM     21  C   UNL     1       1.785   5.883   1.067  1.00  0.00     0.010 A 
BRANCH  17  22
ATOM     22  O   UNL     1       0.408   2.409   2.875  1.00  0.00    -0.497 OA
ATOM     23  C   UNL     1      -0.277   1.466   2.053  1.00  0.00     0.278 C 
ENDBRANCH  17  22
ENDBRANCH  11  16
BRANCH  14  24
ATOM     24  N   UNL     1       6.521   6.234   3.632  1.00  0.00    -0.323 N 
ATOM     25  H   UNL     1       7.492   6.348   3.752  1.00  0.00     0.170 HD
BRANCH  24  26
ATOM     26  C   UNL     1       5.653   6.641   4.665  1.00  0.00     0.055 A 
ATOM     27  C   UNL     1       5.452   8.012   4.876  1.00  0.00     0.027 A 
ATOM     28  C   UNL     1       4.786   5.733   5.319  1.00  0.00     0.041 A 
ATOM     29  C   UNL     1       4.404   8.465   5.685  1.00  0.00     0.002 A 
ATOM     30  C   UNL     1       3.739   6.189   6.126  1.00  0.00     0.018 A 
ATOM     31  Br  UNL     1       4.995   3.841   5.170  1.00  0.00    -0.049 Br
ATOM     32  C   UNL     1       3.544   7.556   6.300  1.00  0.00     0.001 A 
ENDBRANCH  24  26
ENDBRANCH  14  24
ENDBRANCH   9  10
ENDBRANCH   8   9
ENDBRANCH   6   8
ENDBRANCH   5   6
ENDBRANCH   4   5
ENDBRANCH   3   4
ENDBRANCH   2   3
ENDBRANCH   1   2
BRANCH   1  33
ATOM     33  C   UNL     1       5.781   0.462  -0.020  1.00  0.00     0.188 C 
BRANCH  33  34
ATOM     34  O   UNL     1       5.061  -0.550   0.682  1.00  0.00    -0.376 OA
BRANCH  34  35
ATOM     35  C   UNL     1       4.123  -0.022   1.610  1.00  0.00     0.202 C 
BRANCH  35  36
ATOM     36  C   UNL     1       2.651  -0.091   1.139  1.00  0.00     0.261 C 
BRANCH  36  37
ATOM     37  O   UNL     1       2.142   0.574  -0.063  1.00  0.00    -0.460 OA
BRANCH  37  38
ATOM     38  C   UNL     1       2.651   1.772  -0.370  1.00  0.00     0.338 C 
ATOM     39  O   UNL     1       3.664   2.222   0.161  1.00  0.00    -0.246 OA
BRANCH  38  40
ATOM     40  C   UNL     1       1.982   2.644  -1.365  1.00  0.00     0.060 A 
ATOM     41  C   UNL     1       2.822   3.469  -2.132  1.00  0.00     0.016 A 
ATOM     42  C   UNL     1       0.627   2.950  -1.304  1.00  0.00     0.016 A 
ATOM     43  C   UNL     1       2.372   4.683  -2.654  1.00  0.00     0.010 A 
ATOM     44  C   UNL     1       0.148   4.124  -1.909  1.00  0.00     0.010 A 
ATOM     45  C   UNL     1       1.017   5.016  -2.563  1.00  0.00    -0.014 A 
BRANCH  45  46
ATOM     46  C   UNL     1       0.435   6.066  -3.439  1.00  0.00     0.031 A 
ATOM     47  C   UNL     1      -0.196   7.331  -2.942  1.00  0.00     0.074 A 
ATOM     48  C   UNL     1       0.324   5.716  -4.731  1.00  0.00     0.049 A 
ATOM     49  N   UNL     1      -1.088   8.100  -3.514  1.00  0.00    -0.248 NA
ATOM     50  C   UNL     1       0.234   7.807  -1.629  1.00  0.00     0.031 C 
ATOM     51  C   UNL     1       0.927   4.524  -5.332  1.00  0.00     0.029 A 
ATOM     52  N   UNL     1      -0.404   6.275  -5.744  1.00  0.00    -0.354 N 
ATOM     53  C   UNL     1      -1.372   9.113  -2.601  1.00  0.00     0.074 A 
ATOM     54  C   UNL     1      -0.552   8.861  -1.435  1.00  0.00     0.031 C 
ATOM     55  C   UNL     1       0.483   4.392  -6.582  1.00  0.00     0.029 A 
ATOM     56  C   UNL     1      -0.475   5.455  -6.840  1.00  0.00     0.049 A 
ATOM     57  H   UNL     1      -0.828   7.162  -5.693  1.00  0.00     0.167 HD
ATOM     58  C   UNL     1      -2.229  10.155  -2.747  1.00  0.00     0.037 A 
ATOM     59  C   UNL     1      -1.278   5.498  -7.913  1.00  0.00     0.037 A 
ATOM     60  C   UNL     1      -2.947  10.429  -3.971  1.00  0.00     0.049 A 
ATOM     61  C   UNL     1      -2.239   6.626  -8.047  1.00  0.00     0.074 A 
ATOM     62  C   UNL     1      -3.727  11.528  -4.293  1.00  0.00     0.029 A 
ATOM     63  N   UNL     1      -2.965   9.593  -5.079  1.00  0.00    -0.354 N 
ATOM     64  N   UNL     1      -2.506   7.581  -7.191  1.00  0.00    -0.248 NA
ATOM     65  C   UNL     1      -2.987   6.697  -9.302  1.00  0.00     0.031 C 
ATOM     66  C   UNL     1      -4.256  11.331  -5.574  1.00  0.00     0.029 A 
ATOM     67  C   UNL     1      -3.770  10.133  -6.071  1.00  0.00     0.049 A 
ATOM     68  H   UNL     1      -2.478   8.741  -5.150  1.00  0.00     0.167 HD
ATOM     69  C   UNL     1      -3.438   8.392  -7.814  1.00  0.00     0.074 A 
ATOM     70  C   UNL     1      -3.684   7.811  -9.121  1.00  0.00     0.031 C 
ATOM     71  C   UNL     1      -4.023   9.523  -7.351  1.00  0.00     0.037 A 
BRANCH  58  72
ATOM     72  C   UNL     1      -2.469  11.082  -1.582  1.00  0.00     0.064 A 
ATOM     73  C   UNL     1      -1.502  11.986  -1.122  1.00  0.00     0.173 A 
ATOM     74  C   UNL     1      -3.743  11.140  -0.986  1.00  0.00     0.173 A 
ATOM     75  F   UNL     1      -0.270  11.985  -1.652  1.00  0.00    -0.203 F 
ATOM     76  C   UNL     1      -1.791  12.898  -0.104  1.00  0.00     0.198 A 
ATOM     77  C   UNL     1      -4.037  12.070   0.010  1.00  0.00     0.198 A 
ATOM     78  F   UNL     1      -4.716  10.310  -1.392  1.00  0.00    -0.203 F 
ATOM     79  F   UNL     1      -0.840  13.734   0.335  1.00  0.00    -0.200 F 
ATOM     80  C   UNL     1      -3.060  12.945   0.453  1.00  0.00     0.200 A 
ATOM     81  F   UNL     1      -5.271  12.126   0.530  1.00  0.00    -0.200 F 
ATOM     82  F   UNL     1      -3.341  13.836   1.415  1.00  0.00    -0.200 F 
ENDBRANCH  58  72
BRANCH  59  83
ATOM     83  C   UNL     1      -1.129   4.428  -8.921  1.00  0.00     0.064 A 
ATOM     84  C   UNL     1      -0.336   4.649 -10.051  1.00  0.00     0.173 A 
ATOM     85  C   UNL     1      -1.584   3.124  -8.670  1.00  0.00     0.173 A 
ATOM     86  F   UNL     1       0.128   5.880 -10.309  1.00  0.00    -0.203 F 
ATOM     87  C   UNL     1       0.016   3.598 -10.890  1.00  0.00     0.198 A 
ATOM     88  C   UNL     1      -1.215   2.070  -9.501  1.00  0.00     0.198 A 
ATOM     89  F   UNL     1      -2.310   2.864  -7.572  1.00  0.00    -0.203 F 
ATOM     90  F   UNL     1       0.799   3.828 -11.952  1.00  0.00    -0.200 F 
ATOM     91  C   UNL     1      -0.410   2.308 -10.606  1.00  0.00     0.200 A 
ATOM     92  F   UNL     1      -1.596   0.820  -9.205  1.00  0.00    -0.200 F 
ATOM     93  F   UNL     1      -0.027   1.289 -11.387  1.00  0.00    -0.200 F 
ENDBRANCH  59  83
BRANCH  71  94
ATOM     94  C   UNL     1      -4.975  10.201  -8.286  1.00  0.00     0.064 A 
ATOM     95  C   UNL     1      -6.248   9.670  -8.537  1.00  0.00     0.173 A 
ATOM     96  C   UNL     1      -4.599  11.372  -8.958  1.00  0.00     0.173 A 
ATOM     97  F   UNL     1      -6.637   8.537  -7.934  1.00  0.00    -0.203 F 
ATOM     98  C   UNL     1      -7.099  10.270  -9.459  1.00  0.00     0.198 A 
ATOM     99  C   UNL     1      -5.463  11.984  -9.860  1.00  0.00     0.198 A 
ATOM    100  F   UNL     1      -3.390  11.914  -8.749  1.00  0.00    -0.203 F 
ATOM    101  F   UNL     1      -8.287   9.713  -9.733  1.00  0.00    -0.200 F 
ATOM    102  C   UNL     1      -6.707  11.427 -10.117  1.00  0.00     0.200 A 
ATOM    103  F   UNL     1      -5.086  13.103 -10.493  1.00  0.00    -0.200 F 
ATOM    104  F   UNL     1      -7.524  11.997 -11.014  1.00  0.00    -0.200 F 
ENDBRANCH  71  94
ENDBRANCH  45  46
ENDBRANCH  38  40
ENDBRANCH  37  38
ENDBRANCH  36  37
ENDBRANCH  35  36
ENDBRANCH  34  35
ENDBRANCH  33  34
ENDBRANCH   1  33
TORSDOF 23
