REMARK SMILES Cc1ccccc1C[C@H](C[C@@H]1Cc2ccccc21)C(=O)OCCOCCOCCOC(=O)c1ccc(-c2c3nc(c(-c4c(F)c(F)c(F)c(F)c4F)c4ccc([nH]4)c(-c4c(F)c(F)c(F)c(F)c4F)c4nc(c(-c5c(F)c(F)c(F)c(F)c5F)c5ccc2[nH]5)C=C4)C=C3)cc1
REMARK SMILES IDX 25 1 24 2 23 3 22 4 21 5 19 6 20 7 9 8 8 9 7 10 1 11 2 12
REMARK SMILES IDX 3 13 4 14 6 15 5 16 10 17 11 18 12 19 18 20 13 21 17 22
REMARK SMILES IDX 14 23 16 24 15 25 26 26 27 27 28 28 29 29 30 30 31 31 32 32
REMARK SMILES IDX 33 33 34 34 95 35 35 36 94 37 36 38 37 39 38 40 88 41 39 42
REMARK SMILES IDX 93 43 87 44 89 45 40 46 92 47 86 48 85 49 41 51 73 52 53 53
REMARK SMILES IDX 72 54 54 55 57 56 71 57 90 58 55 59 56 60 70 62 91 63 58 64
REMARK SMILES IDX 42 65 43 66 51 67 44 68 45 69 49 70 52 71 46 72 47 73 50 74
REMARK SMILES IDX 48 75 74 76 75 77 83 78 76 79 77 80 81 81 84 82 78 83 79 84
REMARK SMILES IDX 82 85 80 86 59 87 60 88 68 89 61 90 62 91 66 92 69 93 63 94
REMARK SMILES IDX 64 95 67 96 65 97
REMARK H PARENT 89 50 57 61
REMARK Flexibility Score: inf
ROOT
ATOM      1  C   UNL     1       0.346   0.526   8.001  1.00  0.00     0.188 C 
ENDROOT
BRANCH   1   2
ATOM      2  O   UNL     1      -1.028   0.220   8.064  1.00  0.00    -0.376 OA
BRANCH   2   3
ATOM      3  C   UNL     1      -1.788   0.668   6.939  1.00  0.00     0.202 C 
BRANCH   3   4
ATOM      4  C   UNL     1      -1.092   1.017   5.566  1.00  0.00     0.261 C 
BRANCH   4   5
ATOM      5  O   UNL     1      -0.565   2.245   4.835  1.00  0.00    -0.463 OA
BRANCH   5   6
ATOM      6  C   UNL     1      -1.278   2.945   3.863  1.00  0.00     0.309 C 
ATOM      7  O   UNL     1      -2.307   3.488   4.252  1.00  0.00    -0.252 OA
BRANCH   6   8
ATOM      8  C   UNL     1      -0.698   3.221   2.291  1.00  0.00     0.104 C 
BRANCH   8   9
ATOM      9  C   UNL     1      -1.692   3.997   1.291  1.00  0.00     0.051 C 
BRANCH   9  10
ATOM     10  C   UNL     1      -3.106   4.351   1.662  1.00  0.00    -0.044 A 
ATOM     11  C   UNL     1      -3.072   6.820   0.906  1.00  0.00     0.044 C 
ATOM     12  C   UNL     1      -3.630   5.659   1.673  1.00  0.00    -0.048 A 
ATOM     13  C   UNL     1      -4.852   5.896   2.303  1.00  0.00     0.004 A 
ATOM     14  C   UNL     1      -5.599   4.838   2.770  1.00  0.00     0.000 A 
ATOM     15  C   UNL     1      -3.962   3.295   1.985  1.00  0.00     0.004 A 
ATOM     16  C   UNL     1      -5.190   3.535   2.570  1.00  0.00     0.000 A 
ENDBRANCH   9  10
ENDBRANCH   8   9
BRANCH   8  17
ATOM     17  C   UNL     1       0.333   2.337   1.350  1.00  0.00     0.024 C 
BRANCH  17  18
ATOM     18  C   UNL     1      -0.216   1.498   0.146  1.00  0.00     0.025 C 
ATOM     19  C   UNL     1      -1.103   0.222   0.270  1.00  0.00     0.044 C 
ATOM     20  C   UNL     1       0.608   0.669  -0.849  1.00  0.00    -0.041 A 
ATOM     21  C   UNL     1      -0.368  -0.300  -0.901  1.00  0.00    -0.044 A 
ATOM     22  C   UNL     1       1.633   0.609  -1.766  1.00  0.00     0.004 A 
ATOM     23  C   UNL     1      -0.333  -1.426  -1.695  1.00  0.00     0.004 A 
ATOM     24  C   UNL     1       1.679  -0.501  -2.645  1.00  0.00     0.000 A 
ATOM     25  C   UNL     1       0.703  -1.514  -2.607  1.00  0.00     0.000 A 
ENDBRANCH  17  18
ENDBRANCH   8  17
ENDBRANCH   6   8
ENDBRANCH   5   6
ENDBRANCH   4   5
ENDBRANCH   3   4
ENDBRANCH   2   3
ENDBRANCH   1   2
BRANCH   1  26
ATOM     26  C   UNL     1       1.176  -0.578   7.316  1.00  0.00     0.188 C 
BRANCH  26  27
ATOM     27  O   UNL     1       0.387  -1.401   6.453  1.00  0.00    -0.376 OA
BRANCH  27  28
ATOM     28  C   UNL     1       0.436  -2.800   6.704  1.00  0.00     0.202 C 
BRANCH  28  29
ATOM     29  C   UNL     1       1.700  -3.439   6.115  1.00  0.00     0.261 C 
BRANCH  29  30
ATOM     30  O   UNL     1       1.565  -3.523   4.679  1.00  0.00    -0.460 OA
BRANCH  30  31
ATOM     31  C   UNL     1       1.803  -2.344   4.038  1.00  0.00     0.338 C 
ATOM     32  O   UNL     1       2.787  -1.656   4.180  1.00  0.00    -0.246 OA
BRANCH  31  33
ATOM     33  C   UNL     1       0.517  -1.901   3.396  1.00  0.00     0.060 A 
ATOM     34  C   UNL     1       0.339  -0.552   3.218  1.00  0.00     0.016 A 
ATOM     35  C   UNL     1      -0.605  -2.713   3.198  1.00  0.00     0.016 A 
ATOM     36  C   UNL     1      -0.979  -0.055   3.033  1.00  0.00     0.010 A 
ATOM     37  C   UNL     1      -1.923  -2.164   3.067  1.00  0.00     0.010 A 
ATOM     38  C   UNL     1      -2.170  -0.787   3.099  1.00  0.00    -0.014 A 
BRANCH  38  39
ATOM     39  C   UNL     1      -3.592  -0.204   3.277  1.00  0.00     0.031 A 
ATOM     40  C   UNL     1      -4.580  -0.203   2.107  1.00  0.00     0.074 A 
ATOM     41  C   UNL     1      -4.173   0.520   4.314  1.00  0.00     0.049 A 
ATOM     42  N   UNL     1      -5.801   0.248   2.199  1.00  0.00    -0.248 NA
ATOM     43  C   UNL     1      -4.237  -0.491   0.719  1.00  0.00     0.031 C 
ATOM     44  C   UNL     1      -5.556   0.264   4.752  1.00  0.00     0.029 A 
ATOM     45  N   UNL     1      -3.830   1.590   5.173  1.00  0.00    -0.354 N 
ATOM     46  C   UNL     1      -6.391   0.267   0.972  1.00  0.00     0.074 A 
ATOM     47  C   UNL     1      -5.349  -0.137   0.071  1.00  0.00     0.031 C 
ATOM     48  C   UNL     1      -5.985   1.211   5.596  1.00  0.00     0.029 A 
ATOM     49  C   UNL     1      -4.928   2.163   5.843  1.00  0.00     0.049 A 
ATOM     50  H   UNL     1      -2.905   1.906   5.292  1.00  0.00     0.167 HD
ATOM     51  C   UNL     1      -7.710   0.568   0.825  1.00  0.00     0.037 A 
ATOM     52  C   UNL     1      -5.054   3.378   6.462  1.00  0.00     0.037 A 
ATOM     53  C   UNL     1      -8.339   1.144   2.014  1.00  0.00     0.049 A 
ATOM     54  C   UNL     1      -6.360   4.087   6.170  1.00  0.00     0.074 A 
ATOM     55  C   UNL     1      -8.884   0.623   3.175  1.00  0.00     0.029 A 
ATOM     56  N   UNL     1      -8.294   2.514   2.218  1.00  0.00    -0.354 N 
ATOM     57  N   UNL     1      -7.382   3.544   5.567  1.00  0.00    -0.248 NA
ATOM     58  C   UNL     1      -6.530   5.529   6.352  1.00  0.00     0.031 C 
ATOM     59  C   UNL     1      -9.235   1.703   4.037  1.00  0.00     0.029 A 
ATOM     60  C   UNL     1      -8.890   2.896   3.421  1.00  0.00     0.049 A 
ATOM     61  H   UNL     1      -7.887   3.148   1.585  1.00  0.00     0.167 HD
ATOM     62  C   UNL     1      -8.135   4.547   4.991  1.00  0.00     0.074 A 
ATOM     63  C   UNL     1      -7.624   5.764   5.610  1.00  0.00     0.031 C 
ATOM     64  C   UNL     1      -8.898   4.309   3.863  1.00  0.00     0.037 A 
BRANCH  51  65
ATOM     65  C   UNL     1      -8.460  -0.069  -0.325  1.00  0.00     0.064 A 
ATOM     66  C   UNL     1      -9.691  -0.703  -0.076  1.00  0.00     0.173 A 
ATOM     67  C   UNL     1      -7.934  -0.273  -1.615  1.00  0.00     0.173 A 
ATOM     68  F   UNL     1     -10.359  -0.498   1.067  1.00  0.00    -0.203 F 
ATOM     69  C   UNL     1     -10.257  -1.604  -0.981  1.00  0.00     0.198 A 
ATOM     70  C   UNL     1      -8.446  -1.243  -2.481  1.00  0.00     0.198 A 
ATOM     71  F   UNL     1      -6.925   0.476  -2.079  1.00  0.00    -0.203 F 
ATOM     72  F   UNL     1     -11.422  -2.196  -0.687  1.00  0.00    -0.200 F 
ATOM     73  C   UNL     1      -9.601  -1.923  -2.154  1.00  0.00     0.200 A 
ATOM     74  F   UNL     1      -7.799  -1.530  -3.620  1.00  0.00    -0.200 F 
ATOM     75  F   UNL     1     -10.091  -2.861  -2.974  1.00  0.00    -0.200 F 
ENDBRANCH  51  65
BRANCH  52  76
ATOM     76  C   UNL     1      -3.838   4.050   7.013  1.00  0.00     0.064 A 
ATOM     77  C   UNL     1      -3.230   3.480   8.146  1.00  0.00     0.173 A 
ATOM     78  C   UNL     1      -3.141   5.096   6.397  1.00  0.00     0.173 A 
ATOM     79  F   UNL     1      -3.889   2.554   8.860  1.00  0.00    -0.203 F 
ATOM     80  C   UNL     1      -1.905   3.762   8.493  1.00  0.00     0.198 A 
ATOM     81  C   UNL     1      -1.815   5.388   6.750  1.00  0.00     0.198 A 
ATOM     82  F   UNL     1      -3.711   5.808   5.417  1.00  0.00    -0.203 F 
ATOM     83  F   UNL     1      -1.309   3.079   9.482  1.00  0.00    -0.200 F 
ATOM     84  C   UNL     1      -1.181   4.678   7.757  1.00  0.00     0.200 A 
ATOM     85  F   UNL     1      -1.128   6.321   6.073  1.00  0.00    -0.200 F 
ATOM     86  F   UNL     1       0.123   4.867   8.010  1.00  0.00    -0.200 F 
ENDBRANCH  52  76
BRANCH  64  87
ATOM     87  C   UNL     1      -9.475   5.427   2.982  1.00  0.00     0.064 A 
ATOM     88  C   UNL     1      -9.798   6.717   3.444  1.00  0.00     0.173 A 
ATOM     89  C   UNL     1      -9.717   5.244   1.597  1.00  0.00     0.173 A 
ATOM     90  F   UNL     1      -9.874   6.984   4.753  1.00  0.00    -0.203 F 
ATOM     91  C   UNL     1     -10.122   7.773   2.578  1.00  0.00     0.198 A 
ATOM     92  C   UNL     1     -10.089   6.282   0.739  1.00  0.00     0.198 A 
ATOM     93  F   UNL     1      -9.610   4.051   1.004  1.00  0.00    -0.203 F 
ATOM     94  F   UNL     1     -10.315   9.004   3.073  1.00  0.00    -0.200 F 
ATOM     95  C   UNL     1     -10.250   7.559   1.221  1.00  0.00     0.200 A 
ATOM     96  F   UNL     1     -10.279   6.025  -0.564  1.00  0.00    -0.200 F 
ATOM     97  F   UNL     1     -10.562   8.563   0.392  1.00  0.00    -0.200 F 
ENDBRANCH  64  87
ENDBRANCH  38  39
ENDBRANCH  31  33
ENDBRANCH  30  31
ENDBRANCH  29  30
ENDBRANCH  28  29
ENDBRANCH  27  28
ENDBRANCH  26  27
ENDBRANCH   1  26
TORSDOF 21
