REMARK SMILES Cc1cc(C)n(C)c(=O)c1C(=O)[NH+]1CCC2(CC1)C[NH2+][C@@H](C(=O)OCCOCCOCCOC(=O)c1ccc(-c3c4nc(c(-c5c(F)c(F)c(F)c(F)c5F)c5ccc([nH]5)c(-c5c(F)c(F)c(F)c(F)c5F)c5nc(c(-c6c(F)c(F)c(F)c(F)c6F)c6ccc3[nH]6)C=C5)C=C4)cc1)C2
REMARK SMILES IDX 28 1 27 2 26 3 25 4 24 5 22 6 23 7 21 8 13 9 14 10 18 11
REMARK SMILES IDX 15 13 17 14 16 15 19 16 99 17 20 18 11 21 12 22 10 23 1 24
REMARK SMILES IDX 2 25 3 26 4 27 8 28 5 29 6 30 9 31 7 32 29 33 30 34 31 35
REMARK SMILES IDX 32 36 33 37 34 38 35 39 36 40 37 41 98 42 38 43 97 44 39 45
REMARK SMILES IDX 40 46 41 47 91 48 42 49 96 50 90 51 92 52 43 53 95 54 89 55
REMARK SMILES IDX 88 56 44 58 76 59 56 60 75 61 57 62 60 63 74 64 93 65 58 66
REMARK SMILES IDX 59 67 73 69 94 70 61 71 45 72 46 73 54 74 47 75 48 76 52 77
REMARK SMILES IDX 55 78 49 79 50 80 53 81 51 82 77 83 78 84 86 85 79 86 80 87
REMARK SMILES IDX 84 88 87 89 81 90 82 91 85 92 83 93 62 94 63 95 71 96 64 97
REMARK SMILES IDX 65 98 69 99 72 100 66 101 67 102 70 103 68 104
REMARK H PARENT 13 12 20 19 20 20 92 57 60 68
REMARK Flexibility Score: inf
ROOT
ATOM      1  C   UNL     1      -1.264   7.904  -1.934  1.00  0.00     0.188 C 
ENDROOT
BRANCH   1   2
ATOM      2  O   UNL     1      -0.607   9.094  -2.357  1.00  0.00    -0.376 OA
BRANCH   2   3
ATOM      3  C   UNL     1       0.674   8.995  -2.969  1.00  0.00     0.202 C 
BRANCH   3   4
ATOM      4  C   UNL     1       1.797   8.288  -2.193  1.00  0.00     0.261 C 
BRANCH   4   5
ATOM      5  O   UNL     1       1.409   7.059  -1.548  1.00  0.00    -0.459 OA
BRANCH   5   6
ATOM      6  C   UNL     1       1.583   7.002  -0.201  1.00  0.00     0.364 C 
ATOM      7  O   UNL     1       2.090   7.895   0.473  1.00  0.00    -0.245 OA
BRANCH   6   8
ATOM      8  C   UNL     1       1.074   5.700   0.447  1.00  0.00     0.294 C 
ATOM      9  N   UNL     1      -0.927   0.908  -0.621  1.00  0.00    -0.267 N 
ATOM     10  C   UNL     1      -1.665   1.975   0.038  1.00  0.00     0.271 C 
ATOM     11  C   UNL     1       0.092   1.389  -1.544  1.00  0.00     0.271 C 
ATOM     12  H   UNL     1      -0.892   1.886  -0.734  1.00  0.00     0.357 HD
ATOM     13  C   UNL     1      -0.710   2.727   0.955  1.00  0.00     0.075 C 
ATOM     14  C   UNL     1       1.087   2.372  -0.892  1.00  0.00     0.075 C 
ATOM     15  C   UNL     1       0.531   3.305   0.233  1.00  0.00     0.036 C 
ATOM     16  C   UNL     1       1.611   3.616   1.299  1.00  0.00     0.268 C 
ATOM     17  C   UNL     1       0.252   4.704  -0.363  1.00  0.00     0.090 C 
ATOM     18  N   UNL     1       2.216   4.873   0.877  1.00  0.00    -0.334 N 
ATOM     19  H   UNL     1       2.864   4.721   0.104  1.00  0.00     0.347 HD
ATOM     20  H   UNL     1       2.757   5.314   1.621  1.00  0.00     0.347 HD
BRANCH   9  21
ATOM     21  C   UNL     1      -1.385  -0.399  -0.457  1.00  0.00     0.350 C 
ATOM     22  O   UNL     1      -2.557  -0.590  -0.118  1.00  0.00    -0.225 OA
BRANCH  21  23
ATOM     23  C   UNL     1      -0.457  -1.593  -0.522  1.00  0.00     0.147 A 
ATOM     24  C   UNL     1       1.573  -0.479   0.577  1.00  0.00     0.045 C 
ATOM     25  C   UNL     1       0.803  -1.607  -0.028  1.00  0.00    -0.027 A 
ATOM     26  C   UNL     1       1.560  -2.837   0.062  1.00  0.00     0.026 A 
ATOM     27  C   UNL     1       1.001  -4.034  -0.136  1.00  0.00     0.018 A 
ATOM     28  C   UNL     1      -1.059  -2.945  -0.891  1.00  0.00     0.267 A 
ATOM     29  C   UNL     1       1.838  -5.259   0.115  1.00  0.00     0.064 C 
ATOM     30  N   UNL     1      -0.316  -4.101  -0.570  1.00  0.00    -0.315 N 
ATOM     31  O   UNL     1      -2.153  -3.014  -1.452  1.00  0.00    -0.268 OA
ATOM     32  C   UNL     1      -0.959  -5.398  -0.748  1.00  0.00     0.153 C 
ENDBRANCH  21  23
ENDBRANCH   9  21
ENDBRANCH   6   8
ENDBRANCH   5   6
ENDBRANCH   4   5
ENDBRANCH   3   4
ENDBRANCH   2   3
ENDBRANCH   1   2
BRANCH   1  33
ATOM     33  C   UNL     1      -1.170   6.637  -2.800  1.00  0.00     0.188 C 
BRANCH  33  34
ATOM     34  O   UNL     1      -0.518   6.821  -4.031  1.00  0.00    -0.376 OA
BRANCH  34  35
ATOM     35  C   UNL     1      -1.187   6.366  -5.187  1.00  0.00     0.202 C 
BRANCH  35  36
ATOM     36  C   UNL     1      -2.522   7.056  -5.520  1.00  0.00     0.261 C 
BRANCH  36  37
ATOM     37  O   UNL     1      -3.399   7.346  -4.411  1.00  0.00    -0.460 OA
BRANCH  37  38
ATOM     38  C   UNL     1      -4.171   6.338  -3.942  1.00  0.00     0.338 C 
ATOM     39  O   UNL     1      -4.208   5.190  -4.362  1.00  0.00    -0.246 OA
BRANCH  38  40
ATOM     40  C   UNL     1      -4.788   6.780  -2.667  1.00  0.00     0.060 A 
ATOM     41  C   UNL     1      -4.472   6.100  -1.478  1.00  0.00     0.016 A 
ATOM     42  C   UNL     1      -5.664   7.866  -2.636  1.00  0.00     0.016 A 
ATOM     43  C   UNL     1      -5.039   6.499  -0.263  1.00  0.00     0.010 A 
ATOM     44  C   UNL     1      -6.255   8.243  -1.424  1.00  0.00     0.010 A 
ATOM     45  C   UNL     1      -5.966   7.549  -0.234  1.00  0.00    -0.014 A 
BRANCH  45  46
ATOM     46  C   UNL     1      -6.788   7.792   0.982  1.00  0.00     0.031 A 
ATOM     47  C   UNL     1      -8.157   7.171   1.051  1.00  0.00     0.074 A 
ATOM     48  C   UNL     1      -6.340   8.531   2.013  1.00  0.00     0.049 A 
ATOM     49  N   UNL     1      -9.083   7.290   1.968  1.00  0.00    -0.248 NA
ATOM     50  C   UNL     1      -8.529   6.295  -0.071  1.00  0.00     0.031 C 
ATOM     51  C   UNL     1      -5.017   9.140   2.106  1.00  0.00     0.029 A 
ATOM     52  N   UNL     1      -6.964   8.897   3.183  1.00  0.00    -0.354 N 
ATOM     53  C   UNL     1     -10.142   6.502   1.537  1.00  0.00     0.074 A 
ATOM     54  C   UNL     1      -9.764   5.946   0.256  1.00  0.00     0.031 C 
ATOM     55  C   UNL     1      -4.926   9.805   3.272  1.00  0.00     0.029 A 
ATOM     56  C   UNL     1      -6.198   9.701   3.991  1.00  0.00     0.049 A 
ATOM     57  H   UNL     1      -7.875   8.609   3.420  1.00  0.00     0.167 HD
ATOM     58  C   UNL     1     -11.318   6.248   2.158  1.00  0.00     0.037 A 
ATOM     59  C   UNL     1      -6.494  10.296   5.165  1.00  0.00     0.037 A 
ATOM     60  C   UNL     1     -11.706   6.810   3.424  1.00  0.00     0.049 A 
ATOM     61  C   UNL     1      -7.859  10.100   5.780  1.00  0.00     0.074 A 
ATOM     62  C   UNL     1     -12.884   6.622   4.125  1.00  0.00     0.029 A 
ATOM     63  N   UNL     1     -10.926   7.675   4.178  1.00  0.00    -0.354 N 
ATOM     64  N   UNL     1      -8.854   9.352   5.369  1.00  0.00    -0.248 NA
ATOM     65  C   UNL     1      -8.142  10.836   7.023  1.00  0.00     0.031 C 
ATOM     66  C   UNL     1     -12.841   7.415   5.274  1.00  0.00     0.029 A 
ATOM     67  C   UNL     1     -11.610   8.050   5.323  1.00  0.00     0.049 A 
ATOM     68  H   UNL     1     -10.021   7.977   3.935  1.00  0.00     0.167 HD
ATOM     69  C   UNL     1      -9.864   9.502   6.313  1.00  0.00     0.074 A 
ATOM     70  C   UNL     1      -9.359  10.404   7.326  1.00  0.00     0.031 C 
ATOM     71  C   UNL     1     -11.098   8.940   6.335  1.00  0.00     0.037 A 
BRANCH  58  72
ATOM     72  C   UNL     1     -12.280   5.326   1.467  1.00  0.00     0.064 A 
ATOM     73  C   UNL     1     -12.020   3.952   1.348  1.00  0.00     0.173 A 
ATOM     74  C   UNL     1     -13.494   5.810   0.957  1.00  0.00     0.173 A 
ATOM     75  F   UNL     1     -10.867   3.441   1.807  1.00  0.00    -0.203 F 
ATOM     76  C   UNL     1     -12.928   3.102   0.724  1.00  0.00     0.198 A 
ATOM     77  C   UNL     1     -14.415   4.952   0.363  1.00  0.00     0.198 A 
ATOM     78  F   UNL     1     -13.795   7.114   1.049  1.00  0.00    -0.203 F 
ATOM     79  F   UNL     1     -12.637   1.802   0.581  1.00  0.00    -0.200 F 
ATOM     80  C   UNL     1     -14.129   3.600   0.240  1.00  0.00     0.200 A 
ATOM     81  F   UNL     1     -15.582   5.432  -0.089  1.00  0.00    -0.200 F 
ATOM     82  F   UNL     1     -15.008   2.779  -0.349  1.00  0.00    -0.200 F 
ENDBRANCH  58  72
BRANCH  59  83
ATOM     83  C   UNL     1      -5.469  11.127   5.854  1.00  0.00     0.064 A 
ATOM     84  C   UNL     1      -4.900  10.704   7.063  1.00  0.00     0.173 A 
ATOM     85  C   UNL     1      -5.035  12.350   5.323  1.00  0.00     0.173 A 
ATOM     86  F   UNL     1      -5.305   9.558   7.629  1.00  0.00    -0.203 F 
ATOM     87  C   UNL     1      -3.936  11.472   7.715  1.00  0.00     0.198 A 
ATOM     88  C   UNL     1      -4.051  13.104   5.961  1.00  0.00     0.198 A 
ATOM     89  F   UNL     1      -5.556  12.808   4.175  1.00  0.00    -0.203 F 
ATOM     90  F   UNL     1      -3.434  11.060   8.886  1.00  0.00    -0.200 F 
ATOM     91  C   UNL     1      -3.505  12.666   7.158  1.00  0.00     0.200 A 
ATOM     92  F   UNL     1      -3.632  14.254   5.415  1.00  0.00    -0.200 F 
ATOM     93  F   UNL     1      -2.569  13.398   7.777  1.00  0.00    -0.200 F 
ENDBRANCH  59  83
BRANCH  71  94
ATOM     94  C   UNL     1     -11.999   9.251   7.498  1.00  0.00     0.064 A 
ATOM     95  C   UNL     1     -12.596  10.510   7.651  1.00  0.00     0.173 A 
ATOM     96  C   UNL     1     -12.345   8.247   8.418  1.00  0.00     0.173 A 
ATOM     97  F   UNL     1     -12.293  11.508   6.807  1.00  0.00    -0.203 F 
ATOM     98  C   UNL     1     -13.498  10.756   8.685  1.00  0.00     0.198 A 
ATOM     99  C   UNL     1     -13.270   8.486   9.430  1.00  0.00     0.198 A 
ATOM    100  F   UNL     1     -11.810   7.021   8.313  1.00  0.00    -0.203 F 
ATOM    101  F   UNL     1     -14.033  11.976   8.828  1.00  0.00    -0.200 F 
ATOM    102  C   UNL     1     -13.843   9.741   9.565  1.00  0.00     0.200 A 
ATOM    103  F   UNL     1     -13.617   7.499  10.267  1.00  0.00    -0.200 F 
ATOM    104  F   UNL     1     -14.729   9.973  10.544  1.00  0.00    -0.200 F 
ENDBRANCH  71  94
ENDBRANCH  45  46
ENDBRANCH  38  40
ENDBRANCH  37  38
ENDBRANCH  36  37
ENDBRANCH  35  36
ENDBRANCH  34  35
ENDBRANCH  33  34
ENDBRANCH   1  33
TORSDOF 19
