REMARK SMILES O=C(OCCOCCOCCOC(=O)c1ccc(-c2c3nc(c(-c4c(F)c(F)c(F)c(F)c4F)c4ccc([nH]4)c(-c4c(F)c(F)c(F)c(F)c4F)c4nc(c(-c5c(F)c(F)c(F)c(F)c5F)c5ccc2[nH]5)C=C4)C=C3)cc1)C1=Cc2cc(S(F)(F)(F)(F)F)ccc2O[C@@H]1C(F)(F)F
REMARK SMILES IDX 8 1 7 2 6 3 5 4 4 5 3 6 2 7 1 8 78 9 79 10 93 11 80 12 92 13
REMARK SMILES IDX 81 14 91 15 82 16 90 17 89 18 94 19 95 20 96 21 97 22 83 23
REMARK SMILES IDX 84 24 85 25 86 26 87 27 88 28 9 29 10 30 11 31 12 32 13 33
REMARK SMILES IDX 14 34 15 35 16 36 77 37 17 38 76 39 18 40 19 41 20 42 70 43
REMARK SMILES IDX 21 44 75 45 69 46 71 47 22 48 74 49 68 50 67 51 23 53 55 54
REMARK SMILES IDX 35 55 54 56 36 57 39 58 53 59 72 60 37 61 38 62 52 64 73 65
REMARK SMILES IDX 40 66 24 67 25 68 33 69 26 70 27 71 31 72 34 73 28 74 29 75
REMARK SMILES IDX 32 76 30 77 56 78 57 79 65 80 58 81 59 82 63 83 66 84 60 85
REMARK SMILES IDX 61 86 64 87 62 88 41 89 42 90 50 91 43 92 44 93 48 94 51 95
REMARK SMILES IDX 45 96 46 97 49 98 47 99
REMARK H PARENT 71 52 39 63
REMARK Flexibility Score: inf
ROOT
ATOM      1  C   UNL     1       2.552  -1.522  -2.066  1.00  0.00     0.188 C 
ENDROOT
BRANCH   1   2
ATOM      2  C   UNL     1       3.058  -0.177  -1.570  1.00  0.00     0.188 C 
BRANCH   2   3
ATOM      3  O   UNL     1       4.478  -0.177  -1.570  1.00  0.00    -0.376 OA
BRANCH   3   4
ATOM      4  C   UNL     1       4.952  -1.206  -0.714  1.00  0.00     0.202 C 
BRANCH   4   5
ATOM      5  C   UNL     1       4.445  -0.964   0.698  1.00  0.00     0.261 C 
BRANCH   5   6
ATOM      6  O   UNL     1       3.025  -0.964   0.698  1.00  0.00    -0.460 OA
BRANCH   6   7
ATOM      7  C   UNL     1       2.315  -0.018  -0.088  1.00  0.00     0.338 C 
ATOM      8  O   UNL     1       1.044  -0.018  -0.088  1.00  0.00    -0.246 OA
BRANCH   7   9
ATOM      9  C   UNL     1       3.075   0.994  -0.929  1.00  0.00     0.087 C 
ATOM     10  C   UNL     1       4.435   0.994  -0.929  1.00  0.00     0.027 C 
ATOM     11  C   UNL     1       2.315   2.006  -1.771  1.00  0.00     0.316 C 
ATOM     12  C   UNL     1       5.195  -0.018  -0.088  1.00  0.00     0.019 A 
ATOM     13  O   UNL     1       3.598  -1.708  -0.578  1.00  0.00    -0.475 OA
ATOM     14  C   UNL     1       6.340   0.436   0.546  1.00  0.00     0.036 A 
ATOM     15  C   UNL     1       4.855  -1.302  -0.058  1.00  0.00     0.128 A 
ATOM     16  C   UNL     1       7.222  -0.596   0.945  1.00  0.00     0.107 A 
ATOM     17  C   UNL     1       5.708  -2.240   0.471  1.00  0.00     0.048 A 
ATOM     18  C   UNL     1       6.885  -1.867   1.060  1.00  0.00     0.028 A 
BRANCH  11  19
ATOM     19  C   UNL     1       2.682   1.825  -3.235  1.00  0.00     0.430 C 
ATOM     20  F   UNL     1       2.361   0.595  -3.624  1.00  0.00    -0.167 F 
ATOM     21  F   UNL     1       2.017   2.711  -3.971  1.00  0.00    -0.167 F 
ATOM     22  F   UNL     1       3.990   2.012  -3.390  1.00  0.00    -0.167 F 
ENDBRANCH  11  19
BRANCH  16  23
ATOM     23  S   UNL     1       8.932  -0.141   1.325  1.00  0.00     0.310 S 
ATOM     24  F   UNL     1       8.651  -0.156   2.886  1.00  0.00    -0.094 F 
ATOM     25  F   UNL     1       8.494   1.372   1.330  1.00  0.00    -0.094 F 
ATOM     26  F   UNL     1      10.399   0.255   1.656  1.00  0.00    -0.094 F 
ATOM     27  F   UNL     1       9.323  -1.666   1.455  1.00  0.00    -0.094 F 
ATOM     28  F   UNL     1       7.425  -0.561   1.102  1.00  0.00    -0.094 F 
ENDBRANCH  16  23
ENDBRANCH   7   9
ENDBRANCH   6   7
ENDBRANCH   5   6
ENDBRANCH   4   5
ENDBRANCH   3   4
ENDBRANCH   2   3
ENDBRANCH   1   2
BRANCH   1  29
ATOM     29  O   UNL     1       3.025  -2.551  -1.210  1.00  0.00    -0.376 OA
BRANCH  29  30
ATOM     30  C   UNL     1       4.445  -2.551  -1.210  1.00  0.00     0.202 C 
BRANCH  30  31
ATOM     31  C   UNL     1       4.952  -2.793  -2.623  1.00  0.00     0.261 C 
BRANCH  31  32
ATOM     32  O   UNL     1       4.478  -1.764  -3.478  1.00  0.00    -0.460 OA
BRANCH  32  33
ATOM     33  C   UNL     1       3.082  -1.565  -3.644  1.00  0.00     0.338 C 
ATOM     34  O   UNL     1       2.256  -2.307  -3.027  1.00  0.00    -0.246 OA
BRANCH  33  35
ATOM     35  C   UNL     1       2.576  -0.463  -4.561  1.00  0.00     0.060 A 
ATOM     36  C   UNL     1       1.642   0.379  -3.978  1.00  0.00     0.016 A 
ATOM     37  C   UNL     1       3.060  -0.220  -5.773  1.00  0.00     0.016 A 
ATOM     38  C   UNL     1       1.062   1.302  -4.879  1.00  0.00     0.010 A 
ATOM     39  C   UNL     1       2.535   0.787  -6.547  1.00  0.00     0.010 A 
ATOM     40  C   UNL     1       1.569   1.620  -6.056  1.00  0.00    -0.014 A 
BRANCH  40  41
ATOM     41  C   UNL     1       1.103   2.846  -6.824  1.00  0.00     0.031 A 
ATOM     42  C   UNL     1       0.537   2.735  -8.095  1.00  0.00     0.074 A 
ATOM     43  C   UNL     1       1.422   4.051  -6.222  1.00  0.00     0.049 A 
ATOM     44  N   UNL     1       0.182   3.723  -8.918  1.00  0.00    -0.248 NA
ATOM     45  C   UNL     1       0.228   1.455  -8.751  1.00  0.00     0.031 C 
ATOM     46  C   UNL     1       1.985   4.173  -4.937  1.00  0.00     0.029 A 
ATOM     47  N   UNL     1       1.264   5.320  -6.734  1.00  0.00    -0.354 N 
ATOM     48  C   UNL     1      -0.343   3.224 -10.039  1.00  0.00     0.074 A 
ATOM     49  C   UNL     1      -0.315   1.758  -9.950  1.00  0.00     0.031 C 
ATOM     50  C   UNL     1       2.174   5.494  -4.682  1.00  0.00     0.029 A 
ATOM     51  C   UNL     1       1.732   6.221  -5.803  1.00  0.00     0.049 A 
ATOM     52  H   UNL     1       0.882   5.544  -7.614  1.00  0.00     0.167 HD
ATOM     53  C   UNL     1      -0.845   3.934 -11.130  1.00  0.00     0.037 A 
ATOM     54  C   UNL     1       1.780   7.602  -5.909  1.00  0.00     0.037 A 
ATOM     55  C   UNL     1      -0.837   5.318 -11.217  1.00  0.00     0.049 A 
ATOM     56  C   UNL     1       1.331   8.311  -7.026  1.00  0.00     0.074 A 
ATOM     57  C   UNL     1      -1.346   6.049 -12.307  1.00  0.00     0.029 A 
ATOM     58  N   UNL     1      -0.346   6.218 -10.297  1.00  0.00    -0.354 N 
ATOM     59  N   UNL     1       0.770   7.813  -8.129  1.00  0.00    -0.248 NA
ATOM     60  C   UNL     1       1.407   9.771  -7.162  1.00  0.00     0.031 C 
ATOM     61  C   UNL     1      -1.157   7.372 -12.052  1.00  0.00     0.029 A 
ATOM     62  C   UNL     1      -0.525   7.487 -10.799  1.00  0.00     0.049 A 
ATOM     63  H   UNL     1       0.062   5.992  -9.430  1.00  0.00     0.167 HD
ATOM     64  C   UNL     1       0.454   8.801  -8.969  1.00  0.00     0.074 A 
ATOM     65  C   UNL     1       0.866  10.074  -8.362  1.00  0.00     0.031 C 
ATOM     66  C   UNL     1      -0.166   8.692 -10.216  1.00  0.00     0.037 A 
BRANCH  53  67
ATOM     67  C   UNL     1      -1.435   3.147 -12.289  1.00  0.00     0.064 A 
ATOM     68  C   UNL     1      -2.598   2.403 -12.168  1.00  0.00     0.173 A 
ATOM     69  C   UNL     1      -0.849   3.322 -13.467  1.00  0.00     0.173 A 
ATOM     70  F   UNL     1      -3.351   2.409 -11.072  1.00  0.00    -0.203 F 
ATOM     71  C   UNL     1      -2.910   1.637 -13.316  1.00  0.00     0.198 A 
ATOM     72  C   UNL     1      -1.293   2.644 -14.577  1.00  0.00     0.198 A 
ATOM     73  F   UNL     1       0.176   4.162 -13.575  1.00  0.00    -0.203 F 
ATOM     74  F   UNL     1      -3.777   0.639 -13.176  1.00  0.00    -0.200 F 
ATOM     75  C   UNL     1      -2.401   1.845 -14.516  1.00  0.00     0.200 A 
ATOM     76  F   UNL     1      -0.636   2.767 -15.727  1.00  0.00    -0.200 F 
ATOM     77  F   UNL     1      -2.937   1.307 -15.608  1.00  0.00    -0.200 F 
ENDBRANCH  53  67
BRANCH  54  78
ATOM     78  C   UNL     1       2.355   8.390  -4.743  1.00  0.00     0.064 A 
ATOM     79  C   UNL     1       1.647   9.437  -4.174  1.00  0.00     0.173 A 
ATOM     80  C   UNL     1       3.612   8.140  -4.397  1.00  0.00     0.173 A 
ATOM     81  F   UNL     1       0.330   9.571  -4.295  1.00  0.00    -0.203 F 
ATOM     82  C   UNL     1       2.453  10.348  -3.453  1.00  0.00     0.198 A 
ATOM     83  C   UNL     1       4.297   9.005  -3.578  1.00  0.00     0.198 A 
ATOM     84  F   UNL     1       4.214   7.043  -4.847  1.00  0.00    -0.203 F 
ATOM     85  F   UNL     1       1.943  11.547  -3.185  1.00  0.00    -0.200 F 
ATOM     86  C   UNL     1       3.677  10.092  -3.027  1.00  0.00     0.200 A 
ATOM     87  F   UNL     1       5.582   8.782  -3.317  1.00  0.00    -0.200 F 
ATOM     88  F   UNL     1       4.274  10.851  -2.113  1.00  0.00    -0.200 F 
ENDBRANCH  54  78
BRANCH  66  89
ATOM     89  C   UNL     1      -0.463   9.972 -10.979  1.00  0.00     0.064 A 
ATOM     90  C   UNL     1       0.656  10.689 -11.372  1.00  0.00     0.173 A 
ATOM     91  C   UNL     1      -1.684  10.350 -11.339  1.00  0.00     0.173 A 
ATOM     92  F   UNL     1       1.895  10.220 -11.255  1.00  0.00    -0.203 F 
ATOM     93  C   UNL     1       0.360  11.964 -11.908  1.00  0.00     0.198 A 
ATOM     94  C   UNL     1      -1.885  11.547 -11.983  1.00  0.00     0.198 A 
ATOM     95  F   UNL     1      -2.722   9.561 -11.075  1.00  0.00    -0.203 F 
ATOM     96  F   UNL     1       1.349  12.852 -11.974  1.00  0.00    -0.200 F 
ATOM     97  C   UNL     1      -0.829  12.335 -12.348  1.00  0.00     0.200 A 
ATOM     98  F   UNL     1      -3.124  11.946 -12.254  1.00  0.00    -0.200 F 
ATOM     99  F   UNL     1      -0.990  13.416 -13.106  1.00  0.00    -0.200 F 
ENDBRANCH  66  89
ENDBRANCH  40  41
ENDBRANCH  33  35
ENDBRANCH  32  33
ENDBRANCH  31  32
ENDBRANCH  30  31
ENDBRANCH  29  30
ENDBRANCH   1  29
TORSDOF 19
