REMARK SMILES O=C(C[C@@H](NS(=O)(=O)c1ccc2c(c1)OCCO2)c1ccccc1)OCCOCCOCCOC(=O)c1ccc(-c2c3nc(c(-c4c(F)c(F)c(F)c(F)c4F)c4ccc([nH]4)c(-c4c(F)c(F)c(F)c(F)c4F)c4nc(c(-c5c(F)c(F)c(F)c(F)c5F)c5ccc2[nH]5)C=C4)C=C3)cc1
REMARK SMILES IDX 29 1 28 2 27 3 26 4 25 5 2 6 1 7 3 8 4 9 5 10 6 12 7 13 8 14
REMARK SMILES IDX 9 15 10 16 14 17 11 18 13 19 12 20 15 21 18 22 16 23 17 24
REMARK SMILES IDX 19 25 20 26 24 27 21 28 23 29 22 30 30 31 31 32 32 33 33 34
REMARK SMILES IDX 34 35 35 36 36 37 37 38 38 39 99 40 39 41 98 42 40 43 41 44
REMARK SMILES IDX 42 45 92 46 43 47 97 48 91 49 93 50 44 51 96 52 90 53 89 54
REMARK SMILES IDX 45 56 77 57 57 58 76 59 58 60 61 61 75 62 94 63 59 64 60 65
REMARK SMILES IDX 74 67 95 68 62 69 46 70 47 71 55 72 48 73 49 74 53 75 56 76
REMARK SMILES IDX 50 77 51 78 54 79 52 80 78 81 79 82 87 83 80 84 81 85 85 86
REMARK SMILES IDX 88 87 82 88 83 89 86 90 84 91 63 92 64 93 72 94 65 95 66 96
REMARK SMILES IDX 70 97 73 98 67 99 68 100 71 101 69 102
REMARK H PARENT 5 11 93 55 61 66
REMARK Flexibility Score: inf
ROOT
ATOM      1  C   UNL     1       2.766  -1.408  -1.238  1.00  0.00     0.188 C 
ENDROOT
BRANCH   1   2
ATOM      2  O   UNL     1       4.174  -1.281  -1.285  1.00  0.00    -0.376 OA
BRANCH   2   3
ATOM      3  C   UNL     1       4.880  -0.914  -0.103  1.00  0.00     0.202 C 
BRANCH   3   4
ATOM      4  C   UNL     1       4.185  -1.042   1.257  1.00  0.00     0.261 C 
BRANCH   4   5
ATOM      5  O   UNL     1       3.444   0.109   1.783  1.00  0.00    -0.463 OA
BRANCH   5   6
ATOM      6  C   UNL     1       2.497   0.826   1.126  1.00  0.00     0.307 C 
ATOM      7  O   UNL     1       1.321   0.807   1.472  1.00  0.00    -0.252 OA
BRANCH   6   8
ATOM      8  C   UNL     1       2.987   1.713   0.014  1.00  0.00     0.147 C 
BRANCH   8   9
ATOM      9  C   UNL     1       4.101   2.691   0.416  1.00  0.00     0.111 C 
BRANCH   9  10
ATOM     10  N   UNL     1       5.192   1.962   1.109  1.00  0.00    -0.203 NA
ATOM     11  H   UNL     1       5.717   1.475   0.383  1.00  0.00     0.142 HD
BRANCH  10  12
ATOM     12  S   UNL     1       6.324   2.753   2.058  1.00  0.00     0.241 S 
ATOM     13  O   UNL     1       5.584   3.603   2.959  1.00  0.00    -0.207 OA
ATOM     14  O   UNL     1       7.197   1.708   2.553  1.00  0.00    -0.207 OA
BRANCH  12  15
ATOM     15  C   UNL     1       7.222   3.723   0.906  1.00  0.00     0.086 A 
ATOM     16  C   UNL     1       8.086   3.109  -0.007  1.00  0.00     0.026 A 
ATOM     17  C   UNL     1       6.978   5.093   0.873  1.00  0.00     0.072 A 
ATOM     18  C   UNL     1       8.672   3.882  -1.008  1.00  0.00     0.052 A 
ATOM     19  C   UNL     1       7.539   5.847  -0.144  1.00  0.00     0.162 A 
ATOM     20  C   UNL     1       8.391   5.248  -1.081  1.00  0.00     0.161 A 
ATOM     21  O   UNL     1       7.174   7.167  -0.181  1.00  0.00    -0.486 OA
ATOM     22  O   UNL     1       8.953   5.940  -2.122  1.00  0.00    -0.486 OA
ATOM     23  C   UNL     1       7.443   7.736  -1.463  1.00  0.00     0.271 C 
ATOM     24  C   UNL     1       8.836   7.355  -1.935  1.00  0.00     0.271 C 
ENDBRANCH  12  15
ENDBRANCH  10  12
ENDBRANCH   9  10
BRANCH   9  25
ATOM     25  C   UNL     1       4.555   3.361  -0.878  1.00  0.00    -0.029 A 
ATOM     26  C   UNL     1       5.301   2.667  -1.851  1.00  0.00     0.005 A 
ATOM     27  C   UNL     1       4.205   4.691  -1.140  1.00  0.00     0.005 A 
ATOM     28  C   UNL     1       5.733   3.297  -3.019  1.00  0.00     0.000 A 
ATOM     29  C   UNL     1       4.646   5.321  -2.305  1.00  0.00     0.000 A 
ATOM     30  C   UNL     1       5.419   4.631  -3.238  1.00  0.00     0.000 A 
ENDBRANCH   9  25
ENDBRANCH   8   9
ENDBRANCH   6   8
ENDBRANCH   5   6
ENDBRANCH   4   5
ENDBRANCH   3   4
ENDBRANCH   2   3
ENDBRANCH   1   2
BRANCH   1  31
ATOM     31  C   UNL     1       2.210  -2.827  -1.363  1.00  0.00     0.188 C 
BRANCH  31  32
ATOM     32  O   UNL     1       3.011  -3.894  -0.889  1.00  0.00    -0.376 OA
BRANCH  32  33
ATOM     33  C   UNL     1       4.290  -4.088  -1.491  1.00  0.00     0.202 C 
BRANCH  33  34
ATOM     34  C   UNL     1       4.428  -4.065  -3.026  1.00  0.00     0.261 C 
BRANCH  34  35
ATOM     35  O   UNL     1       4.033  -2.832  -3.668  1.00  0.00    -0.460 OA
BRANCH  35  36
ATOM     36  C   UNL     1       3.009  -2.924  -4.553  1.00  0.00     0.338 C 
ATOM     37  O   UNL     1       2.370  -3.921  -4.845  1.00  0.00    -0.246 OA
BRANCH  36  38
ATOM     38  C   UNL     1       2.660  -1.592  -5.086  1.00  0.00     0.060 A 
ATOM     39  C   UNL     1       1.492  -0.953  -4.649  1.00  0.00     0.016 A 
ATOM     40  C   UNL     1       3.410  -1.044  -6.125  1.00  0.00     0.016 A 
ATOM     41  C   UNL     1       1.082   0.250  -5.237  1.00  0.00     0.010 A 
ATOM     42  C   UNL     1       2.985   0.145  -6.729  1.00  0.00     0.010 A 
ATOM     43  C   UNL     1       1.813   0.796  -6.299  1.00  0.00    -0.014 A 
BRANCH  43  44
ATOM     44  C   UNL     1       1.330   1.995  -7.034  1.00  0.00     0.031 A 
ATOM     45  C   UNL     1       0.653   1.827  -8.366  1.00  0.00     0.074 A 
ATOM     46  C   UNL     1       1.540   3.233  -6.548  1.00  0.00     0.049 A 
ATOM     47  N   UNL     1       0.318   2.735  -9.248  1.00  0.00    -0.248 NA
ATOM     48  C   UNL     1       0.308   0.452  -8.758  1.00  0.00     0.031 C 
ATOM     49  C   UNL     1       2.135   3.540  -5.250  1.00  0.00     0.029 A 
ATOM     50  N   UNL     1       1.301   4.466  -7.110  1.00  0.00    -0.354 N 
ATOM     51  C   UNL     1      -0.253   2.042 -10.308  1.00  0.00     0.074 A 
ATOM     52  C   UNL     1      -0.218   0.637  -9.962  1.00  0.00     0.031 C 
ATOM     53  C   UNL     1       2.245   4.874  -5.130  1.00  0.00     0.029 A 
ATOM     54  C   UNL     1       1.791   5.510  -6.363  1.00  0.00     0.049 A 
ATOM     55  H   UNL     1       0.826   4.588  -7.963  1.00  0.00     0.167 HD
ATOM     56  C   UNL     1      -0.754   2.537 -11.465  1.00  0.00     0.037 A 
ATOM     57  C   UNL     1       1.913   6.821  -6.657  1.00  0.00     0.037 A 
ATOM     58  C   UNL     1      -0.803   3.937 -11.802  1.00  0.00     0.049 A 
ATOM     59  C   UNL     1       1.428   7.331  -7.990  1.00  0.00     0.074 A 
ATOM     60  C   UNL     1      -1.349   4.531 -12.928  1.00  0.00     0.029 A 
ATOM     61  N   UNL     1      -0.275   4.958 -11.029  1.00  0.00    -0.354 N 
ATOM     62  N   UNL     1       0.851   6.677  -8.968  1.00  0.00    -0.248 NA
ATOM     63  C   UNL     1       1.616   8.765  -8.263  1.00  0.00     0.031 C 
ATOM     64  C   UNL     1      -1.085   5.902 -12.871  1.00  0.00     0.029 A 
ATOM     65  C   UNL     1      -0.435   6.172 -11.679  1.00  0.00     0.049 A 
ATOM     66  H   UNL     1       0.152   4.839 -10.150  1.00  0.00     0.167 HD
ATOM     67  C   UNL     1       0.587   7.619  -9.955  1.00  0.00     0.074 A 
ATOM     68  C   UNL     1       1.045   8.895  -9.452  1.00  0.00     0.031 C 
ATOM     69  C   UNL     1       0.020   7.440 -11.172  1.00  0.00     0.037 A 
BRANCH  56  70
ATOM     70  C   UNL     1      -1.267   1.568 -12.489  1.00  0.00     0.064 A 
ATOM     71  C   UNL     1      -2.484   0.892 -12.325  1.00  0.00     0.173 A 
ATOM     72  C   UNL     1      -0.577   1.399 -13.700  1.00  0.00     0.173 A 
ATOM     73  F   UNL     1      -3.178   1.015 -11.184  1.00  0.00    -0.203 F 
ATOM     74  C   UNL     1      -2.989   0.077 -13.336  1.00  0.00     0.198 A 
ATOM     75  C   UNL     1      -1.098   0.606 -14.718  1.00  0.00     0.198 A 
ATOM     76  F   UNL     1       0.588   2.031 -13.908  1.00  0.00    -0.203 F 
ATOM     77  F   UNL     1      -4.145  -0.576 -13.153  1.00  0.00    -0.200 F 
ATOM     78  C   UNL     1      -2.303  -0.055 -14.535  1.00  0.00     0.200 A 
ATOM     79  F   UNL     1      -0.443   0.495 -15.882  1.00  0.00    -0.200 F 
ATOM     80  F   UNL     1      -2.805  -0.818 -15.516  1.00  0.00    -0.200 F 
ENDBRANCH  56  70
BRANCH  57  81
ATOM     81  C   UNL     1       2.589   7.749  -5.710  1.00  0.00     0.064 A 
ATOM     82  C   UNL     1       1.892   8.801  -5.098  1.00  0.00     0.173 A 
ATOM     83  C   UNL     1       3.966   7.651  -5.461  1.00  0.00     0.173 A 
ATOM     84  F   UNL     1       0.582   8.961  -5.334  1.00  0.00    -0.203 F 
ATOM     85  C   UNL     1       2.552   9.734  -4.299  1.00  0.00     0.198 A 
ATOM     86  C   UNL     1       4.617   8.563  -4.634  1.00  0.00     0.198 A 
ATOM     87  F   UNL     1       4.685   6.668  -6.023  1.00  0.00    -0.203 F 
ATOM     88  F   UNL     1       1.875  10.769  -3.784  1.00  0.00    -0.200 F 
ATOM     89  C   UNL     1       3.912   9.611  -4.063  1.00  0.00     0.200 A 
ATOM     90  F   UNL     1       5.929   8.430  -4.393  1.00  0.00    -0.200 F 
ATOM     91  F   UNL     1       4.548  10.506  -3.295  1.00  0.00    -0.200 F 
ENDBRANCH  57  81
BRANCH  69  92
ATOM     92  C   UNL     1      -0.162   8.651 -12.041  1.00  0.00     0.064 A 
ATOM     93  C   UNL     1       0.929   9.294 -12.644  1.00  0.00     0.173 A 
ATOM     94  C   UNL     1      -1.447   9.145 -12.316  1.00  0.00     0.173 A 
ATOM     95  F   UNL     1       2.179   8.873 -12.400  1.00  0.00    -0.203 F 
ATOM     96  C   UNL     1       0.742  10.398 -13.473  1.00  0.00     0.198 A 
ATOM     97  C   UNL     1      -1.633  10.227 -13.171  1.00  0.00     0.198 A 
ATOM     98  F   UNL     1      -2.526   8.565 -11.769  1.00  0.00    -0.203 F 
ATOM     99  F   UNL     1       1.803  11.024 -14.001  1.00  0.00    -0.200 F 
ATOM    100  C   UNL     1      -0.538  10.857 -13.744  1.00  0.00     0.200 A 
ATOM    101  F   UNL     1      -2.872  10.659 -13.444  1.00  0.00    -0.200 F 
ATOM    102  F   UNL     1      -0.716  11.910 -14.553  1.00  0.00    -0.200 F 
ENDBRANCH  69  92
ENDBRANCH  43  44
ENDBRANCH  36  38
ENDBRANCH  35  36
ENDBRANCH  34  35
ENDBRANCH  33  34
ENDBRANCH  32  33
ENDBRANCH  31  32
ENDBRANCH   1  31
TORSDOF 22
