REMARK SMILES O=C(/C=C/c1ccc(C(=O)NC2CC2)cc1)NC1(C(=O)OCCOCCOCCOC(=O)c2ccc(-c3c4nc(c(-c5c(F)c(F)c(F)c(F)c5F)c5ccc([nH]5)c(-c5c(F)c(F)c(F)c(F)c5F)c5nc(c(-c6c(F)c(F)c(F)c(F)c6F)c6ccc3[nH]6)C=C5)C=C4)cc2)CCCC1
REMARK SMILES IDX 24 1 23 2 22 3 21 4 19 5 20 6 18 7 96 8 99 9 97 10 98 11
REMARK SMILES IDX 17 12 1 13 2 14 3 16 4 17 5 18 6 19 16 20 7 21 15 22 8 23
REMARK SMILES IDX 9 24 10 25 11 26 12 28 13 29 14 30 25 31 26 32 27 33 28 34
REMARK SMILES IDX 29 35 30 36 31 37 32 38 33 39 34 40 95 41 35 42 94 43 36 44
REMARK SMILES IDX 37 45 38 46 88 47 39 48 93 49 87 50 89 51 40 52 92 53 86 54
REMARK SMILES IDX 85 55 41 57 73 58 53 59 72 60 54 61 57 62 71 63 90 64 55 65
REMARK SMILES IDX 56 66 70 68 91 69 58 70 42 71 43 72 51 73 44 74 45 75 49 76
REMARK SMILES IDX 52 77 46 78 47 79 50 80 48 81 74 82 75 83 83 84 76 85 77 86
REMARK SMILES IDX 81 87 84 88 78 89 79 90 82 91 80 92 59 93 60 94 68 95 61 96
REMARK SMILES IDX 62 97 66 98 69 99 63 100 64 101 67 102 65 103
REMARK H PARENT 17 15 11 27 89 56 57 67
REMARK Flexibility Score: inf
ROOT
ATOM      1  O   UNL     1      -1.944  -0.719  -1.656  1.00  0.00    -0.376 OA
ENDROOT
BRANCH   1   2
ATOM      2  C   UNL     1      -2.335   0.626  -1.866  1.00  0.00     0.202 C 
BRANCH   2   3
ATOM      3  C   UNL     1      -1.385   1.734  -2.376  1.00  0.00     0.261 C 
BRANCH   3   4
ATOM      4  O   UNL     1      -0.026   1.378  -2.669  1.00  0.00    -0.461 OA
BRANCH   4   5
ATOM      5  C   UNL     1       0.915   2.275  -2.254  1.00  0.00     0.331 C 
ATOM      6  O   UNL     1       0.647   3.323  -1.670  1.00  0.00    -0.249 OA
BRANCH   5   7
ATOM      7  C   UNL     1       2.390   1.826  -2.543  1.00  0.00     0.138 C 
ATOM      8  C   UNL     1       3.149   3.093  -2.998  1.00  0.00     0.040 C 
ATOM      9  C   UNL     1       2.620   0.946  -3.789  1.00  0.00     0.040 C 
ATOM     10  C   UNL     1       2.725   3.278  -4.450  1.00  0.00     0.003 C 
ATOM     11  C   UNL     1       2.530   1.871  -4.995  1.00  0.00     0.003 C 
BRANCH   7  12
ATOM     12  N   UNL     1       3.106   1.256  -1.385  1.00  0.00    -0.337 N 
ATOM     13  O   UNL     1       1.469   1.326   0.244  1.00  0.00    -0.270 OA
ATOM     14  C   UNL     1       2.628   1.168  -0.106  1.00  0.00     0.244 C 
ATOM     15  H   UNL     1       4.012   0.907  -1.548  1.00  0.00     0.164 HD
BRANCH  14  16
ATOM     16  C   UNL     1       3.612   0.676   0.876  1.00  0.00     0.072 C 
ATOM     17  C   UNL     1       4.923   0.955   0.835  1.00  0.00     0.014 C 
BRANCH  17  18
ATOM     18  C   UNL     1       5.841   0.241   1.713  1.00  0.00    -0.025 A 
ATOM     19  C   UNL     1       6.846   0.879   2.442  1.00  0.00     0.009 A 
ATOM     20  C   UNL     1       5.760  -1.145   1.735  1.00  0.00     0.009 A 
ATOM     21  C   UNL     1       7.715   0.133   3.248  1.00  0.00     0.014 A 
ATOM     22  C   UNL     1       6.666  -1.875   2.481  1.00  0.00     0.014 A 
ATOM     23  C   UNL     1       7.623  -1.260   3.295  1.00  0.00     0.039 A 
BRANCH  23  24
ATOM     24  C   UNL     1       8.556  -1.982   4.220  1.00  0.00     0.251 C 
ATOM     25  O   UNL     1       9.516  -1.398   4.719  1.00  0.00    -0.269 OA
ATOM     26  N   UNL     1       8.325  -3.287   4.568  1.00  0.00    -0.349 N 
ATOM     27  H   UNL     1       8.982  -3.708   5.168  1.00  0.00     0.164 HD
BRANCH  26  28
ATOM     28  C   UNL     1       7.247  -4.085   4.156  1.00  0.00     0.082 C 
ATOM     29  C   UNL     1       7.393  -5.080   3.017  1.00  0.00     0.027 C 
ATOM     30  C   UNL     1       7.220  -5.520   4.416  1.00  0.00     0.027 C 
ENDBRANCH  26  28
ENDBRANCH  23  24
ENDBRANCH  17  18
ENDBRANCH  14  16
ENDBRANCH   7  12
ENDBRANCH   5   7
ENDBRANCH   4   5
ENDBRANCH   3   4
ENDBRANCH   2   3
ENDBRANCH   1   2
BRANCH   1  31
ATOM     31  C   UNL     1      -0.631  -0.959  -1.213  1.00  0.00     0.188 C 
BRANCH  31  32
ATOM     32  C   UNL     1       0.321  -1.370  -2.341  1.00  0.00     0.188 C 
BRANCH  32  33
ATOM     33  O   UNL     1      -0.117  -1.447  -3.692  1.00  0.00    -0.376 OA
BRANCH  33  34
ATOM     34  C   UNL     1      -1.347  -2.096  -3.987  1.00  0.00     0.202 C 
BRANCH  34  35
ATOM     35  C   UNL     1      -1.603  -3.532  -3.493  1.00  0.00     0.261 C 
BRANCH  35  36
ATOM     36  O   UNL     1      -0.975  -3.907  -2.256  1.00  0.00    -0.460 OA
BRANCH  36  37
ATOM     37  C   UNL     1       0.203  -4.569  -2.381  1.00  0.00     0.338 C 
ATOM     38  O   UNL     1       0.756  -4.902  -3.421  1.00  0.00    -0.246 OA
BRANCH  37  39
ATOM     39  C   UNL     1       0.857  -4.686  -1.054  1.00  0.00     0.060 A 
ATOM     40  C   UNL     1       2.165  -4.197  -0.902  1.00  0.00     0.016 A 
ATOM     41  C   UNL     1       0.217  -5.300   0.021  1.00  0.00     0.016 A 
ATOM     42  C   UNL     1       2.843  -4.349   0.313  1.00  0.00     0.010 A 
ATOM     43  C   UNL     1       0.910  -5.481   1.228  1.00  0.00     0.010 A 
ATOM     44  C   UNL     1       2.239  -5.037   1.375  1.00  0.00    -0.014 A 
BRANCH  44  45
ATOM     45  C   UNL     1       3.041  -5.448   2.570  1.00  0.00     0.031 A 
ATOM     46  C   UNL     1       3.783  -6.774   2.514  1.00  0.00     0.074 A 
ATOM     47  C   UNL     1       3.164  -4.622   3.629  1.00  0.00     0.049 A 
ATOM     48  N   UNL     1       4.582  -7.352   3.380  1.00  0.00    -0.248 NA
ATOM     49  C   UNL     1       3.629  -7.532   1.263  1.00  0.00     0.031 C 
ATOM     50  C   UNL     1       2.660  -3.249   3.684  1.00  0.00     0.029 A 
ATOM     51  N   UNL     1       3.806  -4.785   4.835  1.00  0.00    -0.354 N 
ATOM     52  C   UNL     1       5.024  -8.540   2.787  1.00  0.00     0.074 A 
ATOM     53  C   UNL     1       4.396  -8.591   1.480  1.00  0.00     0.031 C 
ATOM     54  C   UNL     1       3.090  -2.670   4.820  1.00  0.00     0.029 A 
ATOM     55  C   UNL     1       3.876  -3.635   5.593  1.00  0.00     0.049 A 
ATOM     56  H   UNL     1       4.182  -5.646   5.131  1.00  0.00     0.167 HD
ATOM     57  C   UNL     1       5.855  -9.506   3.282  1.00  0.00     0.037 A 
ATOM     58  C   UNL     1       4.570  -3.373   6.727  1.00  0.00     0.037 A 
ATOM     59  C   UNL     1       6.430  -9.480   4.614  1.00  0.00     0.049 A 
ATOM     60  C   UNL     1       5.508  -4.446   7.283  1.00  0.00     0.074 A 
ATOM     61  C   UNL     1       6.980 -10.445   5.441  1.00  0.00     0.029 A 
ATOM     62  N   UNL     1       6.586  -8.301   5.298  1.00  0.00    -0.354 N 
ATOM     63  N   UNL     1       5.681  -5.693   6.900  1.00  0.00    -0.248 NA
ATOM     64  C   UNL     1       6.417  -4.045   8.365  1.00  0.00     0.031 C 
ATOM     65  C   UNL     1       7.397  -9.816   6.642  1.00  0.00     0.029 A 
ATOM     66  C   UNL     1       7.134  -8.456   6.550  1.00  0.00     0.049 A 
ATOM     67  H   UNL     1       6.329  -7.425   4.928  1.00  0.00     0.167 HD
ATOM     68  C   UNL     1       6.802  -6.178   7.577  1.00  0.00     0.074 A 
ATOM     69  C   UNL     1       7.216  -5.101   8.460  1.00  0.00     0.031 C 
ATOM     70  C   UNL     1       7.468  -7.366   7.452  1.00  0.00     0.037 A 
BRANCH  57  71
ATOM     71  C   UNL     1       6.096 -10.708   2.417  1.00  0.00     0.064 A 
ATOM     72  C   UNL     1       6.798 -10.643   1.202  1.00  0.00     0.173 A 
ATOM     73  C   UNL     1       5.585 -11.954   2.807  1.00  0.00     0.173 A 
ATOM     74  F   UNL     1       7.276  -9.469   0.757  1.00  0.00    -0.203 F 
ATOM     75  C   UNL     1       6.954 -11.774   0.402  1.00  0.00     0.198 A 
ATOM     76  C   UNL     1       5.782 -13.089   2.029  1.00  0.00     0.198 A 
ATOM     77  F   UNL     1       4.881 -12.070   3.942  1.00  0.00    -0.203 F 
ATOM     78  F   UNL     1       7.563 -11.674  -0.788  1.00  0.00    -0.200 F 
ATOM     79  C   UNL     1       6.456 -12.998   0.822  1.00  0.00     0.200 A 
ATOM     80  F   UNL     1       5.306 -14.271   2.446  1.00  0.00    -0.200 F 
ATOM     81  F   UNL     1       6.611 -14.087   0.058  1.00  0.00    -0.200 F 
ENDBRANCH  57  71
BRANCH  58  82
ATOM     82  C   UNL     1       4.590  -1.967   7.258  1.00  0.00     0.064 A 
ATOM     83  C   UNL     1       5.760  -1.188   7.204  1.00  0.00     0.173 A 
ATOM     84  C   UNL     1       3.445  -1.344   7.778  1.00  0.00     0.173 A 
ATOM     85  F   UNL     1       6.888  -1.714   6.709  1.00  0.00    -0.203 F 
ATOM     86  C   UNL     1       5.798   0.122   7.684  1.00  0.00     0.198 A 
ATOM     87  C   UNL     1       3.472  -0.019   8.225  1.00  0.00     0.198 A 
ATOM     88  F   UNL     1       2.282  -2.011   7.825  1.00  0.00    -0.203 F 
ATOM     89  F   UNL     1       6.949   0.809   7.665  1.00  0.00    -0.200 F 
ATOM     90  C   UNL     1       4.651   0.709   8.191  1.00  0.00     0.200 A 
ATOM     91  F   UNL     1       2.351   0.556   8.682  1.00  0.00    -0.200 F 
ATOM     92  F   UNL     1       4.683   1.970   8.644  1.00  0.00    -0.200 F 
ENDBRANCH  58  82
BRANCH  70  93
ATOM     93  C   UNL     1       8.642  -7.579   8.371  1.00  0.00     0.064 A 
ATOM     94  C   UNL     1       8.453  -7.725   9.754  1.00  0.00     0.173 A 
ATOM     95  C   UNL     1       9.954  -7.668   7.879  1.00  0.00     0.173 A 
ATOM     96  F   UNL     1       7.221  -7.626  10.277  1.00  0.00    -0.203 F 
ATOM     97  C   UNL     1       9.529  -7.928  10.613  1.00  0.00     0.198 A 
ATOM     98  C   UNL     1      11.028  -7.899   8.740  1.00  0.00     0.198 A 
ATOM     99  F   UNL     1      10.198  -7.519   6.568  1.00  0.00    -0.203 F 
ATOM    100  F   UNL     1       9.319  -8.015  11.934  1.00  0.00    -0.200 F 
ATOM    101  C   UNL     1      10.814  -8.024  10.105  1.00  0.00     0.200 A 
ATOM    102  F   UNL     1      12.272  -7.993   8.251  1.00  0.00    -0.200 F 
ATOM    103  F   UNL     1      11.848  -8.231  10.934  1.00  0.00    -0.200 F 
ENDBRANCH  70  93
ENDBRANCH  44  45
ENDBRANCH  37  39
ENDBRANCH  36  37
ENDBRANCH  35  36
ENDBRANCH  34  35
ENDBRANCH  33  34
ENDBRANCH  32  33
ENDBRANCH  31  32
ENDBRANCH   1  31
TORSDOF 22
