REMARK SMILES C[C@H](CCC[C@@H](C)[NH3+])C(=O)N[C@H]1C=C[C@@H](C(=O)OCCOCCOCCOC(=O)c2ccc(-c3c4nc(c(-c5c(F)c(F)c(F)c(F)c5F)c5ccc([nH]5)c(-c5c(F)c(F)c(F)c(F)c5F)c5nc(c(-c6c(F)c(F)c(F)c(F)c6F)c6ccc3[nH]6)C=C5)C=C4)cc2)C1
REMARK SMILES IDX 20 1 19 2 18 3 16 4 17 5 15 6 12 7 13 8 93 9 14 10 11 11
REMARK SMILES IDX 9 12 10 13 2 15 1 16 3 17 4 18 5 19 6 20 7 21 8 22 21 26
REMARK SMILES IDX 22 27 23 28 24 29 25 30 26 31 27 32 28 33 29 34 30 35 31 36
REMARK SMILES IDX 92 37 32 38 91 39 33 40 34 41 35 42 85 43 36 44 90 45 84 46
REMARK SMILES IDX 86 47 37 48 89 49 83 50 82 51 38 53 70 54 50 55 69 56 51 57
REMARK SMILES IDX 54 58 68 59 87 60 52 61 53 62 67 64 88 65 55 66 39 67 40 68
REMARK SMILES IDX 48 69 41 70 42 71 46 72 49 73 43 74 44 75 47 76 45 77 71 78
REMARK SMILES IDX 72 79 80 80 73 81 74 82 78 83 81 84 75 85 76 86 79 87 77 88
REMARK SMILES IDX 56 89 57 90 65 91 58 92 59 93 63 94 66 95 60 96 61 97 64 98
REMARK SMILES IDX 62 99
REMARK H PARENT 11 14 8 23 8 24 8 25 86 52 54 63
REMARK Flexibility Score: inf
ROOT
ATOM      1  C   UNL     1      -5.906  -0.372   6.594  1.00  0.00     0.202 C 
ENDROOT
BRANCH   1   2
ATOM      2  C   UNL     1      -5.451   0.782   5.685  1.00  0.00     0.261 C 
BRANCH   2   3
ATOM      3  O   UNL     1      -4.290   0.495   4.882  1.00  0.00    -0.463 OA
BRANCH   3   4
ATOM      4  C   UNL     1      -3.247   1.355   4.993  1.00  0.00     0.312 C 
ATOM      5  O   UNL     1      -3.248   2.356   5.704  1.00  0.00    -0.252 OA
BRANCH   4   6
ATOM      6  C   UNL     1      -2.010   0.940   4.196  1.00  0.00     0.124 C 
ATOM      7  C   UNL     1      -1.275   0.090   2.026  1.00  0.00     0.106 C 
ATOM      8  C   UNL     1      -1.297   1.575   2.040  1.00  0.00    -0.006 C 
ATOM      9  C   UNL     1      -2.082  -0.277   3.263  1.00  0.00     0.048 C 
ATOM     10  C   UNL     1      -1.653   2.044   3.241  1.00  0.00    -0.014 C 
BRANCH   7  11
ATOM     11  N   UNL     1      -1.857  -0.415   0.809  1.00  0.00    -0.350 N 
ATOM     12  C   UNL     1      -1.303  -1.210  -0.152  1.00  0.00     0.223 C 
ATOM     13  O   UNL     1      -1.996  -1.522  -1.122  1.00  0.00    -0.275 OA
ATOM     14  H   UNL     1      -2.790  -0.147   0.647  1.00  0.00     0.164 HD
BRANCH  12  15
ATOM     15  C   UNL     1       0.129  -1.735  -0.011  1.00  0.00     0.075 C 
ATOM     16  C   UNL     1       0.151  -2.800   1.089  1.00  0.00     0.018 C 
BRANCH  15  17
ATOM     17  C   UNL     1       1.148  -0.570   0.035  1.00  0.00     0.013 C 
BRANCH  17  18
ATOM     18  C   UNL     1       2.322  -0.666   1.014  1.00  0.00     0.007 C 
BRANCH  18  19
ATOM     19  C   UNL     1       3.393  -1.700   0.658  1.00  0.00     0.064 C 
BRANCH  19  20
ATOM     20  C   UNL     1       4.129  -1.444  -0.665  1.00  0.00     0.177 C 
ATOM     21  C   UNL     1       5.106  -0.275  -0.560  1.00  0.00     0.075 C 
BRANCH  20  22
ATOM     22  N   UNL     1       4.852  -2.665  -1.026  1.00  0.00    -0.355 N 
ATOM     23  H   UNL     1       5.528  -2.889  -0.296  1.00  0.00     0.344 HD
ATOM     24  H   UNL     1       5.340  -2.522  -1.910  1.00  0.00     0.344 HD
ATOM     25  H   UNL     1       4.190  -3.435  -1.124  1.00  0.00     0.344 HD
ENDBRANCH  20  22
ENDBRANCH  19  20
ENDBRANCH  18  19
ENDBRANCH  17  18
ENDBRANCH  15  17
ENDBRANCH  12  15
ENDBRANCH   7  11
ENDBRANCH   4   6
ENDBRANCH   3   4
ENDBRANCH   2   3
ENDBRANCH   1   2
BRANCH   1  26
ATOM     26  O   UNL     1      -4.958  -0.981   7.467  1.00  0.00    -0.376 OA
BRANCH  26  27
ATOM     27  C   UNL     1      -3.724  -1.444   6.935  1.00  0.00     0.188 C 
BRANCH  27  28
ATOM     28  C   UNL     1      -3.717  -2.220   5.608  1.00  0.00     0.188 C 
BRANCH  28  29
ATOM     29  O   UNL     1      -4.968  -2.325   4.974  1.00  0.00    -0.376 OA
BRANCH  29  30
ATOM     30  C   UNL     1      -5.523  -3.618   4.814  1.00  0.00     0.202 C 
BRANCH  30  31
ATOM     31  C   UNL     1      -5.629  -4.555   6.033  1.00  0.00     0.261 C 
BRANCH  31  32
ATOM     32  O   UNL     1      -4.519  -4.569   6.949  1.00  0.00    -0.460 OA
BRANCH  32  33
ATOM     33  C   UNL     1      -3.429  -5.287   6.598  1.00  0.00     0.338 C 
ATOM     34  O   UNL     1      -3.274  -5.937   5.574  1.00  0.00    -0.246 OA
BRANCH  33  35
ATOM     35  C   UNL     1      -2.343  -4.966   7.554  1.00  0.00     0.060 A 
ATOM     36  C   UNL     1      -1.181  -4.334   7.083  1.00  0.00     0.016 A 
ATOM     37  C   UNL     1      -2.472  -5.277   8.908  1.00  0.00     0.016 A 
ATOM     38  C   UNL     1      -0.138  -4.032   7.962  1.00  0.00     0.010 A 
ATOM     39  C   UNL     1      -1.415  -4.998   9.782  1.00  0.00     0.010 A 
ATOM     40  C   UNL     1      -0.232  -4.399   9.310  1.00  0.00    -0.014 A 
BRANCH  40  41
ATOM     41  C   UNL     1       0.965  -4.339  10.189  1.00  0.00     0.031 A 
ATOM     42  C   UNL     1       1.743  -5.605  10.423  1.00  0.00     0.074 A 
ATOM     43  C   UNL     1       1.360  -3.192  10.771  1.00  0.00     0.049 A 
ATOM     44  N   UNL     1       2.753  -5.830  11.223  1.00  0.00    -0.248 NA
ATOM     45  C   UNL     1       1.315  -6.781   9.647  1.00  0.00     0.031 C 
ATOM     46  C   UNL     1       0.727  -1.889  10.591  1.00  0.00     0.029 A 
ATOM     47  N   UNL     1       2.386  -2.950  11.653  1.00  0.00    -0.354 N 
ATOM     48  C   UNL     1       3.076  -7.171  11.054  1.00  0.00     0.074 A 
ATOM     49  C   UNL     1       2.134  -7.717  10.101  1.00  0.00     0.031 C 
ATOM     50  C   UNL     1       1.364  -0.986  11.357  1.00  0.00     0.029 A 
ATOM     51  C   UNL     1       2.424  -1.656  12.111  1.00  0.00     0.049 A 
ATOM     52  H   UNL     1       3.033  -3.639  11.929  1.00  0.00     0.167 HD
ATOM     53  C   UNL     1       4.074  -7.881  11.632  1.00  0.00     0.037 A 
ATOM     54  C   UNL     1       3.202  -1.089  13.056  1.00  0.00     0.037 A 
ATOM     55  C   UNL     1       5.004  -7.340  12.588  1.00  0.00     0.049 A 
ATOM     56  C   UNL     1       4.245  -1.925  13.758  1.00  0.00     0.074 A 
ATOM     57  C   UNL     1       6.050  -7.979  13.231  1.00  0.00     0.029 A 
ATOM     58  N   UNL     1       4.993  -6.031  13.046  1.00  0.00    -0.354 N 
ATOM     59  N   UNL     1       4.558  -3.187  13.581  1.00  0.00    -0.248 NA
ATOM     60  C   UNL     1       5.048  -1.254  14.792  1.00  0.00     0.031 C 
ATOM     61  C   UNL     1       6.636  -7.073  14.120  1.00  0.00     0.029 A 
ATOM     62  C   UNL     1       6.000  -5.850  13.982  1.00  0.00     0.049 A 
ATOM     63  H   UNL     1       4.364  -5.334  12.751  1.00  0.00     0.167 HD
ATOM     64  C   UNL     1       5.611  -3.448  14.451  1.00  0.00     0.074 A 
ATOM     65  C   UNL     1       5.895  -2.210  15.145  1.00  0.00     0.031 C 
ATOM     66  C   UNL     1       6.284  -4.608  14.655  1.00  0.00     0.037 A 
BRANCH  53  67
ATOM     67  C   UNL     1       4.193  -9.332  11.265  1.00  0.00     0.064 A 
ATOM     68  C   UNL     1       4.607  -9.739   9.987  1.00  0.00     0.173 A 
ATOM     69  C   UNL     1       3.919 -10.330  12.213  1.00  0.00     0.173 A 
ATOM     70  F   UNL     1       4.867  -8.826   9.040  1.00  0.00    -0.203 F 
ATOM     71  C   UNL     1       4.714 -11.089   9.664  1.00  0.00     0.198 A 
ATOM     72  C   UNL     1       4.061 -11.679  11.897  1.00  0.00     0.198 A 
ATOM     73  F   UNL     1       3.523  -9.998  13.451  1.00  0.00    -0.203 F 
ATOM     74  F   UNL     1       5.060 -11.453   8.422  1.00  0.00    -0.200 F 
ATOM     75  C   UNL     1       4.449 -12.057  10.621  1.00  0.00     0.200 A 
ATOM     76  F   UNL     1       3.819 -12.612  12.827  1.00  0.00    -0.200 F 
ATOM     77  F   UNL     1       4.562 -13.356  10.311  1.00  0.00    -0.200 F 
ENDBRANCH  53  67
BRANCH  54  78
ATOM     78  C   UNL     1       3.015   0.341  13.423  1.00  0.00     0.064 A 
ATOM     79  C   UNL     1       4.017   1.291  13.176  1.00  0.00     0.173 A 
ATOM     80  C   UNL     1       1.850   0.781  14.072  1.00  0.00     0.173 A 
ATOM     81  F   UNL     1       5.162   0.917  12.586  1.00  0.00    -0.203 F 
ATOM     82  C   UNL     1       3.874   2.615  13.588  1.00  0.00     0.198 A 
ATOM     83  C   UNL     1       1.694   2.112  14.451  1.00  0.00     0.198 A 
ATOM     84  F   UNL     1       0.862  -0.086  14.339  1.00  0.00    -0.203 F 
ATOM     85  F   UNL     1       4.875   3.485  13.395  1.00  0.00    -0.200 F 
ATOM     86  C   UNL     1       2.710   3.026  14.220  1.00  0.00     0.200 A 
ATOM     87  F   UNL     1       0.563   2.507  15.052  1.00  0.00    -0.200 F 
ATOM     88  F   UNL     1       2.574   4.298  14.617  1.00  0.00    -0.200 F 
ENDBRANCH  54  78
BRANCH  66  89
ATOM     89  C   UNL     1       7.431  -4.587  15.628  1.00  0.00     0.064 A 
ATOM     90  C   UNL     1       7.232  -4.448  17.010  1.00  0.00     0.173 A 
ATOM     91  C   UNL     1       8.748  -4.752  15.171  1.00  0.00     0.173 A 
ATOM     92  F   UNL     1       5.995  -4.274  17.500  1.00  0.00    -0.203 F 
ATOM     93  C   UNL     1       8.309  -4.444  17.893  1.00  0.00     0.198 A 
ATOM     94  C   UNL     1       9.820  -4.785  16.060  1.00  0.00     0.198 A 
ATOM     95  F   UNL     1       8.997  -4.900  13.861  1.00  0.00    -0.203 F 
ATOM     96  F   UNL     1       8.099  -4.255  19.203  1.00  0.00    -0.200 F 
ATOM     97  C   UNL     1       9.601  -4.621  17.418  1.00  0.00     0.200 A 
ATOM     98  F   UNL     1      11.064  -4.974  15.600  1.00  0.00    -0.200 F 
ATOM     99  F   UNL     1      10.635  -4.627  18.271  1.00  0.00    -0.200 F 
ENDBRANCH  66  89
ENDBRANCH  40  41
ENDBRANCH  33  35
ENDBRANCH  32  33
ENDBRANCH  31  32
ENDBRANCH  30  31
ENDBRANCH  29  30
ENDBRANCH  28  29
ENDBRANCH  27  28
ENDBRANCH  26  27
ENDBRANCH   1  26
TORSDOF 24
