REMARK SMILES NC(=O)[C@H]1CC(C(=O)OCCOCCOCCOC(=O)c2ccc(-c3c4nc(c(-c5c(F)c(F)c(F)c(F)c5F)c5ccc([nH]5)c(-c5c(F)c(F)c(F)c(F)c5F)c5nc(c(-c6c(F)c(F)c(F)c(F)c6F)c6ccc3[nH]6)C=C5)C=C4)cc2)=NN1c1ccc(F)cc1
REMARK SMILES IDX 14 1 13 2 12 3 11 4 10 5 9 6 7 7 8 8 6 9 4 10 5 11 85 12
REMARK SMILES IDX 84 13 2 14 1 15 3 18 86 19 87 20 92 21 88 22 91 23 89 24
REMARK SMILES IDX 90 25 15 26 16 27 17 28 18 29 19 30 20 31 21 32 22 33 83 34
REMARK SMILES IDX 23 35 82 36 24 37 25 38 26 39 76 40 27 41 81 42 75 43 77 44
REMARK SMILES IDX 28 45 80 46 74 47 73 48 29 50 61 51 41 52 60 53 42 54 45 55
REMARK SMILES IDX 59 56 78 57 43 58 44 59 58 61 79 62 46 63 30 64 31 65 39 66
REMARK SMILES IDX 32 67 33 68 37 69 40 70 34 71 35 72 38 73 36 74 62 75 63 76
REMARK SMILES IDX 71 77 64 78 65 79 69 80 72 81 66 82 67 83 70 84 68 85 47 86
REMARK SMILES IDX 48 87 56 88 49 89 50 90 54 91 57 92 51 93 52 94 55 95 53 96
REMARK H PARENT 1 16 1 17 77 49 45 60
REMARK Flexibility Score: inf
ROOT
ATOM      1  C   UNL     1      -1.189   6.085   1.008  1.00  0.00     0.188 C 
ENDROOT
BRANCH   1   2
ATOM      2  C   UNL     1      -0.851   6.839   2.313  1.00  0.00     0.188 C 
BRANCH   2   3
ATOM      3  O   UNL     1      -0.350   8.172   2.257  1.00  0.00    -0.376 OA
BRANCH   3   4
ATOM      4  C   UNL     1       0.670   8.500   1.320  1.00  0.00     0.202 C 
BRANCH   4   5
ATOM      5  C   UNL     1       1.964   7.681   1.373  1.00  0.00     0.261 C 
BRANCH   5   6
ATOM      6  O   UNL     1       1.715   6.275   1.235  1.00  0.00    -0.459 OA
BRANCH   6   7
ATOM      7  C   UNL     1       2.359   5.486   2.117  1.00  0.00     0.354 C 
ATOM      8  O   UNL     1       3.284   5.767   2.847  1.00  0.00    -0.245 OA
BRANCH   7   9
ATOM      9  C   UNL     1       1.701   4.131   2.146  1.00  0.00     0.148 C 
ATOM     10  C   UNL     1       1.344   1.931   1.656  1.00  0.00     0.203 C 
ATOM     11  C   UNL     1       1.789   3.220   0.971  1.00  0.00     0.103 C 
ATOM     12  N   UNL     1       0.668   2.417   2.865  1.00  0.00    -0.252 N 
ATOM     13  N   UNL     1       1.029   3.701   3.171  1.00  0.00    -0.169 NA
BRANCH  10  14
ATOM     14  C   UNL     1       0.394   1.137   0.758  1.00  0.00     0.242 C 
ATOM     15  N   UNL     1       0.958   0.069   0.108  1.00  0.00    -0.368 N 
ATOM     16  H   UNL     1       0.409  -0.490  -0.488  1.00  0.00     0.159 HD
ATOM     17  H   UNL     1       1.912  -0.138   0.238  1.00  0.00     0.159 HD
ATOM     18  O   UNL     1      -0.783   1.419   0.554  1.00  0.00    -0.273 OA
ENDBRANCH  10  14
BRANCH  12  19
ATOM     19  C   UNL     1       0.314   1.581   3.924  1.00  0.00     0.061 A 
ATOM     20  C   UNL     1      -0.920   1.765   4.569  1.00  0.00     0.031 A 
ATOM     21  C   UNL     1       1.166   0.574   4.402  1.00  0.00     0.031 A 
ATOM     22  C   UNL     1      -1.305   0.954   5.641  1.00  0.00     0.041 A 
ATOM     23  C   UNL     1       0.795  -0.226   5.486  1.00  0.00     0.041 A 
ATOM     24  C   UNL     1      -0.439  -0.033   6.091  1.00  0.00     0.123 A 
ATOM     25  F   UNL     1      -0.792  -0.803   7.128  1.00  0.00    -0.207 F 
ENDBRANCH  12  19
ENDBRANCH   7   9
ENDBRANCH   6   7
ENDBRANCH   5   6
ENDBRANCH   4   5
ENDBRANCH   3   4
ENDBRANCH   2   3
ENDBRANCH   1   2
BRANCH   1  26
ATOM     26  O   UNL     1      -1.091   6.872  -0.168  1.00  0.00    -0.376 OA
BRANCH  26  27
ATOM     27  C   UNL     1      -2.319   7.128  -0.840  1.00  0.00     0.202 C 
BRANCH  27  28
ATOM     28  C   UNL     1      -3.252   8.110  -0.118  1.00  0.00     0.261 C 
BRANCH  28  29
ATOM     29  O   UNL     1      -3.649   7.708   1.205  1.00  0.00    -0.460 OA
BRANCH  29  30
ATOM     30  C   UNL     1      -4.472   6.639   1.295  1.00  0.00     0.338 C 
ATOM     31  O   UNL     1      -4.934   5.985   0.379  1.00  0.00    -0.246 OA
BRANCH  30  32
ATOM     32  C   UNL     1      -4.598   6.285   2.724  1.00  0.00     0.060 A 
ATOM     33  C   UNL     1      -4.189   5.015   3.149  1.00  0.00     0.016 A 
ATOM     34  C   UNL     1      -5.127   7.202   3.636  1.00  0.00     0.016 A 
ATOM     35  C   UNL     1      -4.343   4.647   4.487  1.00  0.00     0.010 A 
ATOM     36  C   UNL     1      -5.294   6.826   4.972  1.00  0.00     0.010 A 
ATOM     37  C   UNL     1      -4.933   5.535   5.398  1.00  0.00    -0.014 A 
BRANCH  37  38
ATOM     38  C   UNL     1      -5.343   5.051   6.739  1.00  0.00     0.031 A 
ATOM     39  C   UNL     1      -6.763   4.594   6.933  1.00  0.00     0.074 A 
ATOM     40  C   UNL     1      -4.474   4.996   7.764  1.00  0.00     0.049 A 
ATOM     41  N   UNL     1      -7.356   4.143   8.009  1.00  0.00    -0.248 NA
ATOM     42  C   UNL     1      -7.633   4.655   5.748  1.00  0.00     0.031 C 
ATOM     43  C   UNL     1      -3.067   5.381   7.703  1.00  0.00     0.029 A 
ATOM     44  N   UNL     1      -4.660   4.596   9.065  1.00  0.00    -0.354 N 
ATOM     45  C   UNL     1      -8.663   3.864   7.630  1.00  0.00     0.074 A 
ATOM     46  C   UNL     1      -8.788   4.230   6.236  1.00  0.00     0.031 C 
ATOM     47  C   UNL     1      -2.516   5.208   8.918  1.00  0.00     0.029 A 
ATOM     48  C   UNL     1      -3.537   4.721   9.845  1.00  0.00     0.049 A 
ATOM     49  H   UNL     1      -5.516   4.251   9.406  1.00  0.00     0.167 HD
ATOM     50  C   UNL     1      -9.666   3.339   8.373  1.00  0.00     0.037 A 
ATOM     51  C   UNL     1      -3.361   4.481  11.159  1.00  0.00     0.037 A 
ATOM     52  C   UNL     1      -9.549   2.981   9.761  1.00  0.00     0.049 A 
ATOM     53  C   UNL     1      -4.511   3.953  11.980  1.00  0.00     0.074 A 
ATOM     54  C   UNL     1     -10.508   2.435  10.597  1.00  0.00     0.029 A 
ATOM     55  N   UNL     1      -8.400   3.140  10.521  1.00  0.00    -0.354 N 
ATOM     56  N   UNL     1      -5.734   3.663  11.608  1.00  0.00    -0.248 NA
ATOM     57  C   UNL     1      -4.250   3.710  13.407  1.00  0.00     0.031 C 
ATOM     58  C   UNL     1      -9.953   2.305  11.874  1.00  0.00     0.029 A 
ATOM     59  C   UNL     1      -8.632   2.721  11.822  1.00  0.00     0.049 A 
ATOM     60  H   UNL     1      -7.546   3.498  10.187  1.00  0.00     0.167 HD
ATOM     61  C   UNL     1      -6.374   3.171  12.739  1.00  0.00     0.074 A 
ATOM     62  C   UNL     1      -5.402   3.193  13.811  1.00  0.00     0.031 C 
ATOM     63  C   UNL     1      -7.651   2.736  12.877  1.00  0.00     0.037 A 
BRANCH  50  64
ATOM     64  C   UNL     1     -10.990   3.141   7.696  1.00  0.00     0.064 A 
ATOM     65  C   UNL     1     -11.182   2.134   6.738  1.00  0.00     0.173 A 
ATOM     66  C   UNL     1     -12.086   3.952   8.027  1.00  0.00     0.173 A 
ATOM     67  F   UNL     1     -10.162   1.343   6.375  1.00  0.00    -0.203 F 
ATOM     68  C   UNL     1     -12.417   1.964   6.117  1.00  0.00     0.198 A 
ATOM     69  C   UNL     1     -13.326   3.761   7.425  1.00  0.00     0.198 A 
ATOM     70  F   UNL     1     -11.955   4.927   8.939  1.00  0.00    -0.203 F 
ATOM     71  F   UNL     1     -12.566   1.026   5.171  1.00  0.00    -0.200 F 
ATOM     72  C   UNL     1     -13.489   2.772   6.466  1.00  0.00     0.200 A 
ATOM     73  F   UNL     1     -14.364   4.536   7.770  1.00  0.00    -0.200 F 
ATOM     74  F   UNL     1     -14.678   2.603   5.871  1.00  0.00    -0.200 F 
ENDBRANCH  50  64
BRANCH  51  75
ATOM     75  C   UNL     1      -2.040   4.734  11.793  1.00  0.00     0.064 A 
ATOM     76  C   UNL     1      -1.245   3.678  12.259  1.00  0.00     0.173 A 
ATOM     77  C   UNL     1      -1.563   6.040  11.978  1.00  0.00     0.173 A 
ATOM     78  F   UNL     1      -1.673   2.413  12.136  1.00  0.00    -0.203 F 
ATOM     79  C   UNL     1      -0.033   3.919  12.904  1.00  0.00     0.198 A 
ATOM     80  C   UNL     1      -0.339   6.279  12.599  1.00  0.00     0.198 A 
ATOM     81  F   UNL     1      -2.291   7.086  11.560  1.00  0.00    -0.203 F 
ATOM     82  F   UNL     1       0.681   2.894  13.389  1.00  0.00    -0.200 F 
ATOM     83  C   UNL     1       0.421   5.218  13.069  1.00  0.00     0.200 A 
ATOM     84  F   UNL     1       0.098   7.536  12.754  1.00  0.00    -0.200 F 
ATOM     85  F   UNL     1       1.583   5.450  13.695  1.00  0.00    -0.200 F 
ENDBRANCH  51  75
BRANCH  63  86
ATOM     86  C   UNL     1      -8.059   2.202  14.220  1.00  0.00     0.064 A 
ATOM     87  C   UNL     1      -8.239   3.044  15.327  1.00  0.00     0.173 A 
ATOM     88  C   UNL     1      -8.306   0.831  14.392  1.00  0.00     0.173 A 
ATOM     89  F   UNL     1      -8.006   4.361  15.220  1.00  0.00    -0.203 F 
ATOM     90  C   UNL     1      -8.620   2.529  16.564  1.00  0.00     0.198 A 
ATOM     91  C   UNL     1      -8.715   0.324  15.622  1.00  0.00     0.198 A 
ATOM     92  F   UNL     1      -8.158  -0.017  13.363  1.00  0.00    -0.203 F 
ATOM     93  F   UNL     1      -8.736   3.345  17.621  1.00  0.00    -0.200 F 
ATOM     94  C   UNL     1      -8.863   1.171  16.709  1.00  0.00     0.200 A 
ATOM     95  F   UNL     1      -8.964  -0.987  15.756  1.00  0.00    -0.200 F 
ATOM     96  F   UNL     1      -9.232   0.678  17.899  1.00  0.00    -0.200 F 
ENDBRANCH  63  86
ENDBRANCH  37  38
ENDBRANCH  30  32
ENDBRANCH  29  30
ENDBRANCH  28  29
ENDBRANCH  27  28
ENDBRANCH  26  27
ENDBRANCH   1  26
TORSDOF 19
