REMARK SMILES Cc1cc(OC(F)(F)F)cc2c1O[C@H](C(F)(F)F)C(C(=O)OCCOCCOCCOC(=O)c1ccc(-c3c4nc(c(-c5c(F)c(F)c(F)c(F)c5F)c5ccc([nH]5)c(-c5c(F)c(F)c(F)c(F)c5F)c5nc(c(-c6c(F)c(F)c(F)c(F)c6F)c6ccc3[nH]6)C=C5)C=C4)cc1)=C2
REMARK SMILES IDX 26 1 25 2 24 3 23 4 22 5 20 6 21 7 19 8 1 9 2 10 3 11 12 12
REMARK SMILES IDX 4 13 11 14 13 15 10 16 97 17 14 18 5 19 6 20 7 21 8 22 9 23
REMARK SMILES IDX 15 24 16 25 17 26 18 27 27 28 28 29 29 30 30 31 31 32 32 33
REMARK SMILES IDX 33 34 34 35 35 36 96 37 36 38 95 39 37 40 38 41 39 42 89 43
REMARK SMILES IDX 40 44 94 45 88 46 90 47 41 48 93 49 87 50 86 51 42 53 74 54
REMARK SMILES IDX 54 55 73 56 55 57 58 58 72 59 91 60 56 61 57 62 71 64 92 65
REMARK SMILES IDX 59 66 43 67 44 68 52 69 45 70 46 71 50 72 53 73 47 74 48 75
REMARK SMILES IDX 51 76 49 77 75 78 76 79 84 80 77 81 78 82 82 83 85 84 79 85
REMARK SMILES IDX 80 86 83 87 81 88 60 89 61 90 69 91 62 92 63 93 67 94 70 95
REMARK SMILES IDX 64 96 65 97 68 98 66 99
REMARK H PARENT 90 52 58 63
REMARK Flexibility Score: inf
ROOT
ATOM      1  C   UNL     1       1.212  -5.886   5.413  1.00  0.00     0.188 C 
ENDROOT
BRANCH   1   2
ATOM      2  O   UNL     1       1.052  -7.268   5.617  1.00  0.00    -0.376 OA
BRANCH   2   3
ATOM      3  C   UNL     1       0.393  -8.083   4.664  1.00  0.00     0.202 C 
BRANCH   3   4
ATOM      4  C   UNL     1      -0.396  -7.578   3.442  1.00  0.00     0.261 C 
BRANCH   4   5
ATOM      5  O   UNL     1      -0.076  -6.277   2.944  1.00  0.00    -0.460 OA
BRANCH   5   6
ATOM      6  C   UNL     1      -1.021  -5.326   3.149  1.00  0.00     0.338 C 
ATOM      7  O   UNL     1      -2.087  -5.470   3.723  1.00  0.00    -0.246 OA
BRANCH   6   8
ATOM      8  C   UNL     1      -0.503  -4.016   2.707  1.00  0.00     0.087 C 
ATOM      9  C   UNL     1       1.159  -0.044  -0.058  1.00  0.00     0.048 C 
ATOM     10  C   UNL     1       0.581  -0.237   1.317  1.00  0.00    -0.005 A 
ATOM     11  C   UNL     1       0.316   0.890   2.116  1.00  0.00     0.054 A 
ATOM     12  C   UNL     1       0.314  -1.518   1.823  1.00  0.00     0.131 A 
ATOM     13  C   UNL     1      -0.224   0.747   3.395  1.00  0.00     0.130 A 
ATOM     14  C   UNL     1      -0.265  -1.666   3.085  1.00  0.00     0.021 A 
ATOM     15  O   UNL     1       0.650  -2.577   1.029  1.00  0.00    -0.475 OA
ATOM     16  C   UNL     1      -0.504  -0.535   3.875  1.00  0.00     0.058 A 
ATOM     17  C   UNL     1      -0.685  -2.981   3.538  1.00  0.00     0.027 C 
ATOM     18  C   UNL     1       0.194  -3.910   1.378  1.00  0.00     0.316 C 
BRANCH  13  19
ATOM     19  O   UNL     1      -0.530   1.757   4.261  1.00  0.00    -0.406 OA
BRANCH  19  20
ATOM     20  C   UNL     1      -0.489   3.087   3.766  1.00  0.00     0.573 C 
ATOM     21  F   UNL     1       0.770   3.440   3.432  1.00  0.00    -0.132 F 
ATOM     22  F   UNL     1      -1.299   3.233   2.696  1.00  0.00    -0.132 F 
ATOM     23  F   UNL     1      -0.918   3.924   4.736  1.00  0.00    -0.132 F 
ENDBRANCH  19  20
ENDBRANCH  13  19
BRANCH  18  24
ATOM     24  C   UNL     1      -0.667  -4.439   0.224  1.00  0.00     0.430 C 
ATOM     25  F   UNL     1      -0.046  -4.276  -0.969  1.00  0.00    -0.167 F 
ATOM     26  F   UNL     1      -0.919  -5.763   0.353  1.00  0.00    -0.167 F 
ATOM     27  F   UNL     1      -1.860  -3.806   0.153  1.00  0.00    -0.167 F 
ENDBRANCH  18  24
ENDBRANCH   6   8
ENDBRANCH   5   6
ENDBRANCH   4   5
ENDBRANCH   3   4
ENDBRANCH   2   3
ENDBRANCH   1   2
BRANCH   1  28
ATOM     28  C   UNL     1       2.292  -5.411   4.417  1.00  0.00     0.188 C 
BRANCH  28  29
ATOM     29  O   UNL     1       3.011  -6.350   3.646  1.00  0.00    -0.376 OA
BRANCH  29  30
ATOM     30  C   UNL     1       3.756  -7.359   4.314  1.00  0.00     0.202 C 
BRANCH  30  31
ATOM     31  C   UNL     1       4.573  -7.072   5.588  1.00  0.00     0.261 C 
BRANCH  31  32
ATOM     32  O   UNL     1       3.930  -6.267   6.588  1.00  0.00    -0.460 OA
BRANCH  32  33
ATOM     33  C   UNL     1       4.485  -5.046   6.814  1.00  0.00     0.338 C 
ATOM     34  O   UNL     1       5.454  -4.556   6.273  1.00  0.00    -0.246 OA
BRANCH  33  35
ATOM     35  C   UNL     1       3.602  -4.296   7.731  1.00  0.00     0.060 A 
ATOM     36  C   UNL     1       2.802  -3.263   7.221  1.00  0.00     0.016 A 
ATOM     37  C   UNL     1       3.572  -4.613   9.088  1.00  0.00     0.016 A 
ATOM     38  C   UNL     1       1.935  -2.570   8.065  1.00  0.00     0.010 A 
ATOM     39  C   UNL     1       2.735  -3.888   9.941  1.00  0.00     0.010 A 
ATOM     40  C   UNL     1       1.918  -2.862   9.434  1.00  0.00    -0.014 A 
BRANCH  40  41
ATOM     41  C   UNL     1       1.166  -1.979  10.356  1.00  0.00     0.031 A 
ATOM     42  C   UNL     1       1.884  -0.815  10.972  1.00  0.00     0.074 A 
ATOM     43  C   UNL     1      -0.135  -2.193  10.618  1.00  0.00     0.049 A 
ATOM     44  N   UNL     1       1.431   0.102  11.788  1.00  0.00    -0.248 NA
ATOM     45  C   UNL     1       3.304  -0.660  10.619  1.00  0.00     0.031 C 
ATOM     46  C   UNL     1      -0.944  -3.269  10.052  1.00  0.00     0.029 A 
ATOM     47  N   UNL     1      -1.004  -1.509  11.434  1.00  0.00    -0.354 N 
ATOM     48  C   UNL     1       2.502   0.949  12.030  1.00  0.00     0.074 A 
ATOM     49  C   UNL     1       3.640   0.416  11.315  1.00  0.00     0.031 C 
ATOM     50  C   UNL     1      -2.194  -3.176  10.541  1.00  0.00     0.029 A 
ATOM     51  C   UNL     1      -2.266  -2.048  11.471  1.00  0.00     0.049 A 
ATOM     52  H   UNL     1      -0.745  -0.708  11.944  1.00  0.00     0.167 HD
ATOM     53  C   UNL     1       2.527   2.081  12.769  1.00  0.00     0.037 A 
ATOM     54  C   UNL     1      -3.351  -1.675  12.181  1.00  0.00     0.037 A 
ATOM     55  C   UNL     1       1.399   2.597  13.495  1.00  0.00     0.049 A 
ATOM     56  C   UNL     1      -3.269  -0.465  13.080  1.00  0.00     0.074 A 
ATOM     57  C   UNL     1       1.326   3.741  14.269  1.00  0.00     0.029 A 
ATOM     58  N   UNL     1       0.151   1.994  13.549  1.00  0.00    -0.354 N 
ATOM     59  N   UNL     1      -2.266   0.358  13.268  1.00  0.00    -0.248 NA
ATOM     60  C   UNL     1      -4.469  -0.129  13.862  1.00  0.00     0.031 C 
ATOM     61  C   UNL     1       0.054   3.798  14.841  1.00  0.00     0.029 A 
ATOM     62  C   UNL     1      -0.689   2.728  14.369  1.00  0.00     0.049 A 
ATOM     63  H   UNL     1      -0.100   1.169  13.074  1.00  0.00     0.167 HD
ATOM     64  C   UNL     1      -2.724   1.326  14.154  1.00  0.00     0.074 A 
ATOM     65  C   UNL     1      -4.095   0.991  14.469  1.00  0.00     0.031 C 
ATOM     66  C   UNL     1      -2.063   2.398  14.655  1.00  0.00     0.037 A 
BRANCH  53  67
ATOM     67  C   UNL     1       3.816   2.844  12.836  1.00  0.00     0.064 A 
ATOM     68  C   UNL     1       4.304   3.552  11.727  1.00  0.00     0.173 A 
ATOM     69  C   UNL     1       4.533   2.930  14.039  1.00  0.00     0.173 A 
ATOM     70  F   UNL     1       3.662   3.491  10.551  1.00  0.00    -0.203 F 
ATOM     71  C   UNL     1       5.469   4.308  11.818  1.00  0.00     0.198 A 
ATOM     72  C   UNL     1       5.680   3.712  14.134  1.00  0.00     0.198 A 
ATOM     73  F   UNL     1       4.106   2.274  15.129  1.00  0.00    -0.203 F 
ATOM     74  F   UNL     1       5.935   4.949  10.737  1.00  0.00    -0.200 F 
ATOM     75  C   UNL     1       6.149   4.397  13.023  1.00  0.00     0.200 A 
ATOM     76  F   UNL     1       6.327   3.810  15.304  1.00  0.00    -0.200 F 
ATOM     77  F   UNL     1       7.258   5.143  13.115  1.00  0.00    -0.200 F 
ENDBRANCH  53  67
BRANCH  54  78
ATOM     78  C   UNL     1      -4.619  -2.442  12.051  1.00  0.00     0.064 A 
ATOM     79  C   UNL     1      -5.746  -1.873  11.441  1.00  0.00     0.173 A 
ATOM     80  C   UNL     1      -4.731  -3.758  12.525  1.00  0.00     0.173 A 
ATOM     81  F   UNL     1      -5.698  -0.609  10.996  1.00  0.00    -0.203 F 
ATOM     82  C   UNL     1      -6.936  -2.586  11.317  1.00  0.00     0.198 A 
ATOM     83  C   UNL     1      -5.913  -4.481  12.375  1.00  0.00     0.198 A 
ATOM     84  F   UNL     1      -3.685  -4.349  13.121  1.00  0.00    -0.203 F 
ATOM     85  F   UNL     1      -8.009  -2.004  10.764  1.00  0.00    -0.200 F 
ATOM     86  C   UNL     1      -7.017  -3.893  11.776  1.00  0.00     0.200 A 
ATOM     87  F   UNL     1      -5.983  -5.746  12.810  1.00  0.00    -0.200 F 
ATOM     88  F   UNL     1      -8.159  -4.582  11.646  1.00  0.00    -0.200 F 
ENDBRANCH  54  78
BRANCH  66  89
ATOM     89  C   UNL     1      -2.802   3.331  15.572  1.00  0.00     0.064 A 
ATOM     90  C   UNL     1      -3.090   2.982  16.898  1.00  0.00     0.173 A 
ATOM     91  C   UNL     1      -3.089   4.643  15.160  1.00  0.00     0.173 A 
ATOM     92  F   UNL     1      -2.843   1.739  17.338  1.00  0.00    -0.203 F 
ATOM     93  C   UNL     1      -3.632   3.913  17.781  1.00  0.00     0.198 A 
ATOM     94  C   UNL     1      -3.603   5.579  16.053  1.00  0.00     0.198 A 
ATOM     95  F   UNL     1      -2.821   5.031  13.904  1.00  0.00    -0.203 F 
ATOM     96  F   UNL     1      -3.910   3.555  19.042  1.00  0.00    -0.200 F 
ATOM     97  C   UNL     1      -3.872   5.214  17.363  1.00  0.00     0.200 A 
ATOM     98  F   UNL     1      -3.811   6.841  15.653  1.00  0.00    -0.200 F 
ATOM     99  F   UNL     1      -4.357   6.118  18.225  1.00  0.00    -0.200 F 
ENDBRANCH  66  89
ENDBRANCH  40  41
ENDBRANCH  33  35
ENDBRANCH  32  33
ENDBRANCH  31  32
ENDBRANCH  30  31
ENDBRANCH  29  30
ENDBRANCH  28  29
ENDBRANCH   1  28
TORSDOF 20
