REMARK SMILES CS(=O)(=O)c1ccc(/C=C(/C(=O)OCCOCCOCCOC(=O)c2ccc(-c3c4nc(c(-c5c(F)c(F)c(F)c(F)c5F)c5ccc([nH]5)c(-c5c(F)c(F)c(F)c(F)c5F)c5nc(c(-c6c(F)c(F)c(F)c(F)c6F)c6ccc3[nH]6)C=C5)C=C4)cc2)c2ccc(O)cc2)cc1
REMARK SMILES IDX 17 1 16 2 15 3 14 4 13 5 11 6 12 7 10 8 9 9 8 10 5 11 6 12
REMARK SMILES IDX 96 13 7 14 95 15 2 16 1 17 3 18 4 19 88 20 89 21 94 22 90 23
REMARK SMILES IDX 93 24 91 25 92 26 18 28 19 29 20 30 21 31 22 32 23 33 24 34
REMARK SMILES IDX 25 35 26 36 87 37 27 38 86 39 28 40 29 41 30 42 80 43 31 44
REMARK SMILES IDX 85 45 79 46 81 47 32 48 84 49 78 50 77 51 33 53 65 54 45 55
REMARK SMILES IDX 64 56 46 57 49 58 63 59 82 60 47 61 48 62 62 64 83 65 50 66
REMARK SMILES IDX 34 67 35 68 43 69 36 70 37 71 41 72 44 73 38 74 39 75 42 76
REMARK SMILES IDX 40 77 66 78 67 79 75 80 68 81 69 82 73 83 76 84 70 85 71 86
REMARK SMILES IDX 74 87 72 88 51 89 52 90 60 91 53 92 54 93 58 94 61 95 55 96
REMARK SMILES IDX 56 97 59 98 57 99
REMARK H PARENT 92 27 81 52 49 63
REMARK Flexibility Score: inf
ROOT
ATOM      1  C   UNL     1       1.143   6.759   8.143  1.00  0.00     0.188 C 
ENDROOT
BRANCH   1   2
ATOM      2  O   UNL     1       1.641   8.062   8.404  1.00  0.00    -0.376 OA
BRANCH   2   3
ATOM      3  C   UNL     1       2.993   8.298   8.041  1.00  0.00     0.202 C 
BRANCH   3   4
ATOM      4  C   UNL     1       3.235   8.439   6.535  1.00  0.00     0.261 C 
BRANCH   4   5
ATOM      5  O   UNL     1       2.778   7.332   5.739  1.00  0.00    -0.460 OA
BRANCH   5   6
ATOM      6  C   UNL     1       3.507   6.191   5.763  1.00  0.00     0.338 C 
ATOM      7  O   UNL     1       4.524   6.021   6.419  1.00  0.00    -0.246 OA
BRANCH   6   8
ATOM      8  C   UNL     1       2.834   5.115   4.953  1.00  0.00     0.067 C 
ATOM      9  C   UNL     1       2.105   5.459   3.863  1.00  0.00     0.024 C 
BRANCH   9  10
ATOM     10  C   UNL     1       1.447   4.581   2.866  1.00  0.00    -0.025 A 
ATOM     11  C   UNL     1       0.507   2.885   0.832  1.00  0.00     0.067 A 
ATOM     12  C   UNL     1       0.370   2.506   2.166  1.00  0.00     0.021 A 
ATOM     13  C   UNL     1       1.012   4.144   0.506  1.00  0.00     0.021 A 
ATOM     14  C   UNL     1       0.817   3.367   3.175  1.00  0.00     0.009 A 
ATOM     15  C   UNL     1       1.474   4.987   1.522  1.00  0.00     0.009 A 
BRANCH  11  16
ATOM     16  S   UNL     1       0.101   1.740  -0.466  1.00  0.00     0.175 S 
ATOM     17  C   UNL     1       0.923   0.232  -0.014  1.00  0.00     0.163 C 
ATOM     18  O   UNL     1       0.741   2.219  -1.679  1.00  0.00    -0.224 OA
ATOM     19  O   UNL     1      -1.329   1.521  -0.406  1.00  0.00    -0.224 OA
ENDBRANCH  11  16
ENDBRANCH   9  10
BRANCH   8  20
ATOM     20  C   UNL     1       2.999   3.712   5.386  1.00  0.00    -0.011 A 
ATOM     21  C   UNL     1       2.285   3.249   6.504  1.00  0.00     0.013 A 
ATOM     22  C   UNL     1       3.756   2.801   4.635  1.00  0.00     0.013 A 
ATOM     23  C   UNL     1       2.295   1.895   6.837  1.00  0.00     0.047 A 
ATOM     24  C   UNL     1       3.761   1.444   4.968  1.00  0.00     0.047 A 
ATOM     25  C   UNL     1       3.020   1.002   6.060  1.00  0.00     0.115 A 
BRANCH  25  26
ATOM     26  O   UNL     1       2.960  -0.316   6.398  1.00  0.00    -0.508 OA
ATOM     27  H   UNL     1       2.454  -0.588   7.138  1.00  0.00     0.293 HD
ENDBRANCH  25  26
ENDBRANCH   8  20
ENDBRANCH   6   8
ENDBRANCH   5   6
ENDBRANCH   4   5
ENDBRANCH   3   4
ENDBRANCH   2   3
ENDBRANCH   1   2
BRANCH   1  28
ATOM     28  C   UNL     1       0.088   6.708   7.020  1.00  0.00     0.188 C 
BRANCH  28  29
ATOM     29  O   UNL     1      -0.664   7.863   6.670  1.00  0.00    -0.376 OA
BRANCH  29  30
ATOM     30  C   UNL     1      -1.014   8.804   7.672  1.00  0.00     0.202 C 
BRANCH  30  31
ATOM     31  C   UNL     1      -1.972   8.351   8.779  1.00  0.00     0.261 C 
BRANCH  31  32
ATOM     32  O   UNL     1      -1.638   7.090   9.380  1.00  0.00    -0.460 OA
BRANCH  32  33
ATOM     33  C   UNL     1      -2.443   6.058   9.027  1.00  0.00     0.338 C 
ATOM     34  O   UNL     1      -3.420   6.093   8.300  1.00  0.00    -0.246 OA
BRANCH  33  35
ATOM     35  C   UNL     1      -1.885   4.788   9.537  1.00  0.00     0.060 A 
ATOM     36  C   UNL     1      -1.700   3.742   8.624  1.00  0.00     0.016 A 
ATOM     37  C   UNL     1      -1.627   4.596  10.896  1.00  0.00     0.016 A 
ATOM     38  C   UNL     1      -1.291   2.487   9.071  1.00  0.00     0.010 A 
ATOM     39  C   UNL     1      -1.241   3.328  11.348  1.00  0.00     0.010 A 
ATOM     40  C   UNL     1      -1.104   2.262  10.441  1.00  0.00    -0.014 A 
BRANCH  40  41
ATOM     41  C   UNL     1      -0.957   0.871  10.934  1.00  0.00     0.031 A 
ATOM     42  C   UNL     1      -2.194   0.107  11.314  1.00  0.00     0.074 A 
ATOM     43  C   UNL     1       0.249   0.284  11.013  1.00  0.00     0.049 A 
ATOM     44  N   UNL     1      -2.312  -1.115  11.767  1.00  0.00    -0.248 NA
ATOM     45  C   UNL     1      -3.473   0.819  11.161  1.00  0.00     0.031 C 
ATOM     46  C   UNL     1       1.517   0.906  10.643  1.00  0.00     0.029 A 
ATOM     47  N   UNL     1       0.599  -0.975  11.434  1.00  0.00    -0.354 N 
ATOM     48  C   UNL     1      -3.673  -1.319  11.950  1.00  0.00     0.074 A 
ATOM     49  C   UNL     1      -4.340  -0.088  11.584  1.00  0.00     0.031 C 
ATOM     50  C   UNL     1       2.511   0.024  10.850  1.00  0.00     0.029 A 
ATOM     51  C   UNL     1       1.951  -1.210  11.402  1.00  0.00     0.049 A 
ATOM     52  H   UNL     1      -0.058  -1.645  11.732  1.00  0.00     0.167 HD
ATOM     53  C   UNL     1      -4.311  -2.432  12.382  1.00  0.00     0.037 A 
ATOM     54  C   UNL     1       2.653  -2.292  11.792  1.00  0.00     0.037 A 
ATOM     55  C   UNL     1      -3.649  -3.651  12.765  1.00  0.00     0.049 A 
ATOM     56  C   UNL     1       1.925  -3.492  12.341  1.00  0.00     0.074 A 
ATOM     57  C   UNL     1      -4.210  -4.833  13.214  1.00  0.00     0.029 A 
ATOM     58  N   UNL     1      -2.275  -3.838  12.754  1.00  0.00    -0.354 N 
ATOM     59  N   UNL     1       0.636  -3.688  12.483  1.00  0.00    -0.248 NA
ATOM     60  C   UNL     1       2.752  -4.623  12.787  1.00  0.00     0.031 C 
ATOM     61  C   UNL     1      -3.173  -5.720  13.521  1.00  0.00     0.029 A 
ATOM     62  C   UNL     1      -1.968  -5.108  13.214  1.00  0.00     0.049 A 
ATOM     63  H   UNL     1      -1.616  -3.167  12.464  1.00  0.00     0.167 HD
ATOM     64  C   UNL     1       0.498  -4.970  13.003  1.00  0.00     0.074 A 
ATOM     65  C   UNL     1       1.833  -5.510  13.143  1.00  0.00     0.031 C 
ATOM     66  C   UNL     1      -0.634  -5.638  13.334  1.00  0.00     0.037 A 
BRANCH  53  67
ATOM     67  C   UNL     1      -5.805  -2.369  12.492  1.00  0.00     0.064 A 
ATOM     68  C   UNL     1      -6.626  -2.368  11.355  1.00  0.00     0.173 A 
ATOM     69  C   UNL     1      -6.423  -2.333  13.751  1.00  0.00     0.173 A 
ATOM     70  F   UNL     1      -6.081  -2.386  10.129  1.00  0.00    -0.203 F 
ATOM     71  C   UNL     1      -8.012  -2.310  11.474  1.00  0.00     0.198 A 
ATOM     72  C   UNL     1      -7.809  -2.300  13.866  1.00  0.00     0.198 A 
ATOM     73  F   UNL     1      -5.681  -2.334  14.868  1.00  0.00    -0.203 F 
ATOM     74  F   UNL     1      -8.776  -2.266  10.374  1.00  0.00    -0.200 F 
ATOM     75  C   UNL     1      -8.602  -2.282  12.729  1.00  0.00     0.200 A 
ATOM     76  F   UNL     1      -8.379  -2.283  15.079  1.00  0.00    -0.200 F 
ATOM     77  F   UNL     1      -9.937  -2.230  12.842  1.00  0.00    -0.200 F 
ENDBRANCH  53  67
BRANCH  54  78
ATOM     78  C   UNL     1       4.136  -2.291  11.693  1.00  0.00     0.064 A 
ATOM     79  C   UNL     1       4.801  -3.128  10.787  1.00  0.00     0.173 A 
ATOM     80  C   UNL     1       4.918  -1.478  12.527  1.00  0.00     0.173 A 
ATOM     81  F   UNL     1       4.098  -3.947   9.991  1.00  0.00    -0.203 F 
ATOM     82  C   UNL     1       6.193  -3.167  10.732  1.00  0.00     0.198 A 
ATOM     83  C   UNL     1       6.309  -1.498  12.453  1.00  0.00     0.198 A 
ATOM     84  F   UNL     1       4.330  -0.666  13.417  1.00  0.00    -0.203 F 
ATOM     85  F   UNL     1       6.805  -4.013   9.892  1.00  0.00    -0.200 F 
ATOM     86  C   UNL     1       6.946  -2.348  11.561  1.00  0.00     0.200 A 
ATOM     87  F   UNL     1       7.032  -0.702  13.251  1.00  0.00    -0.200 F 
ATOM     88  F   UNL     1       8.284  -2.389  11.510  1.00  0.00    -0.200 F 
ENDBRANCH  54  78
BRANCH  66  89
ATOM     89  C   UNL     1      -0.488  -7.044  13.840  1.00  0.00     0.064 A 
ATOM     90  C   UNL     1       0.009  -7.319  15.122  1.00  0.00     0.173 A 
ATOM     91  C   UNL     1      -0.900  -8.128  13.049  1.00  0.00     0.173 A 
ATOM     92  F   UNL     1       0.430  -6.319  15.912  1.00  0.00    -0.203 F 
ATOM     93  C   UNL     1       0.108  -8.629  15.586  1.00  0.00     0.198 A 
ATOM     94  C   UNL     1      -0.827  -9.433  13.527  1.00  0.00     0.198 A 
ATOM     95  F   UNL     1      -1.390  -7.918  11.818  1.00  0.00    -0.203 F 
ATOM     96  F   UNL     1       0.625  -8.871  16.798  1.00  0.00    -0.200 F 
ATOM     97  C   UNL     1      -0.317  -9.683  14.791  1.00  0.00     0.200 A 
ATOM     98  F   UNL     1      -1.251 -10.450  12.763  1.00  0.00    -0.200 F 
ATOM     99  F   UNL     1      -0.230 -10.942  15.243  1.00  0.00    -0.200 F 
ENDBRANCH  66  89
ENDBRANCH  40  41
ENDBRANCH  33  35
ENDBRANCH  32  33
ENDBRANCH  31  32
ENDBRANCH  30  31
ENDBRANCH  29  30
ENDBRANCH  28  29
ENDBRANCH   1  28
TORSDOF 21
