REMARK SMILES C[C@H](C(=O)OCCOCCOCCOC(=O)c1ccc(-c2c3nc(c(-c4c(F)c(F)c(F)c(F)c4F)c4ccc([nH]4)c(-c4c(F)c(F)c(F)c(F)c4F)c4nc(c(-c5c(F)c(F)c(F)c(F)c5F)c5ccc2[nH]5)C=C4)C=C3)cc1)[C@@H](C)[N@@H+](C)C[C@H]1C[C@H](O)C1
REMARK SMILES IDX 8 1 7 2 6 3 5 4 3 5 4 6 2 7 1 8 80 9 81 10 82 11 83 12 84 14
REMARK SMILES IDX 85 15 89 16 86 17 87 18 88 19 9 21 10 22 11 23 12 24 13 25
REMARK SMILES IDX 14 26 15 27 16 28 17 29 18 30 79 31 19 32 78 33 20 34 21 35
REMARK SMILES IDX 22 36 72 37 23 38 77 39 71 40 73 41 24 42 76 43 70 44 69 45
REMARK SMILES IDX 25 47 57 48 37 49 56 50 38 51 41 52 55 53 74 54 39 55 40 56
REMARK SMILES IDX 54 58 75 59 42 60 26 61 27 62 35 63 28 64 29 65 33 66 36 67
REMARK SMILES IDX 30 68 31 69 34 70 32 71 58 72 59 73 67 74 60 75 61 76 65 77
REMARK SMILES IDX 68 78 62 79 63 80 66 81 64 82 43 83 44 84 52 85 45 86 46 87
REMARK SMILES IDX 50 88 53 89 47 90 48 91 51 92 49 93
REMARK H PARENT 82 13 88 20 73 46 41 57
REMARK Flexibility Score: inf
ROOT
ATOM      1  O   UNL     1       2.768  -1.348  -2.125  1.00  0.00    -0.376 OA
ENDROOT
BRANCH   1   2
ATOM      2  C   UNL     1       2.061  -2.401  -1.483  1.00  0.00     0.202 C 
BRANCH   2   3
ATOM      3  C   UNL     1       1.613  -2.214  -0.028  1.00  0.00     0.261 C 
BRANCH   3   4
ATOM      4  O   UNL     1       0.834  -1.024   0.196  1.00  0.00    -0.463 OA
BRANCH   4   5
ATOM      5  C   UNL     1       1.307  -0.157   1.118  1.00  0.00     0.314 C 
ATOM      6  O   UNL     1       2.347  -0.332   1.748  1.00  0.00    -0.252 OA
BRANCH   5   7
ATOM      7  C   UNL     1       0.495   1.124   1.295  1.00  0.00     0.154 C 
ATOM      8  C   UNL     1       1.338   2.306   0.774  1.00  0.00     0.026 C 
BRANCH   7   9
ATOM      9  C   UNL     1      -0.984   1.271   0.798  1.00  0.00     0.194 C 
ATOM     10  C   UNL     1      -1.755  -0.039   0.534  1.00  0.00     0.076 C 
BRANCH   9  11
ATOM     11  N   UNL     1      -1.762   2.294   1.538  1.00  0.00    -0.334 N 
ATOM     12  C   UNL     1      -3.114   2.566   1.088  1.00  0.00     0.332 C 
ATOM     13  H   UNL     1      -1.139   2.992   1.130  1.00  0.00     0.348 HD
BRANCH  11  14
ATOM     14  C   UNL     1      -1.438   2.724   2.894  1.00  0.00     0.265 C 
BRANCH  14  15
ATOM     15  C   UNL     1      -1.776   1.780   4.048  1.00  0.00     0.049 C 
ATOM     16  C   UNL     1      -1.639   0.247   3.970  1.00  0.00     0.041 C 
ATOM     17  C   UNL     1      -3.252   1.599   4.457  1.00  0.00     0.041 C 
ATOM     18  C   UNL     1      -2.992   0.098   4.678  1.00  0.00     0.115 C 
BRANCH  18  19
ATOM     19  O   UNL     1      -2.931  -0.333   6.048  1.00  0.00    -0.393 OA
ATOM     20  H   UNL     1      -2.309   0.229   6.536  1.00  0.00     0.210 HD
ENDBRANCH  18  19
ENDBRANCH  14  15
ENDBRANCH  11  14
ENDBRANCH   9  11
ENDBRANCH   7   9
ENDBRANCH   5   7
ENDBRANCH   4   5
ENDBRANCH   3   4
ENDBRANCH   2   3
ENDBRANCH   1   2
BRANCH   1  21
ATOM     21  C   UNL     1       2.237  -0.031  -2.085  1.00  0.00     0.188 C 
BRANCH  21  22
ATOM     22  C   UNL     1       0.744   0.200  -2.397  1.00  0.00     0.188 C 
BRANCH  22  23
ATOM     23  O   UNL     1       0.014  -0.946  -2.746  1.00  0.00    -0.376 OA
BRANCH  23  24
ATOM     24  C   UNL     1      -0.176  -1.283  -4.105  1.00  0.00     0.202 C 
BRANCH  24  25
ATOM     25  C   UNL     1       0.701  -0.785  -5.273  1.00  0.00     0.261 C 
BRANCH  25  26
ATOM     26  O   UNL     1       1.702   0.205  -5.008  1.00  0.00    -0.460 OA
BRANCH  26  27
ATOM     27  C   UNL     1       1.366   1.493  -5.270  1.00  0.00     0.338 C 
ATOM     28  O   UNL     1       0.296   1.908  -5.669  1.00  0.00    -0.246 OA
BRANCH  27  29
ATOM     29  C   UNL     1       2.463   2.369  -4.799  1.00  0.00     0.060 A 
ATOM     30  C   UNL     1       2.216   3.260  -3.744  1.00  0.00     0.016 A 
ATOM     31  C   UNL     1       3.720   2.321  -5.400  1.00  0.00     0.016 A 
ATOM     32  C   UNL     1       3.221   4.126  -3.306  1.00  0.00     0.010 A 
ATOM     33  C   UNL     1       4.718   3.205  -4.976  1.00  0.00     0.010 A 
ATOM     34  C   UNL     1       4.466   4.133  -3.947  1.00  0.00    -0.014 A 
BRANCH  34  35
ATOM     35  C   UNL     1       5.442   5.221  -3.681  1.00  0.00     0.031 A 
ATOM     36  C   UNL     1       5.503   6.379  -4.641  1.00  0.00     0.074 A 
ATOM     37  C   UNL     1       6.262   5.193  -2.615  1.00  0.00     0.049 A 
ATOM     38  N   UNL     1       6.332   7.392  -4.678  1.00  0.00    -0.248 NA
ATOM     39  C   UNL     1       4.490   6.390  -5.708  1.00  0.00     0.031 C 
ATOM     40  C   UNL     1       6.269   4.164  -1.579  1.00  0.00     0.029 A 
ATOM     41  N   UNL     1       7.262   6.058  -2.239  1.00  0.00    -0.354 N 
ATOM     42  C   UNL     1       5.951   8.149  -5.778  1.00  0.00     0.074 A 
ATOM     43  C   UNL     1       4.832   7.470  -6.395  1.00  0.00     0.031 C 
ATOM     44  C   UNL     1       7.238   4.448  -0.691  1.00  0.00     0.029 A 
ATOM     45  C   UNL     1       7.947   5.654  -1.118  1.00  0.00     0.049 A 
ATOM     46  H   UNL     1       7.468   6.888  -2.726  1.00  0.00     0.167 HD
ATOM     47  C   UNL     1       6.484   9.309  -6.232  1.00  0.00     0.037 A 
ATOM     48  C   UNL     1       9.037   6.183  -0.526  1.00  0.00     0.037 A 
ATOM     49  C   UNL     1       7.597   9.986  -5.620  1.00  0.00     0.049 A 
ATOM     50  C   UNL     1       9.669   7.427  -1.105  1.00  0.00     0.074 A 
ATOM     51  C   UNL     1       8.196  11.175  -5.996  1.00  0.00     0.029 A 
ATOM     52  N   UNL     1       8.286   9.526  -4.507  1.00  0.00    -0.354 N 
ATOM     53  N   UNL     1       9.294   8.149  -2.133  1.00  0.00    -0.248 NA
ATOM     54  C   UNL     1      10.881   7.928  -0.438  1.00  0.00     0.031 C 
ATOM     55  C   UNL     1       9.288  11.401  -5.152  1.00  0.00     0.029 A 
ATOM     56  C   UNL     1       9.325  10.391  -4.205  1.00  0.00     0.049 A 
ATOM     57  H   UNL     1       8.069   8.706  -4.007  1.00  0.00     0.167 HD
ATOM     58  C   UNL     1      10.196   9.204  -2.212  1.00  0.00     0.074 A 
ATOM     59  C   UNL     1      11.131   9.035  -1.121  1.00  0.00     0.031 C 
ATOM     60  C   UNL     1      10.243  10.223  -3.106  1.00  0.00     0.037 A 
BRANCH  47  61
ATOM     61  C   UNL     1       5.895   9.902  -7.480  1.00  0.00     0.064 A 
ATOM     62  C   UNL     1       4.612  10.471  -7.498  1.00  0.00     0.173 A 
ATOM     63  C   UNL     1       6.640   9.929  -8.669  1.00  0.00     0.173 A 
ATOM     64  F   UNL     1       3.852  10.459  -6.393  1.00  0.00    -0.203 F 
ATOM     65  C   UNL     1       4.088  11.019  -8.666  1.00  0.00     0.198 A 
ATOM     66  C   UNL     1       6.126  10.508  -9.826  1.00  0.00     0.198 A 
ATOM     67  F   UNL     1       7.874   9.402  -8.706  1.00  0.00    -0.203 F 
ATOM     68  F   UNL     1       2.841  11.510  -8.673  1.00  0.00    -0.200 F 
ATOM     69  C   UNL     1       4.848  11.044  -9.826  1.00  0.00     0.200 A 
ATOM     70  F   UNL     1       6.869  10.544 -10.941  1.00  0.00    -0.200 F 
ATOM     71  F   UNL     1       4.346  11.579 -10.947  1.00  0.00    -0.200 F 
ENDBRANCH  47  61
BRANCH  48  72
ATOM     72  C   UNL     1       9.628   5.533   0.675  1.00  0.00     0.064 A 
ATOM     73  C   UNL     1       9.628   6.178   1.921  1.00  0.00     0.173 A 
ATOM     74  C   UNL     1      10.245   4.275   0.596  1.00  0.00     0.173 A 
ATOM     75  F   UNL     1       9.081   7.397   2.043  1.00  0.00    -0.203 F 
ATOM     76  C   UNL     1      10.242   5.603   3.032  1.00  0.00     0.198 A 
ATOM     77  C   UNL     1      10.829   3.686   1.716  1.00  0.00     0.198 A 
ATOM     78  F   UNL     1      10.284   3.618  -0.572  1.00  0.00    -0.203 F 
ATOM     79  F   UNL     1      10.280   6.270   4.194  1.00  0.00    -0.200 F 
ATOM     80  C   UNL     1      10.836   4.354   2.930  1.00  0.00     0.200 A 
ATOM     81  F   UNL     1      11.396   2.476   1.615  1.00  0.00    -0.200 F 
ATOM     82  F   UNL     1      11.429   3.803   3.998  1.00  0.00    -0.200 F 
ENDBRANCH  48  72
BRANCH  60  83
ATOM     83  C   UNL     1      11.307  11.270  -2.918  1.00  0.00     0.064 A 
ATOM     84  C   UNL     1      12.665  10.999  -3.146  1.00  0.00     0.173 A 
ATOM     85  C   UNL     1      10.954  12.578  -2.549  1.00  0.00     0.173 A 
ATOM     86  F   UNL     1      13.059   9.764  -3.489  1.00  0.00    -0.203 F 
ATOM     87  C   UNL     1      13.630  11.991  -2.984  1.00  0.00     0.198 A 
ATOM     88  C   UNL     1      11.918  13.575  -2.422  1.00  0.00     0.198 A 
ATOM     89  F   UNL     1       9.670  12.895  -2.327  1.00  0.00    -0.203 F 
ATOM     90  F   UNL     1      14.926  11.696  -3.157  1.00  0.00    -0.200 F 
ATOM     91  C   UNL     1      13.256  13.279  -2.631  1.00  0.00     0.200 A 
ATOM     92  F   UNL     1      11.551  14.823  -2.099  1.00  0.00    -0.200 F 
ATOM     93  F   UNL     1      14.185  14.233  -2.486  1.00  0.00    -0.200 F 
ENDBRANCH  60  83
ENDBRANCH  34  35
ENDBRANCH  27  29
ENDBRANCH  26  27
ENDBRANCH  25  26
ENDBRANCH  24  25
ENDBRANCH  23  24
ENDBRANCH  22  23
ENDBRANCH  21  22
ENDBRANCH   1  21
TORSDOF 22
