REMARK SMILES C[C@@H](O)[C@@H](NC(=O)CN(C)C(=O)c1cccs1)C(=O)OCCOCCOCCOC(=O)c1ccc(-c2c3nc(c(-c4c(F)c(F)c(F)c(F)c4F)c4ccc([nH]4)c(-c4c(F)c(F)c(F)c(F)c4F)c4nc(c(-c5c(F)c(F)c(F)c(F)c5F)c5ccc2[nH]5)C=C4)C=C3)cc1
REMARK SMILES IDX 23 1 22 2 21 3 20 4 18 5 19 6 4 7 2 8 1 9 3 10 5 12 6 13
REMARK SMILES IDX 7 15 8 16 9 17 10 18 11 19 12 20 13 21 14 22 17 23 15 24
REMARK SMILES IDX 16 25 24 26 25 27 26 28 27 29 28 30 29 31 30 32 31 33 32 34
REMARK SMILES IDX 33 35 94 36 34 37 93 38 35 39 36 40 37 41 87 42 38 43 92 44
REMARK SMILES IDX 86 45 88 46 39 47 91 48 85 49 84 50 40 52 72 53 52 54 71 55
REMARK SMILES IDX 53 56 56 57 70 58 89 59 54 60 55 61 69 63 90 64 57 65 41 66
REMARK SMILES IDX 42 67 50 68 43 69 44 70 48 71 51 72 45 73 46 74 49 75 47 76
REMARK SMILES IDX 73 77 74 78 82 79 75 80 76 81 80 82 83 83 77 84 78 85 81 86
REMARK SMILES IDX 79 87 58 88 59 89 67 90 60 91 61 92 65 93 68 94 62 95 63 96
REMARK SMILES IDX 66 97 64 98
REMARK H PARENT 3 11 5 14 88 51 56 62
REMARK Flexibility Score: inf
ROOT
ATOM      1  O   UNL     1      -2.457   1.974   5.842  1.00  0.00    -0.376 OA
ENDROOT
BRANCH   1   2
ATOM      2  C   UNL     1      -2.886   0.647   5.534  1.00  0.00     0.202 C 
BRANCH   2   3
ATOM      3  C   UNL     1      -3.535   0.496   4.156  1.00  0.00     0.261 C 
BRANCH   3   4
ATOM      4  O   UNL     1      -2.547   0.010   3.220  1.00  0.00    -0.462 OA
BRANCH   4   5
ATOM      5  C   UNL     1      -2.815   0.211   1.906  1.00  0.00     0.331 C 
ATOM      6  O   UNL     1      -3.795   0.829   1.500  1.00  0.00    -0.250 OA
BRANCH   5   7
ATOM      7  C   UNL     1      -1.835  -0.524   0.973  1.00  0.00     0.221 C 
BRANCH   7   8
ATOM      8  C   UNL     1      -0.341  -0.133   1.081  1.00  0.00     0.145 C 
ATOM      9  C   UNL     1       0.403  -0.414  -0.230  1.00  0.00     0.041 C 
BRANCH   8  10
ATOM     10  O   UNL     1      -0.181   1.253   1.389  1.00  0.00    -0.391 OA
ATOM     11  H   UNL     1      -0.552   1.789   0.671  1.00  0.00     0.211 HD
ENDBRANCH   8  10
ENDBRANCH   7   8
BRANCH   7  12
ATOM     12  N   UNL     1      -2.034  -1.976   0.781  1.00  0.00    -0.339 N 
ATOM     13  C   UNL     1      -1.733  -3.079   1.524  1.00  0.00     0.240 C 
ATOM     14  H   UNL     1      -2.482  -2.195  -0.068  1.00  0.00     0.164 HD
ATOM     15  O   UNL     1      -1.443  -4.087   0.874  1.00  0.00    -0.273 OA
BRANCH  13  16
ATOM     16  C   UNL     1      -1.776  -3.109   3.059  1.00  0.00     0.219 C 
BRANCH  16  17
ATOM     17  N   UNL     1      -0.497  -3.057   3.773  1.00  0.00    -0.332 N 
ATOM     18  C   UNL     1      -0.088  -1.785   4.327  1.00  0.00     0.147 C 
BRANCH  17  19
ATOM     19  C   UNL     1       0.204  -4.238   4.055  1.00  0.00     0.264 C 
ATOM     20  O   UNL     1      -0.134  -5.324   3.592  1.00  0.00    -0.268 OA
BRANCH  19  21
ATOM     21  C   UNL     1       1.322  -4.097   4.979  1.00  0.00     0.092 A 
ATOM     22  C   UNL     1       1.287  -3.769   6.323  1.00  0.00     0.025 A 
ATOM     23  S   UNL     1       2.924  -4.254   4.407  1.00  0.00    -0.139 S 
ATOM     24  C   UNL     1       2.588  -3.542   6.855  1.00  0.00     0.012 A 
ATOM     25  C   UNL     1       3.571  -3.758   5.915  1.00  0.00     0.065 A 
ENDBRANCH  19  21
ENDBRANCH  17  19
ENDBRANCH  16  17
ENDBRANCH  13  16
ENDBRANCH   7  12
ENDBRANCH   5   7
ENDBRANCH   4   5
ENDBRANCH   3   4
ENDBRANCH   2   3
ENDBRANCH   1   2
BRANCH   1  26
ATOM     26  C   UNL     1      -1.500   2.572   4.968  1.00  0.00     0.188 C 
BRANCH  26  27
ATOM     27  C   UNL     1      -0.226   1.761   4.726  1.00  0.00     0.188 C 
BRANCH  27  28
ATOM     28  O   UNL     1       0.367   1.151   5.870  1.00  0.00    -0.376 OA
BRANCH  28  29
ATOM     29  C   UNL     1       0.775   2.032   6.920  1.00  0.00     0.202 C 
BRANCH  29  30
ATOM     30  C   UNL     1       1.984   2.902   6.561  1.00  0.00     0.261 C 
BRANCH  30  31
ATOM     31  O   UNL     1       1.530   4.042   5.808  1.00  0.00    -0.460 OA
BRANCH  31  32
ATOM     32  C   UNL     1       2.094   4.232   4.593  1.00  0.00     0.338 C 
ATOM     33  O   UNL     1       3.055   3.645   4.122  1.00  0.00    -0.246 OA
BRANCH  32  34
ATOM     34  C   UNL     1       1.194   5.101   3.803  1.00  0.00     0.060 A 
ATOM     35  C   UNL     1       1.016   4.802   2.446  1.00  0.00     0.016 A 
ATOM     36  C   UNL     1       0.483   6.151   4.393  1.00  0.00     0.016 A 
ATOM     37  C   UNL     1       0.134   5.556   1.673  1.00  0.00     0.010 A 
ATOM     38  C   UNL     1      -0.390   6.913   3.617  1.00  0.00     0.010 A 
ATOM     39  C   UNL     1      -0.556   6.628   2.252  1.00  0.00    -0.014 A 
BRANCH  39  40
ATOM     40  C   UNL     1      -1.354   7.547   1.413  1.00  0.00     0.031 A 
ATOM     41  C   UNL     1      -0.693   8.777   0.866  1.00  0.00     0.074 A 
ATOM     42  C   UNL     1      -2.653   7.305   1.172  1.00  0.00     0.049 A 
ATOM     43  N   UNL     1      -1.215   9.773   0.199  1.00  0.00    -0.248 NA
ATOM     44  C   UNL     1       0.755   8.900   1.104  1.00  0.00     0.031 C 
ATOM     45  C   UNL     1      -3.392   6.125   1.615  1.00  0.00     0.029 A 
ATOM     46  N   UNL     1      -3.586   8.058   0.505  1.00  0.00    -0.354 N 
ATOM     47  C   UNL     1      -0.163  10.637  -0.065  1.00  0.00     0.074 A 
ATOM     48  C   UNL     1       1.024  10.062   0.529  1.00  0.00     0.031 C 
ATOM     49  C   UNL     1      -4.674   6.245   1.229  1.00  0.00     0.029 A 
ATOM     50  C   UNL     1      -4.849   7.523   0.541  1.00  0.00     0.049 A 
ATOM     51  H   UNL     1      -3.370   8.901   0.045  1.00  0.00     0.167 HD
ATOM     52  C   UNL     1      -0.187  11.806  -0.746  1.00  0.00     0.037 A 
ATOM     53  C   UNL     1      -6.015   8.029   0.097  1.00  0.00     0.037 A 
ATOM     54  C   UNL     1      -1.367  12.386  -1.323  1.00  0.00     0.049 A 
ATOM     55  C   UNL     1      -6.032   9.383  -0.562  1.00  0.00     0.074 A 
ATOM     56  C   UNL     1      -1.489  13.552  -2.056  1.00  0.00     0.029 A 
ATOM     57  N   UNL     1      -2.638  11.842  -1.216  1.00  0.00    -0.354 N 
ATOM     58  N   UNL     1      -5.031  10.187  -0.827  1.00  0.00    -0.248 NA
ATOM     59  C   UNL     1      -7.345   9.906  -0.968  1.00  0.00     0.031 C 
ATOM     60  C   UNL     1      -2.843  13.735  -2.362  1.00  0.00     0.029 A 
ATOM     61  C   UNL     1      -3.557  12.667  -1.842  1.00  0.00     0.049 A 
ATOM     62  H   UNL     1      -2.855  10.996  -0.763  1.00  0.00     0.167 HD
ATOM     63  C   UNL     1      -5.589  11.302  -1.439  1.00  0.00     0.074 A 
ATOM     64  C   UNL     1      -7.016  11.068  -1.516  1.00  0.00     0.031 C 
ATOM     65  C   UNL     1      -4.974  12.419  -1.896  1.00  0.00     0.037 A 
BRANCH  52  66
ATOM     66  C   UNL     1       1.109  12.541  -0.880  1.00  0.00     0.064 A 
ATOM     67  C   UNL     1       2.086  12.133  -1.798  1.00  0.00     0.173 A 
ATOM     68  C   UNL     1       1.371  13.669  -0.090  1.00  0.00     0.173 A 
ATOM     69  F   UNL     1       1.886  11.047  -2.559  1.00  0.00    -0.203 F 
ATOM     70  C   UNL     1       3.291  12.821  -1.910  1.00  0.00     0.198 A 
ATOM     71  C   UNL     1       2.570  14.364  -0.215  1.00  0.00     0.198 A 
ATOM     72  F   UNL     1       0.467  14.091   0.807  1.00  0.00    -0.203 F 
ATOM     73  F   UNL     1       4.228  12.395  -2.768  1.00  0.00    -0.200 F 
ATOM     74  C   UNL     1       3.530  13.938  -1.121  1.00  0.00     0.200 A 
ATOM     75  F   UNL     1       2.801  15.441   0.547  1.00  0.00    -0.200 F 
ATOM     76  F   UNL     1       4.692  14.597  -1.227  1.00  0.00    -0.200 F 
ENDBRANCH  52  66
BRANCH  53  77
ATOM     77  C   UNL     1      -7.275   7.272   0.296  1.00  0.00     0.064 A 
ATOM     78  C   UNL     1      -7.929   6.665  -0.783  1.00  0.00     0.173 A 
ATOM     79  C   UNL     1      -7.862   7.164   1.565  1.00  0.00     0.173 A 
ATOM     80  F   UNL     1      -7.420   6.771  -2.019  1.00  0.00    -0.203 F 
ATOM     81  C   UNL     1      -9.131   5.984  -0.602  1.00  0.00     0.198 A 
ATOM     82  C   UNL     1      -9.054   6.467   1.748  1.00  0.00     0.198 A 
ATOM     83  F   UNL     1      -7.277   7.739   2.626  1.00  0.00    -0.203 F 
ATOM     84  F   UNL     1      -9.758   5.444  -1.656  1.00  0.00    -0.200 F 
ATOM     85  C   UNL     1      -9.690   5.882   0.663  1.00  0.00     0.200 A 
ATOM     86  F   UNL     1      -9.591   6.372   2.972  1.00  0.00    -0.200 F 
ATOM     87  F   UNL     1     -10.849   5.232   0.836  1.00  0.00    -0.200 F 
ENDBRANCH  53  77
BRANCH  65  88
ATOM     88  C   UNL     1      -5.838  13.472  -2.520  1.00  0.00     0.064 A 
ATOM     89  C   UNL     1      -6.604  14.342  -1.732  1.00  0.00     0.173 A 
ATOM     90  C   UNL     1      -5.860  13.645  -3.911  1.00  0.00     0.173 A 
ATOM     91  F   UNL     1      -6.625  14.202  -0.398  1.00  0.00    -0.203 F 
ATOM     92  C   UNL     1      -7.370  15.345  -2.317  1.00  0.00     0.198 A 
ATOM     93  C   UNL     1      -6.613  14.661  -4.491  1.00  0.00     0.198 A 
ATOM     94  F   UNL     1      -5.141  12.838  -4.704  1.00  0.00    -0.203 F 
ATOM     95  F   UNL     1      -8.116  16.151  -1.548  1.00  0.00    -0.200 F 
ATOM     96  C   UNL     1      -7.369  15.509  -3.695  1.00  0.00     0.200 A 
ATOM     97  F   UNL     1      -6.605  14.823  -5.822  1.00  0.00    -0.200 F 
ATOM     98  F   UNL     1      -8.101  16.481  -4.256  1.00  0.00    -0.200 F 
ENDBRANCH  65  88
ENDBRANCH  39  40
ENDBRANCH  32  34
ENDBRANCH  31  32
ENDBRANCH  30  31
ENDBRANCH  29  30
ENDBRANCH  28  29
ENDBRANCH  27  28
ENDBRANCH  26  27
ENDBRANCH   1  26
TORSDOF 24
