REMARK SMILES O=C(Cc1ccccc1Nc1c(Cl)cccc1Cl)OCCOCCOCCOC(=O)c1ccc(-c2c3nc(c(-c4c(F)c(F)c(F)c(F)c4F)c4ccc([nH]4)c(-c4c(F)c(F)c(F)c(F)c4F)c4nc(c(-c5c(F)c(F)c(F)c(F)c5F)c5ccc2[nH]5)C=C4)C=C3)cc1
REMARK SMILES IDX 23 1 22 2 21 3 20 4 19 5 2 6 1 7 3 8 4 9 5 10 9 11 6 12 8 13
REMARK SMILES IDX 7 14 10 15 11 17 12 18 17 19 13 20 14 21 16 22 18 23 15 24
REMARK SMILES IDX 24 25 25 26 26 27 27 28 28 29 29 30 30 31 31 32 32 33 93 34
REMARK SMILES IDX 33 35 92 36 34 37 35 38 36 39 86 40 37 41 91 42 85 43 87 44
REMARK SMILES IDX 38 45 90 46 84 47 83 48 39 50 71 51 51 52 70 53 52 54 55 55
REMARK SMILES IDX 69 56 88 57 53 58 54 59 68 61 89 62 56 63 40 64 41 65 49 66
REMARK SMILES IDX 42 67 43 68 47 69 50 70 44 71 45 72 48 73 46 74 72 75 73 76
REMARK SMILES IDX 81 77 74 78 75 79 79 80 82 81 76 82 77 83 80 84 78 85 57 86
REMARK SMILES IDX 58 87 66 88 59 89 60 90 64 91 67 92 61 93 62 94 65 95 63 96
REMARK H PARENT 10 16 87 49 55 60
REMARK Flexibility Score: inf
ROOT
ATOM      1  C   UNL     1       3.119   1.804  -1.038  1.00  0.00     0.188 C 
ENDROOT
BRANCH   1   2
ATOM      2  O   UNL     1       4.422   1.261  -1.144  1.00  0.00    -0.376 OA
BRANCH   2   3
ATOM      3  C   UNL     1       4.855   0.406  -0.106  1.00  0.00     0.202 C 
BRANCH   3   4
ATOM      4  C   UNL     1       4.266  -0.994  -0.253  1.00  0.00     0.261 C 
BRANCH   4   5
ATOM      5  O   UNL     1       2.826  -1.092  -0.151  1.00  0.00    -0.463 OA
BRANCH   5   6
ATOM      6  C   UNL     1       2.053  -0.885   0.934  1.00  0.00     0.310 C 
ATOM      7  O   UNL     1       0.857  -1.172   0.890  1.00  0.00    -0.252 OA
BRANCH   6   8
ATOM      8  C   UNL     1       2.620  -0.192   2.149  1.00  0.00     0.160 C 
BRANCH   8   9
ATOM      9  C   UNL     1       3.708  -0.911   2.913  1.00  0.00    -0.013 A 
ATOM     10  C   UNL     1       3.649  -2.318   2.992  1.00  0.00     0.006 A 
ATOM     11  C   UNL     1       4.711  -0.213   3.630  1.00  0.00     0.042 A 
ATOM     12  C   UNL     1       4.584  -3.036   3.728  1.00  0.00     0.000 A 
ATOM     13  C   UNL     1       5.624  -0.966   4.386  1.00  0.00     0.026 A 
ATOM     14  C   UNL     1       5.569  -2.359   4.430  1.00  0.00     0.002 A 
BRANCH  11  15
ATOM     15  N   UNL     1       4.816   1.198   3.551  1.00  0.00    -0.353 N 
ATOM     16  H   UNL     1       4.083   1.637   3.063  1.00  0.00     0.167 HD
BRANCH  15  17
ATOM     17  C   UNL     1       5.807   2.084   4.059  1.00  0.00     0.076 A 
ATOM     18  C   UNL     1       5.395   3.151   4.890  1.00  0.00     0.066 A 
ATOM     19  C   UNL     1       7.194   1.926   3.864  1.00  0.00     0.066 A 
ATOM     20  Cl  UNL     1       3.709   3.473   5.131  1.00  0.00    -0.082 Cl
ATOM     21  C   UNL     1       6.314   3.974   5.548  1.00  0.00     0.023 A 
ATOM     22  C   UNL     1       8.116   2.740   4.540  1.00  0.00     0.023 A 
ATOM     23  Cl  UNL     1       7.846   0.812   2.708  1.00  0.00    -0.082 Cl
ATOM     24  C   UNL     1       7.678   3.752   5.392  1.00  0.00     0.003 A 
ENDBRANCH  15  17
ENDBRANCH  11  15
ENDBRANCH   8   9
ENDBRANCH   6   8
ENDBRANCH   5   6
ENDBRANCH   4   5
ENDBRANCH   3   4
ENDBRANCH   2   3
ENDBRANCH   1   2
BRANCH   1  25
ATOM     25  C   UNL     1       2.368   1.773  -2.378  1.00  0.00     0.188 C 
BRANCH  25  26
ATOM     26  O   UNL     1       3.086   1.613  -3.596  1.00  0.00    -0.376 OA
BRANCH  26  27
ATOM     27  C   UNL     1       4.362   2.220  -3.756  1.00  0.00     0.202 C 
BRANCH  27  28
ATOM     28  C   UNL     1       4.429   3.748  -3.685  1.00  0.00     0.261 C 
BRANCH  28  29
ATOM     29  O   UNL     1       4.007   4.302  -2.423  1.00  0.00    -0.460 OA
BRANCH  29  30
ATOM     30  C   UNL     1       2.917   5.105  -2.485  1.00  0.00     0.338 C 
ATOM     31  O   UNL     1       2.286   5.420  -3.478  1.00  0.00    -0.246 OA
BRANCH  30  32
ATOM     32  C   UNL     1       2.466   5.494  -1.132  1.00  0.00     0.060 A 
ATOM     33  C   UNL     1       1.152   5.171  -0.771  1.00  0.00     0.016 A 
ATOM     34  C   UNL     1       3.251   6.288  -0.292  1.00  0.00     0.016 A 
ATOM     35  C   UNL     1       0.597   5.694   0.397  1.00  0.00     0.010 A 
ATOM     36  C   UNL     1       2.687   6.822   0.876  1.00  0.00     0.010 A 
ATOM     37  C   UNL     1       1.342   6.566   1.202  1.00  0.00    -0.014 A 
BRANCH  37  38
ATOM     38  C   UNL     1       0.643   7.333   2.268  1.00  0.00     0.031 A 
ATOM     39  C   UNL     1       0.160   8.729   1.971  1.00  0.00     0.074 A 
ATOM     40  C   UNL     1       0.369   6.780   3.463  1.00  0.00     0.049 A 
ATOM     41  N   UNL     1      -0.523   9.553   2.727  1.00  0.00    -0.248 NA
ATOM     42  C   UNL     1       0.484   9.264   0.640  1.00  0.00     0.031 C 
ATOM     43  C   UNL     1       0.748   5.432   3.874  1.00  0.00     0.029 A 
ATOM     44  N   UNL     1      -0.296   7.291   4.551  1.00  0.00    -0.354 N 
ATOM     45  C   UNL     1      -0.729  10.690   1.958  1.00  0.00     0.074 A 
ATOM     46  C   UNL     1      -0.056  10.473   0.695  1.00  0.00     0.031 C 
ATOM     47  C   UNL     1       0.326   5.226   5.133  1.00  0.00     0.029 A 
ATOM     48  C   UNL     1      -0.346   6.430   5.619  1.00  0.00     0.049 A 
ATOM     49  H   UNL     1      -0.699   8.189   4.564  1.00  0.00     0.167 HD
ATOM     50  C   UNL     1      -1.432  11.807   2.263  1.00  0.00     0.037 A 
ATOM     51  C   UNL     1      -0.867   6.597   6.851  1.00  0.00     0.037 A 
ATOM     52  C   UNL     1      -2.093  12.043   3.521  1.00  0.00     0.049 A 
ATOM     53  C   UNL     1      -1.587   7.876   7.192  1.00  0.00     0.074 A 
ATOM     54  C   UNL     1      -2.824  13.149   3.920  1.00  0.00     0.029 A 
ATOM     55  N   UNL     1      -2.096  11.157   4.588  1.00  0.00    -0.354 N 
ATOM     56  N   UNL     1      -1.803   8.931   6.445  1.00  0.00    -0.248 NA
ATOM     57  C   UNL     1      -2.155   7.977   8.545  1.00  0.00     0.031 C 
ATOM     58  C   UNL     1      -3.236  12.950   5.243  1.00  0.00     0.029 A 
ATOM     59  C   UNL     1      -2.802  11.700   5.651  1.00  0.00     0.049 A 
ATOM     60  H   UNL     1      -1.663  10.274   4.590  1.00  0.00     0.167 HD
ATOM     61  C   UNL     1      -2.549   9.806   7.225  1.00  0.00     0.074 A 
ATOM     62  C   UNL     1      -2.767   9.151   8.497  1.00  0.00     0.031 C 
ATOM     63  C   UNL     1      -3.012  11.043   6.915  1.00  0.00     0.037 A 
BRANCH  50  64
ATOM     64  C   UNL     1      -1.522  12.873   1.211  1.00  0.00     0.064 A 
ATOM     65  C   UNL     1      -2.318  12.704   0.068  1.00  0.00     0.173 A 
ATOM     66  C   UNL     1      -0.838  14.088   1.363  1.00  0.00     0.173 A 
ATOM     67  F   UNL     1      -2.981  11.555  -0.130  1.00  0.00    -0.203 F 
ATOM     68  C   UNL     1      -2.410  13.706  -0.895  1.00  0.00     0.198 A 
ATOM     69  C   UNL     1      -0.953  15.097   0.411  1.00  0.00     0.198 A 
ATOM     70  F   UNL     1      -0.067  14.300   2.440  1.00  0.00    -0.203 F 
ATOM     71  F   UNL     1      -3.145  13.508  -1.998  1.00  0.00    -0.200 F 
ATOM     72  C   UNL     1      -1.733  14.904  -0.719  1.00  0.00     0.200 A 
ATOM     73  F   UNL     1      -0.307  16.259   0.587  1.00  0.00    -0.200 F 
ATOM     74  F   UNL     1      -1.829  15.871  -1.642  1.00  0.00    -0.200 F 
ENDBRANCH  50  64
BRANCH  51  75
ATOM     75  C   UNL     1      -0.723   5.522   7.868  1.00  0.00     0.064 A 
ATOM     76  C   UNL     1      -1.830   4.789   8.315  1.00  0.00     0.173 A 
ATOM     77  C   UNL     1       0.525   5.237   8.441  1.00  0.00     0.173 A 
ATOM     78  F   UNL     1      -3.049   5.047   7.818  1.00  0.00    -0.203 F 
ATOM     79  C   UNL     1      -1.699   3.826   9.314  1.00  0.00     0.198 A 
ATOM     80  C   UNL     1       0.660   4.255   9.420  1.00  0.00     0.198 A 
ATOM     81  F   UNL     1       1.615   5.915   8.052  1.00  0.00    -0.203 F 
ATOM     82  F   UNL     1      -2.782   3.179   9.763  1.00  0.00    -0.200 F 
ATOM     83  C   UNL     1      -0.454   3.557   9.863  1.00  0.00     0.200 A 
ATOM     84  F   UNL     1       1.866   3.995   9.943  1.00  0.00    -0.200 F 
ATOM     85  F   UNL     1      -0.329   2.636  10.827  1.00  0.00    -0.200 F 
ENDBRANCH  51  75
BRANCH  63  86
ATOM     86  C   UNL     1      -3.820  11.758   7.960  1.00  0.00     0.064 A 
ATOM     87  C   UNL     1      -3.229  12.266   9.127  1.00  0.00     0.173 A 
ATOM     88  C   UNL     1      -5.199  11.953   7.786  1.00  0.00     0.173 A 
ATOM     89  F   UNL     1      -1.917  12.095   9.348  1.00  0.00    -0.203 F 
ATOM     90  C   UNL     1      -3.994  12.911  10.096  1.00  0.00     0.198 A 
ATOM     91  C   UNL     1      -5.955  12.624   8.743  1.00  0.00     0.198 A 
ATOM     92  F   UNL     1      -5.813  11.495   6.685  1.00  0.00    -0.203 F 
ATOM     93  F   UNL     1      -3.417  13.338  11.228  1.00  0.00    -0.200 F 
ATOM     94  C   UNL     1      -5.355  13.094   9.902  1.00  0.00     0.200 A 
ATOM     95  F   UNL     1      -7.268  12.811   8.548  1.00  0.00    -0.200 F 
ATOM     96  F   UNL     1      -6.089  13.713  10.836  1.00  0.00    -0.200 F 
ENDBRANCH  63  86
ENDBRANCH  37  38
ENDBRANCH  30  32
ENDBRANCH  29  30
ENDBRANCH  28  29
ENDBRANCH  27  28
ENDBRANCH  26  27
ENDBRANCH  25  26
ENDBRANCH   1  25
TORSDOF 20
