REMARK SMILES C[C@H](Oc1ccc(-c2ccccc2)cc1)C(=O)N[C@H](C)C(=O)OCCOCCOCCOC(=O)c1ccc(-c2c3nc(c(-c4c(F)c(F)c(F)c(F)c4F)c4ccc([nH]4)c(-c4c(F)c(F)c(F)c(F)c4F)c4nc(c(-c5c(F)c(F)c(F)c(F)c5F)c5ccc2[nH]5)C=C4)C=C3)cc1
REMARK SMILES IDX 26 1 25 2 24 3 23 4 21 5 22 6 19 7 20 8 18 9 16 10 17 11
REMARK SMILES IDX 2 13 1 14 3 15 4 16 5 17 15 18 6 19 14 20 7 21 8 22 9 23
REMARK SMILES IDX 13 24 10 25 12 26 11 27 27 28 28 29 29 30 30 31 31 32 32 33
REMARK SMILES IDX 33 34 34 35 35 36 36 37 97 38 37 39 96 40 38 41 39 42 40 43
REMARK SMILES IDX 90 44 41 45 95 46 89 47 91 48 42 49 94 50 88 51 87 52 43 54
REMARK SMILES IDX 75 55 55 56 74 57 56 58 59 59 73 60 92 61 57 62 58 63 72 65
REMARK SMILES IDX 93 66 60 67 44 68 45 69 53 70 46 71 47 72 51 73 54 74 48 75
REMARK SMILES IDX 49 76 52 77 50 78 76 79 77 80 85 81 78 82 79 83 83 84 86 85
REMARK SMILES IDX 80 86 81 87 84 88 82 89 61 90 62 91 70 92 63 93 64 94 68 95
REMARK SMILES IDX 71 96 65 97 66 98 69 99 67 100
REMARK H PARENT 18 12 91 53 59 64
REMARK Flexibility Score: inf
ROOT
ATOM      1  O   UNL     1      -1.161   3.218  -6.070  1.00  0.00    -0.376 OA
ENDROOT
BRANCH   1   2
ATOM      2  C   UNL     1      -2.723   2.578  -6.452  1.00  0.00     0.202 C 
BRANCH   2   3
ATOM      3  C   UNL     1      -3.952   1.897  -5.390  1.00  0.00     0.261 C 
BRANCH   3   4
ATOM      4  O   UNL     1      -3.781   0.863  -4.279  1.00  0.00    -0.462 OA
BRANCH   4   5
ATOM      5  C   UNL     1      -3.294   0.970  -2.984  1.00  0.00     0.328 C 
ATOM      6  O   UNL     1      -3.129   1.998  -2.343  1.00  0.00    -0.250 OA
BRANCH   5   7
ATOM      7  C   UNL     1      -2.773  -0.322  -2.329  1.00  0.00     0.189 C 
ATOM      8  C   UNL     1      -3.336  -0.316  -0.897  1.00  0.00     0.043 C 
BRANCH   7   9
ATOM      9  N   UNL     1      -3.003  -1.538  -3.080  1.00  0.00    -0.340 N 
ATOM     10  C   UNL     1      -2.338  -1.903  -4.229  1.00  0.00     0.261 C 
ATOM     11  O   UNL     1      -2.437  -3.088  -4.567  1.00  0.00    -0.271 OA
ATOM     12  H   UNL     1      -3.692  -2.155  -2.741  1.00  0.00     0.164 HD
BRANCH  10  13
ATOM     13  C   UNL     1      -1.495  -0.866  -5.093  1.00  0.00     0.258 C 
ATOM     14  C   UNL     1      -0.059  -1.346  -5.180  1.00  0.00     0.064 C 
BRANCH  13  15
ATOM     15  O   UNL     1      -1.530   0.433  -4.514  1.00  0.00    -0.481 OA
BRANCH  15  16
ATOM     16  C   UNL     1      -1.153   1.650  -4.983  1.00  0.00     0.120 A 
ATOM     17  C   UNL     1       0.211   1.806  -6.104  1.00  0.00     0.047 A 
ATOM     18  C   UNL     1      -2.018   3.198  -4.436  1.00  0.00     0.047 A 
ATOM     19  C   UNL     1       0.726   3.400  -6.656  1.00  0.00     0.012 A 
ATOM     20  C   UNL     1      -1.505   4.824  -5.089  1.00  0.00     0.012 A 
ATOM     21  C   UNL     1      -0.082   4.900  -6.145  1.00  0.00    -0.018 A 
BRANCH  21  22
ATOM     22  C   UNL     1       0.733   6.133  -6.310  1.00  0.00    -0.018 A 
ATOM     23  C   UNL     1       1.059   6.608  -7.584  1.00  0.00     0.009 A 
ATOM     24  C   UNL     1       1.410   6.714  -5.216  1.00  0.00     0.009 A 
ATOM     25  C   UNL     1       2.025   7.610  -7.764  1.00  0.00     0.001 A 
ATOM     26  C   UNL     1       2.383   7.710  -5.391  1.00  0.00     0.001 A 
ATOM     27  C   UNL     1       2.694   8.154  -6.670  1.00  0.00     0.000 A 
ENDBRANCH  21  22
ENDBRANCH  15  16
ENDBRANCH  13  15
ENDBRANCH  10  13
ENDBRANCH   7   9
ENDBRANCH   5   7
ENDBRANCH   4   5
ENDBRANCH   3   4
ENDBRANCH   2   3
ENDBRANCH   1   2
BRANCH   1  28
ATOM     28  C   UNL     1      -0.028   3.372  -4.434  1.00  0.00     0.188 C 
BRANCH  28  29
ATOM     29  C   UNL     1      -0.381   4.284  -2.953  1.00  0.00     0.188 C 
BRANCH  29  30
ATOM     30  O   UNL     1      -1.375   3.924  -1.979  1.00  0.00    -0.376 OA
BRANCH  30  31
ATOM     31  C   UNL     1      -2.646   4.596  -1.779  1.00  0.00     0.202 C 
BRANCH  31  32
ATOM     32  C   UNL     1      -2.767   6.120  -1.835  1.00  0.00     0.261 C 
BRANCH  32  33
ATOM     33  O   UNL     1      -1.603   6.785  -1.372  1.00  0.00    -0.460 OA
BRANCH  33  34
ATOM     34  C   UNL     1      -1.135   6.303  -0.196  1.00  0.00     0.338 C 
ATOM     35  O   UNL     1      -1.787   5.870   0.735  1.00  0.00    -0.246 OA
BRANCH  34  36
ATOM     36  C   UNL     1       0.317   6.119  -0.392  1.00  0.00     0.060 A 
ATOM     37  C   UNL     1       0.906   4.937   0.074  1.00  0.00     0.016 A 
ATOM     38  C   UNL     1       1.046   7.021  -1.177  1.00  0.00     0.016 A 
ATOM     39  C   UNL     1       2.247   4.679  -0.202  1.00  0.00     0.010 A 
ATOM     40  C   UNL     1       2.382   6.762  -1.457  1.00  0.00     0.010 A 
ATOM     41  C   UNL     1       2.998   5.616  -0.925  1.00  0.00    -0.014 A 
BRANCH  41  42
ATOM     42  C   UNL     1       4.472   5.591  -0.825  1.00  0.00     0.031 A 
ATOM     43  C   UNL     1       5.080   6.470   0.233  1.00  0.00     0.074 A 
ATOM     44  C   UNL     1       5.245   4.824  -1.609  1.00  0.00     0.049 A 
ATOM     45  N   UNL     1       6.335   6.670   0.535  1.00  0.00    -0.248 NA
ATOM     46  C   UNL     1       4.132   7.245   1.053  1.00  0.00     0.031 C 
ATOM     47  C   UNL     1       4.774   3.911  -2.646  1.00  0.00     0.029 A 
ATOM     48  N   UNL     1       6.611   4.698  -1.639  1.00  0.00    -0.354 N 
ATOM     49  C   UNL     1       6.321   7.600   1.566  1.00  0.00     0.074 A 
ATOM     50  C   UNL     1       4.945   7.968   1.800  1.00  0.00     0.031 C 
ATOM     51  C   UNL     1       5.838   3.302  -3.202  1.00  0.00     0.029 A 
ATOM     52  C   UNL     1       7.063   3.806  -2.579  1.00  0.00     0.049 A 
ATOM     53  H   UNL     1       7.211   5.200  -1.041  1.00  0.00     0.167 HD
ATOM     54  C   UNL     1       7.361   8.092   2.274  1.00  0.00     0.037 A 
ATOM     55  C   UNL     1       8.325   3.450  -2.891  1.00  0.00     0.037 A 
ATOM     56  C   UNL     1       8.727   7.718   2.051  1.00  0.00     0.049 A 
ATOM     57  C   UNL     1       9.479   4.070  -2.137  1.00  0.00     0.074 A 
ATOM     58  C   UNL     1       9.856   8.131   2.733  1.00  0.00     0.029 A 
ATOM     59  N   UNL     1       9.150   6.848   1.057  1.00  0.00    -0.354 N 
ATOM     60  N   UNL     1       9.462   4.913  -1.133  1.00  0.00    -0.248 NA
ATOM     61  C   UNL     1      10.831   3.683  -2.567  1.00  0.00     0.031 C 
ATOM     62  C   UNL     1      10.970   7.559   2.111  1.00  0.00     0.029 A 
ATOM     63  C   UNL     1      10.529   6.738   1.083  1.00  0.00     0.049 A 
ATOM     64  H   UNL     1       8.557   6.378   0.427  1.00  0.00     0.167 HD
ATOM     65  C   UNL     1      10.791   5.128  -0.787  1.00  0.00     0.074 A 
ATOM     66  C   UNL     1      11.590   4.321  -1.686  1.00  0.00     0.031 C 
ATOM     67  C   UNL     1      11.306   5.918   0.188  1.00  0.00     0.037 A 
BRANCH  54  68
ATOM     68  C   UNL     1       7.043   9.116   3.322  1.00  0.00     0.064 A 
ATOM     69  C   UNL     1       6.330   8.790   4.488  1.00  0.00     0.173 A 
ATOM     70  C   UNL     1       7.423  10.452   3.136  1.00  0.00     0.173 A 
ATOM     71  F   UNL     1       5.919   7.531   4.699  1.00  0.00    -0.203 F 
ATOM     72  C   UNL     1       5.971   9.775   5.404  1.00  0.00     0.198 A 
ATOM     73  C   UNL     1       7.094  11.427   4.073  1.00  0.00     0.198 A 
ATOM     74  F   UNL     1       8.100  10.816   2.036  1.00  0.00    -0.203 F 
ATOM     75  F   UNL     1       5.222   9.455   6.468  1.00  0.00    -0.200 F 
ATOM     76  C   UNL     1       6.357  11.090   5.198  1.00  0.00     0.200 A 
ATOM     77  F   UNL     1       7.476  12.696   3.877  1.00  0.00    -0.200 F 
ATOM     78  F   UNL     1       6.005  12.038   6.077  1.00  0.00    -0.200 F 
ENDBRANCH  54  68
BRANCH  55  79
ATOM     79  C   UNL     1       8.578   2.440  -3.953  1.00  0.00     0.064 A 
ATOM     80  C   UNL     1       9.106   1.181  -3.635  1.00  0.00     0.173 A 
ATOM     81  C   UNL     1       8.331   2.721  -5.304  1.00  0.00     0.173 A 
ATOM     82  F   UNL     1       9.389   0.876  -2.360  1.00  0.00    -0.203 F 
ATOM     83  C   UNL     1       9.394   0.247  -4.629  1.00  0.00     0.198 A 
ATOM     84  C   UNL     1       8.594   1.777  -6.295  1.00  0.00     0.198 A 
ATOM     85  F   UNL     1       7.835   3.914  -5.663  1.00  0.00    -0.203 F 
ATOM     86  F   UNL     1       9.944  -0.930  -4.302  1.00  0.00    -0.200 F 
ATOM     87  C   UNL     1       9.132   0.544  -5.958  1.00  0.00     0.200 A 
ATOM     88  F   UNL     1       8.335   2.065  -7.578  1.00  0.00    -0.200 F 
ATOM     89  F   UNL     1       9.409  -0.353  -6.914  1.00  0.00    -0.200 F 
ENDBRANCH  55  79
BRANCH  67  90
ATOM     90  C   UNL     1      12.798   5.920   0.373  1.00  0.00     0.064 A 
ATOM     91  C   UNL     1      13.659   6.523  -0.555  1.00  0.00     0.173 A 
ATOM     92  C   UNL     1      13.366   5.367   1.532  1.00  0.00     0.173 A 
ATOM     93  F   UNL     1      13.168   7.057  -1.683  1.00  0.00    -0.203 F 
ATOM     94  C   UNL     1      15.035   6.552  -0.341  1.00  0.00     0.198 A 
ATOM     95  C   UNL     1      14.738   5.428   1.759  1.00  0.00     0.198 A 
ATOM     96  F   UNL     1      12.587   4.788   2.458  1.00  0.00    -0.203 F 
ATOM     97  F   UNL     1      15.842   7.094  -1.263  1.00  0.00    -0.200 F 
ATOM     98  C   UNL     1      15.572   6.013   0.819  1.00  0.00     0.200 A 
ATOM     99  F   UNL     1      15.252   4.925   2.890  1.00  0.00    -0.200 F 
ATOM    100  F   UNL     1      16.895   6.055   1.029  1.00  0.00    -0.200 F 
ENDBRANCH  67  90
ENDBRANCH  41  42
ENDBRANCH  34  36
ENDBRANCH  33  34
ENDBRANCH  32  33
ENDBRANCH  31  32
ENDBRANCH  30  31
ENDBRANCH  29  30
ENDBRANCH  28  29
ENDBRANCH   1  28
TORSDOF 22
