REMARK SMILES O=C(OCCOCCOCCOC(=O)c1nccnc1C(=O)Nc1ccc(-n2cncn2)c(Cl)c1)c1ccc(-c2c3nc(c(-c4c(F)c(F)c(F)c(F)c4F)c4ccc([nH]4)c(-c4c(F)c(F)c(F)c(F)c4F)c4nc(c(-c5c(F)c(F)c(F)c(F)c5F)c5ccc2[nH]5)C=C4)C=C3)cc1
REMARK SMILES IDX 8 1 7 2 6 3 5 4 4 5 3 6 2 7 1 8 36 9 37 10 98 11 38 12 97 13
REMARK SMILES IDX 39 14 40 15 41 16 91 17 42 18 96 19 90 20 92 21 43 22 95 23
REMARK SMILES IDX 89 24 88 25 44 27 76 28 56 29 75 30 57 31 60 32 74 33 93 34
REMARK SMILES IDX 58 35 59 36 73 38 94 39 61 40 45 41 46 42 54 43 47 44 48 45
REMARK SMILES IDX 52 46 55 47 49 48 50 49 53 50 51 51 77 52 78 53 86 54 79 55
REMARK SMILES IDX 80 56 84 57 87 58 81 59 82 60 85 61 83 62 62 63 63 64 71 65
REMARK SMILES IDX 64 66 65 67 69 68 72 69 66 70 67 71 70 72 68 73 9 74 10 75
REMARK SMILES IDX 11 76 12 77 13 78 14 79 15 80 16 81 20 82 17 83 19 84 18 85
REMARK SMILES IDX 21 86 22 87 23 88 24 90 25 91 35 92 26 93 33 94 27 95 34 96
REMARK SMILES IDX 28 97 29 98 32 99 30 100 31 101
REMARK H PARENT 92 26 60 37 23 89
REMARK Flexibility Score: inf
ROOT
ATOM      1  C   UNL     1       3.110  -0.743  -1.577  1.00  0.00     0.188 C 
ENDROOT
BRANCH   1   2
ATOM      2  C   UNL     1       3.575   0.426  -0.705  1.00  0.00     0.188 C 
BRANCH   2   3
ATOM      3  O   UNL     1       4.812   0.287  -0.002  1.00  0.00    -0.376 OA
BRANCH   3   4
ATOM      4  C   UNL     1       5.210  -1.000   0.467  1.00  0.00     0.202 C 
BRANCH   4   5
ATOM      5  C   UNL     1       4.494  -1.573   1.690  1.00  0.00     0.261 C 
BRANCH   5   6
ATOM      6  O   UNL     1       3.094  -1.789   1.449  1.00  0.00    -0.460 OA
BRANCH   6   7
ATOM      7  C   UNL     1       2.064  -0.920   1.513  1.00  0.00     0.338 C 
ATOM      8  O   UNL     1       1.001  -1.229   0.979  1.00  0.00    -0.246 OA
BRANCH   7   9
ATOM      9  C   UNL     1       2.141   0.383   2.233  1.00  0.00     0.060 A 
ATOM     10  C   UNL     1       3.307   0.994   2.702  1.00  0.00     0.016 A 
ATOM     11  C   UNL     1       0.914   1.037   2.425  1.00  0.00     0.016 A 
ATOM     12  C   UNL     1       3.228   1.992   3.640  1.00  0.00     0.010 A 
ATOM     13  C   UNL     1       0.823   2.081   3.314  1.00  0.00     0.010 A 
ATOM     14  C   UNL     1       1.970   2.444   4.005  1.00  0.00    -0.014 A 
BRANCH  14  15
ATOM     15  C   UNL     1       1.901   3.387   5.091  1.00  0.00     0.031 A 
ATOM     16  C   UNL     1       2.486   4.693   4.724  1.00  0.00     0.074 A 
ATOM     17  C   UNL     1       1.342   3.009   6.256  1.00  0.00     0.049 A 
ATOM     18  N   UNL     1       3.567   5.218   5.195  1.00  0.00    -0.248 NA
ATOM     19  C   UNL     1       1.956   5.383   3.536  1.00  0.00     0.031 C 
ATOM     20  C   UNL     1       0.630   1.757   6.536  1.00  0.00     0.029 A 
ATOM     21  N   UNL     1       1.194   3.710   7.414  1.00  0.00    -0.354 N 
ATOM     22  C   UNL     1       3.688   6.444   4.548  1.00  0.00     0.074 A 
ATOM     23  C   UNL     1       2.836   6.375   3.394  1.00  0.00     0.031 C 
ATOM     24  C   UNL     1      -0.084   1.890   7.674  1.00  0.00     0.029 A 
ATOM     25  C   UNL     1       0.219   3.177   8.264  1.00  0.00     0.049 A 
ATOM     26  H   UNL     1       1.722   4.511   7.632  1.00  0.00     0.167 HD
ATOM     27  C   UNL     1       4.160   7.509   5.252  1.00  0.00     0.037 A 
ATOM     28  C   UNL     1      -0.352   3.841   9.303  1.00  0.00     0.037 A 
ATOM     29  C   UNL     1       4.980   7.049   6.355  1.00  0.00     0.049 A 
ATOM     30  C   UNL     1       0.569   4.955   9.660  1.00  0.00     0.074 A 
ATOM     31  C   UNL     1       6.114   6.266   6.467  1.00  0.00     0.029 A 
ATOM     32  N   UNL     1       4.415   7.065   7.606  1.00  0.00    -0.354 N 
ATOM     33  N   UNL     1       1.753   4.766  10.177  1.00  0.00    -0.248 NA
ATOM     34  C   UNL     1       0.389   6.216   8.955  1.00  0.00     0.031 C 
ATOM     35  C   UNL     1       5.923   5.494   7.654  1.00  0.00     0.029 A 
ATOM     36  C   UNL     1       4.733   5.904   8.253  1.00  0.00     0.049 A 
ATOM     37  H   UNL     1       3.869   7.796   7.977  1.00  0.00     0.167 HD
ATOM     38  C   UNL     1       2.580   5.634   9.477  1.00  0.00     0.074 A 
ATOM     39  C   UNL     1       1.672   6.546   8.782  1.00  0.00     0.031 C 
ATOM     40  C   UNL     1       3.899   5.335   9.285  1.00  0.00     0.037 A 
BRANCH  27  41
ATOM     41  C   UNL     1       3.429   8.845   5.294  1.00  0.00     0.064 A 
ATOM     42  C   UNL     1       3.930   9.838   6.161  1.00  0.00     0.173 A 
ATOM     43  C   UNL     1       2.111   9.068   4.831  1.00  0.00     0.173 A 
ATOM     44  F   UNL     1       5.177   9.753   6.647  1.00  0.00    -0.203 F 
ATOM     45  C   UNL     1       3.123  10.868   6.651  1.00  0.00     0.198 A 
ATOM     46  C   UNL     1       1.322  10.118   5.293  1.00  0.00     0.198 A 
ATOM     47  F   UNL     1       1.482   8.249   3.984  1.00  0.00    -0.203 F 
ATOM     48  F   UNL     1       3.599  11.687   7.599  1.00  0.00    -0.200 F 
ATOM     49  C   UNL     1       1.812  10.993   6.235  1.00  0.00     0.200 A 
ATOM     50  F   UNL     1       0.052  10.217   4.877  1.00  0.00    -0.200 F 
ATOM     51  F   UNL     1       1.012  11.925   6.765  1.00  0.00    -0.200 F 
ENDBRANCH  27  41
BRANCH  28  52
ATOM     52  C   UNL     1      -1.772   3.809   9.738  1.00  0.00     0.064 A 
ATOM     53  C   UNL     1      -2.167   4.389  10.955  1.00  0.00     0.173 A 
ATOM     54  C   UNL     1      -2.810   3.460   8.851  1.00  0.00     0.173 A 
ATOM     55  F   UNL     1      -1.244   4.798  11.838  1.00  0.00    -0.203 F 
ATOM     56  C   UNL     1      -3.514   4.627  11.254  1.00  0.00     0.198 A 
ATOM     57  C   UNL     1      -4.153   3.690   9.153  1.00  0.00     0.198 A 
ATOM     58  F   UNL     1      -2.543   2.978   7.629  1.00  0.00    -0.203 F 
ATOM     59  F   UNL     1      -3.847   5.242  12.399  1.00  0.00    -0.200 F 
ATOM     60  C   UNL     1      -4.505   4.286  10.349  1.00  0.00     0.200 A 
ATOM     61  F   UNL     1      -5.097   3.389   8.251  1.00  0.00    -0.200 F 
ATOM     62  F   UNL     1      -5.789   4.569  10.607  1.00  0.00    -0.200 F 
ENDBRANCH  28  52
BRANCH  40  63
ATOM     63  C   UNL     1       4.481   4.206  10.086  1.00  0.00     0.064 A 
ATOM     64  C   UNL     1       4.064   2.866   9.995  1.00  0.00     0.173 A 
ATOM     65  C   UNL     1       5.589   4.483  10.897  1.00  0.00     0.173 A 
ATOM     66  F   UNL     1       3.082   2.506   9.158  1.00  0.00    -0.203 F 
ATOM     67  C   UNL     1       4.695   1.864  10.731  1.00  0.00     0.198 A 
ATOM     68  C   UNL     1       6.242   3.475  11.598  1.00  0.00     0.198 A 
ATOM     69  F   UNL     1       6.068   5.735  10.974  1.00  0.00    -0.203 F 
ATOM     70  F   UNL     1       4.268   0.595  10.645  1.00  0.00    -0.200 F 
ATOM     71  C   UNL     1       5.785   2.169  11.529  1.00  0.00     0.200 A 
ATOM     72  F   UNL     1       7.329   3.769  12.325  1.00  0.00    -0.200 F 
ATOM     73  F   UNL     1       6.415   1.202  12.210  1.00  0.00    -0.200 F 
ENDBRANCH  40  63
ENDBRANCH  14  15
ENDBRANCH   7   9
ENDBRANCH   6   7
ENDBRANCH   5   6
ENDBRANCH   4   5
ENDBRANCH   3   4
ENDBRANCH   2   3
ENDBRANCH   1   2
BRANCH   1  74
ATOM     74  O   UNL     1       3.690  -0.846  -2.869  1.00  0.00    -0.376 OA
BRANCH  74  75
ATOM     75  C   UNL     1       5.085  -0.631  -2.976  1.00  0.00     0.202 C 
BRANCH  75  76
ATOM     76  C   UNL     1       5.432   0.806  -3.361  1.00  0.00     0.261 C 
BRANCH  76  77
ATOM     77  O   UNL     1       4.280   1.661  -3.216  1.00  0.00    -0.458 OA
BRANCH  77  78
ATOM     78  C   UNL     1       4.236   2.741  -4.014  1.00  0.00     0.359 C 
ATOM     79  O   UNL     1       5.064   3.020  -4.855  1.00  0.00    -0.244 OA
BRANCH  78  80
ATOM     80  C   UNL     1       3.045   3.599  -3.733  1.00  0.00     0.179 A 
ATOM     81  N   UNL     1       3.357   4.925  -3.939  1.00  0.00    -0.245 NA
ATOM     82  C   UNL     1       1.748   3.213  -3.397  1.00  0.00     0.161 A 
ATOM     83  C   UNL     1       2.382   5.835  -3.755  1.00  0.00     0.132 A 
ATOM     84  N   UNL     1       0.769   4.171  -3.227  1.00  0.00    -0.247 NA
ATOM     85  C   UNL     1       1.110   5.465  -3.396  1.00  0.00     0.132 A 
BRANCH  82  86
ATOM     86  C   UNL     1       1.200   1.884  -2.999  1.00  0.00     0.276 C 
ATOM     87  O   UNL     1       0.748   1.813  -1.846  1.00  0.00    -0.267 OA
ATOM     88  N   UNL     1       0.994   0.768  -3.792  1.00  0.00    -0.321 N 
ATOM     89  H   UNL     1       0.209   0.237  -3.526  1.00  0.00     0.170 HD
BRANCH  88  90
ATOM     90  C   UNL     1       1.679   0.241  -4.897  1.00  0.00     0.043 A 
ATOM     91  C   UNL     1       2.478   1.001  -5.728  1.00  0.00     0.028 A 
ATOM     92  C   UNL     1       1.715  -1.163  -5.010  1.00  0.00     0.049 A 
ATOM     93  C   UNL     1       3.515   0.393  -6.431  1.00  0.00     0.032 A 
ATOM     94  C   UNL     1       2.750  -1.789  -5.722  1.00  0.00     0.068 A 
ATOM     95  C   UNL     1       3.689  -0.997  -6.378  1.00  0.00     0.085 A 
ATOM     96  Cl  UNL     1       2.800  -3.513  -5.756  1.00  0.00    -0.082 Cl
BRANCH  95  97
ATOM     97  N   UNL     1       4.910  -1.502  -6.870  1.00  0.00    -0.220 N 
ATOM     98  C   UNL     1       5.529  -1.098  -8.030  1.00  0.00     0.226 A 
ATOM     99  N   UNL     1       5.853  -1.984  -6.019  1.00  0.00    -0.155 NA
ATOM    100  N   UNL     1       6.832  -1.192  -7.920  1.00  0.00    -0.223 NA
ATOM    101  C   UNL     1       6.986  -1.697  -6.665  1.00  0.00     0.246 A 
ENDBRANCH  95  97
ENDBRANCH  88  90
ENDBRANCH  82  86
ENDBRANCH  78  80
ENDBRANCH  77  78
ENDBRANCH  76  77
ENDBRANCH  75  76
ENDBRANCH  74  75
ENDBRANCH   1  74
TORSDOF 20
