REMARK SMILES COc1ccc(-c2noc(CC(=O)OCCOCCOCCOC(=O)c3ccc(-c4c5nc(c(-c6c(F)c(F)c(F)c(F)c6F)c6ccc([nH]6)c(-c6c(F)c(F)c(F)c(F)c6F)c6nc(c(-c7c(F)c(F)c(F)c(F)c7F)c7ccc4[nH]7)C=C6)C=C5)cc3)c2-c2ccc(OC)cc2)cc1
REMARK SMILES IDX 18 1 17 2 16 3 15 4 14 5 12 6 13 7 11 8 10 9 7 10 8 11 89 12
REMARK SMILES IDX 9 13 6 14 3 15 4 16 99 17 5 18 98 19 2 20 1 21 90 22 91 23
REMARK SMILES IDX 97 24 92 25 96 26 93 27 94 28 95 29 19 30 20 31 21 32 22 33
REMARK SMILES IDX 23 34 24 35 25 36 26 37 27 38 88 39 28 40 87 41 29 42 30 43
REMARK SMILES IDX 31 44 81 45 32 46 86 47 80 48 82 49 33 50 85 51 79 52 78 53
REMARK SMILES IDX 34 55 66 56 46 57 65 58 47 59 50 60 64 61 83 62 48 63 49 64
REMARK SMILES IDX 63 66 84 67 51 68 35 69 36 70 44 71 37 72 38 73 42 74 45 75
REMARK SMILES IDX 39 76 40 77 43 78 41 79 67 80 68 81 76 82 69 83 70 84 74 85
REMARK SMILES IDX 77 86 71 87 72 88 75 89 73 90 52 91 53 92 61 93 54 94 55 95
REMARK SMILES IDX 59 96 62 97 56 98 57 99 60 100 58 101
REMARK H PARENT 82 54 50 65
REMARK Flexibility Score: inf
ROOT
ATOM      1  C   UNL     1       2.234   8.247   9.310  1.00  0.00     0.188 C 
ENDROOT
BRANCH   1   2
ATOM      2  O   UNL     1       1.969   9.637   9.197  1.00  0.00    -0.376 OA
BRANCH   2   3
ATOM      3  C   UNL     1       1.723  10.156   7.891  1.00  0.00     0.202 C 
BRANCH   3   4
ATOM      4  C   UNL     1       2.744   9.817   6.788  1.00  0.00     0.261 C 
BRANCH   4   5
ATOM      5  O   UNL     1       2.985   8.399   6.598  1.00  0.00    -0.463 OA
BRANCH   5   6
ATOM      6  C   UNL     1       4.288   8.009   6.550  1.00  0.00     0.313 C 
ATOM      7  O   UNL     1       5.232   8.795   6.523  1.00  0.00    -0.252 OA
BRANCH   6   8
ATOM      8  C   UNL     1       4.525   6.525   6.756  1.00  0.00     0.201 C 
BRANCH   8   9
ATOM      9  C   UNL     1       3.584   5.583   6.094  1.00  0.00     0.156 A 
ATOM     10  C   UNL     1       2.388   4.109   4.928  1.00  0.00     0.122 A 
ATOM     11  N   UNL     1       1.949   4.037   6.192  1.00  0.00    -0.079 NA
ATOM     12  C   UNL     1       3.445   5.061   4.826  1.00  0.00     0.053 A 
ATOM     13  O   UNL     1       2.739   4.902   6.919  1.00  0.00    -0.359 OA
BRANCH  10  14
ATOM     14  C   UNL     1       1.850   3.254   3.879  1.00  0.00     0.005 A 
ATOM     15  C   UNL     1       0.869   1.759   1.710  1.00  0.00     0.118 A 
ATOM     16  C   UNL     1       0.028   2.625   2.414  1.00  0.00     0.047 A 
ATOM     17  C   UNL     1       2.199   1.623   2.108  1.00  0.00     0.047 A 
ATOM     18  C   UNL     1       0.508   3.360   3.503  1.00  0.00     0.014 A 
ATOM     19  C   UNL     1       2.687   2.369   3.187  1.00  0.00     0.014 A 
BRANCH  15  20
ATOM     20  O   UNL     1       0.290   1.141   0.637  1.00  0.00    -0.497 OA
ATOM     21  C   UNL     1       0.947  -0.019   0.138  1.00  0.00     0.278 C 
ENDBRANCH  15  20
ENDBRANCH  10  14
BRANCH  12  22
ATOM     22  C   UNL     1       4.351   5.336   3.741  1.00  0.00    -0.012 A 
ATOM     23  C   UNL     1       3.907   5.856   2.526  1.00  0.00     0.013 A 
ATOM     24  C   UNL     1       5.701   5.007   3.907  1.00  0.00     0.013 A 
ATOM     25  C   UNL     1       4.828   6.079   1.499  1.00  0.00     0.047 A 
ATOM     26  C   UNL     1       6.615   5.241   2.887  1.00  0.00     0.047 A 
ATOM     27  C   UNL     1       6.185   5.791   1.681  1.00  0.00     0.118 A 
BRANCH  27  28
ATOM     28  O   UNL     1       6.995   6.072   0.615  1.00  0.00    -0.497 OA
ATOM     29  C   UNL     1       8.395   5.991   0.863  1.00  0.00     0.278 C 
ENDBRANCH  27  28
ENDBRANCH  12  22
ENDBRANCH   8   9
ENDBRANCH   6   8
ENDBRANCH   5   6
ENDBRANCH   4   5
ENDBRANCH   3   4
ENDBRANCH   2   3
ENDBRANCH   1   2
BRANCH   1  30
ATOM     30  C   UNL     1       1.303   7.270   8.583  1.00  0.00     0.188 C 
BRANCH  30  31
ATOM     31  O   UNL     1       0.285   7.878   7.817  1.00  0.00    -0.376 OA
BRANCH  31  32
ATOM     32  C   UNL     1      -0.902   7.128   7.610  1.00  0.00     0.202 C 
BRANCH  32  33
ATOM     33  C   UNL     1      -1.796   7.103   8.861  1.00  0.00     0.261 C 
BRANCH  33  34
ATOM     34  O   UNL     1      -1.198   6.498  10.027  1.00  0.00    -0.460 OA
BRANCH  34  35
ATOM     35  C   UNL     1      -0.890   5.181   9.936  1.00  0.00     0.338 C 
ATOM     36  O   UNL     1      -1.227   4.420   9.043  1.00  0.00    -0.246 OA
BRANCH  35  37
ATOM     37  C   UNL     1       0.138   4.860  10.964  1.00  0.00     0.060 A 
ATOM     38  C   UNL     1       1.306   4.196  10.557  1.00  0.00     0.016 A 
ATOM     39  C   UNL     1      -0.009   5.247  12.298  1.00  0.00     0.016 A 
ATOM     40  C   UNL     1       2.294   3.864  11.491  1.00  0.00     0.010 A 
ATOM     41  C   UNL     1       0.976   4.901  13.236  1.00  0.00     0.010 A 
ATOM     42  C   UNL     1       2.115   4.170  12.847  1.00  0.00    -0.014 A 
BRANCH  42  43
ATOM     43  C   UNL     1       3.010   3.559  13.871  1.00  0.00     0.031 A 
ATOM     44  C   UNL     1       2.524   2.345  14.622  1.00  0.00     0.074 A 
ATOM     45  C   UNL     1       4.246   4.033  14.117  1.00  0.00     0.049 A 
ATOM     46  N   UNL     1       3.119   1.641  15.553  1.00  0.00    -0.248 NA
ATOM     47  C   UNL     1       1.178   1.862  14.274  1.00  0.00     0.031 C 
ATOM     48  C   UNL     1       4.861   5.179  13.455  1.00  0.00     0.029 A 
ATOM     49  N   UNL     1       5.207   3.601  15.004  1.00  0.00    -0.354 N 
ATOM     50  C   UNL     1       2.222   0.638  15.902  1.00  0.00     0.074 A 
ATOM     51  C   UNL     1       1.027   0.850  15.114  1.00  0.00     0.031 C 
ATOM     52  C   UNL     1       6.095   5.364  13.959  1.00  0.00     0.029 A 
ATOM     53  C   UNL     1       6.347   4.366  15.000  1.00  0.00     0.049 A 
ATOM     54  H   UNL     1       5.087   2.816  15.586  1.00  0.00     0.167 HD
ATOM     55  C   UNL     1       2.380  -0.377  16.786  1.00  0.00     0.037 A 
ATOM     56  C   UNL     1       7.460   4.282  15.758  1.00  0.00     0.037 A 
ATOM     57  C   UNL     1       3.564  -0.595  17.577  1.00  0.00     0.049 A 
ATOM     58  C   UNL     1       7.586   3.182  16.785  1.00  0.00     0.074 A 
ATOM     59  C   UNL     1       3.823  -1.611  18.480  1.00  0.00     0.029 A 
ATOM     60  N   UNL     1       4.684   0.224  17.569  1.00  0.00    -0.354 N 
ATOM     61  N   UNL     1       6.750   2.215  17.077  1.00  0.00    -0.248 NA
ATOM     62  C   UNL     1       8.823   3.159  17.583  1.00  0.00     0.031 C 
ATOM     63  C   UNL     1       5.070  -1.372  19.067  1.00  0.00     0.029 A 
ATOM     64  C   UNL     1       5.622  -0.247  18.476  1.00  0.00     0.049 A 
ATOM     65  H   UNL     1       4.796   1.021  17.003  1.00  0.00     0.167 HD
ATOM     66  C   UNL     1       7.370   1.456  18.065  1.00  0.00     0.074 A 
ATOM     67  C   UNL     1       8.662   2.060  18.305  1.00  0.00     0.031 C 
ATOM     68  C   UNL     1       6.908   0.357  18.714  1.00  0.00     0.037 A 
BRANCH  55  69
ATOM     69  C   UNL     1       1.225  -1.322  16.968  1.00  0.00     0.064 A 
ATOM     70  C   UNL     1       0.838  -2.221  15.963  1.00  0.00     0.173 A 
ATOM     71  C   UNL     1       0.519  -1.352  18.181  1.00  0.00     0.173 A 
ATOM     72  F   UNL     1       1.472  -2.226  14.780  1.00  0.00    -0.203 F 
ATOM     73  C   UNL     1      -0.232  -3.092  16.153  1.00  0.00     0.198 A 
ATOM     74  C   UNL     1      -0.528  -2.249  18.380  1.00  0.00     0.198 A 
ATOM     75  F   UNL     1       0.851  -0.519  19.178  1.00  0.00    -0.203 F 
ATOM     76  F   UNL     1      -0.618  -3.904  15.159  1.00  0.00    -0.200 F 
ATOM     77  C   UNL     1      -0.908  -3.111  17.363  1.00  0.00     0.200 A 
ATOM     78  F   UNL     1      -1.168  -2.277  19.557  1.00  0.00    -0.200 F 
ATOM     79  F   UNL     1      -1.931  -3.957  17.549  1.00  0.00    -0.200 F 
ENDBRANCH  55  69
BRANCH  56  80
ATOM     80  C   UNL     1       8.558   5.274  15.588  1.00  0.00     0.064 A 
ATOM     81  C   UNL     1       9.817   4.890  15.103  1.00  0.00     0.173 A 
ATOM     82  C   UNL     1       8.384   6.619  15.948  1.00  0.00     0.173 A 
ATOM     83  F   UNL     1      10.047   3.609  14.776  1.00  0.00    -0.203 F 
ATOM     84  C   UNL     1      10.864   5.806  15.006  1.00  0.00     0.198 A 
ATOM     85  C   UNL     1       9.421   7.541  15.818  1.00  0.00     0.198 A 
ATOM     86  F   UNL     1       7.204   7.038  16.426  1.00  0.00    -0.203 F 
ATOM     87  F   UNL     1      12.073   5.397  14.596  1.00  0.00    -0.200 F 
ATOM     88  C   UNL     1      10.663   7.132  15.357  1.00  0.00     0.200 A 
ATOM     89  F   UNL     1       9.219   8.823  16.149  1.00  0.00    -0.200 F 
ATOM     90  F   UNL     1      11.669   8.012  15.263  1.00  0.00    -0.200 F 
ENDBRANCH  56  80
BRANCH  68  91
ATOM     91  C   UNL     1       7.822  -0.289  19.721  1.00  0.00     0.064 A 
ATOM     92  C   UNL     1       8.164   0.343  20.927  1.00  0.00     0.173 A 
ATOM     93  C   UNL     1       8.357  -1.565  19.481  1.00  0.00     0.173 A 
ATOM     94  F   UNL     1       7.691   1.567  21.207  1.00  0.00    -0.203 F 
ATOM     95  C   UNL     1       9.041  -0.257  21.829  1.00  0.00     0.198 A 
ATOM     96  C   UNL     1       9.202  -2.178  20.403  1.00  0.00     0.198 A 
ATOM     97  F   UNL     1       8.056  -2.224  18.351  1.00  0.00    -0.203 F 
ATOM     98  F   UNL     1       9.408   0.398  22.940  1.00  0.00    -0.200 F 
ATOM     99  C   UNL     1       9.555  -1.518  21.569  1.00  0.00     0.200 A 
ATOM    100  F   UNL     1       9.682  -3.405  20.157  1.00  0.00    -0.200 F 
ATOM    101  F   UNL     1      10.400  -2.092  22.437  1.00  0.00    -0.200 F 
ENDBRANCH  68  91
ENDBRANCH  42  43
ENDBRANCH  35  37
ENDBRANCH  34  35
ENDBRANCH  33  34
ENDBRANCH  32  33
ENDBRANCH  31  32
ENDBRANCH  30  31
ENDBRANCH   1  30
TORSDOF 22
