REMARK SMILES CS(=O)(=O)[C@@H]1CCC[C@@H](Sc2ccc(C(=O)OCCOCCOCCOC(=O)c3ccc(-c4c5nc(c(-c6c(F)c(F)c(F)c(F)c6F)c6ccc([nH]6)c(-c6c(F)c(F)c(F)c(F)c6F)c6nc(c(-c7c(F)c(F)c(F)c(F)c7F)c7ccc4[nH]7)C=C6)C=C5)cc3)cn2)C1
REMARK SMILES IDX 21 1 20 2 19 3 18 4 17 5 15 6 16 7 14 8 11 9 12 10 93 11
REMARK SMILES IDX 13 12 92 13 10 14 9 15 5 16 6 17 94 18 7 19 8 20 2 21 1 22
REMARK SMILES IDX 3 23 4 24 22 25 23 26 24 27 25 28 26 29 27 30 28 31 29 32
REMARK SMILES IDX 30 33 91 34 31 35 90 36 32 37 33 38 34 39 84 40 35 41 89 42
REMARK SMILES IDX 83 43 85 44 36 45 88 46 82 47 81 48 37 50 69 51 49 52 68 53
REMARK SMILES IDX 50 54 53 55 67 56 86 57 51 58 52 59 66 61 87 62 54 63 38 64
REMARK SMILES IDX 39 65 47 66 40 67 41 68 45 69 48 70 42 71 43 72 46 73 44 74
REMARK SMILES IDX 70 75 71 76 79 77 72 78 73 79 77 80 80 81 74 82 75 83 78 84
REMARK SMILES IDX 76 85 55 86 56 87 64 88 57 89 58 90 62 91 65 92 59 93 60 94
REMARK SMILES IDX 63 95 61 96
REMARK H PARENT 85 49 53 60
REMARK Flexibility Score: inf
ROOT
ATOM      1  C   UNL     1       7.218  -1.162  -0.051  1.00  0.00     0.188 C 
ENDROOT
BRANCH   1   2
ATOM      2  O   UNL     1       8.043  -1.699  -1.079  1.00  0.00    -0.376 OA
BRANCH   2   3
ATOM      3  C   UNL     1       7.468  -2.351  -2.199  1.00  0.00     0.202 C 
BRANCH   3   4
ATOM      4  C   UNL     1       6.737  -3.675  -1.960  1.00  0.00     0.261 C 
BRANCH   4   5
ATOM      5  O   UNL     1       5.848  -3.655  -0.840  1.00  0.00    -0.460 OA
BRANCH   5   6
ATOM      6  C   UNL     1       6.261  -4.296   0.283  1.00  0.00     0.339 C 
ATOM      7  O   UNL     1       7.300  -4.910   0.451  1.00  0.00    -0.246 OA
BRANCH   6   8
ATOM      8  C   UNL     1       5.286  -4.016   1.351  1.00  0.00     0.078 A 
ATOM      9  C   UNL     1       3.569  -3.241   3.398  1.00  0.00     0.096 A 
ATOM     10  C   UNL     1       3.126  -3.311   2.094  1.00  0.00     0.036 A 
ATOM     11  N   UNL     1       4.854  -3.563   3.690  1.00  0.00    -0.249 NA
ATOM     12  C   UNL     1       3.966  -3.715   1.064  1.00  0.00     0.020 A 
ATOM     13  C   UNL     1       5.682  -3.944   2.675  1.00  0.00     0.128 A 
BRANCH   9  14
ATOM     14  S   UNL     1       2.630  -2.618   4.769  1.00  0.00    -0.103 SA
BRANCH  14  15
ATOM     15  C   UNL     1       0.793  -2.690   4.456  1.00  0.00     0.054 C 
ATOM     16  C   UNL     1       0.269  -1.368   2.351  1.00  0.00     0.109 C 
ATOM     17  C   UNL     1      -0.438  -2.588   1.738  1.00  0.00     0.020 C 
ATOM     18  C   UNL     1       0.195  -1.404   3.869  1.00  0.00     0.034 C 
ATOM     19  C   UNL     1      -0.104  -3.951   2.358  1.00  0.00     0.002 C 
ATOM     20  C   UNL     1       0.191  -3.962   3.857  1.00  0.00     0.015 C 
BRANCH  16  21
ATOM     21  S   UNL     1      -0.361   0.179   1.675  1.00  0.00     0.150 S 
ATOM     22  C   UNL     1       0.418   0.254   0.074  1.00  0.00     0.158 C 
ATOM     23  O   UNL     1       0.190   1.270   2.455  1.00  0.00    -0.229 OA
ATOM     24  O   UNL     1      -1.790   0.059   1.472  1.00  0.00    -0.229 OA
ENDBRANCH  16  21
ENDBRANCH  14  15
ENDBRANCH   9  14
ENDBRANCH   6   8
ENDBRANCH   5   6
ENDBRANCH   4   5
ENDBRANCH   3   4
ENDBRANCH   2   3
ENDBRANCH   1   2
BRANCH   1  25
ATOM     25  C   UNL     1       5.815  -0.595  -0.354  1.00  0.00     0.188 C 
BRANCH  25  26
ATOM     26  O   UNL     1       5.583  -0.290  -1.718  1.00  0.00    -0.376 OA
BRANCH  26  27
ATOM     27  C   UNL     1       5.493   1.088  -2.054  1.00  0.00     0.202 C 
BRANCH  27  28
ATOM     28  C   UNL     1       6.808   1.878  -1.988  1.00  0.00     0.261 C 
BRANCH  28  29
ATOM     29  O   UNL     1       7.505   1.813  -0.733  1.00  0.00    -0.460 OA
BRANCH  29  30
ATOM     30  C   UNL     1       6.962   2.485   0.306  1.00  0.00     0.338 C 
ATOM     31  O   UNL     1       5.935   3.138   0.294  1.00  0.00    -0.246 OA
BRANCH  30  32
ATOM     32  C   UNL     1       7.728   2.148   1.529  1.00  0.00     0.060 A 
ATOM     33  C   UNL     1       7.026   1.677   2.645  1.00  0.00     0.016 A 
ATOM     34  C   UNL     1       9.118   2.296   1.583  1.00  0.00     0.016 A 
ATOM     35  C   UNL     1       7.706   1.407   3.834  1.00  0.00     0.010 A 
ATOM     36  C   UNL     1       9.797   2.034   2.780  1.00  0.00     0.010 A 
ATOM     37  C   UNL     1       9.088   1.631   3.924  1.00  0.00    -0.014 A 
BRANCH  37  38
ATOM     38  C   UNL     1       9.729   1.652   5.265  1.00  0.00     0.031 A 
ATOM     39  C   UNL     1       9.877   2.975   5.966  1.00  0.00     0.074 A 
ATOM     40  C   UNL     1      10.126   0.525   5.880  1.00  0.00     0.049 A 
ATOM     41  N   UNL     1      10.327   3.241   7.167  1.00  0.00    -0.248 NA
ATOM     42  C   UNL     1       9.461   4.163   5.204  1.00  0.00     0.031 C 
ATOM     43  C   UNL     1      10.038  -0.820   5.321  1.00  0.00     0.029 A 
ATOM     44  N   UNL     1      10.683   0.341   7.123  1.00  0.00    -0.354 N 
ATOM     45  C   UNL     1      10.233   4.619   7.308  1.00  0.00     0.074 A 
ATOM     46  C   UNL     1       9.735   5.140   6.053  1.00  0.00     0.031 C 
ATOM     47  C   UNL     1      10.531  -1.695   6.216  1.00  0.00     0.029 A 
ATOM     48  C   UNL     1      10.974  -0.969   7.407  1.00  0.00     0.049 A 
ATOM     49  H   UNL     1      10.857   1.080   7.750  1.00  0.00     0.167 HD
ATOM     50  C   UNL     1      10.516   5.385   8.389  1.00  0.00     0.037 A 
ATOM     51  C   UNL     1      11.533  -1.519   8.504  1.00  0.00     0.037 A 
ATOM     52  C   UNL     1      11.031   4.878   9.633  1.00  0.00     0.049 A 
ATOM     53  C   UNL     1      11.876  -0.648   9.685  1.00  0.00     0.074 A 
ATOM     54  C   UNL     1      11.345   5.572  10.787  1.00  0.00     0.029 A 
ATOM     55  N   UNL     1      11.319   3.543   9.879  1.00  0.00    -0.354 N 
ATOM     56  N   UNL     1      11.736   0.648   9.830  1.00  0.00    -0.248 NA
ATOM     57  C   UNL     1      12.434  -1.322  10.867  1.00  0.00     0.031 C 
ATOM     58  C   UNL     1      11.866   4.665  11.717  1.00  0.00     0.029 A 
ATOM     59  C   UNL     1      11.826   3.396  11.161  1.00  0.00     0.049 A 
ATOM     60  H   UNL     1      11.184   2.809   9.237  1.00  0.00     0.167 HD
ATOM     61  C   UNL     1      12.159   0.940  11.121  1.00  0.00     0.074 A 
ATOM     62  C   UNL     1      12.551  -0.318  11.724  1.00  0.00     0.031 C 
ATOM     63  C   UNL     1      12.213   2.140  11.752  1.00  0.00     0.037 A 
BRANCH  50  64
ATOM     64  C   UNL     1      10.293   6.863   8.249  1.00  0.00     0.064 A 
ATOM     65  C   UNL     1       9.001   7.406   8.159  1.00  0.00     0.173 A 
ATOM     66  C   UNL     1      11.381   7.745   8.184  1.00  0.00     0.173 A 
ATOM     67  F   UNL     1       7.927   6.603   8.198  1.00  0.00    -0.203 F 
ATOM     68  C   UNL     1       8.810   8.772   7.968  1.00  0.00     0.198 A 
ATOM     69  C   UNL     1      11.185   9.114   8.023  1.00  0.00     0.198 A 
ATOM     70  F   UNL     1      12.636   7.279   8.267  1.00  0.00    -0.203 F 
ATOM     71  F   UNL     1       7.570   9.259   7.818  1.00  0.00    -0.200 F 
ATOM     72  C   UNL     1       9.901   9.624   7.903  1.00  0.00     0.200 A 
ATOM     73  F   UNL     1      12.240   9.938   7.970  1.00  0.00    -0.200 F 
ATOM     74  F   UNL     1       9.716  10.938   7.710  1.00  0.00    -0.200 F 
ENDBRANCH  50  64
BRANCH  51  75
ATOM     75  C   UNL     1      11.789  -2.982   8.540  1.00  0.00     0.064 A 
ATOM     76  C   UNL     1      11.033  -3.834   9.356  1.00  0.00     0.173 A 
ATOM     77  C   UNL     1      12.799  -3.556   7.755  1.00  0.00     0.173 A 
ATOM     78  F   UNL     1      10.076  -3.328  10.148  1.00  0.00    -0.203 F 
ATOM     79  C   UNL     1      11.283  -5.205   9.392  1.00  0.00     0.198 A 
ATOM     80  C   UNL     1      13.033  -4.930   7.773  1.00  0.00     0.198 A 
ATOM     81  F   UNL     1      13.555  -2.782   6.963  1.00  0.00    -0.203 F 
ATOM     82  F   UNL     1      10.572  -5.993  10.210  1.00  0.00    -0.200 F 
ATOM     83  C   UNL     1      12.277  -5.752   8.595  1.00  0.00     0.200 A 
ATOM     84  F   UNL     1      13.990  -5.455   6.997  1.00  0.00    -0.200 F 
ATOM     85  F   UNL     1      12.514  -7.071   8.625  1.00  0.00    -0.200 F 
ENDBRANCH  51  75
BRANCH  63  86
ATOM     86  C   UNL     1      12.678   2.150  13.181  1.00  0.00     0.064 A 
ATOM     87  C   UNL     1      14.017   1.911  13.525  1.00  0.00     0.173 A 
ATOM     88  C   UNL     1      11.776   2.431  14.218  1.00  0.00     0.173 A 
ATOM     89  F   UNL     1      14.919   1.627  12.573  1.00  0.00    -0.203 F 
ATOM     90  C   UNL     1      14.428   1.921  14.856  1.00  0.00     0.198 A 
ATOM     91  C   UNL     1      12.195   2.469  15.545  1.00  0.00     0.198 A 
ATOM     92  F   UNL     1      10.485   2.676  13.944  1.00  0.00    -0.203 F 
ATOM     93  F   UNL     1      15.701   1.638  15.165  1.00  0.00    -0.200 F 
ATOM     94  C   UNL     1      13.518   2.205  15.864  1.00  0.00     0.200 A 
ATOM     95  F   UNL     1      11.318   2.758  16.516  1.00  0.00    -0.200 F 
ATOM     96  F   UNL     1      13.916   2.215  17.144  1.00  0.00    -0.200 F 
ENDBRANCH  63  86
ENDBRANCH  37  38
ENDBRANCH  30  32
ENDBRANCH  29  30
ENDBRANCH  28  29
ENDBRANCH  27  28
ENDBRANCH  26  27
ENDBRANCH  25  26
ENDBRANCH   1  25
TORSDOF 20
