REMARK SMILES CCc1ccsc1C(=O)N(CC(=O)OCCOCCOCCOC(=O)c1ccc(-c2c3nc(c(-c4c(F)c(F)c(F)c(F)c4F)c4ccc([nH]4)c(-c4c(F)c(F)c(F)c(F)c4F)c4nc(c(-c5c(F)c(F)c(F)c(F)c5F)c5ccc2[nH]5)C=C4)C=C3)cc1)c1ccccc1N
REMARK SMILES IDX 18 1 17 2 16 3 15 4 14 5 12 6 13 7 11 8 10 9 8 10 9 11 7 12
REMARK SMILES IDX 3 13 4 14 5 15 6 16 2 17 1 18 89 19 90 20 94 21 91 22 93 23
REMARK SMILES IDX 92 24 95 25 19 28 20 29 21 30 22 31 23 32 24 33 25 34 26 35
REMARK SMILES IDX 27 36 88 37 28 38 87 39 29 40 30 41 31 42 81 43 32 44 86 45
REMARK SMILES IDX 80 46 82 47 33 48 85 49 79 50 78 51 34 53 66 54 46 55 65 56
REMARK SMILES IDX 47 57 50 58 64 59 83 60 48 61 49 62 63 64 84 65 51 66 35 67
REMARK SMILES IDX 36 68 44 69 37 70 38 71 42 72 45 73 39 74 40 75 43 76 41 77
REMARK SMILES IDX 67 78 68 79 76 80 69 81 70 82 74 83 77 84 71 85 72 86 75 87
REMARK SMILES IDX 73 88 52 89 53 90 61 91 54 92 55 93 59 94 62 95 56 96 57 97
REMARK SMILES IDX 60 98 58 99
REMARK H PARENT 95 26 95 27 82 52 50 63
REMARK Flexibility Score: inf
ROOT
ATOM      1  C   UNL     1      -1.087   3.506   0.262  1.00  0.00     0.188 C 
ENDROOT
BRANCH   1   2
ATOM      2  O   UNL     1      -2.251   2.884  -0.275  1.00  0.00    -0.376 OA
BRANCH   2   3
ATOM      3  C   UNL     1      -2.819   1.813   0.464  1.00  0.00     0.202 C 
BRANCH   3   4
ATOM      4  C   UNL     1      -2.090   0.473   0.335  1.00  0.00     0.261 C 
BRANCH   4   5
ATOM      5  O   UNL     1      -0.687   0.500   0.687  1.00  0.00    -0.462 OA
BRANCH   5   6
ATOM      6  C   UNL     1       0.187   0.579  -0.355  1.00  0.00     0.326 C 
ATOM      7  O   UNL     1      -0.143   0.796  -1.518  1.00  0.00    -0.250 OA
BRANCH   6   8
ATOM      8  C   UNL     1       1.640   0.268   0.014  1.00  0.00     0.248 C 
BRANCH   8   9
ATOM      9  N   UNL     1       1.962   0.071   1.417  1.00  0.00    -0.294 N 
BRANCH   9  10
ATOM     10  C   UNL     1       1.564  -1.064   2.148  1.00  0.00     0.269 C 
ATOM     11  O   UNL     1       1.475  -0.925   3.378  1.00  0.00    -0.268 OA
BRANCH  10  12
ATOM     12  C   UNL     1       1.355  -2.421   1.562  1.00  0.00     0.096 A 
ATOM     13  C   UNL     1       0.846  -3.059   0.415  1.00  0.00    -0.025 A 
ATOM     14  C   UNL     1       0.884  -4.504   0.554  1.00  0.00     0.016 A 
ATOM     15  C   UNL     1       1.390  -4.943   1.744  1.00  0.00     0.066 A 
ATOM     16  S   UNL     1       1.902  -3.657   2.703  1.00  0.00    -0.138 S 
BRANCH  13  17
ATOM     17  C   UNL     1       0.201  -2.554  -0.852  1.00  0.00     0.034 C 
ATOM     18  C   UNL     1       1.158  -2.403  -2.033  1.00  0.00     0.009 C 
ENDBRANCH  13  17
ENDBRANCH  10  12
ENDBRANCH   9  10
BRANCH   9  19
ATOM     19  C   UNL     1       2.837   1.067   2.030  1.00  0.00     0.068 A 
ATOM     20  C   UNL     1       2.670   2.419   1.687  1.00  0.00     0.028 A 
ATOM     21  C   UNL     1       3.923   0.744   2.887  1.00  0.00     0.056 A 
ATOM     22  C   UNL     1       3.534   3.421   2.143  1.00  0.00     0.002 A 
ATOM     23  C   UNL     1       4.824   1.758   3.277  1.00  0.00     0.028 A 
ATOM     24  C   UNL     1       4.625   3.088   2.925  1.00  0.00     0.002 A 
BRANCH  21  25
ATOM     25  N   UNL     1       4.273  -0.569   3.226  1.00  0.00    -0.397 N 
ATOM     26  H   UNL     1       3.682  -1.316   2.979  1.00  0.00     0.156 HD
ATOM     27  H   UNL     1       5.111  -0.745   3.712  1.00  0.00     0.156 HD
ENDBRANCH  21  25
ENDBRANCH   9  19
ENDBRANCH   8   9
ENDBRANCH   6   8
ENDBRANCH   5   6
ENDBRANCH   4   5
ENDBRANCH   3   4
ENDBRANCH   2   3
ENDBRANCH   1   2
BRANCH   1  28
ATOM     28  C   UNL     1      -0.887   3.475   1.780  1.00  0.00     0.188 C 
BRANCH  28  29
ATOM     29  O   UNL     1      -1.934   4.202   2.422  1.00  0.00    -0.376 OA
BRANCH  29  30
ATOM     30  C   UNL     1      -1.435   5.094   3.415  1.00  0.00     0.202 C 
BRANCH  30  31
ATOM     31  C   UNL     1      -1.034   6.443   2.808  1.00  0.00     0.261 C 
BRANCH  31  32
ATOM     32  O   UNL     1      -0.219   6.310   1.621  1.00  0.00    -0.460 OA
BRANCH  32  33
ATOM     33  C   UNL     1       1.057   6.734   1.712  1.00  0.00     0.338 C 
ATOM     34  O   UNL     1       1.636   7.119   2.712  1.00  0.00    -0.246 OA
BRANCH  33  35
ATOM     35  C   UNL     1       1.706   6.716   0.383  1.00  0.00     0.060 A 
ATOM     36  C   UNL     1       2.007   5.512  -0.256  1.00  0.00     0.016 A 
ATOM     37  C   UNL     1       2.194   7.911  -0.137  1.00  0.00     0.016 A 
ATOM     38  C   UNL     1       2.904   5.482  -1.330  1.00  0.00     0.010 A 
ATOM     39  C   UNL     1       3.019   7.890  -1.266  1.00  0.00     0.010 A 
ATOM     40  C   UNL     1       3.435   6.673  -1.840  1.00  0.00    -0.014 A 
BRANCH  40  41
ATOM     41  C   UNL     1       4.493   6.695  -2.893  1.00  0.00     0.031 A 
ATOM     42  C   UNL     1       5.804   7.377  -2.597  1.00  0.00     0.074 A 
ATOM     43  C   UNL     1       4.305   6.162  -4.115  1.00  0.00     0.049 A 
ATOM     44  N   UNL     1       6.704   7.854  -3.418  1.00  0.00    -0.248 NA
ATOM     45  C   UNL     1       6.132   7.557  -1.174  1.00  0.00     0.031 C 
ATOM     46  C   UNL     1       3.150   5.374  -4.535  1.00  0.00     0.029 A 
ATOM     47  N   UNL     1       5.088   6.237  -5.245  1.00  0.00    -0.354 N 
ATOM     48  C   UNL     1       7.661   8.464  -2.616  1.00  0.00     0.074 A 
ATOM     49  C   UNL     1       7.246   8.273  -1.243  1.00  0.00     0.031 C 
ATOM     50  C   UNL     1       3.289   5.049  -5.830  1.00  0.00     0.029 A 
ATOM     51  C   UNL     1       4.490   5.692  -6.355  1.00  0.00     0.049 A 
ATOM     52  H   UNL     1       5.985   6.642  -5.256  1.00  0.00     0.167 HD
ATOM     53  C   UNL     1       8.771   9.140  -2.998  1.00  0.00     0.037 A 
ATOM     54  C   UNL     1       4.822   5.769  -7.659  1.00  0.00     0.037 A 
ATOM     55  C   UNL     1       9.213   9.268  -4.363  1.00  0.00     0.049 A 
ATOM     56  C   UNL     1       6.024   6.572  -8.078  1.00  0.00     0.074 A 
ATOM     57  C   UNL     1      10.332   9.917  -4.854  1.00  0.00     0.029 A 
ATOM     58  N   UNL     1       8.560   8.716  -5.455  1.00  0.00    -0.354 N 
ATOM     59  N   UNL     1       6.872   7.239  -7.335  1.00  0.00    -0.248 NA
ATOM     60  C   UNL     1       6.296   6.656  -9.520  1.00  0.00     0.031 C 
ATOM     61  C   UNL     1      10.337   9.789  -6.247  1.00  0.00     0.029 A 
ATOM     62  C   UNL     1       9.244   9.024  -6.620  1.00  0.00     0.049 A 
ATOM     63  H   UNL     1       7.733   8.185  -5.410  1.00  0.00     0.167 HD
ATOM     64  C   UNL     1       7.782   7.812  -8.213  1.00  0.00     0.074 A 
ATOM     65  C   UNL     1       7.391   7.404  -9.546  1.00  0.00     0.031 C 
ATOM     66  C   UNL     1       8.845   8.607  -7.939  1.00  0.00     0.037 A 
BRANCH  53  67
ATOM     67  C   UNL     1       9.554   9.850  -1.933  1.00  0.00     0.064 A 
ATOM     68  C   UNL     1      10.356   9.166  -1.009  1.00  0.00     0.173 A 
ATOM     69  C   UNL     1       9.515  11.252  -1.858  1.00  0.00     0.173 A 
ATOM     70  F   UNL     1      10.416   7.827  -1.028  1.00  0.00    -0.203 F 
ATOM     71  C   UNL     1      11.069   9.858  -0.032  1.00  0.00     0.198 A 
ATOM     72  C   UNL     1      10.251  11.941  -0.899  1.00  0.00     0.198 A 
ATOM     73  F   UNL     1       8.768  11.954  -2.723  1.00  0.00    -0.203 F 
ATOM     74  F   UNL     1      11.792   9.183   0.872  1.00  0.00    -0.200 F 
ATOM     75  C   UNL     1      11.021  11.244   0.019  1.00  0.00     0.200 A 
ATOM     76  F   UNL     1      10.210  13.281  -0.860  1.00  0.00    -0.200 F 
ATOM     77  F   UNL     1      11.710  11.907   0.958  1.00  0.00    -0.200 F 
ENDBRANCH  53  67
BRANCH  54  78
ATOM     78  C   UNL     1       3.943   5.130  -8.673  1.00  0.00     0.064 A 
ATOM     79  C   UNL     1       4.363   3.998  -9.383  1.00  0.00     0.173 A 
ATOM     80  C   UNL     1       2.655   5.625  -8.933  1.00  0.00     0.173 A 
ATOM     81  F   UNL     1       5.596   3.508  -9.193  1.00  0.00    -0.203 F 
ATOM     82  C   UNL     1       3.526   3.383 -10.313  1.00  0.00     0.198 A 
ATOM     83  C   UNL     1       1.810   4.992  -9.841  1.00  0.00     0.198 A 
ATOM     84  F   UNL     1       2.210   6.711  -8.284  1.00  0.00    -0.203 F 
ATOM     85  F   UNL     1       3.962   2.319 -11.001  1.00  0.00    -0.200 F 
ATOM     86  C   UNL     1       2.247   3.873 -10.532  1.00  0.00     0.200 A 
ATOM     87  F   UNL     1       0.571   5.463 -10.039  1.00  0.00    -0.200 F 
ATOM     88  F   UNL     1       1.438   3.270 -11.413  1.00  0.00    -0.200 F 
ENDBRANCH  54  78
BRANCH  66  89
ATOM     89  C   UNL     1       9.682   9.064  -9.096  1.00  0.00     0.064 A 
ATOM     90  C   UNL     1       9.247  10.076  -9.963  1.00  0.00     0.173 A 
ATOM     91  C   UNL     1      10.957   8.518  -9.309  1.00  0.00     0.173 A 
ATOM     92  F   UNL     1       8.030  10.618  -9.810  1.00  0.00    -0.203 F 
ATOM     93  C   UNL     1      10.053  10.516 -11.010  1.00  0.00     0.198 A 
ATOM     94  C   UNL     1      11.769   8.975 -10.342  1.00  0.00     0.198 A 
ATOM     95  F   UNL     1      11.420   7.550  -8.503  1.00  0.00    -0.203 F 
ATOM     96  F   UNL     1       9.605  11.461 -11.848  1.00  0.00    -0.200 F 
ATOM     97  C   UNL     1      11.315   9.970 -11.194  1.00  0.00     0.200 A 
ATOM     98  F   UNL     1      12.992   8.454 -10.513  1.00  0.00    -0.200 F 
ATOM     99  F   UNL     1      12.092  10.400 -12.198  1.00  0.00    -0.200 F 
ENDBRANCH  66  89
ENDBRANCH  40  41
ENDBRANCH  33  35
ENDBRANCH  32  33
ENDBRANCH  31  32
ENDBRANCH  30  31
ENDBRANCH  29  30
ENDBRANCH  28  29
ENDBRANCH   1  28
TORSDOF 23
