REMARK SMILES C[C@@H](CC[NH+](C)C)NC(=O)Cn1cccc1C(=O)OCCOCCOCCOC(=O)c1ccc(-c2c3nc(c(-c4c(F)c(F)c(F)c(F)c4F)c4ccc([nH]4)c(-c4c(F)c(F)c(F)c(F)c4F)c4nc(c(-c5c(F)c(F)c(F)c(F)c5F)c5ccc2[nH]5)C=C4)C=C3)cc1
REMARK SMILES IDX 21 1 20 2 19 3 17 4 18 5 16 6 12 7 13 8 14 9 15 10 11 11
REMARK SMILES IDX 9 12 8 13 10 15 2 16 1 17 3 18 4 19 5 20 6 21 7 22 22 24
REMARK SMILES IDX 23 25 24 26 25 27 26 28 27 29 28 30 29 31 30 32 31 33 32 34
REMARK SMILES IDX 93 35 33 36 92 37 34 38 35 39 36 40 86 41 37 42 91 43 85 44
REMARK SMILES IDX 87 45 38 46 90 47 84 48 83 49 39 51 71 52 51 53 70 54 52 55
REMARK SMILES IDX 55 56 69 57 88 58 53 59 54 60 68 62 89 63 56 64 40 65 41 66
REMARK SMILES IDX 49 67 42 68 43 69 47 70 50 71 44 72 45 73 48 74 46 75 72 76
REMARK SMILES IDX 73 77 81 78 74 79 75 80 79 81 82 82 76 83 77 84 80 85 78 86
REMARK SMILES IDX 57 87 58 88 66 89 59 90 60 91 64 92 67 93 61 94 62 95 65 96
REMARK SMILES IDX 63 97
REMARK H PARENT 8 14 5 23 87 50 55 61
REMARK Flexibility Score: inf
ROOT
ATOM      1  C   UNL     1      -4.559  -2.291   2.525  1.00  0.00     0.202 C 
ENDROOT
BRANCH   1   2
ATOM      2  C   UNL     1      -4.152  -1.094   3.417  1.00  0.00     0.261 C 
BRANCH   2   3
ATOM      3  O   UNL     1      -2.773  -0.713   3.481  1.00  0.00    -0.459 OA
BRANCH   3   4
ATOM      4  C   UNL     1      -2.019  -1.246   4.474  1.00  0.00     0.355 C 
ATOM      5  O   UNL     1      -2.430  -2.040   5.302  1.00  0.00    -0.244 OA
BRANCH   4   6
ATOM      6  C   UNL     1      -0.621  -0.889   4.282  1.00  0.00     0.128 A 
ATOM      7  N   UNL     1      -0.051   0.328   3.931  1.00  0.00    -0.333 N 
ATOM      8  C   UNL     1       1.325   0.215   3.988  1.00  0.00     0.087 A 
ATOM      9  C   UNL     1       1.648  -1.099   4.211  1.00  0.00     0.020 A 
ATOM     10  C   UNL     1       0.435  -1.787   4.409  1.00  0.00     0.035 A 
BRANCH   7  11
ATOM     11  C   UNL     1      -0.707   1.615   3.724  1.00  0.00     0.222 C 
BRANCH  11  12
ATOM     12  C   UNL     1      -1.407   1.786   2.397  1.00  0.00     0.240 C 
ATOM     13  N   UNL     1      -0.745   1.765   1.208  1.00  0.00    -0.352 N 
ATOM     14  H   UNL     1      -1.347   1.781   0.429  1.00  0.00     0.163 HD
ATOM     15  O   UNL     1      -2.617   2.041   2.375  1.00  0.00    -0.273 OA
BRANCH  13  16
ATOM     16  C   UNL     1       0.669   1.725   0.842  1.00  0.00     0.084 C 
ATOM     17  C   UNL     1       1.177   0.328   0.476  1.00  0.00     0.031 C 
BRANCH  16  18
ATOM     18  C   UNL     1       0.988   2.757  -0.265  1.00  0.00     0.086 C 
BRANCH  18  19
ATOM     19  C   UNL     1       0.688   2.434  -1.752  1.00  0.00     0.263 C 
BRANCH  19  20
ATOM     20  N   UNL     1      -0.705   2.652  -2.179  1.00  0.00    -0.340 N 
ATOM     21  C   UNL     1      -0.766   2.938  -3.619  1.00  0.00     0.332 C 
ATOM     22  C   UNL     1      -1.565   1.499  -1.928  1.00  0.00     0.332 C 
ATOM     23  H   UNL     1      -1.039   3.442  -1.627  1.00  0.00     0.347 HD
ENDBRANCH  19  20
ENDBRANCH  18  19
ENDBRANCH  16  18
ENDBRANCH  13  16
ENDBRANCH  11  12
ENDBRANCH   7  11
ENDBRANCH   4   6
ENDBRANCH   3   4
ENDBRANCH   2   3
ENDBRANCH   1   2
BRANCH   1  24
ATOM     24  O   UNL     1      -3.780  -2.842   1.475  1.00  0.00    -0.376 OA
BRANCH  24  25
ATOM     25  C   UNL     1      -2.385  -2.683   1.487  1.00  0.00     0.188 C 
BRANCH  25  26
ATOM     26  C   UNL     1      -1.882  -1.369   0.875  1.00  0.00     0.188 C 
BRANCH  26  27
ATOM     27  O   UNL     1      -2.755  -0.346   0.419  1.00  0.00    -0.376 OA
BRANCH  27  28
ATOM     28  C   UNL     1      -3.932  -0.582  -0.335  1.00  0.00     0.202 C 
BRANCH  28  29
ATOM     29  C   UNL     1      -3.856  -1.341  -1.650  1.00  0.00     0.261 C 
BRANCH  29  30
ATOM     30  O   UNL     1      -3.109  -2.537  -1.536  1.00  0.00    -0.460 OA
BRANCH  30  31
ATOM     31  C   UNL     1      -1.841  -2.367  -1.943  1.00  0.00     0.338 C 
ATOM     32  O   UNL     1      -1.282  -1.348  -2.312  1.00  0.00    -0.246 OA
BRANCH  31  33
ATOM     33  C   UNL     1      -1.172  -3.652  -2.030  1.00  0.00     0.060 A 
ATOM     34  C   UNL     1       0.224  -3.556  -1.959  1.00  0.00     0.016 A 
ATOM     35  C   UNL     1      -1.853  -4.533  -2.871  1.00  0.00     0.016 A 
ATOM     36  C   UNL     1       0.942  -4.138  -2.969  1.00  0.00     0.010 A 
ATOM     37  C   UNL     1      -1.145  -5.059  -3.916  1.00  0.00     0.010 A 
ATOM     38  C   UNL     1       0.234  -4.815  -3.969  1.00  0.00    -0.014 A 
BRANCH  38  39
ATOM     39  C   UNL     1       1.013  -5.474  -5.004  1.00  0.00     0.031 A 
ATOM     40  C   UNL     1       1.379  -6.888  -4.524  1.00  0.00     0.074 A 
ATOM     41  C   UNL     1       1.245  -4.714  -6.117  1.00  0.00     0.049 A 
ATOM     42  N   UNL     1       2.259  -7.718  -4.980  1.00  0.00    -0.248 NA
ATOM     43  C   UNL     1       0.678  -7.466  -3.332  1.00  0.00     0.031 C 
ATOM     44  C   UNL     1       0.742  -3.335  -6.347  1.00  0.00     0.029 A 
ATOM     45  N   UNL     1       1.955  -4.931  -7.274  1.00  0.00    -0.354 N 
ATOM     46  C   UNL     1       2.054  -8.947  -4.320  1.00  0.00     0.074 A 
ATOM     47  C   UNL     1       1.145  -8.709  -3.249  1.00  0.00     0.031 C 
ATOM     48  C   UNL     1       1.229  -2.826  -7.502  1.00  0.00     0.029 A 
ATOM     49  C   UNL     1       2.065  -3.817  -8.150  1.00  0.00     0.049 A 
ATOM     50  H   UNL     1       2.362  -5.803  -7.482  1.00  0.00     0.167 HD
ATOM     51  C   UNL     1       2.553 -10.124  -4.787  1.00  0.00     0.037 A 
ATOM     52  C   UNL     1       2.814  -3.712  -9.293  1.00  0.00     0.037 A 
ATOM     53  C   UNL     1       3.394  -9.883  -5.909  1.00  0.00     0.049 A 
ATOM     54  C   UNL     1       3.298  -5.079  -9.520  1.00  0.00     0.074 A 
ATOM     55  C   UNL     1       4.643  -9.326  -5.983  1.00  0.00     0.029 A 
ATOM     56  N   UNL     1       2.799  -9.833  -7.145  1.00  0.00    -0.354 N 
ATOM     57  N   UNL     1       2.547  -6.056  -9.931  1.00  0.00    -0.248 NA
ATOM     58  C   UNL     1       4.681  -5.411  -9.168  1.00  0.00     0.031 C 
ATOM     59  C   UNL     1       4.578  -8.535  -7.146  1.00  0.00     0.029 A 
ATOM     60  C   UNL     1       3.397  -8.812  -7.845  1.00  0.00     0.049 A 
ATOM     61  H   UNL     1       2.077 -10.419  -7.470  1.00  0.00     0.167 HD
ATOM     62  C   UNL     1       3.275  -7.158  -9.557  1.00  0.00     0.074 A 
ATOM     63  C   UNL     1       4.646  -6.718  -9.410  1.00  0.00     0.031 C 
ATOM     64  C   UNL     1       2.655  -8.178  -8.909  1.00  0.00     0.037 A 
BRANCH  51  65
ATOM     65  C   UNL     1       2.220 -11.539  -4.445  1.00  0.00     0.064 A 
ATOM     66  C   UNL     1       3.177 -12.534  -4.747  1.00  0.00     0.173 A 
ATOM     67  C   UNL     1       0.918 -11.979  -4.177  1.00  0.00     0.173 A 
ATOM     68  F   UNL     1       4.460 -12.207  -4.970  1.00  0.00    -0.203 F 
ATOM     69  C   UNL     1       2.822 -13.869  -4.907  1.00  0.00     0.198 A 
ATOM     70  C   UNL     1       0.575 -13.329  -4.292  1.00  0.00     0.198 A 
ATOM     71  F   UNL     1      -0.064 -11.111  -3.899  1.00  0.00    -0.203 F 
ATOM     72  F   UNL     1       3.734 -14.755  -5.330  1.00  0.00    -0.200 F 
ATOM     73  C   UNL     1       1.515 -14.263  -4.698  1.00  0.00     0.200 A 
ATOM     74  F   UNL     1      -0.692 -13.711  -4.082  1.00  0.00    -0.200 F 
ATOM     75  F   UNL     1       1.152 -15.534  -4.921  1.00  0.00    -0.200 F 
ENDBRANCH  51  65
BRANCH  52  76
ATOM     76  C   UNL     1       3.295  -2.674 -10.283  1.00  0.00     0.064 A 
ATOM     77  C   UNL     1       2.971  -1.313 -10.284  1.00  0.00     0.173 A 
ATOM     78  C   UNL     1       4.266  -3.039 -11.265  1.00  0.00     0.173 A 
ATOM     79  F   UNL     1       2.006  -0.834  -9.492  1.00  0.00    -0.203 F 
ATOM     80  C   UNL     1       3.642  -0.388 -11.110  1.00  0.00     0.198 A 
ATOM     81  C   UNL     1       4.971  -2.119 -12.040  1.00  0.00     0.198 A 
ATOM     82  F   UNL     1       4.586  -4.319 -11.499  1.00  0.00    -0.203 F 
ATOM     83  F   UNL     1       3.304   0.909 -11.069  1.00  0.00    -0.200 F 
ATOM     84  C   UNL     1       4.669  -0.784 -11.951  1.00  0.00     0.200 A 
ATOM     85  F   UNL     1       5.956  -2.545 -12.844  1.00  0.00    -0.200 F 
ATOM     86  F   UNL     1       5.358   0.109 -12.674  1.00  0.00    -0.200 F 
ENDBRANCH  52  76
BRANCH  64  87
ATOM     87  C   UNL     1       1.148  -8.217  -9.127  1.00  0.00     0.064 A 
ATOM     88  C   UNL     1       0.633  -8.342 -10.428  1.00  0.00     0.173 A 
ATOM     89  C   UNL     1       0.196  -7.989  -8.119  1.00  0.00     0.173 A 
ATOM     90  F   UNL     1       1.462  -8.596 -11.452  1.00  0.00    -0.203 F 
ATOM     91  C   UNL     1      -0.732  -8.203 -10.701  1.00  0.00     0.198 A 
ATOM     92  C   UNL     1      -1.169  -7.847  -8.385  1.00  0.00     0.198 A 
ATOM     93  F   UNL     1       0.560  -7.910  -6.843  1.00  0.00    -0.203 F 
ATOM     94  F   UNL     1      -1.176  -8.319 -11.960  1.00  0.00    -0.200 F 
ATOM     95  C   UNL     1      -1.632  -7.946  -9.681  1.00  0.00     0.200 A 
ATOM     96  F   UNL     1      -2.029  -7.621  -7.379  1.00  0.00    -0.200 F 
ATOM     97  F   UNL     1      -2.941  -7.816  -9.941  1.00  0.00    -0.200 F 
ENDBRANCH  64  87
ENDBRANCH  38  39
ENDBRANCH  31  33
ENDBRANCH  30  31
ENDBRANCH  29  30
ENDBRANCH  28  29
ENDBRANCH  27  28
ENDBRANCH  26  27
ENDBRANCH  25  26
ENDBRANCH  24  25
ENDBRANCH   1  24
TORSDOF 23
