REMARK SMILES C[NH2+][C@]1(C(=O)OCCOCCOCCOC(=O)c2ccc(-c3c4nc(c(-c5c(F)c(F)c(F)c(F)c5F)c5ccc([nH]5)c(-c5c(F)c(F)c(F)c(F)c5F)c5nc(c(-c6c(F)c(F)c(F)c(F)c6F)c6ccc3[nH]6)C=C5)C=C4)cc2)CC[C@@H](Sc2cc(F)ccc2F)C1
REMARK SMILES IDX 10 1 9 2 8 3 7 4 6 5 4 6 5 7 3 8 81 9 93 10 82 11 83 12 2 13
REMARK SMILES IDX 1 14 84 17 85 18 86 19 91 20 87 21 90 22 92 23 88 24 89 25
REMARK SMILES IDX 11 26 12 27 13 28 14 29 15 30 16 31 17 32 18 33 19 34 80 35
REMARK SMILES IDX 20 36 79 37 21 38 22 39 23 40 73 41 24 42 78 43 72 44 74 45
REMARK SMILES IDX 25 46 77 47 71 48 70 49 26 51 58 52 38 53 57 54 39 55 42 56
REMARK SMILES IDX 56 57 75 58 40 59 41 60 55 62 76 63 43 64 27 65 28 66 36 67
REMARK SMILES IDX 29 68 30 69 34 70 37 71 31 72 32 73 35 74 33 75 59 76 60 77
REMARK SMILES IDX 68 78 61 79 62 80 66 81 69 82 63 83 64 84 67 85 65 86 44 87
REMARK SMILES IDX 45 88 53 89 46 90 47 91 51 92 54 93 48 94 49 95 52 96 50 97
REMARK H PARENT 2 15 2 16 74 50 42 61
REMARK Flexibility Score: inf
ROOT
ATOM      1  C   UNL     1       1.836   0.020   2.088  1.00  0.00     0.188 C 
ENDROOT
BRANCH   1   2
ATOM      2  O   UNL     1       3.151  -0.381   1.722  1.00  0.00    -0.376 OA
BRANCH   2   3
ATOM      3  C   UNL     1       3.399  -0.788   0.380  1.00  0.00     0.202 C 
BRANCH   3   4
ATOM      4  C   UNL     1       2.463  -1.807  -0.295  1.00  0.00     0.261 C 
BRANCH   4   5
ATOM      5  O   UNL     1       1.068  -1.438  -0.329  1.00  0.00    -0.459 OA
BRANCH   5   6
ATOM      6  C   UNL     1       0.196  -2.298   0.269  1.00  0.00     0.368 C 
ATOM      7  O   UNL     1       0.533  -3.361   0.786  1.00  0.00    -0.245 OA
BRANCH   6   8
ATOM      8  C   UNL     1      -1.282  -1.785   0.289  1.00  0.00     0.195 C 
ATOM      9  C   UNL     1      -1.605  -0.597  -0.650  1.00  0.00     0.082 C 
ATOM     10  C   UNL     1      -2.153  -2.911  -0.324  1.00  0.00     0.096 C 
ATOM     11  C   UNL     1      -3.090  -0.741  -0.960  1.00  0.00     0.022 C 
ATOM     12  C   UNL     1      -3.310  -2.243  -1.069  1.00  0.00     0.059 C 
BRANCH   8  13
ATOM     13  N   UNL     1      -1.637  -1.355   1.677  1.00  0.00    -0.335 N 
ATOM     14  C   UNL     1      -1.987  -2.425   2.600  1.00  0.00     0.331 C 
ATOM     15  H   UNL     1      -0.837  -0.855   2.064  1.00  0.00     0.347 HD
ATOM     16  H   UNL     1      -2.477  -0.782   1.584  1.00  0.00     0.347 HD
ENDBRANCH   8  13
BRANCH  12  17
ATOM     17  S   UNL     1      -3.527  -2.882  -2.784  1.00  0.00    -0.119 SA
BRANCH  17  18
ATOM     18  C   UNL     1      -2.264  -2.035  -3.724  1.00  0.00     0.046 A 
ATOM     19  C   UNL     1      -2.659  -1.019  -4.601  1.00  0.00     0.057 A 
ATOM     20  C   UNL     1      -0.908  -2.393  -3.691  1.00  0.00     0.136 A 
ATOM     21  C   UNL     1      -1.713  -0.376  -5.396  1.00  0.00     0.124 A 
ATOM     22  C   UNL     1       0.038  -1.735  -4.477  1.00  0.00     0.043 A 
ATOM     23  F   UNL     1      -0.476  -3.383  -2.899  1.00  0.00    -0.206 F 
ATOM     24  F   UNL     1      -2.108   0.587  -6.239  1.00  0.00    -0.207 F 
ATOM     25  C   UNL     1      -0.367  -0.720  -5.339  1.00  0.00     0.042 A 
ENDBRANCH  17  18
ENDBRANCH  12  17
ENDBRANCH   6   8
ENDBRANCH   5   6
ENDBRANCH   4   5
ENDBRANCH   3   4
ENDBRANCH   2   3
ENDBRANCH   1   2
BRANCH   1  26
ATOM     26  C   UNL     1       1.079   0.995   1.172  1.00  0.00     0.188 C 
BRANCH  26  27
ATOM     27  O   UNL     1       1.772   1.393   0.016  1.00  0.00    -0.376 OA
BRANCH  27  28
ATOM     28  C   UNL     1       2.358   2.680  -0.033  1.00  0.00     0.202 C 
BRANCH  28  29
ATOM     29  C   UNL     1       2.966   3.379   1.200  1.00  0.00     0.261 C 
BRANCH  29  30
ATOM     30  O   UNL     1       2.459   3.027   2.495  1.00  0.00    -0.460 OA
BRANCH  30  31
ATOM     31  C   UNL     1       1.356   3.683   2.928  1.00  0.00     0.338 C 
ATOM     32  O   UNL     1       0.730   4.540   2.339  1.00  0.00    -0.246 OA
BRANCH  31  33
ATOM     33  C   UNL     1       0.900   3.020   4.173  1.00  0.00     0.060 A 
ATOM     34  C   UNL     1      -0.340   2.364   4.179  1.00  0.00     0.016 A 
ATOM     35  C   UNL     1       1.692   3.041   5.322  1.00  0.00     0.016 A 
ATOM     36  C   UNL     1      -0.802   1.747   5.343  1.00  0.00     0.010 A 
ATOM     37  C   UNL     1       1.216   2.444   6.494  1.00  0.00     0.010 A 
ATOM     38  C   UNL     1      -0.045   1.819   6.519  1.00  0.00    -0.014 A 
BRANCH  38  39
ATOM     39  C   UNL     1      -0.643   1.415   7.816  1.00  0.00     0.031 A 
ATOM     40  C   UNL     1      -1.206   2.488   8.707  1.00  0.00     0.074 A 
ATOM     41  C   UNL     1      -0.693   0.128   8.200  1.00  0.00     0.049 A 
ATOM     42  N   UNL     1      -1.692   2.399   9.919  1.00  0.00    -0.248 NA
ATOM     43  C   UNL     1      -1.217   3.852   8.153  1.00  0.00     0.031 C 
ATOM     44  C   UNL     1      -0.231  -1.010   7.410  1.00  0.00     0.029 A 
ATOM     45  N   UNL     1      -1.144  -0.433   9.370  1.00  0.00    -0.354 N 
ATOM     46  C   UNL     1      -2.053   3.692  10.275  1.00  0.00     0.074 A 
ATOM     47  C   UNL     1      -1.706   4.551   9.165  1.00  0.00     0.031 C 
ATOM     48  C   UNL     1      -0.402  -2.135   8.127  1.00  0.00     0.029 A 
ATOM     49  C   UNL     1      -0.950  -1.791   9.439  1.00  0.00     0.049 A 
ATOM     50  H   UNL     1      -1.567   0.088  10.091  1.00  0.00     0.167 HD
ATOM     51  C   UNL     1      -2.628   4.122  11.423  1.00  0.00     0.037 A 
ATOM     52  C   UNL     1      -1.161  -2.648  10.458  1.00  0.00     0.037 A 
ATOM     53  C   UNL     1      -2.970   3.266  12.528  1.00  0.00     0.049 A 
ATOM     54  C   UNL     1      -1.722  -2.131  11.761  1.00  0.00     0.074 A 
ATOM     55  C   UNL     1      -3.569   3.605  13.729  1.00  0.00     0.029 A 
ATOM     56  N   UNL     1      -2.731   1.901  12.573  1.00  0.00    -0.354 N 
ATOM     57  N   UNL     1      -2.081  -0.913  12.086  1.00  0.00    -0.248 NA
ATOM     58  C   UNL     1      -1.908  -3.114  12.839  1.00  0.00     0.031 C 
ATOM     59  C   UNL     1      -3.636   2.457  14.524  1.00  0.00     0.029 A 
ATOM     60  C   UNL     1      -3.143   1.388  13.792  1.00  0.00     0.049 A 
ATOM     61  H   UNL     1      -2.328   1.373  11.845  1.00  0.00     0.167 HD
ATOM     62  C   UNL     1      -2.566  -0.988  13.387  1.00  0.00     0.074 A 
ATOM     63  C   UNL     1      -2.466  -2.375  13.788  1.00  0.00     0.031 C 
ATOM     64  C   UNL     1      -3.051   0.002  14.177  1.00  0.00     0.037 A 
BRANCH  51  65
ATOM     65  C   UNL     1      -2.893   5.595  11.556  1.00  0.00     0.064 A 
ATOM     66  C   UNL     1      -3.880   6.241  10.797  1.00  0.00     0.173 A 
ATOM     67  C   UNL     1      -2.166   6.364  12.478  1.00  0.00     0.173 A 
ATOM     68  F   UNL     1      -4.592   5.556   9.890  1.00  0.00    -0.203 F 
ATOM     69  C   UNL     1      -4.109   7.608  10.936  1.00  0.00     0.198 A 
ATOM     70  C   UNL     1      -2.422   7.722  12.639  1.00  0.00     0.198 A 
ATOM     71  F   UNL     1      -1.213   5.795  13.232  1.00  0.00    -0.203 F 
ATOM     72  F   UNL     1      -5.021   8.214  10.163  1.00  0.00    -0.200 F 
ATOM     73  C   UNL     1      -3.387   8.345  11.862  1.00  0.00     0.200 A 
ATOM     74  F   UNL     1      -1.732   8.430  13.544  1.00  0.00    -0.200 F 
ATOM     75  F   UNL     1      -3.615   9.658  12.000  1.00  0.00    -0.200 F 
ENDBRANCH  51  65
BRANCH  52  76
ATOM     76  C   UNL     1      -0.823  -4.089  10.303  1.00  0.00     0.064 A 
ATOM     77  C   UNL     1      -1.823  -5.072  10.305  1.00  0.00     0.173 A 
ATOM     78  C   UNL     1       0.508  -4.516  10.184  1.00  0.00     0.173 A 
ATOM     79  F   UNL     1      -3.109  -4.718  10.447  1.00  0.00    -0.203 F 
ATOM     80  C   UNL     1      -1.504  -6.426  10.217  1.00  0.00     0.198 A 
ATOM     81  C   UNL     1       0.824  -5.868  10.064  1.00  0.00     0.198 A 
ATOM     82  F   UNL     1       1.504  -3.619  10.185  1.00  0.00    -0.203 F 
ATOM     83  F   UNL     1      -2.476  -7.346  10.280  1.00  0.00    -0.200 F 
ATOM     84  C   UNL     1      -0.182  -6.822  10.090  1.00  0.00     0.200 A 
ATOM     85  F   UNL     1       2.103  -6.246   9.932  1.00  0.00    -0.200 F 
ATOM     86  F   UNL     1       0.125  -8.124  10.006  1.00  0.00    -0.200 F 
ENDBRANCH  52  76
BRANCH  64  87
ATOM     87  C   UNL     1      -3.562  -0.380  15.539  1.00  0.00     0.064 A 
ATOM     88  C   UNL     1      -2.701  -0.785  16.569  1.00  0.00     0.173 A 
ATOM     89  C   UNL     1      -4.934  -0.294  15.829  1.00  0.00     0.173 A 
ATOM     90  F   UNL     1      -1.383  -0.897  16.342  1.00  0.00    -0.203 F 
ATOM     91  C   UNL     1      -3.195  -1.117  17.828  1.00  0.00     0.198 A 
ATOM     92  C   UNL     1      -5.420  -0.592  17.099  1.00  0.00     0.198 A 
ATOM     93  F   UNL     1      -5.802   0.098  14.884  1.00  0.00    -0.203 F 
ATOM     94  F   UNL     1      -2.359  -1.551  18.781  1.00  0.00    -0.200 F 
ATOM     95  C   UNL     1      -4.552  -1.011  18.095  1.00  0.00     0.200 A 
ATOM     96  F   UNL     1      -6.729  -0.471  17.359  1.00  0.00    -0.200 F 
ATOM     97  F   UNL     1      -5.024  -1.321  19.310  1.00  0.00    -0.200 F 
ENDBRANCH  64  87
ENDBRANCH  38  39
ENDBRANCH  31  33
ENDBRANCH  30  31
ENDBRANCH  29  30
ENDBRANCH  28  29
ENDBRANCH  27  28
ENDBRANCH  26  27
ENDBRANCH   1  26
TORSDOF 20
