REMARK SMILES COc1ccc(-c2nc(NCC(=O)OCCOCCOCCOC(=O)c3ccc(-c4c5nc(c(-c6c(F)c(F)c(F)c(F)c6F)c6ccc([nH]6)c(-c6c(F)c(F)c(F)c(F)c6F)c6nc(c(-c7c(F)c(F)c(F)c(F)c7F)c7ccc4[nH]7)C=C6)C=C5)cc3)sc2-c2ccc(OC)cc2)cc1
REMARK SMILES IDX 18 1 17 2 16 3 15 4 14 5 12 6 13 7 11 8 10 9 9 11 7 12 8 13
REMARK SMILES IDX 90 14 89 15 6 16 3 17 4 18 100 19 5 20 99 21 2 22 1 23 91 24
REMARK SMILES IDX 92 25 98 26 93 27 97 28 94 29 95 30 96 31 19 32 20 33 21 34
REMARK SMILES IDX 22 35 23 36 24 37 25 38 26 39 27 40 88 41 28 42 87 43 29 44
REMARK SMILES IDX 30 45 31 46 81 47 32 48 86 49 80 50 82 51 33 52 85 53 79 54
REMARK SMILES IDX 78 55 34 57 66 58 46 59 65 60 47 61 50 62 64 63 83 64 48 65
REMARK SMILES IDX 49 66 63 68 84 69 51 70 35 71 36 72 44 73 37 74 38 75 42 76
REMARK SMILES IDX 45 77 39 78 40 79 43 80 41 81 67 82 68 83 76 84 69 85 70 86
REMARK SMILES IDX 74 87 77 88 71 89 72 90 75 91 73 92 52 93 53 94 61 95 54 96
REMARK SMILES IDX 55 97 59 98 62 99 56 100 57 101 60 102 58 103
REMARK H PARENT 10 10 82 56 50 67
REMARK Flexibility Score: inf
ROOT
ATOM      1  C   UNL     1       6.766 -10.596  -4.555  1.00  0.00     0.188 C 
ENDROOT
BRANCH   1   2
ATOM      2  O   UNL     1       7.782 -10.438  -5.540  1.00  0.00    -0.376 OA
BRANCH   2   3
ATOM      3  C   UNL     1       7.814  -9.232  -6.302  1.00  0.00     0.202 C 
BRANCH   3   4
ATOM      4  C   UNL     1       6.523  -8.792  -7.017  1.00  0.00     0.261 C 
BRANCH   4   5
ATOM      5  O   UNL     1       5.364  -8.712  -6.159  1.00  0.00    -0.462 OA
BRANCH   5   6
ATOM      6  C   UNL     1       4.215  -9.277  -6.621  1.00  0.00     0.325 C 
ATOM      7  O   UNL     1       4.085  -9.726  -7.758  1.00  0.00    -0.250 OA
BRANCH   6   8
ATOM      8  C   UNL     1       3.139  -9.495  -5.548  1.00  0.00     0.238 C 
BRANCH   8   9
ATOM      9  N   UNL     1       3.134  -8.595  -4.401  1.00  0.00    -0.351 N 
ATOM     10  H   UNL     1       3.708  -8.839  -3.640  1.00  0.00     0.163 HD
BRANCH   9  11
ATOM     11  C   UNL     1       2.416  -7.462  -4.287  1.00  0.00     0.184 A 
ATOM     12  C   UNL     1       1.507  -5.721  -3.253  1.00  0.00     0.091 A 
ATOM     13  N   UNL     1       2.409  -6.771  -3.166  1.00  0.00    -0.220 NA
ATOM     14  C   UNL     1       0.837  -5.634  -4.462  1.00  0.00     0.064 A 
ATOM     15  S   UNL     1       1.419  -6.836  -5.530  1.00  0.00    -0.096 S 
BRANCH  12  16
ATOM     16  C   UNL     1       1.320  -4.751  -2.179  1.00  0.00     0.002 A 
ATOM     17  C   UNL     1       0.878  -2.584  -0.448  1.00  0.00     0.118 A 
ATOM     18  C   UNL     1      -0.161  -3.465  -0.743  1.00  0.00     0.047 A 
ATOM     19  C   UNL     1       2.159  -2.833  -0.943  1.00  0.00     0.047 A 
ATOM     20  C   UNL     1       0.056  -4.542  -1.610  1.00  0.00     0.014 A 
ATOM     21  C   UNL     1       2.380  -3.917  -1.803  1.00  0.00     0.014 A 
BRANCH  17  22
ATOM     22  O   UNL     1       0.571  -1.530   0.369  1.00  0.00    -0.497 OA
ATOM     23  C   UNL     1       1.068  -0.280  -0.107  1.00  0.00     0.278 C 
ENDBRANCH  17  22
ENDBRANCH  12  16
BRANCH  14  24
ATOM     24  C   UNL     1      -0.162  -4.695  -4.948  1.00  0.00    -0.006 A 
ATOM     25  C   UNL     1      -1.425  -5.146  -5.347  1.00  0.00     0.013 A 
ATOM     26  C   UNL     1       0.139  -3.332  -5.026  1.00  0.00     0.013 A 
ATOM     27  C   UNL     1      -2.364  -4.243  -5.840  1.00  0.00     0.047 A 
ATOM     28  C   UNL     1      -0.806  -2.430  -5.515  1.00  0.00     0.047 A 
ATOM     29  C   UNL     1      -2.060  -2.884  -5.928  1.00  0.00     0.118 A 
BRANCH  29  30
ATOM     30  O   UNL     1      -3.062  -2.107  -6.438  1.00  0.00    -0.497 OA
ATOM     31  C   UNL     1      -2.824  -0.705  -6.453  1.00  0.00     0.278 C 
ENDBRANCH  29  30
ENDBRANCH  14  24
ENDBRANCH   9  11
ENDBRANCH   8   9
ENDBRANCH   6   8
ENDBRANCH   5   6
ENDBRANCH   4   5
ENDBRANCH   3   4
ENDBRANCH   2   3
ENDBRANCH   1   2
BRANCH   1  32
ATOM     32  C   UNL     1       6.415  -9.405  -3.648  1.00  0.00     0.188 C 
BRANCH  32  33
ATOM     33  O   UNL     1       7.213  -8.265  -3.861  1.00  0.00    -0.376 OA
BRANCH  33  34
ATOM     34  C   UNL     1       7.883  -7.715  -2.746  1.00  0.00     0.202 C 
BRANCH  34  35
ATOM     35  C   UNL     1       8.938  -8.611  -2.078  1.00  0.00     0.261 C 
BRANCH  35  36
ATOM     36  O   UNL     1       8.538  -9.968  -1.808  1.00  0.00    -0.460 OA
BRANCH  36  37
ATOM     37  C   UNL     1       7.709 -10.168  -0.762  1.00  0.00     0.338 C 
ATOM     38  O   UNL     1       7.274  -9.317   0.006  1.00  0.00    -0.246 OA
BRANCH  37  39
ATOM     39  C   UNL     1       7.214 -11.561  -0.823  1.00  0.00     0.060 A 
ATOM     40  C   UNL     1       5.834 -11.789  -0.943  1.00  0.00     0.016 A 
ATOM     41  C   UNL     1       8.100 -12.637  -0.755  1.00  0.00     0.016 A 
ATOM     42  C   UNL     1       5.335 -13.093  -0.952  1.00  0.00     0.010 A 
ATOM     43  C   UNL     1       7.598 -13.942  -0.739  1.00  0.00     0.010 A 
ATOM     44  C   UNL     1       6.211 -14.175  -0.796  1.00  0.00    -0.014 A 
BRANCH  44  45
ATOM     45  C   UNL     1       5.670 -15.514  -0.448  1.00  0.00     0.031 A 
ATOM     46  C   UNL     1       5.644 -15.910   1.004  1.00  0.00     0.074 A 
ATOM     47  C   UNL     1       5.197 -16.358  -1.381  1.00  0.00     0.049 A 
ATOM     48  N   UNL     1       5.278 -17.037   1.559  1.00  0.00    -0.248 NA
ATOM     49  C   UNL     1       6.103 -14.889   1.959  1.00  0.00     0.031 C 
ATOM     50  C   UNL     1       5.125 -16.084  -2.812  1.00  0.00     0.029 A 
ATOM     51  N   UNL     1       4.696 -17.631  -1.253  1.00  0.00    -0.354 N 
ATOM     52  C   UNL     1       5.475 -16.864   2.923  1.00  0.00     0.074 A 
ATOM     53  C   UNL     1       6.027 -15.540   3.108  1.00  0.00     0.031 C 
ATOM     54  C   UNL     1       4.623 -17.165  -3.436  1.00  0.00     0.029 A 
ATOM     55  C   UNL     1       4.370 -18.216  -2.451  1.00  0.00     0.049 A 
ATOM     56  H   UNL     1       4.581 -18.080  -0.384  1.00  0.00     0.167 HD
ATOM     57  C   UNL     1       5.212 -17.727   3.934  1.00  0.00     0.037 A 
ATOM     58  C   UNL     1       3.940 -19.465  -2.719  1.00  0.00     0.037 A 
ATOM     59  C   UNL     1       4.670 -19.048   3.749  1.00  0.00     0.049 A 
ATOM     60  C   UNL     1       3.718 -20.437  -1.586  1.00  0.00     0.074 A 
ATOM     61  C   UNL     1       4.357 -19.994   4.708  1.00  0.00     0.029 A 
ATOM     62  N   UNL     1       4.374 -19.614   2.517  1.00  0.00    -0.354 N 
ATOM     63  N   UNL     1       3.885 -20.262  -0.297  1.00  0.00    -0.248 NA
ATOM     64  C   UNL     1       3.238 -21.778  -1.948  1.00  0.00     0.031 C 
ATOM     65  C   UNL     1       3.929 -21.155   4.054  1.00  0.00     0.029 A 
ATOM     66  C   UNL     1       3.905 -20.907   2.690  1.00  0.00     0.049 A 
ATOM     67  H   UNL     1       4.480 -19.163   1.648  1.00  0.00     0.167 HD
ATOM     68  C   UNL     1       3.497 -21.454   0.306  1.00  0.00     0.074 A 
ATOM     69  C   UNL     1       3.078 -22.340  -0.759  1.00  0.00     0.031 C 
ATOM     70  C   UNL     1       3.482 -21.780   1.623  1.00  0.00     0.037 A 
BRANCH  57  71
ATOM     71  C   UNL     1       5.551 -17.275   5.326  1.00  0.00     0.064 A 
ATOM     72  C   UNL     1       4.853 -16.235   5.961  1.00  0.00     0.173 A 
ATOM     73  C   UNL     1       6.596 -17.889   6.034  1.00  0.00     0.173 A 
ATOM     74  F   UNL     1       3.856 -15.603   5.323  1.00  0.00    -0.203 F 
ATOM     75  C   UNL     1       5.218 -15.798   7.232  1.00  0.00     0.198 A 
ATOM     76  C   UNL     1       6.932 -17.474   7.320  1.00  0.00     0.198 A 
ATOM     77  F   UNL     1       7.294 -18.890   5.478  1.00  0.00    -0.203 F 
ATOM     78  F   UNL     1       4.583 -14.757   7.788  1.00  0.00    -0.200 F 
ATOM     79  C   UNL     1       6.253 -16.422   7.912  1.00  0.00     0.200 A 
ATOM     80  F   UNL     1       7.924 -18.088   7.981  1.00  0.00    -0.200 F 
ATOM     81  F   UNL     1       6.603 -15.999   9.135  1.00  0.00    -0.200 F 
ENDBRANCH  57  71
BRANCH  58  82
ATOM     82  C   UNL     1       3.691 -19.874  -4.128  1.00  0.00     0.064 A 
ATOM     83  C   UNL     1       2.392 -20.134  -4.588  1.00  0.00     0.173 A 
ATOM     84  C   UNL     1       4.747 -20.023  -5.038  1.00  0.00     0.173 A 
ATOM     85  F   UNL     1       1.351 -20.034  -3.748  1.00  0.00    -0.203 F 
ATOM     86  C   UNL     1       2.162 -20.539  -5.902  1.00  0.00     0.198 A 
ATOM     87  C   UNL     1       4.513 -20.398  -6.359  1.00  0.00     0.198 A 
ATOM     88  F   UNL     1       6.009 -19.792  -4.647  1.00  0.00    -0.203 F 
ATOM     89  F   UNL     1       0.916 -20.824  -6.303  1.00  0.00    -0.200 F 
ATOM     90  C   UNL     1       3.221 -20.663  -6.788  1.00  0.00     0.200 A 
ATOM     91  F   UNL     1       5.538 -20.506  -7.215  1.00  0.00    -0.200 F 
ATOM     92  F   UNL     1       2.998 -21.045  -8.053  1.00  0.00    -0.200 F 
ENDBRANCH  58  82
BRANCH  70  93
ATOM     93  C   UNL     1       2.944 -23.134   1.999  1.00  0.00     0.064 A 
ATOM     94  C   UNL     1       3.627 -24.320   1.693  1.00  0.00     0.173 A 
ATOM     95  C   UNL     1       1.736 -23.241   2.708  1.00  0.00     0.173 A 
ATOM     96  F   UNL     1       4.780 -24.279   1.008  1.00  0.00    -0.203 F 
ATOM     97  C   UNL     1       3.104 -25.562   2.050  1.00  0.00     0.198 A 
ATOM     98  C   UNL     1       1.235 -24.480   3.096  1.00  0.00     0.198 A 
ATOM     99  F   UNL     1       1.045 -22.139   3.038  1.00  0.00    -0.203 F 
ATOM    100  F   UNL     1       3.745 -26.684   1.695  1.00  0.00    -0.200 F 
ATOM    101  C   UNL     1       1.914 -25.641   2.757  1.00  0.00     0.200 A 
ATOM    102  F   UNL     1       0.094 -24.552   3.795  1.00  0.00    -0.200 F 
ATOM    103  F   UNL     1       1.415 -26.835   3.104  1.00  0.00    -0.200 F 
ENDBRANCH  70  93
ENDBRANCH  44  45
ENDBRANCH  37  39
ENDBRANCH  36  37
ENDBRANCH  35  36
ENDBRANCH  34  35
ENDBRANCH  33  34
ENDBRANCH  32  33
ENDBRANCH   1  32
TORSDOF 23
