REMARK SMILES Cc1sc(C(=O)OCCOCCOCCOC(=O)c2ccc(-c3c4nc(c(-c5c(F)c(F)c(F)c(F)c5F)c5ccc([nH]5)c(-c5c(F)c(F)c(F)c(F)c5F)c5nc(c(-c6c(F)c(F)c(F)c(F)c6F)c6ccc3[nH]6)C=C5)C=C4)cc2)cc1Br
REMARK SMILES IDX 12 1 11 2 10 3 9 4 8 5 7 6 5 7 6 8 4 9 1 10 2 11 3 12 83 13
REMARK SMILES IDX 82 14 84 15 13 16 14 17 15 18 16 19 17 20 18 21 19 22 20 23
REMARK SMILES IDX 81 24 21 25 80 26 22 27 23 28 24 29 74 30 25 31 79 32 73 33
REMARK SMILES IDX 75 34 26 35 78 36 72 37 71 38 27 40 59 41 39 42 58 43 40 44
REMARK SMILES IDX 43 45 57 46 76 47 41 48 42 49 56 51 77 52 44 53 28 54 29 55
REMARK SMILES IDX 37 56 30 57 31 58 35 59 38 60 32 61 33 62 36 63 34 64 60 65
REMARK SMILES IDX 61 66 69 67 62 68 63 69 67 70 70 71 64 72 65 73 68 74 66 75
REMARK SMILES IDX 45 76 46 77 54 78 47 79 48 80 52 81 55 82 49 83 50 84 53 85
REMARK SMILES IDX 51 86
REMARK H PARENT 75 39 43 50
REMARK Flexibility Score: inf
ROOT
ATOM      1  C   UNL     1      -3.045   3.195  -2.021  1.00  0.00     0.188 C 
ENDROOT
BRANCH   1   2
ATOM      2  C   UNL     1      -4.357   2.892  -1.270  1.00  0.00     0.188 C 
BRANCH   2   3
ATOM      3  O   UNL     1      -5.117   3.946  -0.690  1.00  0.00    -0.376 OA
BRANCH   3   4
ATOM      4  C   UNL     1      -4.458   5.032  -0.054  1.00  0.00     0.202 C 
BRANCH   4   5
ATOM      5  C   UNL     1      -3.639   4.724   1.202  1.00  0.00     0.261 C 
BRANCH   5   6
ATOM      6  O   UNL     1      -2.618   3.736   0.990  1.00  0.00    -0.459 OA
BRANCH   6   7
ATOM      7  C   UNL     1      -2.762   2.574   1.700  1.00  0.00     0.348 C 
ATOM      8  O   UNL     1      -3.617   2.381   2.548  1.00  0.00    -0.245 OA
BRANCH   7   9
ATOM      9  C   UNL     1      -1.821   1.583   1.204  1.00  0.00     0.114 A 
ATOM     10  C   UNL     1      -0.672  -2.029   0.159  1.00  0.00     0.057 C 
ATOM     11  C   UNL     1      -0.850  -0.582   0.471  1.00  0.00     0.017 A 
ATOM     12  S   UNL     1      -2.261  -0.072   1.299  1.00  0.00    -0.132 S 
ATOM     13  C   UNL     1      -0.044   0.495   0.182  1.00  0.00     0.032 A 
ATOM     14  C   UNL     1      -0.590   1.740   0.595  1.00  0.00     0.043 A 
ATOM     15  Br  UNL     1       1.622   0.418  -0.707  1.00  0.00    -0.050 Br
ENDBRANCH   7   9
ENDBRANCH   6   7
ENDBRANCH   5   6
ENDBRANCH   4   5
ENDBRANCH   3   4
ENDBRANCH   2   3
ENDBRANCH   1   2
BRANCH   1  16
ATOM     16  O   UNL     1      -2.872   4.560  -2.361  1.00  0.00    -0.376 OA
BRANCH  16  17
ATOM     17  C   UNL     1      -2.859   4.864  -3.748  1.00  0.00     0.202 C 
BRANCH  17  18
ATOM     18  C   UNL     1      -4.241   4.834  -4.410  1.00  0.00     0.261 C 
BRANCH  18  19
ATOM     19  O   UNL     1      -4.939   3.583  -4.305  1.00  0.00    -0.460 OA
BRANCH  19  20
ATOM     20  C   UNL     1      -4.455   2.549  -5.026  1.00  0.00     0.338 C 
ATOM     21  O   UNL     1      -3.473   2.545  -5.745  1.00  0.00    -0.246 OA
BRANCH  20  22
ATOM     22  C   UNL     1      -5.243   1.348  -4.676  1.00  0.00     0.060 A 
ATOM     23  C   UNL     1      -4.583   0.233  -4.148  1.00  0.00     0.016 A 
ATOM     24  C   UNL     1      -6.626   1.326  -4.873  1.00  0.00     0.016 A 
ATOM     25  C   UNL     1      -5.309  -0.920  -3.834  1.00  0.00     0.010 A 
ATOM     26  C   UNL     1      -7.347   0.167  -4.574  1.00  0.00     0.010 A 
ATOM     27  C   UNL     1      -6.689  -0.971  -4.076  1.00  0.00    -0.014 A 
BRANCH  27  28
ATOM     28  C   UNL     1      -7.422  -2.256  -3.957  1.00  0.00     0.031 A 
ATOM     29  C   UNL     1      -7.621  -3.091  -5.191  1.00  0.00     0.074 A 
ATOM     30  C   UNL     1      -7.907  -2.678  -2.775  1.00  0.00     0.049 A 
ATOM     31  N   UNL     1      -8.264  -4.221  -5.339  1.00  0.00    -0.248 NA
ATOM     32  C   UNL     1      -7.011  -2.579  -6.429  1.00  0.00     0.031 C 
ATOM     33  C   UNL     1      -7.761  -1.978  -1.502  1.00  0.00     0.029 A 
ATOM     34  N   UNL     1      -8.635  -3.800  -2.462  1.00  0.00    -0.354 N 
ATOM     35  C   UNL     1      -8.133  -4.557  -6.680  1.00  0.00     0.074 A 
ATOM     36  C   UNL     1      -7.375  -3.498  -7.311  1.00  0.00     0.031 C 
ATOM     37  C   UNL     1      -8.394  -2.679  -0.544  1.00  0.00     0.029 A 
ATOM     38  C   UNL     1      -9.011  -3.863  -1.143  1.00  0.00     0.049 A 
ATOM     39  H   UNL     1      -8.866  -4.494  -3.122  1.00  0.00     0.167 HD
ATOM     40  C   UNL     1      -8.595  -5.653  -7.326  1.00  0.00     0.037 A 
ATOM     41  C   UNL     1      -9.783  -4.762  -0.501  1.00  0.00     0.037 A 
ATOM     42  C   UNL     1      -9.357  -6.703  -6.706  1.00  0.00     0.049 A 
ATOM     43  C   UNL     1     -10.349  -5.936  -1.260  1.00  0.00     0.074 A 
ATOM     44  C   UNL     1      -9.857  -7.860  -7.278  1.00  0.00     0.029 A 
ATOM     45  N   UNL     1      -9.739  -6.718  -5.373  1.00  0.00    -0.354 N 
ATOM     46  N   UNL     1     -10.191  -6.263  -2.520  1.00  0.00    -0.248 NA
ATOM     47  C   UNL     1     -11.202  -6.866  -0.505  1.00  0.00     0.031 C 
ATOM     48  C   UNL     1     -10.579  -8.554  -6.301  1.00  0.00     0.029 A 
ATOM     49  C   UNL     1     -10.489  -7.853  -5.110  1.00  0.00     0.049 A 
ATOM     50  H   UNL     1      -9.511  -6.025  -4.713  1.00  0.00     0.167 HD
ATOM     51  C   UNL     1     -10.896  -7.447  -2.700  1.00  0.00     0.074 A 
ATOM     52  C   UNL     1     -11.476  -7.787  -1.418  1.00  0.00     0.031 C 
ATOM     53  C   UNL     1     -11.050  -8.185  -3.826  1.00  0.00     0.037 A 
BRANCH  40  54
ATOM     54  C   UNL     1      -8.300  -5.764  -8.792  1.00  0.00     0.064 A 
ATOM     55  C   UNL     1      -7.014  -6.070  -9.259  1.00  0.00     0.173 A 
ATOM     56  C   UNL     1      -9.323  -5.598  -9.737  1.00  0.00     0.173 A 
ATOM     57  F   UNL     1      -6.000  -6.223  -8.394  1.00  0.00    -0.203 F 
ATOM     58  C   UNL     1      -6.758  -6.188 -10.623  1.00  0.00     0.198 A 
ATOM     59  C   UNL     1      -9.068  -5.740 -11.098  1.00  0.00     0.198 A 
ATOM     60  F   UNL     1     -10.570  -5.306  -9.340  1.00  0.00    -0.203 F 
ATOM     61  F   UNL     1      -5.513  -6.443 -11.050  1.00  0.00    -0.200 F 
ATOM     62  C   UNL     1      -7.786  -6.029 -11.540  1.00  0.00     0.200 A 
ATOM     63  F   UNL     1     -10.064  -5.596 -11.983  1.00  0.00    -0.200 F 
ATOM     64  F   UNL     1      -7.539  -6.149 -12.852  1.00  0.00    -0.200 F 
ENDBRANCH  40  54
BRANCH  41  65
ATOM     65  C   UNL     1     -10.086  -4.588   0.944  1.00  0.00     0.064 A 
ATOM     66  C   UNL     1      -9.570  -5.470   1.903  1.00  0.00     0.173 A 
ATOM     67  C   UNL     1     -10.931  -3.561   1.389  1.00  0.00     0.173 A 
ATOM     68  F   UNL     1      -8.785  -6.488   1.522  1.00  0.00    -0.203 F 
ATOM     69  C   UNL     1      -9.904  -5.344   3.251  1.00  0.00     0.198 A 
ATOM     70  C   UNL     1     -11.243  -3.420   2.740  1.00  0.00     0.198 A 
ATOM     71  F   UNL     1     -11.459  -2.697   0.510  1.00  0.00    -0.203 F 
ATOM     72  F   UNL     1      -9.441  -6.234   4.139  1.00  0.00    -0.200 F 
ATOM     73  C   UNL     1     -10.736  -4.317   3.668  1.00  0.00     0.200 A 
ATOM     74  F   UNL     1     -12.045  -2.424   3.140  1.00  0.00    -0.200 F 
ATOM     75  F   UNL     1     -11.062  -4.200   4.963  1.00  0.00    -0.200 F 
ENDBRANCH  41  65
BRANCH  53  76
ATOM     76  C   UNL     1     -11.845  -9.454  -3.720  1.00  0.00     0.064 A 
ATOM     77  C   UNL     1     -13.240  -9.440  -3.586  1.00  0.00     0.173 A 
ATOM     78  C   UNL     1     -11.205 -10.701  -3.803  1.00  0.00     0.173 A 
ATOM     79  F   UNL     1     -13.897  -8.274  -3.489  1.00  0.00    -0.203 F 
ATOM     80  C   UNL     1     -13.965 -10.627  -3.517  1.00  0.00     0.198 A 
ATOM     81  C   UNL     1     -11.935 -11.885  -3.761  1.00  0.00     0.198 A 
ATOM     82  F   UNL     1      -9.872 -10.769  -3.940  1.00  0.00    -0.203 F 
ATOM     83  F   UNL     1     -15.294 -10.591  -3.348  1.00  0.00    -0.200 F 
ATOM     84  C   UNL     1     -13.313 -11.848  -3.612  1.00  0.00     0.200 A 
ATOM     85  F   UNL     1     -11.304 -13.063  -3.866  1.00  0.00    -0.200 F 
ATOM     86  F   UNL     1     -14.013 -12.989  -3.554  1.00  0.00    -0.200 F 
ENDBRANCH  53  76
ENDBRANCH  27  28
ENDBRANCH  20  22
ENDBRANCH  19  20
ENDBRANCH  18  19
ENDBRANCH  17  18
ENDBRANCH  16  17
ENDBRANCH   1  16
TORSDOF 17
