REMARK SMILES Nc1cc([N+](=O)[O-])ccc1[C@H]([NH3+])C(=O)OCCOCCOCCOC(=O)c1ccc(-c2c3nc(c(-c4c(F)c(F)c(F)c(F)c4F)c4ccc([nH]4)c(-c4c(F)c(F)c(F)c(F)c4F)c4nc(c(-c5c(F)c(F)c(F)c(F)c5F)c5ccc2[nH]5)C=C4)C=C3)cc1
REMARK SMILES IDX 19 1 18 2 17 3 16 4 15 5 13 6 14 7 11 8 10 9 2 10 3 11 4 12
REMARK SMILES IDX 9 13 8 14 1 15 5 18 6 19 7 20 12 21 20 25 21 26 22 27 23 28
REMARK SMILES IDX 24 29 25 30 26 31 27 32 28 33 89 34 29 35 88 36 30 37 31 38
REMARK SMILES IDX 32 39 82 40 33 41 87 42 81 43 83 44 34 45 86 46 80 47 79 48
REMARK SMILES IDX 35 50 67 51 47 52 66 53 48 54 51 55 65 56 84 57 49 58 50 59
REMARK SMILES IDX 64 61 85 62 52 63 36 64 37 65 45 66 38 67 39 68 43 69 46 70
REMARK SMILES IDX 40 71 41 72 44 73 42 74 68 75 69 76 77 77 70 78 71 79 75 80
REMARK SMILES IDX 78 81 72 82 73 83 76 84 74 85 53 86 54 87 62 88 55 89 56 90
REMARK SMILES IDX 60 91 63 92 57 93 58 94 61 95 59 96
REMARK H PARENT 1 16 1 17 12 22 12 23 12 24 83 49 51 60
REMARK Flexibility Score: inf
ROOT
ATOM      1  C   UNL     1       1.172   2.693   3.425  1.00  0.00     0.188 C 
ENDROOT
BRANCH   1   2
ATOM      2  O   UNL     1       0.757   3.840   4.151  1.00  0.00    -0.376 OA
BRANCH   2   3
ATOM      3  C   UNL     1      -0.417   4.542   3.767  1.00  0.00     0.202 C 
BRANCH   3   4
ATOM      4  C   UNL     1      -0.564   5.071   2.333  1.00  0.00     0.261 C 
BRANCH   4   5
ATOM      5  O   UNL     1      -0.417   4.101   1.283  1.00  0.00    -0.459 OA
BRANCH   5   6
ATOM      6  C   UNL     1       0.741   4.156   0.564  1.00  0.00     0.369 C 
ATOM      7  O   UNL     1       1.655   4.943   0.805  1.00  0.00    -0.245 OA
BRANCH   6   8
ATOM      8  C   UNL     1       0.816   3.120  -0.603  1.00  0.00     0.325 C 
BRANCH   8   9
ATOM      9  C   UNL     1       0.639   3.733  -1.999  1.00  0.00     0.044 A 
ATOM     10  C   UNL     1       0.289   2.979  -3.147  1.00  0.00     0.048 A 
ATOM     11  C   UNL     1       0.029   3.640  -4.356  1.00  0.00     0.111 A 
ATOM     12  C   UNL     1       0.224   5.019  -4.473  1.00  0.00     0.271 A 
ATOM     13  C   UNL     1       0.883   5.117  -2.170  1.00  0.00     0.020 A 
ATOM     14  C   UNL     1       0.678   5.759  -3.388  1.00  0.00     0.086 A 
BRANCH  10  15
ATOM     15  N   UNL     1       0.061   1.606  -3.119  1.00  0.00    -0.398 N 
ATOM     16  H   UNL     1      -0.180   1.130  -3.947  1.00  0.00     0.156 HD
ATOM     17  H   UNL     1       0.140   1.111  -2.272  1.00  0.00     0.156 HD
ENDBRANCH  10  15
BRANCH  12  18
ATOM     18  N   UNL     1      -0.046   5.686  -5.747  1.00  0.00     0.062 N 
ATOM     19  O   UNL     1      -0.378   4.980  -6.709  1.00  0.00    -0.258 OA
ATOM     20  O   UNL     1       0.071   6.919  -5.787  1.00  0.00    -0.258 OA
ENDBRANCH  12  18
ENDBRANCH   8   9
BRANCH   8  21
ATOM     21  N   UNL     1      -0.096   1.987  -0.344  1.00  0.00    -0.342 N 
ATOM     22  H   UNL     1      -1.059   2.323  -0.324  1.00  0.00     0.345 HD
ATOM     23  H   UNL     1       0.135   1.562   0.554  1.00  0.00     0.345 HD
ATOM     24  H   UNL     1       0.006   1.292  -1.085  1.00  0.00     0.345 HD
ENDBRANCH   8  21
ENDBRANCH   6   8
ENDBRANCH   5   6
ENDBRANCH   4   5
ENDBRANCH   3   4
ENDBRANCH   2   3
ENDBRANCH   1   2
BRANCH   1  25
ATOM     25  C   UNL     1       0.144   1.652   2.948  1.00  0.00     0.188 C 
BRANCH  25  26
ATOM     26  O   UNL     1      -1.192   1.900   3.291  1.00  0.00    -0.376 OA
BRANCH  26  27
ATOM     27  C   UNL     1      -1.766   1.284   4.425  1.00  0.00     0.202 C 
BRANCH  27  28
ATOM     28  C   UNL     1      -0.974   0.665   5.596  1.00  0.00     0.261 C 
BRANCH  28  29
ATOM     29  O   UNL     1       0.450   0.560   5.481  1.00  0.00    -0.460 OA
BRANCH  29  30
ATOM     30  C   UNL     1       0.935  -0.641   5.079  1.00  0.00     0.338 C 
ATOM     31  O   UNL     1       0.300  -1.638   4.792  1.00  0.00    -0.246 OA
BRANCH  30  32
ATOM     32  C   UNL     1       2.387  -0.498   4.831  1.00  0.00     0.060 A 
ATOM     33  C   UNL     1       2.867  -0.655   3.522  1.00  0.00     0.016 A 
ATOM     34  C   UNL     1       3.268  -0.231   5.879  1.00  0.00     0.016 A 
ATOM     35  C   UNL     1       4.236  -0.570   3.261  1.00  0.00     0.010 A 
ATOM     36  C   UNL     1       4.641  -0.173   5.621  1.00  0.00     0.010 A 
ATOM     37  C   UNL     1       5.134  -0.372   4.317  1.00  0.00    -0.014 A 
BRANCH  37  38
ATOM     38  C   UNL     1       6.589  -0.578   4.106  1.00  0.00     0.031 A 
ATOM     39  C   UNL     1       7.179  -1.911   4.473  1.00  0.00     0.074 A 
ATOM     40  C   UNL     1       7.378   0.392   3.613  1.00  0.00     0.049 A 
ATOM     41  N   UNL     1       8.429  -2.299   4.483  1.00  0.00    -0.248 NA
ATOM     42  C   UNL     1       6.223  -2.947   4.894  1.00  0.00     0.031 C 
ATOM     43  C   UNL     1       6.928   1.711   3.182  1.00  0.00     0.029 A 
ATOM     44  N   UNL     1       8.738   0.415   3.417  1.00  0.00    -0.354 N 
ATOM     45  C   UNL     1       8.410  -3.616   4.923  1.00  0.00     0.074 A 
ATOM     46  C   UNL     1       7.030  -3.952   5.197  1.00  0.00     0.031 C 
ATOM     47  C   UNL     1       7.998   2.431   2.801  1.00  0.00     0.029 A 
ATOM     48  C   UNL     1       9.209   1.634   2.997  1.00  0.00     0.049 A 
ATOM     49  H   UNL     1       9.318  -0.366   3.565  1.00  0.00     0.167 HD
ATOM     50  C   UNL     1       9.449  -4.471   5.079  1.00  0.00     0.037 A 
ATOM     51  C   UNL     1      10.475   2.066   2.827  1.00  0.00     0.037 A 
ATOM     52  C   UNL     1      10.823  -4.132   4.819  1.00  0.00     0.049 A 
ATOM     53  C   UNL     1      11.625   1.123   3.079  1.00  0.00     0.074 A 
ATOM     54  C   UNL     1      11.946  -4.932   4.932  1.00  0.00     0.029 A 
ATOM     55  N   UNL     1      11.263  -2.882   4.406  1.00  0.00    -0.354 N 
ATOM     56  N   UNL     1      11.602  -0.129   3.470  1.00  0.00    -0.248 NA
ATOM     57  C   UNL     1      12.979   1.654   2.863  1.00  0.00     0.031 C 
ATOM     58  C   UNL     1      13.071  -4.151   4.645  1.00  0.00     0.029 A 
ATOM     59  C   UNL     1      12.644  -2.882   4.288  1.00  0.00     0.049 A 
ATOM     60  H   UNL     1      10.680  -2.110   4.224  1.00  0.00     0.167 HD
ATOM     61  C   UNL     1      12.929  -0.542   3.520  1.00  0.00     0.074 A 
ATOM     62  C   UNL     1      13.732   0.590   3.106  1.00  0.00     0.031 C 
ATOM     63  C   UNL     1      13.435  -1.750   3.873  1.00  0.00     0.037 A 
BRANCH  50  64
ATOM     64  C   UNL     1       9.134  -5.846   5.594  1.00  0.00     0.064 A 
ATOM     65  C   UNL     1       8.428  -6.782   4.822  1.00  0.00     0.173 A 
ATOM     66  C   UNL     1       9.546  -6.233   6.878  1.00  0.00     0.173 A 
ATOM     67  F   UNL     1       7.997  -6.457   3.594  1.00  0.00    -0.203 F 
ATOM     68  C   UNL     1       8.113  -8.039   5.332  1.00  0.00     0.198 A 
ATOM     69  C   UNL     1       9.259  -7.503   7.371  1.00  0.00     0.198 A 
ATOM     70  F   UNL     1      10.227  -5.380   7.657  1.00  0.00    -0.203 F 
ATOM     71  F   UNL     1       7.383  -8.893   4.601  1.00  0.00    -0.200 F 
ATOM     72  C   UNL     1       8.534  -8.401   6.603  1.00  0.00     0.200 A 
ATOM     73  F   UNL     1       9.678  -7.856   8.595  1.00  0.00    -0.200 F 
ATOM     74  F   UNL     1       8.230  -9.611   7.092  1.00  0.00    -0.200 F 
ENDBRANCH  50  64
BRANCH  51  75
ATOM     75  C   UNL     1      10.725   3.475   2.420  1.00  0.00     0.064 A 
ATOM     76  C   UNL     1      11.250   3.785   1.159  1.00  0.00     0.173 A 
ATOM     77  C   UNL     1      10.452   4.539   3.293  1.00  0.00     0.173 A 
ATOM     78  F   UNL     1      11.556   2.801   0.301  1.00  0.00    -0.203 F 
ATOM     79  C   UNL     1      11.505   5.105   0.790  1.00  0.00     0.198 A 
ATOM     80  C   UNL     1      10.679   5.860   2.912  1.00  0.00     0.198 A 
ATOM     81  F   UNL     1       9.955   4.296   4.515  1.00  0.00    -0.203 F 
ATOM     82  F   UNL     1      12.051   5.371  -0.404  1.00  0.00    -0.200 F 
ATOM     83  C   UNL     1      11.212   6.142   1.664  1.00  0.00     0.200 A 
ATOM     84  F   UNL     1      10.385   6.859   3.756  1.00  0.00    -0.200 F 
ATOM     85  F   UNL     1      11.451   7.411   1.306  1.00  0.00    -0.200 F 
ENDBRANCH  51  75
BRANCH  63  86
ATOM     86  C   UNL     1      14.926  -1.931   3.794  1.00  0.00     0.064 A 
ATOM     87  C   UNL     1      15.797  -1.305   4.697  1.00  0.00     0.173 A 
ATOM     88  C   UNL     1      15.485  -2.783   2.829  1.00  0.00     0.173 A 
ATOM     89  F   UNL     1      15.317  -0.470   5.632  1.00  0.00    -0.203 F 
ATOM     90  C   UNL     1      17.174  -1.505   4.620  1.00  0.00     0.198 A 
ATOM     91  C   UNL     1      16.859  -3.006   2.776  1.00  0.00     0.198 A 
ATOM     92  F   UNL     1      14.697  -3.414   1.946  1.00  0.00    -0.203 F 
ATOM     93  F   UNL     1      17.991  -0.858   5.464  1.00  0.00    -0.200 F 
ATOM     94  C   UNL     1      17.703  -2.361   3.666  1.00  0.00     0.200 A 
ATOM     95  F   UNL     1      17.365  -3.848   1.864  1.00  0.00    -0.200 F 
ATOM     96  F   UNL     1      19.026  -2.560   3.601  1.00  0.00    -0.200 F 
ENDBRANCH  63  86
ENDBRANCH  37  38
ENDBRANCH  30  32
ENDBRANCH  29  30
ENDBRANCH  28  29
ENDBRANCH  27  28
ENDBRANCH  26  27
ENDBRANCH  25  26
ENDBRANCH   1  25
TORSDOF 21
