REMARK SMILES C[C@@](O)(CNC(=O)c1ccc(Br)cc1N)CC(=O)OCCOCCOCCOC(=O)c1ccc(-c2c3nc(c(-c4c(F)c(F)c(F)c(F)c4F)c4ccc([nH]4)c(-c4c(F)c(F)c(F)c(F)c4F)c4nc(c(-c5c(F)c(F)c(F)c(F)c5F)c5ccc2[nH]5)C=C4)C=C3)cc1
REMARK SMILES IDX 22 1 21 2 20 3 19 4 17 5 18 6 16 7 2 8 1 9 3 10 4 12 5 13
REMARK SMILES IDX 6 14 7 16 8 17 9 18 14 19 10 20 13 21 11 22 12 23 15 24
REMARK SMILES IDX 23 27 24 28 25 29 26 30 27 31 28 32 29 33 30 34 31 35 32 36
REMARK SMILES IDX 93 37 33 38 92 39 34 40 35 41 36 42 86 43 37 44 91 45 85 46
REMARK SMILES IDX 87 47 38 48 90 49 84 50 83 51 39 53 71 54 51 55 70 56 52 57
REMARK SMILES IDX 55 58 69 59 88 60 53 61 54 62 68 64 89 65 56 66 40 67 41 68
REMARK SMILES IDX 49 69 42 70 43 71 47 72 50 73 44 74 45 75 48 76 46 77 72 78
REMARK SMILES IDX 73 79 81 80 74 81 75 82 79 83 82 84 76 85 77 86 80 87 78 88
REMARK SMILES IDX 57 89 58 90 66 91 59 92 60 93 64 94 67 95 61 96 62 97 65 98
REMARK SMILES IDX 63 99
REMARK H PARENT 3 11 5 15 15 25 15 26 87 52 55 63
REMARK Flexibility Score: inf
ROOT
ATOM      1  O   UNL     1       1.068   1.936   4.895  1.00  0.00    -0.376 OA
ENDROOT
BRANCH   1   2
ATOM      2  C   UNL     1      -0.324   2.204   4.724  1.00  0.00     0.202 C 
BRANCH   2   3
ATOM      3  C   UNL     1      -0.693   3.060   3.504  1.00  0.00     0.261 C 
BRANCH   3   4
ATOM      4  O   UNL     1      -0.279   2.517   2.224  1.00  0.00    -0.463 OA
BRANCH   4   5
ATOM      5  C   UNL     1       0.233   3.417   1.348  1.00  0.00     0.308 C 
ATOM      6  O   UNL     1       0.390   4.612   1.594  1.00  0.00    -0.252 OA
BRANCH   5   7
ATOM      7  C   UNL     1       0.835   2.824   0.090  1.00  0.00     0.159 C 
BRANCH   7   8
ATOM      8  C   UNL     1       0.227   1.669  -0.720  1.00  0.00     0.090 C 
ATOM      9  C   UNL     1       0.727   0.299  -0.279  1.00  0.00     0.044 C 
BRANCH   8  10
ATOM     10  O   UNL     1       0.755   1.820  -2.071  1.00  0.00    -0.388 OA
ATOM     11  H   UNL     1       0.405   1.114  -2.636  1.00  0.00     0.211 HD
ENDBRANCH   8  10
BRANCH   8  12
ATOM     12  C   UNL     1      -1.302   1.687  -0.914  1.00  0.00     0.151 C 
BRANCH  12  13
ATOM     13  N   UNL     1      -2.136   1.599   0.273  1.00  0.00    -0.349 N 
ATOM     14  C   UNL     1      -3.103   2.481   0.710  1.00  0.00     0.253 C 
ATOM     15  H   UNL     1      -1.991   0.807   0.840  1.00  0.00     0.163 HD
ATOM     16  O   UNL     1      -3.728   2.270   1.745  1.00  0.00    -0.269 OA
BRANCH  14  17
ATOM     17  C   UNL     1      -3.314   3.734  -0.052  1.00  0.00     0.062 A 
ATOM     18  C   UNL     1      -3.735   3.655  -1.386  1.00  0.00     0.017 A 
ATOM     19  C   UNL     1      -2.962   4.966   0.526  1.00  0.00     0.045 A 
ATOM     20  C   UNL     1      -3.660   4.785  -2.198  1.00  0.00     0.016 A 
ATOM     21  C   UNL     1      -2.841   6.075  -0.314  1.00  0.00     0.042 A 
ATOM     22  C   UNL     1      -3.179   5.979  -1.665  1.00  0.00     0.020 A 
ATOM     23  Br  UNL     1      -2.967   7.485  -2.788  1.00  0.00    -0.051 Br
BRANCH  19  24
ATOM     24  N   UNL     1      -2.650   5.096   1.871  1.00  0.00    -0.398 N 
ATOM     25  H   UNL     1      -2.731   4.320   2.471  1.00  0.00     0.156 HD
ATOM     26  H   UNL     1      -2.346   5.963   2.224  1.00  0.00     0.156 HD
ENDBRANCH  19  24
ENDBRANCH  14  17
ENDBRANCH  12  13
ENDBRANCH   8  12
ENDBRANCH   7   8
ENDBRANCH   5   7
ENDBRANCH   4   5
ENDBRANCH   3   4
ENDBRANCH   2   3
ENDBRANCH   1   2
BRANCH   1  27
ATOM     27  C   UNL     1       1.689   1.246   3.821  1.00  0.00     0.188 C 
BRANCH  27  28
ATOM     28  C   UNL     1       1.095  -0.125   3.475  1.00  0.00     0.188 C 
BRANCH  28  29
ATOM     29  O   UNL     1      -0.307  -0.165   3.236  1.00  0.00    -0.376 OA
BRANCH  29  30
ATOM     30  C   UNL     1      -0.858  -1.406   2.780  1.00  0.00     0.202 C 
BRANCH  30  31
ATOM     31  C   UNL     1      -0.443  -2.680   3.532  1.00  0.00     0.261 C 
BRANCH  31  32
ATOM     32  O   UNL     1       0.971  -2.964   3.502  1.00  0.00    -0.460 OA
BRANCH  32  33
ATOM     33  C   UNL     1       1.603  -3.006   2.301  1.00  0.00     0.338 C 
ATOM     34  O   UNL     1       1.083  -3.103   1.210  1.00  0.00    -0.246 OA
BRANCH  33  35
ATOM     35  C   UNL     1       3.023  -2.598   2.532  1.00  0.00     0.060 A 
ATOM     36  C   UNL     1       3.638  -2.755   3.780  1.00  0.00     0.016 A 
ATOM     37  C   UNL     1       3.688  -1.891   1.518  1.00  0.00     0.016 A 
ATOM     38  C   UNL     1       4.907  -2.218   4.009  1.00  0.00     0.010 A 
ATOM     39  C   UNL     1       4.962  -1.357   1.746  1.00  0.00     0.010 A 
ATOM     40  C   UNL     1       5.589  -1.533   2.989  1.00  0.00    -0.014 A 
BRANCH  40  41
ATOM     41  C   UNL     1       7.029  -1.218   3.157  1.00  0.00     0.031 A 
ATOM     42  C   UNL     1       7.537   0.157   3.469  1.00  0.00     0.074 A 
ATOM     43  C   UNL     1       7.897  -2.236   3.000  1.00  0.00     0.049 A 
ATOM     44  N   UNL     1       8.769   0.539   3.703  1.00  0.00    -0.248 NA
ATOM     45  C   UNL     1       6.551   1.245   3.516  1.00  0.00     0.031 C 
ATOM     46  C   UNL     1       7.518  -3.607   2.653  1.00  0.00     0.029 A 
ATOM     47  N   UNL     1       9.262  -2.282   3.108  1.00  0.00    -0.354 N 
ATOM     48  C   UNL     1       8.709   1.905   3.943  1.00  0.00     0.074 A 
ATOM     49  C   UNL     1       7.322   2.294   3.786  1.00  0.00     0.031 C 
ATOM     50  C   UNL     1       8.622  -4.364   2.593  1.00  0.00     0.029 A 
ATOM     51  C   UNL     1       9.785  -3.529   2.876  1.00  0.00     0.049 A 
ATOM     52  H   UNL     1       9.813  -1.498   3.332  1.00  0.00     0.167 HD
ATOM     53  C   UNL     1       9.721   2.744   4.278  1.00  0.00     0.037 A 
ATOM     54  C   UNL     1      11.059  -3.961   2.889  1.00  0.00     0.037 A 
ATOM     55  C   UNL     1      11.101   2.347   4.429  1.00  0.00     0.049 A 
ATOM     56  C   UNL     1      12.158  -3.002   3.244  1.00  0.00     0.074 A 
ATOM     57  C   UNL     1      12.179   3.118   4.834  1.00  0.00     0.029 A 
ATOM     58  N   UNL     1      11.600   1.079   4.168  1.00  0.00    -0.354 N 
ATOM     59  N   UNL     1      12.075  -1.735   3.564  1.00  0.00    -0.248 NA
ATOM     60  C   UNL     1      13.527  -3.537   3.250  1.00  0.00     0.031 C 
ATOM     61  C   UNL     1      13.335   2.334   4.765  1.00  0.00     0.029 A 
ATOM     62  C   UNL     1      12.973   1.058   4.369  1.00  0.00     0.049 A 
ATOM     63  H   UNL     1      11.059   0.308   3.881  1.00  0.00     0.167 HD
ATOM     64  C   UNL     1      13.374  -1.325   3.828  1.00  0.00     0.074 A 
ATOM     65  C   UNL     1      14.225  -2.483   3.650  1.00  0.00     0.031 C 
ATOM     66  C   UNL     1      13.817  -0.095   4.184  1.00  0.00     0.037 A 
BRANCH  53  67
ATOM     67  C   UNL     1       9.396   4.188   4.533  1.00  0.00     0.064 A 
ATOM     68  C   UNL     1       8.742   4.588   5.707  1.00  0.00     0.173 A 
ATOM     69  C   UNL     1       9.866   5.190   3.670  1.00  0.00     0.173 A 
ATOM     70  F   UNL     1       8.278   3.670   6.567  1.00  0.00    -0.203 F 
ATOM     71  C   UNL     1       8.567   5.938   6.006  1.00  0.00     0.198 A 
ATOM     72  C   UNL     1       9.711   6.538   3.983  1.00  0.00     0.198 A 
ATOM     73  F   UNL     1      10.514   4.861   2.542  1.00  0.00    -0.203 F 
ATOM     74  F   UNL     1       7.932   6.297   7.130  1.00  0.00    -0.200 F 
ATOM     75  C   UNL     1       9.062   6.911   5.151  1.00  0.00     0.200 A 
ATOM     76  F   UNL     1      10.209   7.477   3.166  1.00  0.00    -0.200 F 
ATOM     77  F   UNL     1       8.921   8.209   5.455  1.00  0.00    -0.200 F 
ENDBRANCH  53  67
BRANCH  54  78
ATOM     78  C   UNL     1      11.345  -5.385   2.592  1.00  0.00     0.064 A 
ATOM     79  C   UNL     1      11.760  -6.260   3.605  1.00  0.00     0.173 A 
ATOM     80  C   UNL     1      11.174  -5.908   1.302  1.00  0.00     0.173 A 
ATOM     81  F   UNL     1      11.948  -5.800   4.850  1.00  0.00    -0.203 F 
ATOM     82  C   UNL     1      12.004  -7.604   3.335  1.00  0.00     0.198 A 
ATOM     83  C   UNL     1      11.391  -7.258   1.040  1.00  0.00     0.198 A 
ATOM     84  F   UNL     1      10.766  -5.111   0.303  1.00  0.00    -0.203 F 
ATOM     85  F   UNL     1      12.430  -8.413   4.314  1.00  0.00    -0.200 F 
ATOM     86  C   UNL     1      11.812  -8.103   2.056  1.00  0.00     0.200 A 
ATOM     87  F   UNL     1      11.185  -7.740  -0.193  1.00  0.00    -0.200 F 
ATOM     88  F   UNL     1      12.034  -9.399   1.801  1.00  0.00    -0.200 F 
ENDBRANCH  54  78
BRANCH  66  89
ATOM     89  C   UNL     1      15.292   0.071   4.411  1.00  0.00     0.064 A 
ATOM     90  C   UNL     1      16.201   0.067   3.342  1.00  0.00     0.173 A 
ATOM     91  C   UNL     1      15.797   0.291   5.701  1.00  0.00     0.173 A 
ATOM     92  F   UNL     1      15.771  -0.156   2.091  1.00  0.00    -0.203 F 
ATOM     93  C   UNL     1      17.562   0.263   3.560  1.00  0.00     0.198 A 
ATOM     94  C   UNL     1      17.155   0.515   5.912  1.00  0.00     0.198 A 
ATOM     95  F   UNL     1      14.969   0.308   6.757  1.00  0.00    -0.203 F 
ATOM     96  F   UNL     1      18.417   0.217   2.528  1.00  0.00    -0.200 F 
ATOM     97  C   UNL     1      18.037   0.496   4.842  1.00  0.00     0.200 A 
ATOM     98  F   UNL     1      17.610   0.753   7.150  1.00  0.00    -0.200 F 
ATOM     99  F   UNL     1      19.346   0.698   5.047  1.00  0.00    -0.200 F 
ENDBRANCH  66  89
ENDBRANCH  40  41
ENDBRANCH  33  35
ENDBRANCH  32  33
ENDBRANCH  31  32
ENDBRANCH  30  31
ENDBRANCH  29  30
ENDBRANCH  28  29
ENDBRANCH  27  28
ENDBRANCH   1  27
TORSDOF 23
