REMARK SMILES O=C(C[NH2+]CC[NH+]1CCCCCC1)OCCOCCOCCOC(=O)c1ccc(-c2c3nc(c(-c4c(F)c(F)c(F)c(F)c4F)c4ccc([nH]4)c(-c4c(F)c(F)c(F)c(F)c4F)c4nc(c(-c5c(F)c(F)c(F)c(F)c5F)c5ccc2[nH]5)C=C4)C=C3)cc1
REMARK SMILES IDX 16 1 15 2 14 3 2 4 1 5 3 6 4 7 5 10 6 11 7 12 8 14 9 15
REMARK SMILES IDX 10 16 13 18 12 19 11 20 17 22 18 23 19 24 20 25 21 26 22 27
REMARK SMILES IDX 23 28 24 29 25 30 26 31 27 32 88 33 28 34 87 35 29 36 30 37
REMARK SMILES IDX 31 38 81 39 32 40 86 41 80 42 82 43 33 44 85 45 79 46 78 47
REMARK SMILES IDX 34 49 66 50 46 51 65 52 47 53 50 54 64 55 83 56 48 57 49 58
REMARK SMILES IDX 63 60 84 61 51 62 35 63 36 64 44 65 37 66 38 67 42 68 45 69
REMARK SMILES IDX 39 70 40 71 43 72 41 73 67 74 68 75 76 76 69 77 70 78 74 79
REMARK SMILES IDX 77 80 71 81 72 82 75 83 73 84 52 85 53 86 61 87 54 88 55 89
REMARK SMILES IDX 59 90 62 91 56 92 57 93 60 94 58 95
REMARK H PARENT 4 8 4 9 7 13 82 48 50 59
REMARK Flexibility Score: 90.00
ROOT
ATOM      1  C   UNL     1       5.340   0.664   0.498  1.00  0.00     0.202 C 
ENDROOT
BRANCH   1   2
ATOM      2  C   UNL     1       5.096   1.010  -0.976  1.00  0.00     0.261 C 
BRANCH   2   3
ATOM      3  O   UNL     1       3.773   0.844  -1.530  1.00  0.00    -0.459 OA
BRANCH   3   4
ATOM      4  C   UNL     1       3.061  -0.291  -1.649  1.00  0.00     0.361 C 
ATOM      5  O   UNL     1       2.081  -0.333  -2.394  1.00  0.00    -0.245 OA
BRANCH   4   6
ATOM      6  C   UNL     1       3.430  -1.489  -0.803  1.00  0.00     0.385 C 
BRANCH   6   7
ATOM      7  N   UNL     1       4.291  -2.410  -1.539  1.00  0.00    -0.332 N 
ATOM      8  H   UNL     1       5.159  -1.930  -1.778  1.00  0.00     0.346 HD
ATOM      9  H   UNL     1       3.791  -2.708  -2.377  1.00  0.00     0.346 HD
BRANCH   7  10
ATOM     10  C   UNL     1       4.613  -3.607  -0.755  1.00  0.00     0.323 C 
BRANCH  10  11
ATOM     11  C   UNL     1       3.450  -4.481  -0.203  1.00  0.00     0.324 C 
BRANCH  11  12
ATOM     12  N   UNL     1       2.481  -4.966  -1.213  1.00  0.00    -0.330 N 
ATOM     13  H   UNL     1       2.987  -5.050  -2.095  1.00  0.00     0.348 HD
BRANCH  12  14
ATOM     14  C   UNL     1       1.976  -6.304  -0.887  1.00  0.00     0.262 C 
BRANCH  14  15
ATOM     15  C   UNL     1       1.791  -7.130  -2.164  1.00  0.00     0.061 C 
BRANCH  15  16
ATOM     16  C   UNL     1       0.585  -6.781  -3.032  1.00  0.00     0.006 CG0
ATOM     17  G   UNL     1       0.455  -5.312  -3.415  1.00  0.00     0.000 G0
ENDBRANCH  15  16
ENDBRANCH  14  15
ENDBRANCH  12  14
BRANCH  12  18
ATOM     18  C   UNL     1       1.395  -4.000  -1.447  1.00  0.00     0.262 C 
BRANCH  18  19
ATOM     19  C   UNL     1       0.145  -4.452  -2.201  1.00  0.00     0.061 C 
BRANCH  19  20
ATOM     20  C   UNL     1       0.455  -5.312  -3.415  1.00  0.00     0.006 CG0
ATOM     21  G   UNL     1       0.585  -6.781  -3.032  1.00  0.00     0.000 G0
ENDBRANCH  19  20
ENDBRANCH  18  19
ENDBRANCH  12  18
ENDBRANCH  11  12
ENDBRANCH  10  11
ENDBRANCH   7  10
ENDBRANCH   6   7
ENDBRANCH   4   6
ENDBRANCH   3   4
ENDBRANCH   2   3
ENDBRANCH   1   2
BRANCH   1  22
ATOM     22  O   UNL     1       4.496   1.245   1.482  1.00  0.00    -0.376 OA
BRANCH  22  23
ATOM     23  C   UNL     1       3.090   1.251   1.301  1.00  0.00     0.188 C 
BRANCH  23  24
ATOM     24  C   UNL     1       2.354   2.086   2.360  1.00  0.00     0.188 C 
BRANCH  24  25
ATOM     25  O   UNL     1       2.929   3.339   2.710  1.00  0.00    -0.376 OA
BRANCH  25  26
ATOM     26  C   UNL     1       4.246   3.325   3.260  1.00  0.00     0.202 C 
BRANCH  26  27
ATOM     27  C   UNL     1       4.476   2.534   4.561  1.00  0.00     0.261 C 
BRANCH  27  28
ATOM     28  O   UNL     1       4.136   1.130   4.509  1.00  0.00    -0.460 OA
BRANCH  28  29
ATOM     29  C   UNL     1       3.169   0.753   5.381  1.00  0.00     0.338 C 
ATOM     30  O   UNL     1       2.567   1.461   6.171  1.00  0.00    -0.246 OA
BRANCH  29  31
ATOM     31  C   UNL     1       2.817  -0.674   5.242  1.00  0.00     0.060 A 
ATOM     32  C   UNL     1       1.525  -0.996   4.806  1.00  0.00     0.016 A 
ATOM     33  C   UNL     1       3.634  -1.654   5.809  1.00  0.00     0.016 A 
ATOM     34  C   UNL     1       1.016  -2.281   5.011  1.00  0.00     0.010 A 
ATOM     35  C   UNL     1       3.120  -2.941   6.020  1.00  0.00     0.010 A 
ATOM     36  C   UNL     1       1.788  -3.241   5.680  1.00  0.00    -0.014 A 
BRANCH  36  37
ATOM     37  C   UNL     1       1.130  -4.458   6.228  1.00  0.00     0.031 A 
ATOM     38  C   UNL     1       0.667  -4.448   7.664  1.00  0.00     0.074 A 
ATOM     39  C   UNL     1       0.910  -5.546   5.470  1.00  0.00     0.049 A 
ATOM     40  N   UNL     1       0.075  -5.389   8.358  1.00  0.00    -0.248 NA
ATOM     41  C   UNL     1       0.905  -3.208   8.419  1.00  0.00     0.031 C 
ATOM     42  C   UNL     1       1.265  -5.680   4.060  1.00  0.00     0.029 A 
ATOM     43  N   UNL     1       0.330  -6.749   5.790  1.00  0.00    -0.354 N 
ATOM     44  C   UNL     1      -0.122  -4.858   9.627  1.00  0.00     0.074 A 
ATOM     45  C   UNL     1       0.436  -3.523   9.617  1.00  0.00     0.031 C 
ATOM     46  C   UNL     1       0.900  -6.903   3.636  1.00  0.00     0.029 A 
ATOM     47  C   UNL     1       0.305  -7.643   4.750  1.00  0.00     0.049 A 
ATOM     48  H   UNL     1      -0.032  -6.952   6.683  1.00  0.00     0.167 HD
ATOM     49  C   UNL     1      -0.721  -5.423  10.703  1.00  0.00     0.037 A 
ATOM     50  C   UNL     1      -0.141  -8.914   4.705  1.00  0.00     0.037 A 
ATOM     51  C   UNL     1      -1.288  -6.745  10.725  1.00  0.00     0.049 A 
ATOM     52  C   UNL     1      -0.751  -9.543   5.932  1.00  0.00     0.074 A 
ATOM     53  C   UNL     1      -1.937  -7.391  11.764  1.00  0.00     0.029 A 
ATOM     54  N   UNL     1      -1.269  -7.627   9.656  1.00  0.00    -0.354 N 
ATOM     55  N   UNL     1      -0.963  -9.020   7.115  1.00  0.00    -0.248 NA
ATOM     56  C   UNL     1      -1.191 -10.941   5.811  1.00  0.00     0.031 C 
ATOM     57  C   UNL     1      -2.274  -8.680  11.336  1.00  0.00     0.029 A 
ATOM     58  C   UNL     1      -1.875  -8.820  10.017  1.00  0.00     0.049 A 
ATOM     59  H   UNL     1      -0.882  -7.435   8.772  1.00  0.00     0.167 HD
ATOM     60  C   UNL     1      -1.596 -10.007   7.862  1.00  0.00     0.074 A 
ATOM     61  C   UNL     1      -1.733 -11.161   7.000  1.00  0.00     0.031 C 
ATOM     62  C   UNL     1      -2.029  -9.956   9.146  1.00  0.00     0.037 A 
BRANCH  49  63
ATOM     63  C   UNL     1      -0.770  -4.613  11.965  1.00  0.00     0.064 A 
ATOM     64  C   UNL     1      -1.631  -3.515  12.103  1.00  0.00     0.173 A 
ATOM     65  C   UNL     1       0.042  -4.954  13.057  1.00  0.00     0.173 A 
ATOM     66  F   UNL     1      -2.417  -3.142  11.082  1.00  0.00    -0.203 F 
ATOM     67  C   UNL     1      -1.657  -2.769  13.278  1.00  0.00     0.198 A 
ATOM     68  C   UNL     1      -0.005  -4.222  14.240  1.00  0.00     0.198 A 
ATOM     69  F   UNL     1       0.879  -6.000  12.978  1.00  0.00    -0.203 F 
ATOM     70  F   UNL     1      -2.453  -1.695  13.372  1.00  0.00    -0.200 F 
ATOM     71  C   UNL     1      -0.848  -3.126  14.347  1.00  0.00     0.200 A 
ATOM     72  F   UNL     1       0.770  -4.574  15.276  1.00  0.00    -0.200 F 
ATOM     73  F   UNL     1      -0.874  -2.408  15.478  1.00  0.00    -0.200 F 
ENDBRANCH  49  63
BRANCH  50  74
ATOM     74  C   UNL     1      -0.042  -9.687   3.441  1.00  0.00     0.064 A 
ATOM     75  C   UNL     1      -1.191 -10.012   2.705  1.00  0.00     0.173 A 
ATOM     76  C   UNL     1       1.194 -10.136   2.957  1.00  0.00     0.173 A 
ATOM     77  F   UNL     1      -2.397  -9.627   3.145  1.00  0.00    -0.203 F 
ATOM     78  C   UNL     1      -1.107 -10.770   1.539  1.00  0.00     0.198 A 
ATOM     79  C   UNL     1       1.279 -10.874   1.778  1.00  0.00     0.198 A 
ATOM     80  F   UNL     1       2.321  -9.853   3.627  1.00  0.00    -0.203 F 
ATOM     81  F   UNL     1      -2.223 -11.101   0.877  1.00  0.00    -0.200 F 
ATOM     82  C   UNL     1       0.128 -11.196   1.074  1.00  0.00     0.200 A 
ATOM     83  F   UNL     1       2.475 -11.275   1.326  1.00  0.00    -0.200 F 
ATOM     84  F   UNL     1       0.209 -11.923  -0.048  1.00  0.00    -0.200 F 
ENDBRANCH  50  74
BRANCH  62  85
ATOM     85  C   UNL     1      -2.748 -11.160   9.685  1.00  0.00     0.064 A 
ATOM     86  C   UNL     1      -2.070 -12.344  10.007  1.00  0.00     0.173 A 
ATOM     87  C   UNL     1      -4.131 -11.111   9.919  1.00  0.00     0.173 A 
ATOM     88  F   UNL     1      -0.750 -12.446   9.789  1.00  0.00    -0.203 F 
ATOM     89  C   UNL     1      -2.754 -13.443  10.521  1.00  0.00     0.198 A 
ATOM     90  C   UNL     1      -4.807 -12.203  10.456  1.00  0.00     0.198 A 
ATOM     91  F   UNL     1      -4.826  -9.999   9.634  1.00  0.00    -0.203 F 
ATOM     92  F   UNL     1      -2.093 -14.580  10.780  1.00  0.00    -0.200 F 
ATOM     93  C   UNL     1      -4.120 -13.370  10.750  1.00  0.00     0.200 A 
ATOM     94  F   UNL     1      -6.125 -12.126  10.688  1.00  0.00    -0.200 F 
ATOM     95  F   UNL     1      -4.775 -14.428  11.248  1.00  0.00    -0.200 F 
ENDBRANCH  62  85
ENDBRANCH  36  37
ENDBRANCH  29  31
ENDBRANCH  28  29
ENDBRANCH  27  28
ENDBRANCH  26  27
ENDBRANCH  25  26
ENDBRANCH  24  25
ENDBRANCH  23  24
ENDBRANCH  22  23
ENDBRANCH   1  22
TORSDOF 21
