REMARK SMILES O=C(OCCOCCOCCOC(=O)c1cc(NC(=S)NC(=O)c2ccccc2Cl)c(Cl)cc1Cl)c1ccc(-c2c3nc(c(-c4c(F)c(F)c(F)c(F)c4F)c4ccc([nH]4)c(-c4c(F)c(F)c(F)c(F)c4F)c4nc(c(-c5c(F)c(F)c(F)c(F)c5F)c5ccc2[nH]5)C=C4)C=C3)cc1
REMARK SMILES IDX 8 1 7 2 6 3 5 4 4 5 3 6 2 7 1 8 36 9 37 10 98 11 38 12 97 13
REMARK SMILES IDX 39 14 40 15 41 16 91 17 42 18 96 19 90 20 92 21 43 22 95 23
REMARK SMILES IDX 89 24 88 25 44 27 76 28 56 29 75 30 57 31 60 32 74 33 93 34
REMARK SMILES IDX 58 35 59 36 73 38 94 39 61 40 45 41 46 42 54 43 47 44 48 45
REMARK SMILES IDX 52 46 55 47 49 48 50 49 53 50 51 51 77 52 78 53 86 54 79 55
REMARK SMILES IDX 80 56 84 57 87 58 81 59 82 60 85 61 83 62 62 63 63 64 71 65
REMARK SMILES IDX 64 66 65 67 69 68 72 69 66 70 67 71 70 72 68 73 9 74 10 75
REMARK SMILES IDX 11 76 12 77 13 78 14 79 15 80 16 81 34 82 17 83 33 84 35 85
REMARK SMILES IDX 31 86 32 87 18 88 19 90 20 91 21 92 22 93 23 95 24 96 25 97
REMARK SMILES IDX 29 98 26 99 28 100 30 101 27 102
REMARK H PARENT 92 26 60 37 18 89 21 94
REMARK Flexibility Score: inf
ROOT
ATOM      1  C   UNL     1       1.974  -1.322  -2.587  1.00  0.00     0.188 C 
ENDROOT
BRANCH   1   2
ATOM      2  C   UNL     1       2.567  -0.614  -1.359  1.00  0.00     0.188 C 
BRANCH   2   3
ATOM      3  O   UNL     1       3.958  -0.286  -1.333  1.00  0.00    -0.376 OA
BRANCH   3   4
ATOM      4  C   UNL     1       4.794  -1.285  -0.748  1.00  0.00     0.202 C 
BRANCH   4   5
ATOM      5  C   UNL     1       4.732  -1.441   0.786  1.00  0.00     0.261 C 
BRANCH   5   6
ATOM      6  O   UNL     1       3.488  -1.091   1.420  1.00  0.00    -0.460 OA
BRANCH   6   7
ATOM      7  C   UNL     1       2.912   0.109   1.658  1.00  0.00     0.338 C 
ATOM      8  O   UNL     1       1.758   0.118   2.087  1.00  0.00    -0.246 OA
BRANCH   7   9
ATOM      9  C   UNL     1       3.570   1.436   1.429  1.00  0.00     0.060 A 
ATOM     10  C   UNL     1       4.838   1.634   0.880  1.00  0.00     0.016 A 
ATOM     11  C   UNL     1       2.836   2.581   1.806  1.00  0.00     0.016 A 
ATOM     12  C   UNL     1       5.382   2.907   0.738  1.00  0.00     0.010 A 
ATOM     13  C   UNL     1       3.368   3.867   1.658  1.00  0.00     0.010 A 
ATOM     14  C   UNL     1       4.661   4.027   1.142  1.00  0.00    -0.014 A 
BRANCH  14  15
ATOM     15  C   UNL     1       5.376   5.311   1.238  1.00  0.00     0.031 A 
ATOM     16  C   UNL     1       5.949   5.655   2.572  1.00  0.00     0.074 A 
ATOM     17  C   UNL     1       5.641   6.069   0.160  1.00  0.00     0.049 A 
ATOM     18  N   UNL     1       6.684   6.676   2.909  1.00  0.00    -0.248 NA
ATOM     19  C   UNL     1       5.725   4.678   3.652  1.00  0.00     0.031 C 
ATOM     20  C   UNL     1       5.353   5.695  -1.214  1.00  0.00     0.029 A 
ATOM     21  N   UNL     1       6.223   7.300   0.033  1.00  0.00    -0.354 N 
ATOM     22  C   UNL     1       7.046   6.444   4.224  1.00  0.00     0.074 A 
ATOM     23  C   UNL     1       6.407   5.219   4.646  1.00  0.00     0.031 C 
ATOM     24  C   UNL     1       5.637   6.709  -2.043  1.00  0.00     0.029 A 
ATOM     25  C   UNL     1       6.182   7.792  -1.251  1.00  0.00     0.049 A 
ATOM     26  H   UNL     1       6.631   7.786   0.786  1.00  0.00     0.167 HD
ATOM     27  C   UNL     1       7.867   7.188   4.995  1.00  0.00     0.037 A 
ATOM     28  C   UNL     1       6.561   8.985  -1.732  1.00  0.00     0.037 A 
ATOM     29  C   UNL     1       8.444   8.427   4.555  1.00  0.00     0.049 A 
ATOM     30  C   UNL     1       7.277   9.899  -0.791  1.00  0.00     0.074 A 
ATOM     31  C   UNL     1       9.229   9.314   5.262  1.00  0.00     0.029 A 
ATOM     32  N   UNL     1       8.265   8.968   3.285  1.00  0.00    -0.354 N 
ATOM     33  N   UNL     1       7.599   9.691   0.462  1.00  0.00    -0.248 NA
ATOM     34  C   UNL     1       7.729  11.180  -1.338  1.00  0.00     0.031 C 
ATOM     35  C   UNL     1       9.458  10.429   4.448  1.00  0.00     0.029 A 
ATOM     36  C   UNL     1       8.884  10.203   3.206  1.00  0.00     0.049 A 
ATOM     37  H   UNL     1       7.771   8.536   2.551  1.00  0.00     0.167 HD
ATOM     38  C   UNL     1       8.336  10.794   0.846  1.00  0.00     0.074 A 
ATOM     39  C   UNL     1       8.413  11.666  -0.312  1.00  0.00     0.031 C 
ATOM     40  C   UNL     1       8.915  11.053   2.042  1.00  0.00     0.037 A 
BRANCH  27  41
ATOM     41  C   UNL     1       8.077   6.706   6.397  1.00  0.00     0.064 A 
ATOM     42  C   UNL     1       8.783   5.525   6.683  1.00  0.00     0.173 A 
ATOM     43  C   UNL     1       7.474   7.386   7.464  1.00  0.00     0.173 A 
ATOM     44  F   UNL     1       9.340   4.813   5.691  1.00  0.00    -0.203 F 
ATOM     45  C   UNL     1       8.835   5.021   7.980  1.00  0.00     0.198 A 
ATOM     46  C   UNL     1       7.559   6.897   8.763  1.00  0.00     0.198 A 
ATOM     47  F   UNL     1       6.772   8.507   7.240  1.00  0.00    -0.203 F 
ATOM     48  F   UNL     1       9.435   3.845   8.217  1.00  0.00    -0.200 F 
ATOM     49  C   UNL     1       8.225   5.708   9.019  1.00  0.00     0.200 A 
ATOM     50  F   UNL     1       6.966   7.562   9.765  1.00  0.00    -0.200 F 
ATOM     51  F   UNL     1       8.257   5.212  10.263  1.00  0.00    -0.200 F 
ENDBRANCH  27  41
BRANCH  28  52
ATOM     52  C   UNL     1       6.282   9.399  -3.126  1.00  0.00     0.064 A 
ATOM     53  C   UNL     1       7.299   9.496  -4.083  1.00  0.00     0.173 A 
ATOM     54  C   UNL     1       4.998   9.830  -3.486  1.00  0.00     0.173 A 
ATOM     55  F   UNL     1       8.543   9.098  -3.779  1.00  0.00    -0.203 F 
ATOM     56  C   UNL     1       7.058  10.069  -5.331  1.00  0.00     0.198 A 
ATOM     57  C   UNL     1       4.760  10.413  -4.727  1.00  0.00     0.198 A 
ATOM     58  F   UNL     1       3.978   9.703  -2.624  1.00  0.00    -0.203 F 
ATOM     59  F   UNL     1       8.056  10.183  -6.218  1.00  0.00    -0.200 F 
ATOM     60  C   UNL     1       5.795  10.551  -5.642  1.00  0.00     0.200 A 
ATOM     61  F   UNL     1       3.521  10.815  -5.044  1.00  0.00    -0.200 F 
ATOM     62  F   UNL     1       5.568  11.117  -6.835  1.00  0.00    -0.200 F 
ENDBRANCH  28  52
BRANCH  40  63
ATOM     63  C   UNL     1       9.695  12.325   2.132  1.00  0.00     0.064 A 
ATOM     64  C   UNL     1       9.066  13.578   2.110  1.00  0.00     0.173 A 
ATOM     65  C   UNL     1      11.091  12.284   2.254  1.00  0.00     0.173 A 
ATOM     66  F   UNL     1       7.735  13.663   1.965  1.00  0.00    -0.203 F 
ATOM     67  C   UNL     1       9.813  14.748   2.176  1.00  0.00     0.198 A 
ATOM     68  C   UNL     1      11.830  13.454   2.363  1.00  0.00     0.198 A 
ATOM     69  F   UNL     1      11.735  11.106   2.274  1.00  0.00    -0.203 F 
ATOM     70  F   UNL     1       9.200  15.936   2.085  1.00  0.00    -0.200 F 
ATOM     71  C   UNL     1      11.192  14.685   2.314  1.00  0.00     0.200 A 
ATOM     72  F   UNL     1      13.160  13.392   2.511  1.00  0.00    -0.200 F 
ATOM     73  F   UNL     1      11.909  15.813   2.389  1.00  0.00    -0.200 F 
ENDBRANCH  40  63
ENDBRANCH  14  15
ENDBRANCH   7   9
ENDBRANCH   6   7
ENDBRANCH   5   6
ENDBRANCH   4   5
ENDBRANCH   3   4
ENDBRANCH   2   3
ENDBRANCH   1   2
BRANCH   1  74
ATOM     74  O   UNL     1       2.816  -2.145  -3.375  1.00  0.00    -0.376 OA
BRANCH  74  75
ATOM     75  C   UNL     1       3.887  -1.517  -4.072  1.00  0.00     0.202 C 
BRANCH  75  76
ATOM     76  C   UNL     1       3.608  -0.210  -4.809  1.00  0.00     0.261 C 
BRANCH  76  77
ATOM     77  O   UNL     1       3.098   0.815  -3.940  1.00  0.00    -0.460 OA
BRANCH  77  78
ATOM     78  C   UNL     1       2.041   1.524  -4.391  1.00  0.00     0.339 C 
ATOM     79  O   UNL     1       1.275   1.157  -5.271  1.00  0.00    -0.246 OA
BRANCH  78  80
ATOM     80  C   UNL     1       1.918   2.945  -3.822  1.00  0.00     0.080 A 
ATOM     81  C   UNL     1       3.039   4.631  -3.905  1.00  0.00     0.045 A 
ATOM     82  C   UNL     1       0.185   3.207  -3.331  1.00  0.00     0.057 A 
ATOM     83  C   UNL     1       2.395   6.194  -3.725  1.00  0.00     0.060 A 
ATOM     84  C   UNL     1      -0.364   4.882  -3.020  1.00  0.00     0.044 A 
ATOM     85  Cl  UNL     1      -0.904   1.912  -3.045  1.00  0.00    -0.083 Cl
ATOM     86  C   UNL     1       0.712   6.306  -3.229  1.00  0.00     0.066 A 
ATOM     87  Cl  UNL     1      -0.000   7.874  -3.121  1.00  0.00    -0.082 Cl
BRANCH  83  88
ATOM     88  N   UNL     1       2.983   7.022  -4.741  1.00  0.00    -0.331 N 
ATOM     89  H   UNL     1       2.719   7.970  -4.690  1.00  0.00     0.169 HD
BRANCH  88  90
ATOM     90  C   UNL     1       3.853   6.733  -5.779  1.00  0.00     0.177 C 
ATOM     91  S   UNL     1       4.034   7.906  -6.967  1.00  0.00    -0.040 S 
BRANCH  90  92
ATOM     92  N   UNL     1       4.616   5.567  -6.045  1.00  0.00    -0.299 N 
ATOM     93  C   UNL     1       4.893   4.131  -5.877  1.00  0.00     0.258 C 
ATOM     94  H   UNL     1       5.323   5.877  -6.657  1.00  0.00     0.172 HD
ATOM     95  O   UNL     1       5.993   3.662  -6.146  1.00  0.00    -0.269 OA
BRANCH  93  96
ATOM     96  C   UNL     1       3.835   3.240  -5.278  1.00  0.00     0.058 A 
ATOM     97  C   UNL     1       4.246   2.896  -3.550  1.00  0.00     0.015 A 
ATOM     98  C   UNL     1       2.315   3.946  -5.777  1.00  0.00     0.053 A 
ATOM     99  C   UNL     1       3.227   3.428  -2.193  1.00  0.00     0.001 A 
ATOM    100  C   UNL     1       1.239   4.586  -4.525  1.00  0.00     0.021 A 
ATOM    101  Cl  UNL     1       1.947   4.242  -7.428  1.00  0.00    -0.083 Cl
ATOM    102  C   UNL     1       1.750   4.386  -2.569  1.00  0.00     0.002 A 
ENDBRANCH  93  96
ENDBRANCH  90  92
ENDBRANCH  88  90
ENDBRANCH  83  88
ENDBRANCH  78  80
ENDBRANCH  77  78
ENDBRANCH  76  77
ENDBRANCH  75  76
ENDBRANCH  74  75
ENDBRANCH   1  74
TORSDOF 21
