REMARK SMILES COc1ccc(NC(=O)[C@@H]2[C@@H](C(=O)OCCOCCOCCOC(=O)c3ccc(-c4c5nc(c(-c6c(F)c(F)c(F)c(F)c6F)c6ccc([nH]6)c(-c6c(F)c(F)c(F)c(F)c6F)c6nc(c(-c7c(F)c(F)c(F)c(F)c7F)c7ccc4[nH]7)C=C6)C=C5)cc3)[C@H]3C=C[C@@H]2C3)cc1O
REMARK SMILES IDX 18 1 17 2 16 3 15 4 14 5 12 6 13 7 11 8 10 9 92 10 89 11
REMARK SMILES IDX 91 12 93 13 90 14 8 15 7 16 9 18 6 19 3 20 4 21 95 22 5 23
REMARK SMILES IDX 94 24 2 25 1 26 96 27 19 29 20 30 21 31 22 32 23 33 24 34
REMARK SMILES IDX 25 35 26 36 27 37 88 38 28 39 87 40 29 41 30 42 31 43 81 44
REMARK SMILES IDX 32 45 86 46 80 47 82 48 33 49 85 50 79 51 78 52 34 54 66 55
REMARK SMILES IDX 46 56 65 57 47 58 50 59 64 60 83 61 48 62 49 63 63 65 84 66
REMARK SMILES IDX 51 67 35 68 36 69 44 70 37 71 38 72 42 73 45 74 39 75 40 76
REMARK SMILES IDX 43 77 41 78 67 79 68 80 76 81 69 82 70 83 74 84 77 85 71 86
REMARK SMILES IDX 72 87 75 88 73 89 52 90 53 91 61 92 54 93 55 94 59 95 62 96
REMARK SMILES IDX 56 97 57 98 60 99 58 100
REMARK H PARENT 7 17 96 28 82 53 50 64
REMARK Flexibility Score: inf
ROOT
ATOM      1  C   UNL     1      -1.766   4.656   0.172  1.00  0.00     0.188 C 
ENDROOT
BRANCH   1   2
ATOM      2  O   UNL     1      -0.574   5.055  -0.497  1.00  0.00    -0.376 OA
BRANCH   2   3
ATOM      3  C   UNL     1       0.629   4.535   0.078  1.00  0.00     0.202 C 
BRANCH   3   4
ATOM      4  C   UNL     1       1.155   5.320   1.294  1.00  0.00     0.261 C 
BRANCH   4   5
ATOM      5  O   UNL     1       0.495   4.978   2.540  1.00  0.00    -0.463 OA
BRANCH   5   6
ATOM      6  C   UNL     1      -0.510   5.810   2.936  1.00  0.00     0.310 C 
ATOM      7  O   UNL     1      -0.840   6.795   2.289  1.00  0.00    -0.252 OA
BRANCH   6   8
ATOM      8  C   UNL     1      -1.227   5.302   4.207  1.00  0.00     0.119 C 
ATOM      9  C   UNL     1      -2.727   4.924   3.925  1.00  0.00     0.100 C 
ATOM     10  C   UNL     1      -3.465   6.037   4.766  1.00  0.00     0.025 C 
ATOM     11  C   UNL     1      -1.333   6.440   5.277  1.00  0.00     0.027 C 
ATOM     12  C   UNL     1      -3.142   7.425   4.272  1.00  0.00    -0.027 C 
ATOM     13  C   UNL     1      -2.595   6.036   6.036  1.00  0.00     0.017 C 
ATOM     14  C   UNL     1      -1.884   7.697   4.647  1.00  0.00    -0.027 C 
BRANCH   9  15
ATOM     15  C   UNL     1      -3.316   3.579   4.423  1.00  0.00     0.228 C 
ATOM     16  N   UNL     1      -2.963   2.308   4.149  1.00  0.00    -0.326 N 
ATOM     17  H   UNL     1      -3.602   1.692   4.574  1.00  0.00     0.169 HD
ATOM     18  O   UNL     1      -4.367   3.607   5.092  1.00  0.00    -0.274 OA
BRANCH  16  19
ATOM     19  C   UNL     1      -1.993   1.575   3.463  1.00  0.00     0.045 A 
ATOM     20  C   UNL     1      -0.267  -0.040   1.907  1.00  0.00     0.160 A 
ATOM     21  C   UNL     1       0.060   1.277   2.193  1.00  0.00     0.052 A 
ATOM     22  C   UNL     1      -1.419  -0.567   2.486  1.00  0.00     0.159 A 
ATOM     23  C   UNL     1      -0.812   2.075   2.954  1.00  0.00     0.030 A 
ATOM     24  C   UNL     1      -2.260   0.212   3.276  1.00  0.00     0.076 A 
BRANCH  20  25
ATOM     25  O   UNL     1       0.361  -0.851   1.004  1.00  0.00    -0.493 OA
ATOM     26  C   UNL     1       1.766  -0.708   0.849  1.00  0.00     0.278 C 
ENDBRANCH  20  25
BRANCH  22  27
ATOM     27  O   UNL     1      -1.776  -1.866   2.247  1.00  0.00    -0.504 OA
ATOM     28  H   UNL     1      -1.228  -2.413   1.718  1.00  0.00     0.293 HD
ENDBRANCH  22  27
ENDBRANCH  16  19
ENDBRANCH   9  15
ENDBRANCH   6   8
ENDBRANCH   5   6
ENDBRANCH   4   5
ENDBRANCH   3   4
ENDBRANCH   2   3
ENDBRANCH   1   2
BRANCH   1  29
ATOM     29  C   UNL     1      -2.369   3.359  -0.348  1.00  0.00     0.188 C 
BRANCH  29  30
ATOM     30  O   UNL     1      -1.433   2.291  -0.243  1.00  0.00    -0.376 OA
BRANCH  30  31
ATOM     31  C   UNL     1      -1.220   1.568  -1.454  1.00  0.00     0.202 C 
BRANCH  31  32
ATOM     32  C   UNL     1      -2.134   0.347  -1.554  1.00  0.00     0.261 C 
BRANCH  32  33
ATOM     33  O   UNL     1      -3.499   0.786  -1.562  1.00  0.00    -0.460 OA
BRANCH  33  34
ATOM     34  C   UNL     1      -4.194   0.566  -0.420  1.00  0.00     0.338 C 
ATOM     35  O   UNL     1      -3.915  -0.192   0.491  1.00  0.00    -0.246 OA
BRANCH  34  36
ATOM     36  C   UNL     1      -5.299   1.542  -0.355  1.00  0.00     0.060 A 
ATOM     37  C   UNL     1      -5.640   2.086   0.893  1.00  0.00     0.016 A 
ATOM     38  C   UNL     1      -5.951   1.965  -1.516  1.00  0.00     0.016 A 
ATOM     39  C   UNL     1      -6.652   3.040   0.985  1.00  0.00     0.010 A 
ATOM     40  C   UNL     1      -6.965   2.911  -1.425  1.00  0.00     0.010 A 
ATOM     41  C   UNL     1      -7.339   3.426  -0.172  1.00  0.00    -0.014 A 
BRANCH  41  42
ATOM     42  C   UNL     1      -8.597   4.195  -0.083  1.00  0.00     0.031 A 
ATOM     43  C   UNL     1      -9.884   3.424  -0.139  1.00  0.00     0.074 A 
ATOM     44  C   UNL     1      -8.593   5.536  -0.020  1.00  0.00     0.049 A 
ATOM     45  N   UNL     1     -11.112   3.857  -0.245  1.00  0.00    -0.248 NA
ATOM     46  C   UNL     1      -9.762   1.957  -0.092  1.00  0.00     0.031 C 
ATOM     47  C   UNL     1      -7.402   6.377   0.067  1.00  0.00     0.029 A 
ATOM     48  N   UNL     1      -9.636   6.426  -0.048  1.00  0.00    -0.354 N 
ATOM     49  C   UNL     1     -11.905   2.718  -0.290  1.00  0.00     0.074 A 
ATOM     50  C   UNL     1     -11.021   1.576  -0.235  1.00  0.00     0.031 C 
ATOM     51  C   UNL     1      -7.780   7.667   0.065  1.00  0.00     0.029 A 
ATOM     52  C   UNL     1      -9.235   7.738  -0.063  1.00  0.00     0.049 A 
ATOM     53  H   UNL     1     -10.581   6.149  -0.056  1.00  0.00     0.167 HD
ATOM     54  C   UNL     1     -13.253   2.637  -0.365  1.00  0.00     0.037 A 
ATOM     55  C   UNL     1      -9.968   8.861  -0.196  1.00  0.00     0.037 A 
ATOM     56  C   UNL     1     -14.119   3.783  -0.423  1.00  0.00     0.049 A 
ATOM     57  C   UNL     1     -11.465   8.743  -0.340  1.00  0.00     0.074 A 
ATOM     58  C   UNL     1     -15.499   3.820  -0.486  1.00  0.00     0.029 A 
ATOM     59  N   UNL     1     -13.678   5.099  -0.433  1.00  0.00    -0.354 N 
ATOM     60  N   UNL     1     -12.216   7.667  -0.359  1.00  0.00    -0.248 NA
ATOM     61  C   UNL     1     -12.218   9.998  -0.483  1.00  0.00     0.031 C 
ATOM     62  C   UNL     1     -15.893   5.159  -0.586  1.00  0.00     0.029 A 
ATOM     63  C   UNL     1     -14.761   5.957  -0.525  1.00  0.00     0.049 A 
ATOM     64  H   UNL     1     -12.736   5.381  -0.383  1.00  0.00     0.167 HD
ATOM     65  C   UNL     1     -13.526   8.114  -0.480  1.00  0.00     0.074 A 
ATOM     66  C   UNL     1     -13.468   9.561  -0.522  1.00  0.00     0.031 C 
ATOM     67  C   UNL     1     -14.675   7.396  -0.550  1.00  0.00     0.037 A 
BRANCH  54  68
ATOM     68  C   UNL     1     -13.859   1.267  -0.417  1.00  0.00     0.064 A 
ATOM     69  C   UNL     1     -13.843   0.409   0.694  1.00  0.00     0.173 A 
ATOM     70  C   UNL     1     -14.472   0.806  -1.592  1.00  0.00     0.173 A 
ATOM     71  F   UNL     1     -13.251   0.792   1.835  1.00  0.00    -0.203 F 
ATOM     72  C   UNL     1     -14.391  -0.869   0.620  1.00  0.00     0.198 A 
ATOM     73  C   UNL     1     -15.047  -0.460  -1.652  1.00  0.00     0.198 A 
ATOM     74  F   UNL     1     -14.512   1.585  -2.684  1.00  0.00    -0.203 F 
ATOM     75  F   UNL     1     -14.314  -1.691   1.676  1.00  0.00    -0.200 F 
ATOM     76  C   UNL     1     -14.999  -1.300  -0.550  1.00  0.00     0.200 A 
ATOM     77  F   UNL     1     -15.642  -0.871  -2.780  1.00  0.00    -0.200 F 
ATOM     78  F   UNL     1     -15.530  -2.528  -0.618  1.00  0.00    -0.200 F 
ENDBRANCH  54  68
BRANCH  55  79
ATOM     79  C   UNL     1      -9.303  10.190  -0.210  1.00  0.00     0.064 A 
ATOM     80  C   UNL     1      -9.494  11.104   0.836  1.00  0.00     0.173 A 
ATOM     81  C   UNL     1      -8.482  10.586  -1.277  1.00  0.00     0.173 A 
ATOM     82  F   UNL     1     -10.292  10.784   1.865  1.00  0.00    -0.203 F 
ATOM     83  C   UNL     1      -8.908  12.368   0.806  1.00  0.00     0.198 A 
ATOM     84  C   UNL     1      -7.873  11.839  -1.292  1.00  0.00     0.198 A 
ATOM     85  F   UNL     1      -8.269   9.752  -2.306  1.00  0.00    -0.203 F 
ATOM     86  F   UNL     1      -9.152  13.240   1.794  1.00  0.00    -0.200 F 
ATOM     87  C   UNL     1      -8.093  12.733  -0.255  1.00  0.00     0.200 A 
ATOM     88  F   UNL     1      -7.079  12.184  -2.315  1.00  0.00    -0.200 F 
ATOM     89  F   UNL     1      -7.531  13.949  -0.284  1.00  0.00    -0.200 F 
ENDBRANCH  55  79
BRANCH  67  90
ATOM     90  C   UNL     1     -15.964   8.161  -0.630  1.00  0.00     0.064 A 
ATOM     91  C   UNL     1     -16.346   8.845  -1.793  1.00  0.00     0.173 A 
ATOM     92  C   UNL     1     -16.855   8.159   0.455  1.00  0.00     0.173 A 
ATOM     93  F   UNL     1     -15.524   8.887  -2.853  1.00  0.00    -0.203 F 
ATOM     94  C   UNL     1     -17.561   9.521  -1.858  1.00  0.00     0.198 A 
ATOM     95  C   UNL     1     -18.083   8.808   0.375  1.00  0.00     0.198 A 
ATOM     96  F   UNL     1     -16.541   7.510   1.586  1.00  0.00    -0.203 F 
ATOM     97  F   UNL     1     -17.886  10.207  -2.962  1.00  0.00    -0.200 F 
ATOM     98  C   UNL     1     -18.432   9.494  -0.778  1.00  0.00     0.200 A 
ATOM     99  F   UNL     1     -18.930   8.766   1.412  1.00  0.00    -0.200 F 
ATOM    100  F   UNL     1     -19.607  10.135  -0.847  1.00  0.00    -0.200 F 
ENDBRANCH  67  90
ENDBRANCH  41  42
ENDBRANCH  34  36
ENDBRANCH  33  34
ENDBRANCH  32  33
ENDBRANCH  31  32
ENDBRANCH  30  31
ENDBRANCH  29  30
ENDBRANCH   1  29
TORSDOF 21
