REMARK SMILES C[C@H]1C[NH+](CC[C@@H]2CCC[C@]2([NH3+])C(=O)OCCOCCOCCOC(=O)c2ccc(-c3c4nc(c(-c5c(F)c(F)c(F)c(F)c5F)c5ccc([nH]5)c(-c5c(F)c(F)c(F)c(F)c5F)c5nc(c(-c6c(F)c(F)c(F)c(F)c6F)c6ccc3[nH]6)C=C5)C=C4)cc2)C[C@H](C)O1
REMARK SMILES IDX 19 1 18 2 17 3 16 4 15 5 13 6 14 7 11 8 7 9 8 10 9 11 10 12
REMARK SMILES IDX 6 13 5 14 4 15 1 16 2 17 3 18 93 19 91 20 90 21 92 23 12 24
REMARK SMILES IDX 20 28 21 29 22 30 23 31 24 32 25 33 26 34 27 35 28 36 89 37
REMARK SMILES IDX 29 38 88 39 30 40 31 41 32 42 82 43 33 44 87 45 81 46 83 47
REMARK SMILES IDX 34 48 86 49 80 50 79 51 35 53 67 54 47 55 66 56 48 57 51 58
REMARK SMILES IDX 65 59 84 60 49 61 50 62 64 64 85 65 52 66 36 67 37 68 45 69
REMARK SMILES IDX 38 70 39 71 43 72 46 73 40 74 41 75 44 76 42 77 68 78 69 79
REMARK SMILES IDX 77 80 70 81 71 82 75 83 78 84 72 85 73 86 76 87 74 88 53 89
REMARK SMILES IDX 54 90 62 91 55 92 56 93 60 94 63 95 57 96 58 97 61 98 59 99
REMARK H PARENT 4 22 12 25 12 26 12 27 83 52 51 63
REMARK Flexibility Score: inf
ROOT
ATOM      1  C   UNL     1      -1.764  -4.485   7.348  1.00  0.00     0.188 C 
ENDROOT
BRANCH   1   2
ATOM      2  O   UNL     1      -0.643  -4.288   8.198  1.00  0.00    -0.376 OA
BRANCH   2   3
ATOM      3  C   UNL     1       0.301  -3.271   7.910  1.00  0.00     0.202 C 
BRANCH   3   4
ATOM      4  C   UNL     1       1.236  -3.478   6.707  1.00  0.00     0.261 C 
BRANCH   4   5
ATOM      5  O   UNL     1       0.618  -3.726   5.424  1.00  0.00    -0.459 OA
BRANCH   5   6
ATOM      6  C   UNL     1       0.483  -5.037   5.084  1.00  0.00     0.368 C 
ATOM      7  O   UNL     1       0.820  -5.955   5.827  1.00  0.00    -0.245 OA
BRANCH   6   8
ATOM      8  C   UNL     1       0.012  -5.271   3.602  1.00  0.00     0.195 C 
ATOM      9  C   UNL     1      -1.011  -4.327   2.844  1.00  0.00     0.068 C 
ATOM     10  C   UNL     1      -2.414  -4.949   3.077  1.00  0.00     0.011 C 
ATOM     11  C   UNL     1      -2.207  -6.262   3.802  1.00  0.00     0.008 C 
ATOM     12  C   UNL     1      -0.760  -6.619   3.558  1.00  0.00     0.081 C 
BRANCH   9  13
ATOM     13  C   UNL     1      -1.147  -2.773   2.908  1.00  0.00     0.072 C 
BRANCH  13  14
ATOM     14  C   UNL     1       0.034  -1.781   2.858  1.00  0.00     0.262 C 
BRANCH  14  15
ATOM     15  N   UNL     1       0.875  -1.682   1.655  1.00  0.00    -0.331 N 
ATOM     16  C   UNL     1       0.382  -0.816  -2.040  1.00  0.00     0.045 C 
ATOM     17  C   UNL     1       1.104  -1.255  -0.773  1.00  0.00     0.170 C 
ATOM     18  C   UNL     1       0.155  -1.246   0.448  1.00  0.00     0.294 C 
ATOM     19  O   UNL     1       1.609  -2.575  -1.034  1.00  0.00    -0.364 OA
ATOM     20  C   UNL     1       2.305  -3.139   0.079  1.00  0.00     0.170 C 
ATOM     21  C   UNL     1       1.553  -2.944   1.396  1.00  0.00     0.294 C 
ATOM     22  H   UNL     1       1.557  -0.952   1.861  1.00  0.00     0.348 HD
ATOM     23  C   UNL     1       3.749  -2.690   0.151  1.00  0.00     0.045 C 
ENDBRANCH  14  15
ENDBRANCH  13  14
ENDBRANCH   9  13
BRANCH   8  24
ATOM     24  N   UNL     1       1.246  -5.595   2.849  1.00  0.00    -0.343 N 
ATOM     25  H   UNL     1       1.013  -5.760   1.870  1.00  0.00     0.345 HD
ATOM     26  H   UNL     1       1.674  -6.432   3.243  1.00  0.00     0.345 HD
ATOM     27  H   UNL     1       1.899  -4.815   2.916  1.00  0.00     0.345 HD
ENDBRANCH   8  24
ENDBRANCH   6   8
ENDBRANCH   5   6
ENDBRANCH   4   5
ENDBRANCH   3   4
ENDBRANCH   2   3
ENDBRANCH   1   2
BRANCH   1  28
ATOM     28  C   UNL     1      -2.163  -3.414   6.329  1.00  0.00     0.188 C 
BRANCH  28  29
ATOM     29  O   UNL     1      -1.989  -2.080   6.767  1.00  0.00    -0.376 OA
BRANCH  29  30
ATOM     30  C   UNL     1      -3.164  -1.285   6.776  1.00  0.00     0.202 C 
BRANCH  30  31
ATOM     31  C   UNL     1      -4.094  -1.646   7.941  1.00  0.00     0.261 C 
BRANCH  31  32
ATOM     32  O   UNL     1      -4.597  -3.001   7.915  1.00  0.00    -0.460 OA
BRANCH  32  33
ATOM     33  C   UNL     1      -5.409  -3.337   6.887  1.00  0.00     0.338 C 
ATOM     34  O   UNL     1      -5.814  -2.593   6.006  1.00  0.00    -0.246 OA
BRANCH  33  35
ATOM     35  C   UNL     1      -5.524  -4.814   6.838  1.00  0.00     0.060 A 
ATOM     36  C   UNL     1      -5.209  -5.464   5.637  1.00  0.00     0.016 A 
ATOM     37  C   UNL     1      -5.918  -5.564   7.947  1.00  0.00     0.016 A 
ATOM     38  C   UNL     1      -5.273  -6.856   5.542  1.00  0.00     0.010 A 
ATOM     39  C   UNL     1      -6.020  -6.960   7.839  1.00  0.00     0.010 A 
ATOM     40  C   UNL     1      -5.707  -7.615   6.634  1.00  0.00    -0.014 A 
BRANCH  40  41
ATOM     41  C   UNL     1      -6.032  -9.054   6.443  1.00  0.00     0.031 A 
ATOM     42  C   UNL     1      -7.457  -9.422   6.133  1.00  0.00     0.074 A 
ATOM     43  C   UNL     1      -5.095 -10.020   6.491  1.00  0.00     0.049 A 
ATOM     44  N   UNL     1      -8.013 -10.602   6.025  1.00  0.00    -0.248 NA
ATOM     45  C   UNL     1      -8.378  -8.298   5.906  1.00  0.00     0.031 C 
ATOM     46  C   UNL     1      -3.663  -9.806   6.676  1.00  0.00     0.029 A 
ATOM     47  N   UNL     1      -5.222 -11.386   6.391  1.00  0.00    -0.354 N 
ATOM     48  C   UNL     1      -9.350 -10.362   5.735  1.00  0.00     0.074 A 
ATOM     49  C   UNL     1      -9.524  -8.926   5.697  1.00  0.00     0.031 C 
ATOM     50  C   UNL     1      -3.044 -11.001   6.698  1.00  0.00     0.029 A 
ATOM     51  C   UNL     1      -4.042 -12.065   6.577  1.00  0.00     0.049 A 
ATOM     52  H   UNL     1      -6.077 -11.836   6.203  1.00  0.00     0.167 HD
ATOM     53  C   UNL     1     -10.344 -11.256   5.521  1.00  0.00     0.037 A 
ATOM     54  C   UNL     1      -3.803 -13.390   6.679  1.00  0.00     0.037 A 
ATOM     55  C   UNL     1     -10.176 -12.685   5.562  1.00  0.00     0.049 A 
ATOM     56  C   UNL     1      -4.951 -14.367   6.560  1.00  0.00     0.074 A 
ATOM     57  C   UNL     1     -11.129 -13.670   5.369  1.00  0.00     0.029 A 
ATOM     58  N   UNL     1      -8.978 -13.333   5.821  1.00  0.00    -0.354 N 
ATOM     59  N   UNL     1      -6.217 -14.138   6.306  1.00  0.00    -0.248 NA
ATOM     60  C   UNL     1      -4.634 -15.792   6.750  1.00  0.00     0.031 C 
ATOM     61  C   UNL     1     -10.521 -14.912   5.576  1.00  0.00     0.029 A 
ATOM     62  C   UNL     1      -9.175 -14.705   5.825  1.00  0.00     0.049 A 
ATOM     63  H   UNL     1      -8.116 -12.885   5.979  1.00  0.00     0.167 HD
ATOM     64  C   UNL     1      -6.836 -15.383   6.273  1.00  0.00     0.074 A 
ATOM     65  C   UNL     1      -5.805 -16.368   6.518  1.00  0.00     0.031 C 
ATOM     66  C   UNL     1      -8.141 -15.682   6.057  1.00  0.00     0.037 A 
BRANCH  53  67
ATOM     67  C   UNL     1     -11.720 -10.709   5.278  1.00  0.00     0.064 A 
ATOM     68  C   UNL     1     -12.056 -10.040   4.092  1.00  0.00     0.173 A 
ATOM     69  C   UNL     1     -12.723 -10.873   6.246  1.00  0.00     0.173 A 
ATOM     70  F   UNL     1     -11.129  -9.840   3.143  1.00  0.00    -0.203 F 
ATOM     71  C   UNL     1     -13.337  -9.529   3.897  1.00  0.00     0.198 A 
ATOM     72  C   UNL     1     -14.011 -10.392   6.033  1.00  0.00     0.198 A 
ATOM     73  F   UNL     1     -12.455 -11.507   7.398  1.00  0.00    -0.203 F 
ATOM     74  F   UNL     1     -13.620  -8.843   2.781  1.00  0.00    -0.200 F 
ATOM     75  C   UNL     1     -14.315  -9.712   4.864  1.00  0.00     0.200 A 
ATOM     76  F   UNL     1     -14.957 -10.581   6.963  1.00  0.00    -0.200 F 
ATOM     77  F   UNL     1     -15.548  -9.223   4.673  1.00  0.00    -0.200 F 
ENDBRANCH  53  67
BRANCH  54  78
ATOM     78  C   UNL     1      -2.426 -13.889   6.956  1.00  0.00     0.064 A 
ATOM     79  C   UNL     1      -1.738 -14.682   6.027  1.00  0.00     0.173 A 
ATOM     80  C   UNL     1      -1.796 -13.635   8.184  1.00  0.00     0.173 A 
ATOM     81  F   UNL     1      -2.311 -14.989   4.854  1.00  0.00    -0.203 F 
ATOM     82  C   UNL     1      -0.485 -15.219   6.323  1.00  0.00     0.198 A 
ATOM     83  C   UNL     1      -0.529 -14.144   8.466  1.00  0.00     0.198 A 
ATOM     84  F   UNL     1      -2.416 -12.899   9.118  1.00  0.00    -0.203 F 
ATOM     85  F   UNL     1       0.120 -16.028   5.442  1.00  0.00    -0.200 F 
ATOM     86  C   UNL     1       0.121 -14.944   7.540  1.00  0.00     0.200 A 
ATOM     87  F   UNL     1       0.053 -13.873   9.642  1.00  0.00    -0.200 F 
ATOM     88  F   UNL     1       1.321 -15.465   7.826  1.00  0.00    -0.200 F 
ENDBRANCH  54  78
BRANCH  66  89
ATOM     89  C   UNL     1      -8.532 -17.135   6.026  1.00  0.00     0.064 A 
ATOM     90  C   UNL     1      -8.535 -17.930   7.182  1.00  0.00     0.173 A 
ATOM     91  C   UNL     1      -8.961 -17.727   4.826  1.00  0.00     0.173 A 
ATOM     92  F   UNL     1      -8.124 -17.419   8.353  1.00  0.00    -0.203 F 
ATOM     93  C   UNL     1      -8.925 -19.267   7.133  1.00  0.00     0.198 A 
ATOM     94  C   UNL     1      -9.384 -19.053   4.788  1.00  0.00     0.198 A 
ATOM     95  F   UNL     1      -8.990 -17.012   3.691  1.00  0.00    -0.203 F 
ATOM     96  F   UNL     1      -8.871 -20.019   8.241  1.00  0.00    -0.200 F 
ATOM     97  C   UNL     1      -9.357 -19.824   5.939  1.00  0.00     0.200 A 
ATOM     98  F   UNL     1      -9.821 -19.583   3.637  1.00  0.00    -0.200 F 
ATOM     99  F   UNL     1      -9.744 -21.107   5.898  1.00  0.00    -0.200 F 
ENDBRANCH  66  89
ENDBRANCH  40  41
ENDBRANCH  33  35
ENDBRANCH  32  33
ENDBRANCH  31  32
ENDBRANCH  30  31
ENDBRANCH  29  30
ENDBRANCH  28  29
ENDBRANCH   1  28
TORSDOF 21
