REMARK SMILES Cc1ccc(C(F)(F)F)cc1-c1ccc(/C=C/C(=O)OCCOCCOCCOC(=O)c2ccc(-c3c4nc(c(-c5c(F)c(F)c(F)c(F)c5F)c5ccc([nH]5)c(-c5c(F)c(F)c(F)c(F)c5F)c5nc(c(-c6c(F)c(F)c(F)c(F)c6F)c6ccc3[nH]6)C=C5)C=C4)cc2)s1
REMARK SMILES IDX 24 1 23 2 22 3 21 4 20 5 18 6 19 7 17 8 16 9 15 10 12 11
REMARK SMILES IDX 13 12 95 13 14 14 11 15 1 16 2 17 3 18 4 19 10 20 5 21 6 22
REMARK SMILES IDX 7 23 8 24 9 25 25 26 26 27 27 28 28 29 29 30 30 31 31 32
REMARK SMILES IDX 32 33 33 34 94 35 34 36 93 37 35 38 36 39 37 40 87 41 38 42
REMARK SMILES IDX 92 43 86 44 88 45 39 46 91 47 85 48 84 49 40 51 72 52 52 53
REMARK SMILES IDX 71 54 53 55 56 56 70 57 89 58 54 59 55 60 69 62 90 63 57 64
REMARK SMILES IDX 41 65 42 66 50 67 43 68 44 69 48 70 51 71 45 72 46 73 49 74
REMARK SMILES IDX 47 75 73 76 74 77 82 78 75 79 76 80 80 81 83 82 77 83 78 84
REMARK SMILES IDX 81 85 79 86 58 87 59 88 67 89 60 90 61 91 65 92 68 93 62 94
REMARK SMILES IDX 63 95 66 96 64 97
REMARK H PARENT 88 50 56 61
REMARK Flexibility Score: inf
ROOT
ATOM      1  C   UNL     1       1.776  11.730   2.519  1.00  0.00     0.188 C 
ENDROOT
BRANCH   1   2
ATOM      2  O   UNL     1       2.873  10.941   2.061  1.00  0.00    -0.376 OA
BRANCH   2   3
ATOM      3  C   UNL     1       3.657  11.123   0.898  1.00  0.00     0.202 C 
BRANCH   3   4
ATOM      4  C   UNL     1       3.628  10.051  -0.390  1.00  0.00     0.261 C 
BRANCH   4   5
ATOM      5  O   UNL     1       3.899   8.468  -0.689  1.00  0.00    -0.460 OA
BRANCH   5   6
ATOM      6  C   UNL     1       3.656   7.206  -0.174  1.00  0.00     0.330 C 
ATOM      7  O   UNL     1       3.331   6.885   0.961  1.00  0.00    -0.247 OA
BRANCH   6   8
ATOM      8  C   UNL     1       3.648   6.011  -1.024  1.00  0.00     0.095 C 
ATOM      9  C   UNL     1       2.431   5.690  -1.512  1.00  0.00     0.026 C 
BRANCH   9  10
ATOM     10  C   UNL     1       2.018   4.319  -1.589  1.00  0.00     0.028 A 
ATOM     11  C   UNL     1       0.951   2.086  -1.121  1.00  0.00     0.035 A 
ATOM     12  C   UNL     1       1.774   2.079  -2.233  1.00  0.00     0.021 A 
ATOM     13  S   UNL     1       0.879   3.666  -0.449  1.00  0.00    -0.136 S 
ATOM     14  C   UNL     1       2.392   3.340  -2.488  1.00  0.00     0.020 A 
BRANCH  11  15
ATOM     15  C   UNL     1       0.212   0.936  -0.546  1.00  0.00    -0.005 A 
ATOM     16  C   UNL     1       2.385  -0.360  -0.122  1.00  0.00     0.045 C 
ATOM     17  C   UNL     1       0.883  -0.247  -0.153  1.00  0.00    -0.042 A 
ATOM     18  C   UNL     1       0.142  -1.393   0.193  1.00  0.00     0.005 A 
ATOM     19  C   UNL     1      -1.249  -1.366   0.214  1.00  0.00     0.013 A 
ATOM     20  C   UNL     1      -1.196   0.953  -0.485  1.00  0.00     0.023 A 
ATOM     21  C   UNL     1      -1.934  -0.185  -0.096  1.00  0.00     0.056 A 
BRANCH  21  22
ATOM     22  C   UNL     1      -3.443  -0.179  -0.060  1.00  0.00     0.416 C 
ATOM     23  F   UNL     1      -3.989  -0.791  -1.149  1.00  0.00    -0.166 F 
ATOM     24  F   UNL     1      -3.948  -0.838   1.022  1.00  0.00    -0.166 F 
ATOM     25  F   UNL     1      -3.985   1.068  -0.021  1.00  0.00    -0.166 F 
ENDBRANCH  21  22
ENDBRANCH  11  15
ENDBRANCH   9  10
ENDBRANCH   6   8
ENDBRANCH   5   6
ENDBRANCH   4   5
ENDBRANCH   3   4
ENDBRANCH   2   3
ENDBRANCH   1   2
BRANCH   1  26
ATOM     26  C   UNL     1       0.843  12.415   1.542  1.00  0.00     0.188 C 
BRANCH  26  27
ATOM     27  O   UNL     1       0.917  11.782   0.280  1.00  0.00    -0.376 OA
BRANCH  27  28
ATOM     28  C   UNL     1       0.006  12.305  -0.675  1.00  0.00     0.202 C 
BRANCH  28  29
ATOM     29  C   UNL     1      -1.455  11.892  -0.412  1.00  0.00     0.261 C 
BRANCH  29  30
ATOM     30  O   UNL     1      -1.537  10.459  -0.248  1.00  0.00    -0.460 OA
BRANCH  30  31
ATOM     31  C   UNL     1      -1.867   9.991   0.995  1.00  0.00     0.338 C 
ATOM     32  O   UNL     1      -2.759  10.443   1.700  1.00  0.00    -0.246 OA
BRANCH  31  33
ATOM     33  C   UNL     1      -0.794   9.063   1.480  1.00  0.00     0.060 A 
ATOM     34  C   UNL     1      -0.581   8.739   2.824  1.00  0.00     0.016 A 
ATOM     35  C   UNL     1       0.232   8.784   0.632  1.00  0.00     0.016 A 
ATOM     36  C   UNL     1       0.734   8.390   3.318  1.00  0.00     0.010 A 
ATOM     37  C   UNL     1       1.496   8.594   1.199  1.00  0.00     0.010 A 
ATOM     38  C   UNL     1       1.887   8.439   2.536  1.00  0.00    -0.014 A 
BRANCH  38  39
ATOM     39  C   UNL     1       3.396   8.567   3.092  1.00  0.00     0.031 A 
ATOM     40  C   UNL     1       4.754   8.012   2.542  1.00  0.00     0.074 A 
ATOM     41  C   UNL     1       3.626   9.300   4.205  1.00  0.00     0.049 A 
ATOM     42  N   UNL     1       5.393   6.929   2.937  1.00  0.00    -0.248 NA
ATOM     43  C   UNL     1       5.567   8.700   1.513  1.00  0.00     0.031 C 
ATOM     44  C   UNL     1       4.912   9.613   4.835  1.00  0.00     0.029 A 
ATOM     45  N   UNL     1       2.682   9.821   5.098  1.00  0.00    -0.354 N 
ATOM     46  C   UNL     1       6.554   6.812   2.156  1.00  0.00     0.074 A 
ATOM     47  C   UNL     1       6.470   7.803   1.126  1.00  0.00     0.031 C 
ATOM     48  C   UNL     1       4.681   9.922   6.122  1.00  0.00     0.029 A 
ATOM     49  C   UNL     1       3.262   9.715   6.368  1.00  0.00     0.049 A 
ATOM     50  H   UNL     1       1.795  10.186   4.879  1.00  0.00     0.167 HD
ATOM     51  C   UNL     1       7.792   6.397   2.569  1.00  0.00     0.037 A 
ATOM     52  C   UNL     1       2.708   8.876   7.287  1.00  0.00     0.037 A 
ATOM     53  C   UNL     1       7.916   6.623   3.982  1.00  0.00     0.049 A 
ATOM     54  C   UNL     1       3.665   7.792   7.712  1.00  0.00     0.074 A 
ATOM     55  C   UNL     1       8.354   7.740   4.674  1.00  0.00     0.029 A 
ATOM     56  N   UNL     1       7.201   5.845   4.865  1.00  0.00    -0.354 N 
ATOM     57  N   UNL     1       4.712   7.429   7.023  1.00  0.00    -0.248 NA
ATOM     58  C   UNL     1       3.518   7.036   8.950  1.00  0.00     0.031 C 
ATOM     59  C   UNL     1       7.824   7.668   5.980  1.00  0.00     0.029 A 
ATOM     60  C   UNL     1       7.127   6.479   6.086  1.00  0.00     0.049 A 
ATOM     61  H   UNL     1       6.804   4.969   4.655  1.00  0.00     0.167 HD
ATOM     62  C   UNL     1       5.359   6.422   7.685  1.00  0.00     0.074 A 
ATOM     63  C   UNL     1       4.585   6.222   8.892  1.00  0.00     0.031 C 
ATOM     64  C   UNL     1       6.475   5.820   7.191  1.00  0.00     0.037 A 
BRANCH  51  65
ATOM     65  C   UNL     1       8.956   6.344   1.586  1.00  0.00     0.064 A 
ATOM     66  C   UNL     1      10.238   6.861   1.854  1.00  0.00     0.173 A 
ATOM     67  C   UNL     1       8.784   5.792   0.295  1.00  0.00     0.173 A 
ATOM     68  F   UNL     1      10.555   7.354   3.058  1.00  0.00    -0.203 F 
ATOM     69  C   UNL     1      11.237   6.919   0.872  1.00  0.00     0.198 A 
ATOM     70  C   UNL     1       9.778   5.865  -0.689  1.00  0.00     0.198 A 
ATOM     71  F   UNL     1       7.619   5.219  -0.046  1.00  0.00    -0.203 F 
ATOM     72  F   UNL     1      12.427   7.466   1.163  1.00  0.00    -0.200 F 
ATOM     73  C   UNL     1      10.999   6.446  -0.404  1.00  0.00     0.200 A 
ATOM     74  F   UNL     1       9.534   5.404  -1.924  1.00  0.00    -0.200 F 
ATOM     75  F   UNL     1      11.937   6.557  -1.356  1.00  0.00    -0.200 F 
ENDBRANCH  51  65
BRANCH  52  76
ATOM     76  C   UNL     1       1.217   8.759   7.191  1.00  0.00     0.064 A 
ATOM     77  C   UNL     1       0.459   9.954   7.174  1.00  0.00     0.173 A 
ATOM     78  C   UNL     1       0.551   7.586   6.811  1.00  0.00     0.173 A 
ATOM     79  F   UNL     1       1.032  11.117   7.526  1.00  0.00    -0.203 F 
ATOM     80  C   UNL     1      -0.846   9.996   6.685  1.00  0.00     0.198 A 
ATOM     81  C   UNL     1      -0.774   7.627   6.348  1.00  0.00     0.198 A 
ATOM     82  F   UNL     1       1.211   6.422   6.746  1.00  0.00    -0.203 F 
ATOM     83  F   UNL     1      -1.471  11.175   6.548  1.00  0.00    -0.200 F 
ATOM     84  C   UNL     1      -1.458   8.833   6.261  1.00  0.00     0.200 A 
ATOM     85  F   UNL     1      -1.345   6.518   5.854  1.00  0.00    -0.200 F 
ATOM     86  F   UNL     1      -2.671   8.886   5.691  1.00  0.00    -0.200 F 
ENDBRANCH  52  76
BRANCH  64  87
ATOM     87  C   UNL     1       7.101   4.562   7.716  1.00  0.00     0.064 A 
ATOM     88  C   UNL     1       6.349   3.502   8.237  1.00  0.00     0.173 A 
ATOM     89  C   UNL     1       8.480   4.311   7.513  1.00  0.00     0.173 A 
ATOM     90  F   UNL     1       5.019   3.596   8.370  1.00  0.00    -0.203 F 
ATOM     91  C   UNL     1       6.941   2.288   8.579  1.00  0.00     0.198 A 
ATOM     92  C   UNL     1       9.055   3.077   7.797  1.00  0.00     0.198 A 
ATOM     93  F   UNL     1       9.295   5.246   7.000  1.00  0.00    -0.203 F 
ATOM     94  F   UNL     1       6.189   1.312   9.107  1.00  0.00    -0.200 F 
ATOM     95  C   UNL     1       8.287   2.069   8.344  1.00  0.00     0.200 A 
ATOM     96  F   UNL     1      10.347   2.861   7.514  1.00  0.00    -0.200 F 
ATOM     97  F   UNL     1       8.838   0.882   8.626  1.00  0.00    -0.200 F 
ENDBRANCH  64  87
ENDBRANCH  38  39
ENDBRANCH  31  33
ENDBRANCH  30  31
ENDBRANCH  29  30
ENDBRANCH  28  29
ENDBRANCH  27  28
ENDBRANCH  26  27
ENDBRANCH   1  26
TORSDOF 20
