REMARK SMILES COc1ccc(/C=C/c2cc(OC)cc(OC)c2/C=C/C(=O)OCCOCCOCCOC(=O)c2ccc(-c3c4nc(c(-c5c(F)c(F)c(F)c(F)c5F)c5ccc([nH]5)c(-c5c(F)c(F)c(F)c(F)c5F)c5nc(c(-c6c(F)c(F)c(F)c(F)c6F)c6ccc3[nH]6)C=C5)C=C4)cc2)cc1
REMARK SMILES IDX 27 1 26 2 25 3 24 4 23 5 21 6 22 7 20 8 19 9 18 10 9 11
REMARK SMILES IDX 10 12 11 13 15 14 14 15 8 16 7 17 6 18 3 19 4 20 99 21 5 22
REMARK SMILES IDX 98 23 2 24 1 25 12 26 13 27 16 28 17 29 28 30 29 31 30 32
REMARK SMILES IDX 31 33 32 34 33 35 34 36 35 37 36 38 97 39 37 40 96 41 38 42
REMARK SMILES IDX 39 43 40 44 90 45 41 46 95 47 89 48 91 49 42 50 94 51 88 52
REMARK SMILES IDX 87 53 43 55 75 56 55 57 74 58 56 59 59 60 73 61 92 62 57 63
REMARK SMILES IDX 58 64 72 66 93 67 60 68 44 69 45 70 53 71 46 72 47 73 51 74
REMARK SMILES IDX 54 75 48 76 49 77 52 78 50 79 76 80 77 81 85 82 78 83 79 84
REMARK SMILES IDX 83 85 86 86 80 87 81 88 84 89 82 90 61 91 62 92 70 93 63 94
REMARK SMILES IDX 64 95 68 96 71 97 65 98 66 99 69 100 67 101
REMARK H PARENT 91 54 59 65
REMARK Flexibility Score: inf
ROOT
ATOM      1  C   UNL     1       6.378   3.545  -8.209  1.00  0.00     0.188 C 
ENDROOT
BRANCH   1   2
ATOM      2  O   UNL     1       7.181   2.416  -7.914  1.00  0.00    -0.376 OA
BRANCH   2   3
ATOM      3  C   UNL     1       6.891   1.645  -6.755  1.00  0.00     0.202 C 
BRANCH   3   4
ATOM      4  C   UNL     1       6.611   2.316  -5.399  1.00  0.00     0.261 C 
BRANCH   4   5
ATOM      5  O   UNL     1       5.757   3.469  -5.452  1.00  0.00    -0.460 OA
BRANCH   5   6
ATOM      6  C   UNL     1       6.219   4.570  -4.809  1.00  0.00     0.330 C 
ATOM      7  O   UNL     1       7.250   4.644  -4.157  1.00  0.00    -0.247 OA
BRANCH   6   8
ATOM      8  C   UNL     1       5.375   5.763  -5.028  1.00  0.00     0.094 C 
ATOM      9  C   UNL     1       4.193   5.770  -5.661  1.00  0.00     0.020 C 
BRANCH   9  10
ATOM     10  C   UNL     1       3.364   6.981  -5.835  1.00  0.00     0.024 A 
ATOM     11  C   UNL     1       2.046   6.966  -5.301  1.00  0.00    -0.011 A 
ATOM     12  C   UNL     1       1.232   8.105  -5.398  1.00  0.00     0.055 A 
ATOM     13  C   UNL     1       1.686   9.261  -6.031  1.00  0.00     0.123 A 
ATOM     14  C   UNL     1       3.803   8.147  -6.499  1.00  0.00     0.130 A 
ATOM     15  C   UNL     1       2.966   9.275  -6.578  1.00  0.00     0.093 A 
BRANCH  11  16
ATOM     16  C   UNL     1       1.445   5.771  -4.673  1.00  0.00     0.009 C 
ATOM     17  C   UNL     1       1.990   5.168  -3.604  1.00  0.00     0.009 C 
BRANCH  17  18
ATOM     18  C   UNL     1       1.572   3.869  -3.060  1.00  0.00    -0.025 A 
ATOM     19  C   UNL     1       0.901   1.381  -1.940  1.00  0.00     0.118 A 
ATOM     20  C   UNL     1      -0.060   2.127  -2.619  1.00  0.00     0.047 A 
ATOM     21  C   UNL     1       2.209   1.851  -1.853  1.00  0.00     0.047 A 
ATOM     22  C   UNL     1       0.268   3.373  -3.164  1.00  0.00     0.012 A 
ATOM     23  C   UNL     1       2.538   3.092  -2.403  1.00  0.00     0.012 A 
BRANCH  19  24
ATOM     24  O   UNL     1       0.494   0.178  -1.430  1.00  0.00    -0.497 OA
ATOM     25  C   UNL     1       0.948  -0.045  -0.096  1.00  0.00     0.278 C 
ENDBRANCH  19  24
ENDBRANCH  17  18
ENDBRANCH  11  16
BRANCH  13  26
ATOM     26  O   UNL     1       0.794  10.298  -6.038  1.00  0.00    -0.497 OA
ATOM     27  C   UNL     1       1.141  11.444  -6.807  1.00  0.00     0.278 C 
ENDBRANCH  13  26
BRANCH  14  28
ATOM     28  O   UNL     1       5.043   8.375  -7.043  1.00  0.00    -0.496 OA
ATOM     29  C   UNL     1       5.611   7.350  -7.847  1.00  0.00     0.278 C 
ENDBRANCH  14  28
ENDBRANCH   9  10
ENDBRANCH   6   8
ENDBRANCH   5   6
ENDBRANCH   4   5
ENDBRANCH   3   4
ENDBRANCH   2   3
ENDBRANCH   1   2
BRANCH   1  30
ATOM     30  C   UNL     1       4.853   3.398  -8.370  1.00  0.00     0.188 C 
BRANCH  30  31
ATOM     31  O   UNL     1       4.245   2.251  -7.832  1.00  0.00    -0.376 OA
BRANCH  31  32
ATOM     32  C   UNL     1       4.061   1.088  -8.625  1.00  0.00     0.202 C 
BRANCH  32  33
ATOM     33  C   UNL     1       4.466   0.916 -10.104  1.00  0.00     0.261 C 
BRANCH  33  34
ATOM     34  O   UNL     1       5.363   1.871 -10.675  1.00  0.00    -0.460 OA
BRANCH  34  35
ATOM     35  C   UNL     1       4.800   2.731 -11.556  1.00  0.00     0.338 C 
ATOM     36  O   UNL     1       3.620   2.808 -11.879  1.00  0.00    -0.246 OA
BRANCH  35  37
ATOM     37  C   UNL     1       5.802   3.723 -11.965  1.00  0.00     0.060 A 
ATOM     38  C   UNL     1       5.624   5.063 -11.593  1.00  0.00     0.016 A 
ATOM     39  C   UNL     1       6.874   3.338 -12.769  1.00  0.00     0.016 A 
ATOM     40  C   UNL     1       6.516   6.034 -12.043  1.00  0.00     0.010 A 
ATOM     41  C   UNL     1       7.750   4.314 -13.241  1.00  0.00     0.010 A 
ATOM     42  C   UNL     1       7.558   5.667 -12.904  1.00  0.00    -0.014 A 
BRANCH  42  43
ATOM     43  C   UNL     1       8.336   6.699 -13.625  1.00  0.00     0.031 A 
ATOM     44  C   UNL     1       7.905   7.066 -15.016  1.00  0.00     0.074 A 
ATOM     45  C   UNL     1       9.425   7.263 -13.077  1.00  0.00     0.049 A 
ATOM     46  N   UNL     1       8.512   7.803 -15.909  1.00  0.00    -0.248 NA
ATOM     47  C   UNL     1       6.614   6.516 -15.462  1.00  0.00     0.031 C 
ATOM     48  C   UNL     1       9.907   7.027 -11.719  1.00  0.00     0.029 A 
ATOM     49  N   UNL     1      10.338   8.134 -13.616  1.00  0.00    -0.354 N 
ATOM     50  C   UNL     1       7.689   7.788 -17.027  1.00  0.00     0.074 A 
ATOM     51  C   UNL     1       6.547   6.960 -16.708  1.00  0.00     0.031 C 
ATOM     52  C   UNL     1      11.049   7.715 -11.540  1.00  0.00     0.029 A 
ATOM     53  C   UNL     1      11.397   8.400 -12.784  1.00  0.00     0.049 A 
ATOM     54  H   UNL     1      10.243   8.530 -14.513  1.00  0.00     0.167 HD
ATOM     55  C   UNL     1       7.874   8.409 -18.215  1.00  0.00     0.037 A 
ATOM     56  C   UNL     1      12.534   9.083 -13.021  1.00  0.00     0.037 A 
ATOM     57  C   UNL     1       9.015   9.226 -18.528  1.00  0.00     0.049 A 
ATOM     58  C   UNL     1      12.757   9.699 -14.380  1.00  0.00     0.074 A 
ATOM     59  C   UNL     1       9.295   9.905 -19.700  1.00  0.00     0.029 A 
ATOM     60  N   UNL     1      10.070   9.467 -17.661  1.00  0.00    -0.354 N 
ATOM     61  N   UNL     1      11.974   9.691 -15.433  1.00  0.00    -0.248 NA
ATOM     62  C   UNL     1      14.025  10.414 -14.587  1.00  0.00     0.031 C 
ATOM     63  C   UNL     1      10.544  10.518 -19.560  1.00  0.00     0.029 A 
ATOM     64  C   UNL     1      11.014  10.268 -18.280  1.00  0.00     0.049 A 
ATOM     65  H   UNL     1      10.138   9.120 -16.742  1.00  0.00     0.167 HD
ATOM     66  C   UNL     1      12.634  10.430 -16.407  1.00  0.00     0.074 A 
ATOM     67  C   UNL     1      13.883  10.871 -15.823  1.00  0.00     0.031 C 
ATOM     68  C   UNL     1      12.238  10.722 -17.671  1.00  0.00     0.037 A 
BRANCH  55  69
ATOM     69  C   UNL     1       6.835   8.198 -19.276  1.00  0.00     0.064 A 
ATOM     70  C   UNL     1       5.558   8.770 -19.184  1.00  0.00     0.173 A 
ATOM     71  C   UNL     1       7.132   7.432 -20.414  1.00  0.00     0.173 A 
ATOM     72  F   UNL     1       5.220   9.496 -18.107  1.00  0.00    -0.203 F 
ATOM     73  C   UNL     1       4.608   8.565 -20.181  1.00  0.00     0.198 A 
ATOM     74  C   UNL     1       6.190   7.253 -21.422  1.00  0.00     0.198 A 
ATOM     75  F   UNL     1       8.339   6.863 -20.551  1.00  0.00    -0.203 F 
ATOM     76  F   UNL     1       3.379   9.082 -20.050  1.00  0.00    -0.200 F 
ATOM     77  C   UNL     1       4.927   7.813 -21.302  1.00  0.00     0.200 A 
ATOM     78  F   UNL     1       6.503   6.535 -22.510  1.00  0.00    -0.200 F 
ATOM     79  F   UNL     1       4.014   7.621 -22.264  1.00  0.00    -0.200 F 
ENDBRANCH  55  69
BRANCH  56  80
ATOM     80  C   UNL     1      13.566   9.203 -11.958  1.00  0.00     0.064 A 
ATOM     81  C   UNL     1      13.847  10.440 -11.362  1.00  0.00     0.173 A 
ATOM     82  C   UNL     1      14.310   8.091 -11.535  1.00  0.00     0.173 A 
ATOM     83  F   UNL     1      13.182  11.537 -11.754  1.00  0.00    -0.203 F 
ATOM     84  C   UNL     1      14.845  10.565 -10.398  1.00  0.00     0.198 A 
ATOM     85  C   UNL     1      15.288   8.212 -10.550  1.00  0.00     0.198 A 
ATOM     86  F   UNL     1      14.085   6.886 -12.077  1.00  0.00    -0.203 F 
ATOM     87  F   UNL     1      15.127  11.768  -9.881  1.00  0.00    -0.200 F 
ATOM     88  C   UNL     1      15.561   9.450  -9.988  1.00  0.00     0.200 A 
ATOM     89  F   UNL     1      15.972   7.130 -10.151  1.00  0.00    -0.200 F 
ATOM     90  F   UNL     1      16.521   9.571  -9.061  1.00  0.00    -0.200 F 
ENDBRANCH  56  80
BRANCH  68  91
ATOM     91  C   UNL     1      13.124  11.611 -18.494  1.00  0.00     0.064 A 
ATOM     92  C   UNL     1      14.329  11.152 -19.044  1.00  0.00     0.173 A 
ATOM     93  C   UNL     1      12.715  12.919 -18.802  1.00  0.00     0.173 A 
ATOM     94  F   UNL     1      14.769   9.915 -18.769  1.00  0.00    -0.203 F 
ATOM     95  C   UNL     1      15.099  11.975 -19.863  1.00  0.00     0.198 A 
ATOM     96  C   UNL     1      13.473  13.727 -19.643  1.00  0.00     0.198 A 
ATOM     97  F   UNL     1      11.566  13.401 -18.306  1.00  0.00    -0.203 F 
ATOM     98  F   UNL     1      16.263  11.527 -20.354  1.00  0.00    -0.200 F 
ATOM     99  C   UNL     1      14.665  13.256 -20.171  1.00  0.00     0.200 A 
ATOM    100  F   UNL     1      13.043  14.959 -19.952  1.00  0.00    -0.200 F 
ATOM    101  F   UNL     1      15.398  14.039 -20.975  1.00  0.00    -0.200 F 
ENDBRANCH  68  91
ENDBRANCH  42  43
ENDBRANCH  35  37
ENDBRANCH  34  35
ENDBRANCH  33  34
ENDBRANCH  32  33
ENDBRANCH  31  32
ENDBRANCH  30  31
ENDBRANCH   1  30
TORSDOF 23
