REMARK SMILES Cc1ccc(C(=O)NC2(CC(=O)OCCOCCOCCOC(=O)c3ccc(-c4c5nc(c(-c6c(F)c(F)c(F)c(F)c6F)c6ccc([nH]6)c(-c6c(F)c(F)c(F)c(F)c6F)c6nc(c(-c7c(F)c(F)c(F)c(F)c7F)c7ccc4[nH]7)C=C6)C=C5)cc3)CCC2)cc1
REMARK SMILES IDX 17 1 16 2 15 3 14 4 13 5 11 6 12 7 10 8 9 9 88 10 90 11
REMARK SMILES IDX 89 12 8 13 6 14 7 15 5 17 1 18 2 19 3 20 92 21 4 22 91 23
REMARK SMILES IDX 18 24 19 25 20 26 21 27 22 28 23 29 24 30 25 31 26 32 87 33
REMARK SMILES IDX 27 34 86 35 28 36 29 37 30 38 80 39 31 40 85 41 79 42 81 43
REMARK SMILES IDX 32 44 84 45 78 46 77 47 33 49 65 50 45 51 64 52 46 53 49 54
REMARK SMILES IDX 63 55 82 56 47 57 48 58 62 60 83 61 50 62 34 63 35 64 43 65
REMARK SMILES IDX 36 66 37 67 41 68 44 69 38 70 39 71 42 72 40 73 66 74 67 75
REMARK SMILES IDX 75 76 68 77 69 78 73 79 76 80 70 81 71 82 74 83 72 84 51 85
REMARK SMILES IDX 52 86 60 87 53 88 54 89 58 90 61 91 55 92 56 93 59 94 57 95
REMARK H PARENT 8 16 81 48 49 59
REMARK Flexibility Score: inf
ROOT
ATOM      1  C   UNL     1      -3.765  -3.474   1.420  1.00  0.00     0.188 C 
ENDROOT
BRANCH   1   2
ATOM      2  O   UNL     1      -2.469  -3.382   1.952  1.00  0.00    -0.376 OA
BRANCH   2   3
ATOM      3  C   UNL     1      -1.773  -2.140   1.912  1.00  0.00     0.202 C 
BRANCH   3   4
ATOM      4  C   UNL     1      -2.329  -0.657   1.371  1.00  0.00     0.261 C 
BRANCH   4   5
ATOM      5  O   UNL     1      -2.313   0.364  -0.029  1.00  0.00    -0.463 OA
BRANCH   5   6
ATOM      6  C   UNL     1      -2.312   0.665  -1.417  1.00  0.00     0.308 C 
ATOM      7  O   UNL     1      -2.408  -0.080  -2.410  1.00  0.00    -0.252 OA
BRANCH   6   8
ATOM      8  C   UNL     1      -2.638   2.043  -1.752  1.00  0.00     0.151 C 
BRANCH   8   9
ATOM      9  C   UNL     1      -4.047   2.004  -1.259  1.00  0.00     0.051 C 
ATOM     10  C   UNL     1      -5.031   2.928  -2.145  1.00  0.00     0.029 C 
ATOM     11  C   UNL     1      -4.301   3.319  -0.237  1.00  0.00     0.029 C 
ATOM     12  C   UNL     1      -4.380   4.192  -1.492  1.00  0.00     0.005 C 
BRANCH   9  13
ATOM     13  N   UNL     1      -4.436   0.205  -0.930  1.00  0.00    -0.346 N 
ATOM     14  C   UNL     1      -3.565  -1.338  -0.993  1.00  0.00     0.251 C 
ATOM     15  O   UNL     1      -4.394  -2.228  -1.228  1.00  0.00    -0.269 OA
ATOM     16  H   UNL     1      -5.372   0.083  -0.648  1.00  0.00     0.164 HD
BRANCH  14  17
ATOM     17  C   UNL     1      -1.770  -1.961  -0.814  1.00  0.00     0.039 A 
ATOM     18  C   UNL     1       2.709  -2.893   0.390  1.00  0.00     0.044 C 
ATOM     19  C   UNL     1       1.254  -2.813  -0.004  1.00  0.00    -0.051 A 
ATOM     20  C   UNL     1       0.298  -3.661  -0.584  1.00  0.00     0.004 A 
ATOM     21  C   UNL     1       0.692  -1.627   0.256  1.00  0.00     0.004 A 
ATOM     22  C   UNL     1      -1.196  -3.261  -0.907  1.00  0.00     0.014 A 
ATOM     23  C   UNL     1      -0.623  -1.293  -0.254  1.00  0.00     0.014 A 
ENDBRANCH  14  17
ENDBRANCH   9  13
ENDBRANCH   8   9
ENDBRANCH   6   8
ENDBRANCH   5   6
ENDBRANCH   4   5
ENDBRANCH   3   4
ENDBRANCH   2   3
ENDBRANCH   1   2
BRANCH   1  24
ATOM     24  C   UNL     1      -4.720  -2.433   1.970  1.00  0.00     0.188 C 
BRANCH  24  25
ATOM     25  O   UNL     1      -4.137  -1.615   2.962  1.00  0.00    -0.376 OA
BRANCH  25  26
ATOM     26  C   UNL     1      -3.711  -2.153   4.196  1.00  0.00     0.202 C 
BRANCH  26  27
ATOM     27  C   UNL     1      -4.580  -1.415   5.178  1.00  0.00     0.261 C 
BRANCH  27  28
ATOM     28  O   UNL     1      -3.972  -0.066   5.257  1.00  0.00    -0.460 OA
BRANCH  28  29
ATOM     29  C   UNL     1      -4.295   0.806   4.241  1.00  0.00     0.338 C 
ATOM     30  O   UNL     1      -5.414   0.901   3.789  1.00  0.00    -0.246 OA
BRANCH  29  31
ATOM     31  C   UNL     1      -3.056   1.494   3.568  1.00  0.00     0.060 A 
ATOM     32  C   UNL     1      -3.291   2.038   2.330  1.00  0.00     0.016 A 
ATOM     33  C   UNL     1      -1.672   1.439   3.824  1.00  0.00     0.016 A 
ATOM     34  C   UNL     1      -2.194   2.299   1.382  1.00  0.00     0.010 A 
ATOM     35  C   UNL     1      -0.577   1.730   2.771  1.00  0.00     0.010 A 
ATOM     36  C   UNL     1      -0.826   2.043   1.409  1.00  0.00    -0.014 A 
BRANCH  36  37
ATOM     37  C   UNL     1       0.179   1.859  -0.014  1.00  0.00     0.031 A 
ATOM     38  C   UNL     1       0.802   3.144  -0.459  1.00  0.00     0.074 A 
ATOM     39  C   UNL     1       0.434   1.137  -1.257  1.00  0.00     0.049 A 
ATOM     40  N   UNL     1       1.543   3.274  -1.526  1.00  0.00    -0.248 NA
ATOM     41  C   UNL     1       0.760   4.367   0.328  1.00  0.00     0.031 C 
ATOM     42  C   UNL     1       1.698   0.345  -1.386  1.00  0.00     0.029 A 
ATOM     43  N   UNL     1      -0.227   0.481  -2.329  1.00  0.00    -0.354 N 
ATOM     44  C   UNL     1       2.548   4.053  -1.047  1.00  0.00     0.074 A 
ATOM     45  C   UNL     1       1.842   4.973  -0.182  1.00  0.00     0.031 C 
ATOM     46  C   UNL     1       1.607  -0.676  -2.284  1.00  0.00     0.029 A 
ATOM     47  C   UNL     1       0.262  -0.733  -2.860  1.00  0.00     0.049 A 
ATOM     48  H   UNL     1      -1.043   0.880  -2.709  1.00  0.00     0.167 HD
ATOM     49  C   UNL     1       3.802   3.499  -1.008  1.00  0.00     0.037 A 
ATOM     50  C   UNL     1      -0.149  -1.460  -3.974  1.00  0.00     0.037 A 
ATOM     51  C   UNL     1       4.035   2.343  -1.933  1.00  0.00     0.049 A 
ATOM     52  C   UNL     1       0.713  -0.921  -5.057  1.00  0.00     0.074 A 
ATOM     53  C   UNL     1       4.763   1.156  -1.856  1.00  0.00     0.029 A 
ATOM     54  N   UNL     1       3.333   2.223  -3.149  1.00  0.00    -0.354 N 
ATOM     55  N   UNL     1       1.484   0.072  -4.749  1.00  0.00    -0.248 NA
ATOM     56  C   UNL     1       0.862  -1.317  -6.449  1.00  0.00     0.031 C 
ATOM     57  C   UNL     1       4.608   0.425  -3.073  1.00  0.00     0.029 A 
ATOM     58  C   UNL     1       3.792   1.159  -3.917  1.00  0.00     0.049 A 
ATOM     59  H   UNL     1       2.603   2.823  -3.424  1.00  0.00     0.167 HD
ATOM     60  C   UNL     1       2.393   0.266  -5.701  1.00  0.00     0.074 A 
ATOM     61  C   UNL     1       1.841  -0.466  -6.835  1.00  0.00     0.031 C 
ATOM     62  C   UNL     1       3.467   1.016  -5.348  1.00  0.00     0.037 A 
BRANCH  49  63
ATOM     63  C   UNL     1       4.813   3.926   0.058  1.00  0.00     0.064 A 
ATOM     64  C   UNL     1       6.177   3.604  -0.079  1.00  0.00     0.173 A 
ATOM     65  C   UNL     1       4.507   4.618   1.258  1.00  0.00     0.173 A 
ATOM     66  F   UNL     1       6.626   2.892  -1.119  1.00  0.00    -0.203 F 
ATOM     67  C   UNL     1       7.143   4.000   0.854  1.00  0.00     0.198 A 
ATOM     68  C   UNL     1       5.482   5.106   2.129  1.00  0.00     0.198 A 
ATOM     69  F   UNL     1       3.257   4.788   1.701  1.00  0.00    -0.203 F 
ATOM     70  F   UNL     1       8.413   3.605   0.698  1.00  0.00    -0.200 F 
ATOM     71  C   UNL     1       6.804   4.796   1.928  1.00  0.00     0.200 A 
ATOM     72  F   UNL     1       5.114   5.856   3.179  1.00  0.00    -0.200 F 
ATOM     73  F   UNL     1       7.738   5.234   2.780  1.00  0.00    -0.200 F 
ENDBRANCH  49  63
BRANCH  50  74
ATOM     74  C   UNL     1      -1.510  -2.109  -4.223  1.00  0.00     0.064 A 
ATOM     75  C   UNL     1      -1.777  -3.431  -3.791  1.00  0.00     0.173 A 
ATOM     76  C   UNL     1      -2.642  -1.422  -4.685  1.00  0.00     0.173 A 
ATOM     77  F   UNL     1      -0.759  -4.256  -3.489  1.00  0.00    -0.203 F 
ATOM     78  C   UNL     1      -3.087  -3.923  -3.580  1.00  0.00     0.198 A 
ATOM     79  C   UNL     1      -3.956  -1.911  -4.488  1.00  0.00     0.198 A 
ATOM     80  F   UNL     1      -2.495  -0.224  -5.268  1.00  0.00    -0.203 F 
ATOM     81  F   UNL     1      -3.275  -5.107  -2.969  1.00  0.00    -0.200 F 
ATOM     82  C   UNL     1      -4.179  -3.142  -3.894  1.00  0.00     0.200 A 
ATOM     83  F   UNL     1      -5.010  -1.146  -4.813  1.00  0.00    -0.200 F 
ATOM     84  F   UNL     1      -5.424  -3.550  -3.593  1.00  0.00    -0.200 F 
ENDBRANCH  50  74
BRANCH  62  85
ATOM     85  C   UNL     1       4.314   1.721  -6.326  1.00  0.00     0.064 A 
ATOM     86  C   UNL     1       4.547   1.286  -7.627  1.00  0.00     0.173 A 
ATOM     87  C   UNL     1       4.845   2.977  -5.962  1.00  0.00     0.173 A 
ATOM     88  F   UNL     1       4.260   0.035  -8.010  1.00  0.00    -0.203 F 
ATOM     89  C   UNL     1       5.108   2.142  -8.565  1.00  0.00     0.198 A 
ATOM     90  C   UNL     1       5.462   3.799  -6.879  1.00  0.00     0.198 A 
ATOM     91  F   UNL     1       4.744   3.475  -4.724  1.00  0.00    -0.203 F 
ATOM     92  F   UNL     1       5.202   1.748  -9.841  1.00  0.00    -0.200 F 
ATOM     93  C   UNL     1       5.547   3.403  -8.194  1.00  0.00     0.200 A 
ATOM     94  F   UNL     1       5.925   4.990  -6.481  1.00  0.00    -0.200 F 
ATOM     95  F   UNL     1       6.058   4.238  -9.104  1.00  0.00    -0.200 F 
ENDBRANCH  62  85
ENDBRANCH  36  37
ENDBRANCH  29  31
ENDBRANCH  28  29
ENDBRANCH  27  28
ENDBRANCH  26  27
ENDBRANCH  25  26
ENDBRANCH  24  25
ENDBRANCH   1  24
TORSDOF 20
