REMARK SMILES Cc1cc(Br)c(C)c([C@@H]2[NH2+][C@H](C(=O)OCCOCCOCCOC(=O)c3ccc(-c4c5nc(c(-c6c(F)c(F)c(F)c(F)c6F)c6ccc([nH]6)c(-c6c(F)c(F)c(F)c(F)c6F)c6nc(c(-c7c(F)c(F)c(F)c(F)c7F)c7ccc4[nH]7)C=C6)C=C5)cc3)CS2)c1O
REMARK SMILES IDX 18 1 17 2 16 3 15 4 14 5 12 6 13 7 11 8 9 9 10 10 90 11
REMARK SMILES IDX 89 14 8 15 1 16 2 17 3 18 91 19 4 20 5 21 6 22 7 23 92 24
REMARK SMILES IDX 19 26 20 27 21 28 22 29 23 30 24 31 25 32 26 33 27 34 88 35
REMARK SMILES IDX 28 36 87 37 29 38 30 39 31 40 81 41 32 42 86 43 80 44 82 45
REMARK SMILES IDX 33 46 85 47 79 48 78 49 34 51 66 52 46 53 65 54 47 55 50 56
REMARK SMILES IDX 64 57 83 58 48 59 49 60 63 62 84 63 51 64 35 65 36 66 44 67
REMARK SMILES IDX 37 68 38 69 42 70 45 71 39 72 40 73 43 74 41 75 67 76 68 77
REMARK SMILES IDX 76 78 69 79 70 80 74 81 77 82 71 83 72 84 75 85 73 86 52 87
REMARK SMILES IDX 53 88 61 89 54 90 55 91 59 92 62 93 56 94 57 95 60 96 58 97
REMARK H PARENT 10 12 10 13 92 25 82 50 50 61
REMARK Flexibility Score: inf
ROOT
ATOM      1  C   UNL     1       2.657   1.778  -4.952  1.00  0.00     0.188 C 
ENDROOT
BRANCH   1   2
ATOM      2  O   UNL     1       3.364   2.442  -3.906  1.00  0.00    -0.376 OA
BRANCH   2   3
ATOM      3  C   UNL     1       3.004   2.127  -2.563  1.00  0.00     0.202 C 
BRANCH   3   4
ATOM      4  C   UNL     1       1.530   2.326  -2.213  1.00  0.00     0.261 C 
BRANCH   4   5
ATOM      5  O   UNL     1       0.662   1.489  -3.001  1.00  0.00    -0.459 OA
BRANCH   5   6
ATOM      6  C   UNL     1      -0.571   1.995  -3.264  1.00  0.00     0.365 C 
ATOM      7  O   UNL     1      -0.958   3.077  -2.825  1.00  0.00    -0.245 OA
BRANCH   6   8
ATOM      8  C   UNL     1      -1.406   1.182  -4.270  1.00  0.00     0.304 C 
ATOM      9  C   UNL     1      -1.690  -1.159  -3.732  1.00  0.00     0.278 C 
ATOM     10  N   UNL     1      -0.958  -0.205  -4.583  1.00  0.00    -0.319 N 
ATOM     11  S   UNL     1      -3.321  -0.485  -3.377  1.00  0.00    -0.087 SA
ATOM     12  H   UNL     1      -1.147  -0.410  -5.564  1.00  0.00     0.348 HD
ATOM     13  H   UNL     1       0.043  -0.288  -4.406  1.00  0.00     0.348 HD
ATOM     14  C   UNL     1      -2.885   1.193  -3.889  1.00  0.00     0.153 C 
BRANCH   9  15
ATOM     15  C   UNL     1      -0.846  -1.699  -2.578  1.00  0.00     0.066 A 
ATOM     16  C   UNL     1       0.612  -0.485   0.800  1.00  0.00     0.048 C 
ATOM     17  C   UNL     1       0.285  -1.309  -0.412  1.00  0.00    -0.008 A 
ATOM     18  C   UNL     1       0.890  -2.562  -0.520  1.00  0.00     0.023 A 
ATOM     19  C   UNL     1      -0.619  -0.921  -1.412  1.00  0.00     0.128 A 
ATOM     20  C   UNL     1       0.648  -3.385  -1.619  1.00  0.00     0.021 A 
ATOM     21  Br  UNL     1       1.494  -5.095  -1.578  1.00  0.00    -0.051 Br
ATOM     22  C   UNL     1      -0.180  -2.963  -2.683  1.00  0.00    -0.023 A 
ATOM     23  C   UNL     1      -0.376  -3.900  -3.855  1.00  0.00     0.046 C 
BRANCH  19  24
ATOM     24  O   UNL     1      -1.320   0.247  -1.279  1.00  0.00    -0.507 OA
ATOM     25  H   UNL     1      -1.195   0.785  -0.522  1.00  0.00     0.293 HD
ENDBRANCH  19  24
ENDBRANCH   9  15
ENDBRANCH   6   8
ENDBRANCH   5   6
ENDBRANCH   4   5
ENDBRANCH   3   4
ENDBRANCH   2   3
ENDBRANCH   1   2
BRANCH   1  26
ATOM     26  C   UNL     1       2.501   0.246  -4.880  1.00  0.00     0.188 C 
BRANCH  26  27
ATOM     27  O   UNL     1       3.310  -0.348  -3.878  1.00  0.00    -0.376 OA
BRANCH  27  28
ATOM     28  C   UNL     1       4.097  -1.444  -4.303  1.00  0.00     0.202 C 
BRANCH  28  29
ATOM     29  C   UNL     1       5.394  -1.001  -4.988  1.00  0.00     0.261 C 
BRANCH  29  30
ATOM     30  O   UNL     1       5.226  -0.009  -6.017  1.00  0.00    -0.460 OA
BRANCH  30  31
ATOM     31  C   UNL     1       4.723  -0.412  -7.205  1.00  0.00     0.338 C 
ATOM     32  O   UNL     1       4.403  -1.545  -7.521  1.00  0.00    -0.246 OA
BRANCH  31  33
ATOM     33  C   UNL     1       4.418   0.808  -7.990  1.00  0.00     0.060 A 
ATOM     34  C   UNL     1       5.364   1.832  -8.110  1.00  0.00     0.016 A 
ATOM     35  C   UNL     1       3.141   0.964  -8.547  1.00  0.00     0.016 A 
ATOM     36  C   UNL     1       5.036   3.004  -8.796  1.00  0.00     0.010 A 
ATOM     37  C   UNL     1       2.808   2.147  -9.219  1.00  0.00     0.010 A 
ATOM     38  C   UNL     1       3.760   3.168  -9.363  1.00  0.00    -0.014 A 
BRANCH  38  39
ATOM     39  C   UNL     1       3.511   4.320 -10.264  1.00  0.00     0.031 A 
ATOM     40  C   UNL     1       2.879   5.594  -9.790  1.00  0.00     0.074 A 
ATOM     41  C   UNL     1       3.905   4.199 -11.546  1.00  0.00     0.049 A 
ATOM     42  N   UNL     1       2.717   6.719 -10.443  1.00  0.00    -0.248 NA
ATOM     43  C   UNL     1       2.353   5.613  -8.418  1.00  0.00     0.031 C 
ATOM     44  C   UNL     1       4.505   2.995 -12.123  1.00  0.00     0.029 A 
ATOM     45  N   UNL     1       3.871   5.090 -12.588  1.00  0.00    -0.354 N 
ATOM     46  C   UNL     1       2.097   7.590  -9.558  1.00  0.00     0.074 A 
ATOM     47  C   UNL     1       1.871   6.849  -8.332  1.00  0.00     0.031 C 
ATOM     48  C   UNL     1       4.794   3.225 -13.412  1.00  0.00     0.029 A 
ATOM     49  C   UNL     1       4.394   4.587 -13.753  1.00  0.00     0.049 A 
ATOM     50  H   UNL     1       3.506   6.001 -12.508  1.00  0.00     0.167 HD
ATOM     51  C   UNL     1       1.768   8.890  -9.754  1.00  0.00     0.037 A 
ATOM     52  C   UNL     1       4.548   5.161 -14.960  1.00  0.00     0.037 A 
ATOM     53  C   UNL     1       1.994   9.618 -10.980  1.00  0.00     0.049 A 
ATOM     54  C   UNL     1       4.158   6.599 -15.148  1.00  0.00     0.074 A 
ATOM     55  C   UNL     1       1.747  10.956 -11.244  1.00  0.00     0.029 A 
ATOM     56  N   UNL     1       2.507   9.073 -12.147  1.00  0.00    -0.354 N 
ATOM     57  N   UNL     1       3.663   7.440 -14.274  1.00  0.00    -0.248 NA
ATOM     58  C   UNL     1       4.365   7.174 -16.484  1.00  0.00     0.031 C 
ATOM     59  C   UNL     1       2.061  11.207 -12.583  1.00  0.00     0.029 A 
ATOM     60  C   UNL     1       2.553  10.040 -13.141  1.00  0.00     0.049 A 
ATOM     61  H   UNL     1       2.795   8.138 -12.254  1.00  0.00     0.167 HD
ATOM     62  C   UNL     1       3.517   8.645 -14.946  1.00  0.00     0.074 A 
ATOM     63  C   UNL     1       3.997   8.433 -16.295  1.00  0.00     0.031 C 
ATOM     64  C   UNL     1       3.026   9.820 -14.483  1.00  0.00     0.037 A 
BRANCH  51  65
ATOM     65  C   UNL     1       1.143   9.650  -8.620  1.00  0.00     0.064 A 
ATOM     66  C   UNL     1       1.915  10.099  -7.539  1.00  0.00     0.173 A 
ATOM     67  C   UNL     1      -0.195  10.067  -8.691  1.00  0.00     0.173 A 
ATOM     68  F   UNL     1       3.200   9.732  -7.429  1.00  0.00    -0.203 F 
ATOM     69  C   UNL     1       1.371  10.942  -6.573  1.00  0.00     0.198 A 
ATOM     70  C   UNL     1      -0.730  10.926  -7.735  1.00  0.00     0.198 A 
ATOM     71  F   UNL     1      -0.971   9.678  -9.715  1.00  0.00    -0.203 F 
ATOM     72  F   UNL     1       2.127  11.361  -5.548  1.00  0.00    -0.200 F 
ATOM     73  C   UNL     1       0.054  11.366  -6.678  1.00  0.00     0.200 A 
ATOM     74  F   UNL     1      -1.996  11.351  -7.849  1.00  0.00    -0.200 F 
ATOM     75  F   UNL     1      -0.457  12.205  -5.767  1.00  0.00    -0.200 F 
ENDBRANCH  51  65
BRANCH  52  76
ATOM     76  C   UNL     1       5.130   4.373 -16.075  1.00  0.00     0.064 A 
ATOM     77  C   UNL     1       6.410   4.656 -16.569  1.00  0.00     0.173 A 
ATOM     78  C   UNL     1       4.421   3.314 -16.660  1.00  0.00     0.173 A 
ATOM     79  F   UNL     1       7.118   5.671 -16.051  1.00  0.00    -0.203 F 
ATOM     80  C   UNL     1       6.953   3.920 -17.619  1.00  0.00     0.198 A 
ATOM     81  C   UNL     1       4.976   2.560 -17.690  1.00  0.00     0.198 A 
ATOM     82  F   UNL     1       3.195   3.000 -16.215  1.00  0.00    -0.203 F 
ATOM     83  F   UNL     1       8.162   4.237 -18.101  1.00  0.00    -0.200 F 
ATOM     84  C   UNL     1       6.238   2.869 -18.175  1.00  0.00     0.200 A 
ATOM     85  F   UNL     1       4.289   1.536 -18.213  1.00  0.00    -0.200 F 
ATOM     86  F   UNL     1       6.763   2.158 -19.181  1.00  0.00    -0.200 F 
ENDBRANCH  52  76
BRANCH  64  87
ATOM     87  C   UNL     1       2.986  10.975 -15.441  1.00  0.00     0.064 A 
ATOM     88  C   UNL     1       2.065  11.017 -16.498  1.00  0.00     0.173 A 
ATOM     89  C   UNL     1       3.844  12.073 -15.274  1.00  0.00     0.173 A 
ATOM     90  F   UNL     1       1.234   9.985 -16.709  1.00  0.00    -0.203 F 
ATOM     91  C   UNL     1       2.018  12.105 -17.365  1.00  0.00     0.198 A 
ATOM     92  C   UNL     1       3.775  13.172 -16.125  1.00  0.00     0.198 A 
ATOM     93  F   UNL     1       4.739  12.086 -14.275  1.00  0.00    -0.203 F 
ATOM     94  F   UNL     1       1.158  12.103 -18.393  1.00  0.00    -0.200 F 
ATOM     95  C   UNL     1       2.866  13.185 -17.173  1.00  0.00     0.200 A 
ATOM     96  F   UNL     1       4.586  14.221 -15.931  1.00  0.00    -0.200 F 
ATOM     97  F   UNL     1       2.813  14.236 -18.003  1.00  0.00    -0.200 F 
ENDBRANCH  64  87
ENDBRANCH  38  39
ENDBRANCH  31  33
ENDBRANCH  30  31
ENDBRANCH  29  30
ENDBRANCH  28  29
ENDBRANCH  27  28
ENDBRANCH  26  27
ENDBRANCH   1  26
TORSDOF 19
