REMARK SMILES C[NH+](C)CCCNC(=O)[C@@H]1[C@@H](C(=O)OCCOCCOCCOC(=O)c2ccc(-c3c4nc(c(-c5c(F)c(F)c(F)c(F)c5F)c5ccc([nH]5)c(-c5c(F)c(F)c(F)c(F)c5F)c5nc(c(-c6c(F)c(F)c(F)c(F)c6F)c6ccc3[nH]6)C=C5)C=C4)cc2)C1(C)C
REMARK SMILES IDX 17 1 16 2 15 3 14 4 12 5 13 6 11 7 10 8 89 9 90 10 91 11
REMARK SMILES IDX 8 12 7 13 9 15 6 16 5 17 4 18 2 19 1 20 3 21 18 23 19 24
REMARK SMILES IDX 20 25 21 26 22 27 23 28 24 29 25 30 26 31 27 32 88 33 28 34
REMARK SMILES IDX 87 35 29 36 30 37 31 38 81 39 32 40 86 41 80 42 82 43 33 44
REMARK SMILES IDX 85 45 79 46 78 47 34 49 66 50 46 51 65 52 47 53 50 54 64 55
REMARK SMILES IDX 83 56 48 57 49 58 63 60 84 61 51 62 35 63 36 64 44 65 37 66
REMARK SMILES IDX 38 67 42 68 45 69 39 70 40 71 43 72 41 73 67 74 68 75 76 76
REMARK SMILES IDX 69 77 70 78 74 79 77 80 71 81 72 82 75 83 73 84 52 85 53 86
REMARK SMILES IDX 61 87 54 88 55 89 59 90 62 91 56 92 57 93 60 94 58 95
REMARK H PARENT 7 14 2 22 82 48 50 59
REMARK Flexibility Score: inf
ROOT
ATOM      1  O   UNL     1      -2.129  -2.558   2.742  1.00  0.00    -0.376 OA
ENDROOT
BRANCH   1   2
ATOM      2  C   UNL     1      -1.183  -1.494   2.849  1.00  0.00     0.202 C 
BRANCH   2   3
ATOM      3  C   UNL     1       0.315  -1.834   2.831  1.00  0.00     0.261 C 
BRANCH   3   4
ATOM      4  O   UNL     1       0.706  -2.558   1.651  1.00  0.00    -0.463 OA
BRANCH   4   5
ATOM      5  C   UNL     1       1.538  -3.603   1.861  1.00  0.00     0.310 C 
ATOM      6  O   UNL     1       2.150  -3.821   2.896  1.00  0.00    -0.252 OA
BRANCH   5   7
ATOM      7  C   UNL     1       1.574  -4.598   0.760  1.00  0.00     0.118 C 
ATOM      8  C   UNL     1       2.848  -4.516  -0.065  1.00  0.00     0.100 C 
ATOM      9  C   UNL     1       1.526  -4.556  -0.768  1.00  0.00    -0.009 C 
ATOM     10  C   UNL     1       1.232  -3.303  -1.566  1.00  0.00     0.013 C 
ATOM     11  C   UNL     1       1.129  -5.823  -1.495  1.00  0.00     0.013 C 
BRANCH   8  12
ATOM     12  C   UNL     1       3.825  -5.582   0.221  1.00  0.00     0.224 C 
ATOM     13  N   UNL     1       4.966  -5.184   0.867  1.00  0.00    -0.356 N 
ATOM     14  H   UNL     1       5.599  -5.889   1.134  1.00  0.00     0.163 HD
ATOM     15  O   UNL     1       3.605  -6.758  -0.046  1.00  0.00    -0.275 OA
BRANCH  13  16
ATOM     16  C   UNL     1       5.327  -3.813   1.194  1.00  0.00     0.121 C 
BRANCH  16  17
ATOM     17  C   UNL     1       6.300  -3.670   2.346  1.00  0.00     0.083 C 
BRANCH  17  18
ATOM     18  C   UNL     1       7.652  -4.367   2.184  1.00  0.00     0.263 C 
BRANCH  18  19
ATOM     19  N   UNL     1       8.551  -3.956   1.105  1.00  0.00    -0.340 N 
ATOM     20  C   UNL     1       8.239  -4.516  -0.203  1.00  0.00     0.332 C 
ATOM     21  C   UNL     1       8.781  -2.518   1.039  1.00  0.00     0.332 C 
ATOM     22  H   UNL     1       9.438  -4.380   1.377  1.00  0.00     0.347 HD
ENDBRANCH  18  19
ENDBRANCH  17  18
ENDBRANCH  16  17
ENDBRANCH  13  16
ENDBRANCH   8  12
ENDBRANCH   5   7
ENDBRANCH   4   5
ENDBRANCH   3   4
ENDBRANCH   2   3
ENDBRANCH   1   2
BRANCH   1  23
ATOM     23  C   UNL     1      -1.953  -3.545   1.731  1.00  0.00     0.188 C 
BRANCH  23  24
ATOM     24  C   UNL     1      -1.650  -3.096   0.292  1.00  0.00     0.188 C 
BRANCH  24  25
ATOM     25  O   UNL     1      -1.509  -1.709   0.114  1.00  0.00    -0.376 OA
BRANCH  25  26
ATOM     26  C   UNL     1      -2.561  -0.963  -0.466  1.00  0.00     0.202 C 
BRANCH  26  27
ATOM     27  C   UNL     1      -4.051  -1.324  -0.308  1.00  0.00     0.261 C 
BRANCH  27  28
ATOM     28  O   UNL     1      -4.391  -2.682  -0.006  1.00  0.00    -0.460 OA
BRANCH  28  29
ATOM     29  C   UNL     1      -4.520  -3.530  -1.054  1.00  0.00     0.338 C 
ATOM     30  O   UNL     1      -4.360  -3.276  -2.233  1.00  0.00    -0.246 OA
BRANCH  29  31
ATOM     31  C   UNL     1      -4.677  -4.896  -0.507  1.00  0.00     0.060 A 
ATOM     32  C   UNL     1      -3.700  -5.862  -0.791  1.00  0.00     0.016 A 
ATOM     33  C   UNL     1      -5.784  -5.219   0.279  1.00  0.00     0.016 A 
ATOM     34  C   UNL     1      -3.848  -7.167  -0.319  1.00  0.00     0.010 A 
ATOM     35  C   UNL     1      -5.944  -6.532   0.729  1.00  0.00     0.010 A 
ATOM     36  C   UNL     1      -4.996  -7.519   0.403  1.00  0.00    -0.014 A 
BRANCH  36  37
ATOM     37  C   UNL     1      -5.322  -8.949   0.626  1.00  0.00     0.031 A 
ATOM     38  C   UNL     1      -6.271  -9.615  -0.332  1.00  0.00     0.074 A 
ATOM     39  C   UNL     1      -4.794  -9.644   1.648  1.00  0.00     0.049 A 
ATOM     40  N   UNL     1      -6.781 -10.819  -0.302  1.00  0.00    -0.248 NA
ATOM     41  C   UNL     1      -6.709  -8.804  -1.480  1.00  0.00     0.031 C 
ATOM     42  C   UNL     1      -3.829  -9.129   2.614  1.00  0.00     0.029 A 
ATOM     43  N   UNL     1      -5.016 -10.939   2.047  1.00  0.00    -0.354 N 
ATOM     44  C   UNL     1      -7.606 -10.905  -1.415  1.00  0.00     0.074 A 
ATOM     45  C   UNL     1      -7.554  -9.624  -2.085  1.00  0.00     0.031 C 
ATOM     46  C   UNL     1      -3.553 -10.094   3.509  1.00  0.00     0.029 A 
ATOM     47  C   UNL     1      -4.350 -11.280   3.199  1.00  0.00     0.049 A 
ATOM     48  H   UNL     1      -5.597 -11.563   1.555  1.00  0.00     0.167 HD
ATOM     49  C   UNL     1      -8.338 -11.960  -1.845  1.00  0.00     0.037 A 
ATOM     50  C   UNL     1      -4.404 -12.412   3.929  1.00  0.00     0.037 A 
ATOM     51  C   UNL     1      -8.390 -13.233  -1.176  1.00  0.00     0.049 A 
ATOM     52  C   UNL     1      -5.289 -13.547   3.473  1.00  0.00     0.074 A 
ATOM     53  C   UNL     1      -9.089 -14.370  -1.539  1.00  0.00     0.029 A 
ATOM     54  N   UNL     1      -7.721 -13.532   0.002  1.00  0.00    -0.354 N 
ATOM     55  N   UNL     1      -6.051 -13.631   2.409  1.00  0.00    -0.248 NA
ATOM     56  C   UNL     1      -5.319 -14.747   4.323  1.00  0.00     0.031 C 
ATOM     57  C   UNL     1      -8.889 -15.339  -0.551  1.00  0.00     0.029 A 
ATOM     58  C   UNL     1      -8.014 -14.828   0.394  1.00  0.00     0.049 A 
ATOM     59  H   UNL     1      -7.127 -12.915   0.487  1.00  0.00     0.167 HD
ATOM     60  C   UNL     1      -6.619 -14.900   2.443  1.00  0.00     0.074 A 
ATOM     61  C   UNL     1      -6.106 -15.554   3.627  1.00  0.00     0.031 C 
ATOM     62  C   UNL     1      -7.484 -15.472   1.569  1.00  0.00     0.037 A 
BRANCH  49  63
ATOM     63  C   UNL     1      -9.166 -11.770  -3.082  1.00  0.00     0.064 A 
ATOM     64  C   UNL     1      -8.582 -11.639  -4.351  1.00  0.00     0.173 A 
ATOM     65  C   UNL     1     -10.566 -11.742  -2.999  1.00  0.00     0.173 A 
ATOM     66  F   UNL     1      -7.246 -11.641  -4.484  1.00  0.00    -0.203 F 
ATOM     67  C   UNL     1      -9.368 -11.461  -5.487  1.00  0.00     0.198 A 
ATOM     68  C   UNL     1     -11.350 -11.597  -4.140  1.00  0.00     0.198 A 
ATOM     69  F   UNL     1     -11.176 -11.864  -1.810  1.00  0.00    -0.203 F 
ATOM     70  F   UNL     1      -8.786 -11.287  -6.681  1.00  0.00    -0.200 F 
ATOM     71  C   UNL     1     -10.750 -11.448  -5.381  1.00  0.00     0.200 A 
ATOM     72  F   UNL     1     -12.686 -11.597  -4.038  1.00  0.00    -0.200 F 
ATOM     73  F   UNL     1     -11.506 -11.284  -6.476  1.00  0.00    -0.200 F 
ENDBRANCH  49  63
BRANCH  50  74
ATOM     74  C   UNL     1      -3.611 -12.531   5.182  1.00  0.00     0.064 A 
ATOM     75  C   UNL     1      -2.550 -13.442   5.283  1.00  0.00     0.173 A 
ATOM     76  C   UNL     1      -3.918 -11.761   6.314  1.00  0.00     0.173 A 
ATOM     77  F   UNL     1      -2.238 -14.223   4.238  1.00  0.00    -0.203 F 
ATOM     78  C   UNL     1      -1.843 -13.596   6.474  1.00  0.00     0.198 A 
ATOM     79  C   UNL     1      -3.189 -11.893   7.495  1.00  0.00     0.198 A 
ATOM     80  F   UNL     1      -4.927 -10.880   6.274  1.00  0.00    -0.203 F 
ATOM     81  F   UNL     1      -0.872 -14.515   6.560  1.00  0.00    -0.200 F 
ATOM     82  C   UNL     1      -2.159 -12.817   7.577  1.00  0.00     0.200 A 
ATOM     83  F   UNL     1      -3.493 -11.133   8.555  1.00  0.00    -0.200 F 
ATOM     84  F   UNL     1      -1.479 -12.966   8.722  1.00  0.00    -0.200 F 
ENDBRANCH  50  74
BRANCH  62  85
ATOM     85  C   UNL     1      -7.897 -16.894   1.829  1.00  0.00     0.064 A 
ATOM     86  C   UNL     1      -8.747 -17.238   2.890  1.00  0.00     0.173 A 
ATOM     87  C   UNL     1      -7.472 -17.921   0.971  1.00  0.00     0.173 A 
ATOM     88  F   UNL     1      -9.172 -16.297   3.747  1.00  0.00    -0.203 F 
ATOM     89  C   UNL     1      -9.134 -18.559   3.099  1.00  0.00     0.198 A 
ATOM     90  C   UNL     1      -7.889 -19.235   1.162  1.00  0.00     0.198 A 
ATOM     91  F   UNL     1      -6.667 -17.646  -0.066  1.00  0.00    -0.203 F 
ATOM     92  F   UNL     1      -9.907 -18.871   4.148  1.00  0.00    -0.200 F 
ATOM     93  C   UNL     1      -8.712 -19.555   2.230  1.00  0.00     0.200 A 
ATOM     94  F   UNL     1      -7.494 -20.193   0.311  1.00  0.00    -0.200 F 
ATOM     95  F   UNL     1      -9.094 -20.824   2.427  1.00  0.00    -0.200 F 
ENDBRANCH  62  85
ENDBRANCH  36  37
ENDBRANCH  29  31
ENDBRANCH  28  29
ENDBRANCH  27  28
ENDBRANCH  26  27
ENDBRANCH  25  26
ENDBRANCH  24  25
ENDBRANCH  23  24
ENDBRANCH   1  23
TORSDOF 22
