REMARK SMILES O=C(COc1ccc(Br)cc1/C=C1\C(=O)Nc2ccc(Br)cc21)OCCOCCOCCOC(=O)c1ccc(-c2c3nc(c(-c4c(F)c(F)c(F)c(F)c4F)c4ccc([nH]4)c(-c4c(F)c(F)c(F)c(F)c4F)c4nc(c(-c5c(F)c(F)c(F)c(F)c5F)c5ccc2[nH]5)C=C4)C=C3)cc1
REMARK SMILES IDX 28 1 27 2 26 3 25 4 24 5 2 6 1 7 3 8 4 9 5 10 6 11 11 12
REMARK SMILES IDX 7 13 10 14 8 15 9 16 12 17 13 18 14 19 23 20 15 21 16 22
REMARK SMILES IDX 17 23 22 24 18 26 20 27 19 28 21 29 29 30 30 31 31 32 32 33
REMARK SMILES IDX 33 34 34 35 35 36 36 37 37 38 98 39 38 40 97 41 39 42 40 43
REMARK SMILES IDX 41 44 91 45 42 46 96 47 90 48 92 49 43 50 95 51 89 52 88 53
REMARK SMILES IDX 44 55 76 56 56 57 75 58 57 59 60 60 74 61 93 62 58 63 59 64
REMARK SMILES IDX 73 66 94 67 61 68 45 69 46 70 54 71 47 72 48 73 52 74 55 75
REMARK SMILES IDX 49 76 50 77 53 78 51 79 77 80 78 81 86 82 79 83 80 84 84 85
REMARK SMILES IDX 87 86 81 87 82 88 85 89 83 90 62 91 63 92 71 93 64 94 65 95
REMARK SMILES IDX 69 96 72 97 66 98 67 99 70 100 68 101
REMARK H PARENT 16 25 92 54 60 65
REMARK Flexibility Score: inf
ROOT
ATOM      1  C   UNL     1       3.722  -1.271  -1.761  1.00  0.00     0.188 C 
ENDROOT
BRANCH   1   2
ATOM      2  O   UNL     1       4.870  -1.366  -0.922  1.00  0.00    -0.376 OA
BRANCH   2   3
ATOM      3  C   UNL     1       5.209  -0.193  -0.203  1.00  0.00     0.202 C 
BRANCH   3   4
ATOM      4  C   UNL     1       4.360  -0.059   1.057  1.00  0.00     0.261 C 
BRANCH   4   5
ATOM      5  O   UNL     1       2.950   0.130   0.793  1.00  0.00    -0.461 OA
BRANCH   5   6
ATOM      6  C   UNL     1       2.396   1.149   0.101  1.00  0.00     0.344 C 
ATOM      7  O   UNL     1       1.240   1.053  -0.308  1.00  0.00    -0.248 OA
BRANCH   6   8
ATOM      8  C   UNL     1       3.229   2.392  -0.196  1.00  0.00     0.351 C 
BRANCH   8   9
ATOM      9  O   UNL     1       4.203   2.807   0.759  1.00  0.00    -0.481 OA
BRANCH   9  10
ATOM     10  C   UNL     1       3.633   3.601   1.731  1.00  0.00     0.127 A 
ATOM     11  C   UNL     1       2.568   3.084   2.495  1.00  0.00     0.048 A 
ATOM     12  C   UNL     1       4.102   4.920   1.912  1.00  0.00     0.018 A 
ATOM     13  C   UNL     1       1.831   3.910   3.328  1.00  0.00     0.019 A 
ATOM     14  C   UNL     1       3.354   5.707   2.797  1.00  0.00     0.027 A 
ATOM     15  C   UNL     1       2.211   5.231   3.450  1.00  0.00     0.018 A 
ATOM     16  Br  UNL     1       1.169   6.410   4.498  1.00  0.00    -0.051 Br
BRANCH  12  17
ATOM     17  C   UNL     1       5.290   5.423   1.151  1.00  0.00     0.026 C 
ATOM     18  C   UNL     1       5.687   6.681   0.859  1.00  0.00     0.050 C 
ATOM     19  C   UNL     1       5.032   7.988   1.232  1.00  0.00     0.256 C 
ATOM     20  C   UNL     1       6.591   7.020  -0.263  1.00  0.00     0.012 A 
ATOM     21  O   UNL     1       4.606   8.367   2.304  1.00  0.00    -0.269 OA
ATOM     22  N   UNL     1       5.163   8.779   0.111  1.00  0.00    -0.321 N 
ATOM     23  C   UNL     1       6.111   8.246  -0.749  1.00  0.00     0.049 A 
ATOM     24  C   UNL     1       7.737   6.474  -0.813  1.00  0.00     0.026 A 
ATOM     25  H   UNL     1       4.655   9.605  -0.056  1.00  0.00     0.170 HD
ATOM     26  C   UNL     1       6.633   8.888  -1.848  1.00  0.00     0.028 A 
ATOM     27  C   UNL     1       8.319   7.147  -1.902  1.00  0.00     0.018 A 
ATOM     28  C   UNL     1       7.747   8.313  -2.446  1.00  0.00     0.018 A 
ATOM     29  Br  UNL     1       9.958   6.530  -2.622  1.00  0.00    -0.051 Br
ENDBRANCH  12  17
ENDBRANCH   9  10
ENDBRANCH   8   9
ENDBRANCH   6   8
ENDBRANCH   5   6
ENDBRANCH   4   5
ENDBRANCH   3   4
ENDBRANCH   2   3
ENDBRANCH   1   2
BRANCH   1  30
ATOM     30  C   UNL     1       2.644  -2.300  -1.388  1.00  0.00     0.188 C 
BRANCH  30  31
ATOM     31  O   UNL     1       3.024  -3.658  -1.169  1.00  0.00    -0.376 OA
BRANCH  31  32
ATOM     32  C   UNL     1       4.209  -4.161  -1.771  1.00  0.00     0.202 C 
BRANCH  32  33
ATOM     33  C   UNL     1       4.111  -4.486  -3.264  1.00  0.00     0.261 C 
BRANCH  33  34
ATOM     34  O   UNL     1       3.944  -3.312  -4.083  1.00  0.00    -0.460 OA
BRANCH  34  35
ATOM     35  C   UNL     1       2.711  -3.128  -4.614  1.00  0.00     0.338 C 
ATOM     36  O   UNL     1       1.759  -3.887  -4.542  1.00  0.00    -0.246 OA
BRANCH  35  37
ATOM     37  C   UNL     1       2.604  -1.762  -5.187  1.00  0.00     0.060 A 
ATOM     38  C   UNL     1       3.599  -1.216  -6.002  1.00  0.00     0.016 A 
ATOM     39  C   UNL     1       1.442  -1.026  -4.919  1.00  0.00     0.016 A 
ATOM     40  C   UNL     1       3.404   0.046  -6.586  1.00  0.00     0.010 A 
ATOM     41  C   UNL     1       1.255   0.238  -5.491  1.00  0.00     0.010 A 
ATOM     42  C   UNL     1       2.221   0.774  -6.354  1.00  0.00    -0.014 A 
BRANCH  42  43
ATOM     43  C   UNL     1       1.916   1.995  -7.148  1.00  0.00     0.031 A 
ATOM     44  C   UNL     1       2.137   3.381  -6.614  1.00  0.00     0.074 A 
ATOM     45  C   UNL     1       1.412   1.843  -8.390  1.00  0.00     0.049 A 
ATOM     46  N   UNL     1       1.933   4.529  -7.215  1.00  0.00    -0.248 NA
ATOM     47  C   UNL     1       2.654   3.507  -5.244  1.00  0.00     0.031 C 
ATOM     48  C   UNL     1       1.130   0.559  -9.030  1.00  0.00     0.029 A 
ATOM     49  N   UNL     1       1.052   2.774  -9.335  1.00  0.00    -0.354 N 
ATOM     50  C   UNL     1       2.319   5.509  -6.315  1.00  0.00     0.074 A 
ATOM     51  C   UNL     1       2.745   4.827  -5.109  1.00  0.00     0.031 C 
ATOM     52  C   UNL     1       0.656   0.780 -10.267  1.00  0.00     0.029 A 
ATOM     53  C   UNL     1       0.585   2.221 -10.503  1.00  0.00     0.049 A 
ATOM     54  H   UNL     1       1.123   3.745  -9.190  1.00  0.00     0.167 HD
ATOM     55  C   UNL     1       2.334   6.849  -6.493  1.00  0.00     0.037 A 
ATOM     56  C   UNL     1       0.153   2.799 -11.640  1.00  0.00     0.037 A 
ATOM     57  C   UNL     1       1.911   7.549  -7.681  1.00  0.00     0.049 A 
ATOM     58  C   UNL     1       0.164   4.296 -11.782  1.00  0.00     0.074 A 
ATOM     59  C   UNL     1       1.884   8.919  -7.901  1.00  0.00     0.029 A 
ATOM     60  N   UNL     1       1.465   6.953  -8.845  1.00  0.00    -0.354 N 
ATOM     61  N   UNL     1       0.578   5.204 -10.935  1.00  0.00    -0.248 NA
ATOM     62  C   UNL     1      -0.340   4.849 -13.050  1.00  0.00     0.031 C 
ATOM     63  C   UNL     1       1.429   9.153  -9.198  1.00  0.00     0.029 A 
ATOM     64  C   UNL     1       1.179   7.928  -9.789  1.00  0.00     0.049 A 
ATOM     65  H   UNL     1       1.366   5.983  -8.983  1.00  0.00     0.167 HD
ATOM     66  C   UNL     1       0.426   6.422 -11.583  1.00  0.00     0.074 A 
ATOM     67  C   UNL     1      -0.109   6.145 -12.895  1.00  0.00     0.031 C 
ATOM     68  C   UNL     1       0.704   7.661 -11.117  1.00  0.00     0.037 A 
BRANCH  55  69
ATOM     69  C   UNL     1       2.880   7.726  -5.412  1.00  0.00     0.064 A 
ATOM     70  C   UNL     1       4.221   8.128  -5.481  1.00  0.00     0.173 A 
ATOM     71  C   UNL     1       2.016   8.410  -4.545  1.00  0.00     0.173 A 
ATOM     72  F   UNL     1       5.074   7.501  -6.304  1.00  0.00    -0.203 F 
ATOM     73  C   UNL     1       4.663   9.233  -4.765  1.00  0.00     0.198 A 
ATOM     74  C   UNL     1       2.468   9.508  -3.820  1.00  0.00     0.198 A 
ATOM     75  F   UNL     1       0.721   8.069  -4.474  1.00  0.00    -0.203 F 
ATOM     76  F   UNL     1       5.929   9.653  -4.896  1.00  0.00    -0.200 F 
ATOM     77  C   UNL     1       3.783   9.931  -3.948  1.00  0.00     0.200 A 
ATOM     78  F   UNL     1       1.621  10.194  -3.042  1.00  0.00    -0.200 F 
ATOM     79  F   UNL     1       4.205  11.020  -3.290  1.00  0.00    -0.200 F 
ENDBRANCH  55  69
BRANCH  56  80
ATOM     80  C   UNL     1      -0.296   1.956 -12.775  1.00  0.00     0.064 A 
ATOM     81  C   UNL     1       0.465   1.877 -13.950  1.00  0.00     0.173 A 
ATOM     82  C   UNL     1      -1.506   1.251 -12.726  1.00  0.00     0.173 A 
ATOM     83  F   UNL     1       1.617   2.559 -14.048  1.00  0.00    -0.203 F 
ATOM     84  C   UNL     1       0.018   1.145 -15.046  1.00  0.00     0.198 A 
ATOM     85  C   UNL     1      -1.938   0.497 -13.814  1.00  0.00     0.198 A 
ATOM     86  F   UNL     1      -2.267   1.299 -11.624  1.00  0.00    -0.203 F 
ATOM     87  F   UNL     1       0.736   1.133 -16.177  1.00  0.00    -0.200 F 
ATOM     88  C   UNL     1      -1.181   0.453 -14.976  1.00  0.00     0.200 A 
ATOM     89  F   UNL     1      -3.094  -0.177 -13.741  1.00  0.00    -0.200 F 
ATOM     90  F   UNL     1      -1.615  -0.246 -16.033  1.00  0.00    -0.200 F 
ENDBRANCH  56  80
BRANCH  68  91
ATOM     91  C   UNL     1       0.501   8.828 -12.036  1.00  0.00     0.064 A 
ATOM     92  C   UNL     1      -0.781   9.293 -12.361  1.00  0.00     0.173 A 
ATOM     93  C   UNL     1       1.604   9.534 -12.541  1.00  0.00     0.173 A 
ATOM     94  F   UNL     1      -1.867   8.650 -11.905  1.00  0.00    -0.203 F 
ATOM     95  C   UNL     1      -0.952  10.409 -13.176  1.00  0.00     0.198 A 
ATOM     96  C   UNL     1       1.430  10.664 -13.336  1.00  0.00     0.198 A 
ATOM     97  F   UNL     1       2.852   9.140 -12.246  1.00  0.00    -0.203 F 
ATOM     98  F   UNL     1      -2.187  10.815 -13.501  1.00  0.00    -0.200 F 
ATOM     99  C   UNL     1       0.152  11.097 -13.657  1.00  0.00     0.200 A 
ATOM    100  F   UNL     1       2.498  11.337 -13.786  1.00  0.00    -0.200 F 
ATOM    101  F   UNL     1      -0.015  12.177 -14.432  1.00  0.00    -0.200 F 
ENDBRANCH  68  91
ENDBRANCH  42  43
ENDBRANCH  35  37
ENDBRANCH  34  35
ENDBRANCH  33  34
ENDBRANCH  32  33
ENDBRANCH  31  32
ENDBRANCH  30  31
ENDBRANCH   1  30
TORSDOF 20
