REMARK SMILES COC(=O)c1ccc([C@H]2Nc3c(C(=O)OCCOCCOCCOC(=O)c4ccc(-c5c6nc(c(-c7c(F)c(F)c(F)c(F)c7F)c7ccc([nH]7)c(-c7c(F)c(F)c(F)c(F)c7F)c7nc(c(-c8c(F)c(F)c(F)c(F)c8F)c8ccc5[nH]8)C=C7)C=C6)cc4)cccc3[C@H]3[C@H]4CC[C@H](C4)[C@H]32)cc1
REMARK SMILES IDX 19 1 18 2 17 3 16 4 15 5 13 6 14 7 12 8 9 9 10 10 100 11
REMARK SMILES IDX 11 12 94 14 98 15 93 16 95 17 97 18 99 19 90 20 92 21 96 22
REMARK SMILES IDX 91 23 8 24 5 25 6 26 102 27 7 28 101 29 3 30 4 31 2 32 1 33
REMARK SMILES IDX 20 34 21 35 22 36 23 37 24 38 25 39 26 40 27 41 28 42 89 43
REMARK SMILES IDX 29 44 88 45 30 46 31 47 32 48 82 49 33 50 87 51 81 52 83 53
REMARK SMILES IDX 34 54 86 55 80 56 79 57 35 59 67 60 47 61 66 62 48 63 51 64
REMARK SMILES IDX 65 65 84 66 49 67 50 68 64 70 85 71 52 72 36 73 37 74 45 75
REMARK SMILES IDX 38 76 39 77 43 78 46 79 40 80 41 81 44 82 42 83 68 84 69 85
REMARK SMILES IDX 77 86 70 87 71 88 75 89 78 90 72 91 73 92 76 93 74 94 53 95
REMARK SMILES IDX 54 96 62 97 55 98 56 99 60 100 63 101 57 102 58 103 61 104
REMARK SMILES IDX 59 105
REMARK H PARENT 10 13 83 58 51 69
REMARK Flexibility Score: inf
ROOT
ATOM      1  C   UNL     1       0.409 -10.237  -3.071  1.00  0.00     0.188 C 
ENDROOT
BRANCH   1   2
ATOM      2  O   UNL     1       0.356 -10.757  -1.745  1.00  0.00    -0.376 OA
BRANCH   2   3
ATOM      3  C   UNL     1      -0.600 -11.760  -1.426  1.00  0.00     0.202 C 
BRANCH   3   4
ATOM      4  C   UNL     1      -2.077 -11.371  -1.500  1.00  0.00     0.261 C 
BRANCH   4   5
ATOM      5  O   UNL     1      -2.503 -10.978  -2.812  1.00  0.00    -0.460 OA
BRANCH   5   6
ATOM      6  C   UNL     1      -2.835  -9.665  -2.987  1.00  0.00     0.340 C 
ATOM      7  O   UNL     1      -2.795  -8.783  -2.164  1.00  0.00    -0.246 OA
BRANCH   6   8
ATOM      8  C   UNL     1      -3.092  -9.470  -4.438  1.00  0.00     0.083 A 
ATOM      9  C   UNL     1      -1.689  -6.079  -5.154  1.00  0.00     0.113 C 
ATOM     10  N   UNL     1      -1.691  -7.430  -4.552  1.00  0.00    -0.377 N 
ATOM     11  C   UNL     1      -1.304  -6.215  -6.660  1.00  0.00     0.027 C 
ATOM     12  C   UNL     1      -2.450  -8.438  -5.157  1.00  0.00     0.053 A 
ATOM     13  H   UNL     1      -1.167  -7.617  -3.740  1.00  0.00     0.161 HD
ATOM     14  C   UNL     1      -1.576  -7.593  -7.329  1.00  0.00     0.030 C 
ATOM     15  C   UNL     1      -1.716  -5.240  -7.788  1.00  0.00    -0.005 C 
ATOM     16  C   UNL     1      -2.519  -8.479  -6.562  1.00  0.00    -0.020 A 
ATOM     17  C   UNL     1      -1.907  -7.220  -8.805  1.00  0.00    -0.003 C 
ATOM     18  C   UNL     1      -3.213  -5.337  -8.161  1.00  0.00     0.004 C 
ATOM     19  C   UNL     1      -1.078  -5.948  -8.998  1.00  0.00     0.008 C 
ATOM     20  C   UNL     1      -3.912 -10.406  -5.089  1.00  0.00     0.018 A 
ATOM     21  C   UNL     1      -3.300  -9.454  -7.205  1.00  0.00     0.006 A 
ATOM     22  C   UNL     1      -3.316  -6.640  -8.949  1.00  0.00     0.004 C 
ATOM     23  C   UNL     1      -4.033 -10.381  -6.472  1.00  0.00     0.001 A 
BRANCH   9  24
ATOM     24  C   UNL     1      -2.880  -5.241  -4.664  1.00  0.00    -0.025 A 
ATOM     25  C   UNL     1      -5.182  -3.811  -3.838  1.00  0.00     0.060 A 
ATOM     26  C   UNL     1      -4.722  -4.877  -3.076  1.00  0.00     0.016 A 
ATOM     27  C   UNL     1      -4.428  -3.358  -4.918  1.00  0.00     0.016 A 
ATOM     28  C   UNL     1      -3.589  -5.583  -3.493  1.00  0.00     0.007 A 
ATOM     29  C   UNL     1      -3.256  -4.035  -5.279  1.00  0.00     0.007 A 
BRANCH  25  30
ATOM     30  C   UNL     1      -6.487  -3.212  -3.507  1.00  0.00     0.337 C 
ATOM     31  O   UNL     1      -6.849  -2.926  -2.380  1.00  0.00    -0.246 OA
BRANCH  30  32
ATOM     32  O   UNL     1      -7.225  -3.177  -4.644  1.00  0.00    -0.465 OA
ATOM     33  C   UNL     1      -8.601  -2.845  -4.462  1.00  0.00     0.282 C 
ENDBRANCH  30  32
ENDBRANCH  25  30
ENDBRANCH   9  24
ENDBRANCH   6   8
ENDBRANCH   5   6
ENDBRANCH   4   5
ENDBRANCH   3   4
ENDBRANCH   2   3
ENDBRANCH   1   2
BRANCH   1  34
ATOM     34  C   UNL     1       0.279 -11.200  -4.268  1.00  0.00     0.188 C 
BRANCH  34  35
ATOM     35  O   UNL     1       0.528 -12.549  -3.910  1.00  0.00    -0.376 OA
BRANCH  35  36
ATOM     36  C   UNL     1       1.694 -13.162  -4.425  1.00  0.00     0.202 C 
BRANCH  36  37
ATOM     37  C   UNL     1       3.045 -12.637  -3.921  1.00  0.00     0.261 C 
BRANCH  37  38
ATOM     38  O   UNL     1       3.202 -11.211  -3.897  1.00  0.00    -0.460 OA
BRANCH  38  39
ATOM     39  C   UNL     1       3.462 -10.597  -5.070  1.00  0.00     0.338 C 
ATOM     40  O   UNL     1       3.555 -11.116  -6.167  1.00  0.00    -0.246 OA
BRANCH  39  41
ATOM     41  C   UNL     1       3.472  -9.136  -4.832  1.00  0.00     0.060 A 
ATOM     42  C   UNL     1       2.623  -8.329  -5.597  1.00  0.00     0.016 A 
ATOM     43  C   UNL     1       4.318  -8.563  -3.876  1.00  0.00     0.016 A 
ATOM     44  C   UNL     1       2.662  -6.942  -5.448  1.00  0.00     0.010 A 
ATOM     45  C   UNL     1       4.361  -7.171  -3.732  1.00  0.00     0.010 A 
ATOM     46  C   UNL     1       3.561  -6.352  -4.547  1.00  0.00    -0.014 A 
BRANCH  46  47
ATOM     47  C   UNL     1       3.811  -4.892  -4.634  1.00  0.00     0.031 A 
ATOM     48  C   UNL     1       4.945  -4.416  -5.502  1.00  0.00     0.074 A 
ATOM     49  C   UNL     1       3.018  -3.999  -4.016  1.00  0.00     0.049 A 
ATOM     50  N   UNL     1       5.329  -3.197  -5.784  1.00  0.00    -0.248 NA
ATOM     51  C   UNL     1       5.750  -5.465  -6.149  1.00  0.00     0.031 C 
ATOM     52  C   UNL     1       1.862  -4.324  -3.186  1.00  0.00     0.029 A 
ATOM     53  N   UNL     1       3.069  -2.626  -4.005  1.00  0.00    -0.354 N 
ATOM     54  C   UNL     1       6.411  -3.333  -6.644  1.00  0.00     0.074 A 
ATOM     55  C   UNL     1       6.647  -4.751  -6.810  1.00  0.00     0.031 C 
ATOM     56  C   UNL     1       1.306  -3.179  -2.747  1.00  0.00     0.029 A 
ATOM     57  C   UNL     1       2.083  -2.044  -3.246  1.00  0.00     0.049 A 
ATOM     58  H   UNL     1       3.748  -2.108  -4.494  1.00  0.00     0.167 HD
ATOM     59  C   UNL     1       7.137  -2.367  -7.254  1.00  0.00     0.037 A 
ATOM     60  C   UNL     1       1.846  -0.744  -2.983  1.00  0.00     0.037 A 
ATOM     61  C   UNL     1       6.920  -0.956  -7.079  1.00  0.00     0.049 A 
ATOM     62  C   UNL     1       2.734   0.313  -3.592  1.00  0.00     0.074 A 
ATOM     63  C   UNL     1       7.601   0.102  -7.653  1.00  0.00     0.029 A 
ATOM     64  N   UNL     1       5.952  -0.407  -6.251  1.00  0.00    -0.354 N 
ATOM     65  N   UNL     1       3.731   0.179  -4.434  1.00  0.00    -0.248 NA
ATOM     66  C   UNL     1       2.456   1.708  -3.216  1.00  0.00     0.031 C 
ATOM     67  C   UNL     1       7.078   1.292  -7.133  1.00  0.00     0.029 A 
ATOM     68  C   UNL     1       6.035   0.976  -6.278  1.00  0.00     0.049 A 
ATOM     69  H   UNL     1       5.301  -0.924  -5.722  1.00  0.00     0.167 HD
ATOM     70  C   UNL     1       4.172   1.466  -4.716  1.00  0.00     0.074 A 
ATOM     71  C   UNL     1       3.330   2.370  -3.961  1.00  0.00     0.031 C 
ATOM     72  C   UNL     1       5.179   1.865  -5.534  1.00  0.00     0.037 A 
BRANCH  59  73
ATOM     73  C   UNL     1       8.260  -2.816  -8.142  1.00  0.00     0.064 A 
ATOM     74  C   UNL     1       8.019  -3.433  -9.380  1.00  0.00     0.173 A 
ATOM     75  C   UNL     1       9.593  -2.638  -7.746  1.00  0.00     0.173 A 
ATOM     76  F   UNL     1       6.761  -3.643  -9.796  1.00  0.00    -0.203 F 
ATOM     77  C   UNL     1       9.071  -3.885 -10.171  1.00  0.00     0.198 A 
ATOM     78  C   UNL     1      10.644  -3.065  -8.553  1.00  0.00     0.198 A 
ATOM     79  F   UNL     1       9.878  -2.053  -6.573  1.00  0.00    -0.203 F 
ATOM     80  F   UNL     1       8.816  -4.524 -11.322  1.00  0.00    -0.200 F 
ATOM     81  C   UNL     1      10.382  -3.697  -9.760  1.00  0.00     0.200 A 
ATOM     82  F   UNL     1      11.910  -2.875  -8.158  1.00  0.00    -0.200 F 
ATOM     83  F   UNL     1      11.394  -4.138 -10.520  1.00  0.00    -0.200 F 
ENDBRANCH  59  73
BRANCH  60  84
ATOM     84  C   UNL     1       0.711  -0.354  -2.106  1.00  0.00     0.064 A 
ATOM     85  C   UNL     1      -0.401   0.324  -2.625  1.00  0.00     0.173 A 
ATOM     86  C   UNL     1       0.730  -0.615  -0.728  1.00  0.00     0.173 A 
ATOM     87  F   UNL     1      -0.451   0.625  -3.932  1.00  0.00    -0.203 F 
ATOM     88  C   UNL     1      -1.441   0.743  -1.797  1.00  0.00     0.198 A 
ATOM     89  C   UNL     1      -0.322  -0.219   0.095  1.00  0.00     0.198 A 
ATOM     90  F   UNL     1       1.776  -1.251  -0.180  1.00  0.00    -0.203 F 
ATOM     91  F   UNL     1      -2.465   1.437  -2.312  1.00  0.00    -0.200 F 
ATOM     92  C   UNL     1      -1.403   0.467  -0.439  1.00  0.00     0.200 A 
ATOM     93  F   UNL     1      -0.282  -0.489   1.407  1.00  0.00    -0.200 F 
ATOM     94  F   UNL     1      -2.398   0.877   0.358  1.00  0.00    -0.200 F 
ENDBRANCH  60  84
BRANCH  72  95
ATOM     95  C   UNL     1       5.393   3.342  -5.701  1.00  0.00     0.064 A 
ATOM     96  C   UNL     1       5.933   4.134  -4.677  1.00  0.00     0.173 A 
ATOM     97  C   UNL     1       5.089   3.967  -6.921  1.00  0.00     0.173 A 
ATOM     98  F   UNL     1       6.230   3.589  -3.487  1.00  0.00    -0.203 F 
ATOM     99  C   UNL     1       6.134   5.501  -4.859  1.00  0.00     0.198 A 
ATOM    100  C   UNL     1       5.319   5.327  -7.109  1.00  0.00     0.198 A 
ATOM    101  F   UNL     1       4.578   3.254  -7.936  1.00  0.00    -0.203 F 
ATOM    102  F   UNL     1       6.605   6.247  -3.850  1.00  0.00    -0.200 F 
ATOM    103  C   UNL     1       5.833   6.094  -6.076  1.00  0.00     0.200 A 
ATOM    104  F   UNL     1       5.042   5.895  -8.291  1.00  0.00    -0.200 F 
ATOM    105  F   UNL     1       6.033   7.408  -6.250  1.00  0.00    -0.200 F 
ENDBRANCH  72  95
ENDBRANCH  46  47
ENDBRANCH  39  41
ENDBRANCH  38  39
ENDBRANCH  37  38
ENDBRANCH  36  37
ENDBRANCH  35  36
ENDBRANCH  34  35
ENDBRANCH   1  34
TORSDOF 20
