REMARK SMILES CC(=O)c1cc2c(cc1NC(=O)/C=C/C(=O)OCCOCCOCCOC(=O)c1ccc(-c3c4nc(c(-c5c(F)c(F)c(F)c(F)c5F)c5ccc([nH]5)c(-c5c(F)c(F)c(F)c(F)c5F)c5nc(c(-c6c(F)c(F)c(F)c(F)c6F)c6ccc3[nH]6)C=C5)C=C4)cc1)OCO2
REMARK SMILES IDX 21 1 20 2 19 3 18 4 17 5 15 6 16 7 14 8 13 9 11 10 10 11
REMARK SMILES IDX 12 13 9 14 4 15 5 16 6 17 8 18 7 19 94 20 92 21 93 22 2 23
REMARK SMILES IDX 1 24 3 25 22 26 23 27 24 28 25 29 26 30 27 31 28 32 29 33
REMARK SMILES IDX 30 34 91 35 31 36 90 37 32 38 33 39 34 40 84 41 35 42 89 43
REMARK SMILES IDX 83 44 85 45 36 46 88 47 82 48 81 49 37 51 69 52 49 53 68 54
REMARK SMILES IDX 50 55 53 56 67 57 86 58 51 59 52 60 66 62 87 63 54 64 38 65
REMARK SMILES IDX 39 66 47 67 40 68 41 69 45 70 48 71 42 72 43 73 46 74 44 75
REMARK SMILES IDX 70 76 71 77 79 78 72 79 73 80 77 81 80 82 74 83 75 84 78 85
REMARK SMILES IDX 76 86 55 87 56 88 64 89 57 90 58 91 62 92 65 93 59 94 60 95
REMARK SMILES IDX 63 96 61 97
REMARK H PARENT 10 12 85 50 53 61
REMARK Flexibility Score: inf
ROOT
ATOM      1  C   UNL     1      -0.120  -1.734   8.076  1.00  0.00     0.188 C 
ENDROOT
BRANCH   1   2
ATOM      2  O   UNL     1      -0.248  -1.702   9.487  1.00  0.00    -0.376 OA
BRANCH   2   3
ATOM      3  C   UNL     1      -0.238  -0.413  10.087  1.00  0.00     0.202 C 
BRANCH   3   4
ATOM      4  C   UNL     1      -1.446   0.476   9.770  1.00  0.00     0.261 C 
BRANCH   4   5
ATOM      5  O   UNL     1      -1.623   0.762   8.369  1.00  0.00    -0.460 OA
BRANCH   5   6
ATOM      6  C   UNL     1      -1.051   1.883   7.875  1.00  0.00     0.331 C 
ATOM      7  O   UNL     1      -0.310   2.639   8.482  1.00  0.00    -0.247 OA
BRANCH   6   8
ATOM      8  C   UNL     1      -1.345   2.046   6.429  1.00  0.00     0.099 C 
ATOM      9  C   UNL     1      -2.220   1.280   5.757  1.00  0.00     0.079 C 
BRANCH   9  10
ATOM     10  C   UNL     1      -2.393   1.347   4.289  1.00  0.00     0.248 C 
ATOM     11  N   UNL     1      -1.368   1.081   3.420  1.00  0.00    -0.322 N 
ATOM     12  H   UNL     1      -1.619   1.205   2.476  1.00  0.00     0.170 HD
ATOM     13  O   UNL     1      -3.510   1.627   3.856  1.00  0.00    -0.270 OA
BRANCH  11  14
ATOM     14  C   UNL     1      -0.024   0.665   3.588  1.00  0.00     0.056 A 
ATOM     15  C   UNL     1       0.907   0.797   2.516  1.00  0.00     0.045 A 
ATOM     16  C   UNL     1       2.292   0.685   2.747  1.00  0.00     0.064 A 
ATOM     17  C   UNL     1       2.702   0.420   4.034  1.00  0.00     0.166 A 
ATOM     18  C   UNL     1       0.444   0.173   4.803  1.00  0.00     0.077 A 
ATOM     19  C   UNL     1       1.799   0.128   5.020  1.00  0.00     0.167 A 
ATOM     20  O   UNL     1       3.976   0.434   4.508  1.00  0.00    -0.454 OA
ATOM     21  O   UNL     1       2.390  -0.117   6.219  1.00  0.00    -0.454 OA
ATOM     22  C   UNL     1       3.724   0.337   5.929  1.00  0.00     0.468 C 
BRANCH  15  23
ATOM     23  C   UNL     1       0.427   1.074   1.134  1.00  0.00     0.162 C 
ATOM     24  C   UNL     1       1.084   0.337  -0.007  1.00  0.00     0.093 C 
ATOM     25  O   UNL     1      -0.543   1.808   0.964  1.00  0.00    -0.294 OA
ENDBRANCH  15  23
ENDBRANCH  11  14
ENDBRANCH   9  10
ENDBRANCH   6   8
ENDBRANCH   5   6
ENDBRANCH   4   5
ENDBRANCH   3   4
ENDBRANCH   2   3
ENDBRANCH   1   2
BRANCH   1  26
ATOM     26  C   UNL     1      -1.401  -2.180   7.344  1.00  0.00     0.188 C 
BRANCH  26  27
ATOM     27  O   UNL     1      -2.487  -2.709   8.090  1.00  0.00    -0.376 OA
BRANCH  27  28
ATOM     28  C   UNL     1      -2.226  -3.708   9.069  1.00  0.00     0.202 C 
BRANCH  28  29
ATOM     29  C   UNL     1      -1.582  -5.015   8.598  1.00  0.00     0.261 C 
BRANCH  29  30
ATOM     30  O   UNL     1      -0.295  -4.845   7.973  1.00  0.00    -0.460 OA
BRANCH  30  31
ATOM     31  C   UNL     1      -0.227  -5.263   6.686  1.00  0.00     0.338 C 
ATOM     32  O   UNL     1      -1.121  -5.747   6.013  1.00  0.00    -0.246 OA
BRANCH  31  33
ATOM     33  C   UNL     1       1.092  -4.952   6.105  1.00  0.00     0.060 A 
ATOM     34  C   UNL     1       1.138  -4.122   4.978  1.00  0.00     0.016 A 
ATOM     35  C   UNL     1       2.246  -5.590   6.563  1.00  0.00     0.016 A 
ATOM     36  C   UNL     1       2.335  -3.960   4.279  1.00  0.00     0.010 A 
ATOM     37  C   UNL     1       3.442  -5.440   5.851  1.00  0.00     0.010 A 
ATOM     38  C   UNL     1       3.485  -4.652   4.687  1.00  0.00    -0.014 A 
BRANCH  38  39
ATOM     39  C   UNL     1       4.695  -4.641   3.826  1.00  0.00     0.031 A 
ATOM     40  C   UNL     1       4.911  -5.749   2.840  1.00  0.00     0.074 A 
ATOM     41  C   UNL     1       5.592  -3.645   3.917  1.00  0.00     0.049 A 
ATOM     42  N   UNL     1       5.911  -5.939   2.018  1.00  0.00    -0.248 NA
ATOM     43  C   UNL     1       3.873  -6.789   2.783  1.00  0.00     0.031 C 
ATOM     44  C   UNL     1       5.489  -2.529   4.845  1.00  0.00     0.029 A 
ATOM     45  N   UNL     1       6.756  -3.405   3.231  1.00  0.00    -0.354 N 
ATOM     46  C   UNL     1       5.642  -7.136   1.370  1.00  0.00     0.074 A 
ATOM     47  C   UNL     1       4.381  -7.625   1.887  1.00  0.00     0.031 C 
ATOM     48  C   UNL     1       6.531  -1.702   4.656  1.00  0.00     0.029 A 
ATOM     49  C   UNL     1       7.399  -2.256   3.622  1.00  0.00     0.049 A 
ATOM     50  H   UNL     1       7.098  -4.001   2.525  1.00  0.00     0.167 HD
ATOM     51  C   UNL     1       6.391  -7.772   0.440  1.00  0.00     0.037 A 
ATOM     52  C   UNL     1       8.565  -1.721   3.208  1.00  0.00     0.037 A 
ATOM     53  C   UNL     1       7.639  -7.279  -0.080  1.00  0.00     0.049 A 
ATOM     54  C   UNL     1       9.367  -2.446   2.159  1.00  0.00     0.074 A 
ATOM     55  C   UNL     1       8.450  -7.840  -1.051  1.00  0.00     0.029 A 
ATOM     56  N   UNL     1       8.260  -6.110   0.334  1.00  0.00    -0.354 N 
ATOM     57  N   UNL     1       9.085  -3.559   1.527  1.00  0.00    -0.248 NA
ATOM     58  C   UNL     1      10.657  -1.852   1.780  1.00  0.00     0.031 C 
ATOM     59  C   UNL     1       9.584  -7.033  -1.193  1.00  0.00     0.029 A 
ATOM     60  C   UNL     1       9.457  -5.945  -0.345  1.00  0.00     0.049 A 
ATOM     61  H   UNL     1       7.904  -5.489   1.010  1.00  0.00     0.167 HD
ATOM     62  C   UNL     1      10.155  -3.795   0.675  1.00  0.00     0.074 A 
ATOM     63  C   UNL     1      11.078  -2.693   0.846  1.00  0.00     0.031 C 
ATOM     64  C   UNL     1      10.361  -4.839  -0.164  1.00  0.00     0.037 A 
BRANCH  51  65
ATOM     65  C   UNL     1       5.902  -9.102  -0.046  1.00  0.00     0.064 A 
ATOM     66  C   UNL     1       4.821  -9.215  -0.931  1.00  0.00     0.173 A 
ATOM     67  C   UNL     1       6.555 -10.279   0.353  1.00  0.00     0.173 A 
ATOM     68  F   UNL     1       4.156  -8.120  -1.327  1.00  0.00    -0.203 F 
ATOM     69  C   UNL     1       4.400 -10.462  -1.387  1.00  0.00     0.198 A 
ATOM     70  C   UNL     1       6.146 -11.521  -0.124  1.00  0.00     0.198 A 
ATOM     71  F   UNL     1       7.595 -10.221   1.198  1.00  0.00    -0.203 F 
ATOM     72  F   UNL     1       3.342 -10.552  -2.205  1.00  0.00    -0.200 F 
ATOM     73  C   UNL     1       5.067 -11.612  -0.989  1.00  0.00     0.200 A 
ATOM     74  F   UNL     1       6.797 -12.629   0.256  1.00  0.00    -0.200 F 
ATOM     75  F   UNL     1       4.665 -12.809  -1.436  1.00  0.00    -0.200 F 
ENDBRANCH  51  65
BRANCH  52  76
ATOM     76  C   UNL     1       9.064  -0.448   3.794  1.00  0.00     0.064 A 
ATOM     77  C   UNL     1       9.171   0.714   3.016  1.00  0.00     0.173 A 
ATOM     78  C   UNL     1       9.478  -0.373   5.132  1.00  0.00     0.173 A 
ATOM     79  F   UNL     1       8.811   0.689   1.724  1.00  0.00    -0.203 F 
ATOM     80  C   UNL     1       9.694   1.892   3.546  1.00  0.00     0.198 A 
ATOM     81  C   UNL     1       9.970   0.815   5.670  1.00  0.00     0.198 A 
ATOM     82  F   UNL     1       9.397  -1.453   5.923  1.00  0.00    -0.203 F 
ATOM     83  F   UNL     1       9.834   2.971   2.764  1.00  0.00    -0.200 F 
ATOM     84  C   UNL     1      10.088   1.943   4.874  1.00  0.00     0.200 A 
ATOM     85  F   UNL     1      10.335   0.863   6.959  1.00  0.00    -0.200 F 
ATOM     86  F   UNL     1      10.590   3.076   5.384  1.00  0.00    -0.200 F 
ENDBRANCH  52  76
BRANCH  64  87
ATOM     87  C   UNL     1      11.626  -4.831  -0.971  1.00  0.00     0.064 A 
ATOM     88  C   UNL     1      12.871  -5.097  -0.383  1.00  0.00     0.173 A 
ATOM     89  C   UNL     1      11.586  -4.593  -2.353  1.00  0.00     0.173 A 
ATOM     90  F   UNL     1      12.961  -5.312   0.938  1.00  0.00    -0.203 F 
ATOM     91  C   UNL     1      14.035  -5.105  -1.147  1.00  0.00     0.198 A 
ATOM     92  C   UNL     1      12.748  -4.629  -3.118  1.00  0.00     0.198 A 
ATOM     93  F   UNL     1      10.419  -4.338  -2.962  1.00  0.00    -0.203 F 
ATOM     94  F   UNL     1      15.219  -5.320  -0.558  1.00  0.00    -0.200 F 
ATOM     95  C   UNL     1      13.972  -4.879  -2.514  1.00  0.00     0.200 A 
ATOM     96  F   UNL     1      12.685  -4.420  -4.440  1.00  0.00    -0.200 F 
ATOM     97  F   UNL     1      15.092  -4.893  -3.249  1.00  0.00    -0.200 F 
ENDBRANCH  64  87
ENDBRANCH  38  39
ENDBRANCH  31  33
ENDBRANCH  30  31
ENDBRANCH  29  30
ENDBRANCH  28  29
ENDBRANCH  27  28
ENDBRANCH  26  27
ENDBRANCH   1  26
TORSDOF 20
