REMARK SMILES Cc1ccc(C(=O)OCCOCCOCCOC(=O)c2ccc(-c3c4nc(c(-c5c(F)c(F)c(F)c(F)c5F)c5ccc([nH]5)c(-c5c(F)c(F)c(F)c(F)c5F)c5nc(c(-c6c(F)c(F)c(F)c(F)c6F)c6ccc3[nH]6)C=C5)C=C4)cc2)c(Cl)c1
REMARK SMILES IDX 13 1 12 2 11 3 10 4 9 5 8 6 6 7 7 8 5 9 1 10 2 11 3 12 85 13
REMARK SMILES IDX 4 14 83 15 84 16 14 17 15 18 16 19 17 20 18 21 19 22 20 23
REMARK SMILES IDX 21 24 82 25 22 26 81 27 23 28 24 29 25 30 75 31 26 32 80 33
REMARK SMILES IDX 74 34 76 35 27 36 79 37 73 38 72 39 28 41 60 42 40 43 59 44
REMARK SMILES IDX 41 45 44 46 58 47 77 48 42 49 43 50 57 52 78 53 45 54 29 55
REMARK SMILES IDX 30 56 38 57 31 58 32 59 36 60 39 61 33 62 34 63 37 64 35 65
REMARK SMILES IDX 61 66 62 67 70 68 63 69 64 70 68 71 71 72 65 73 66 74 69 75
REMARK SMILES IDX 67 76 46 77 47 78 55 79 48 80 49 81 53 82 56 83 50 84 51 85
REMARK SMILES IDX 54 86 52 87
REMARK H PARENT 76 40 44 51
REMARK Flexibility Score: inf
ROOT
ATOM      1  C   UNL     1       1.407  -2.690  -2.233  1.00  0.00     0.188 C 
ENDROOT
BRANCH   1   2
ATOM      2  C   UNL     1       2.759  -2.564  -1.501  1.00  0.00     0.188 C 
BRANCH   2   3
ATOM      3  O   UNL     1       3.529  -3.737  -1.382  1.00  0.00    -0.376 OA
BRANCH   3   4
ATOM      4  C   UNL     1       3.243  -4.687  -0.368  1.00  0.00     0.202 C 
BRANCH   4   5
ATOM      5  C   UNL     1       2.140  -4.564   0.704  1.00  0.00     0.261 C 
BRANCH   5   6
ATOM      6  O   UNL     1       1.142  -3.560   0.511  1.00  0.00    -0.460 OA
BRANCH   6   7
ATOM      7  C   UNL     1       1.131  -2.545   1.418  1.00  0.00     0.339 C 
ATOM      8  O   UNL     1       1.840  -2.434   2.394  1.00  0.00    -0.246 OA
BRANCH   7   9
ATOM      9  C   UNL     1       0.164  -1.517   0.968  1.00  0.00     0.078 A 
ATOM     10  C   UNL     1      -2.730   1.467  -0.180  1.00  0.00     0.044 C 
ATOM     11  C   UNL     1      -1.724   0.412   0.180  1.00  0.00    -0.050 A 
ATOM     12  C   UNL     1      -2.084  -0.938   0.257  1.00  0.00     0.004 A 
ATOM     13  C   UNL     1      -0.400   0.781   0.450  1.00  0.00     0.024 A 
ATOM     14  C   UNL     1      -1.148  -1.899   0.649  1.00  0.00     0.017 A 
ATOM     15  C   UNL     1       0.543  -0.174   0.845  1.00  0.00     0.055 A 
ATOM     16  Cl  UNL     1       2.164   0.379   1.084  1.00  0.00    -0.083 Cl
ENDBRANCH   7   9
ENDBRANCH   6   7
ENDBRANCH   5   6
ENDBRANCH   4   5
ENDBRANCH   3   4
ENDBRANCH   2   3
ENDBRANCH   1   2
BRANCH   1  17
ATOM     17  O   UNL     1       0.911  -3.962  -2.599  1.00  0.00    -0.376 OA
BRANCH  17  18
ATOM     18  C   UNL     1       1.685  -4.807  -3.436  1.00  0.00     0.202 C 
BRANCH  18  19
ATOM     19  C   UNL     1       2.576  -4.291  -4.584  1.00  0.00     0.261 C 
BRANCH  19  20
ATOM     20  O   UNL     1       3.239  -3.036  -4.386  1.00  0.00    -0.460 OA
BRANCH  20  21
ATOM     21  C   UNL     1       2.762  -2.001  -5.122  1.00  0.00     0.338 C 
ATOM     22  O   UNL     1       1.844  -2.018  -5.921  1.00  0.00    -0.246 OA
BRANCH  21  23
ATOM     23  C   UNL     1       3.418  -0.754  -4.685  1.00  0.00     0.060 A 
ATOM     24  C   UNL     1       2.651   0.217  -4.025  1.00  0.00     0.016 A 
ATOM     25  C   UNL     1       4.762  -0.519  -4.973  1.00  0.00     0.016 A 
ATOM     26  C   UNL     1       3.224   1.434  -3.660  1.00  0.00     0.010 A 
ATOM     27  C   UNL     1       5.328   0.713  -4.630  1.00  0.00     0.010 A 
ATOM     28  C   UNL     1       4.556   1.705  -3.996  1.00  0.00    -0.014 A 
BRANCH  28  29
ATOM     29  C   UNL     1       5.092   3.079  -3.837  1.00  0.00     0.031 A 
ATOM     30  C   UNL     1       5.151   3.974  -5.043  1.00  0.00     0.074 A 
ATOM     31  C   UNL     1       5.506   3.531  -2.640  1.00  0.00     0.049 A 
ATOM     32  N   UNL     1       5.644   5.181  -5.163  1.00  0.00    -0.248 NA
ATOM     33  C   UNL     1       4.576   3.433  -6.285  1.00  0.00     0.031 C 
ATOM     34  C   UNL     1       5.454   2.781  -1.388  1.00  0.00     0.029 A 
ATOM     35  N   UNL     1       6.068   4.735  -2.291  1.00  0.00    -0.354 N 
ATOM     36  C   UNL     1       5.446   5.538  -6.491  1.00  0.00     0.074 A 
ATOM     37  C   UNL     1       4.816   4.412  -7.145  1.00  0.00     0.031 C 
ATOM     38  C   UNL     1       5.982   3.534  -0.408  1.00  0.00     0.029 A 
ATOM     39  C   UNL     1       6.443   4.803  -0.972  1.00  0.00     0.049 A 
ATOM     40  H   UNL     1       6.190   5.477  -2.925  1.00  0.00     0.167 HD
ATOM     41  C   UNL     1       5.755   6.705  -7.106  1.00  0.00     0.037 A 
ATOM     42  C   UNL     1       7.109   5.768  -0.307  1.00  0.00     0.037 A 
ATOM     43  C   UNL     1       6.385   7.823  -6.454  1.00  0.00     0.049 A 
ATOM     44  C   UNL     1       7.523   7.022  -1.038  1.00  0.00     0.074 A 
ATOM     45  C   UNL     1       6.725   9.053  -6.989  1.00  0.00     0.029 A 
ATOM     46  N   UNL     1       6.779   7.843  -5.124  1.00  0.00    -0.354 N 
ATOM     47  N   UNL     1       7.310   7.365  -2.286  1.00  0.00    -0.248 NA
ATOM     48  C   UNL     1       8.269   8.025  -0.264  1.00  0.00     0.031 C 
ATOM     49  C   UNL     1       7.381   9.794  -6.001  1.00  0.00     0.029 A 
ATOM     50  C   UNL     1       7.388   9.053  -4.830  1.00  0.00     0.049 A 
ATOM     51  H   UNL     1       6.647   7.106  -4.484  1.00  0.00     0.167 HD
ATOM     52  C   UNL     1       7.862   8.633  -2.435  1.00  0.00     0.074 A 
ATOM     53  C   UNL     1       8.406   9.004  -1.146  1.00  0.00     0.031 C 
ATOM     54  C   UNL     1       7.913   9.418  -3.539  1.00  0.00     0.037 A 
BRANCH  41  55
ATOM     55  C   UNL     1       5.441   6.824  -8.569  1.00  0.00     0.064 A 
ATOM     56  C   UNL     1       4.122   6.915  -9.038  1.00  0.00     0.173 A 
ATOM     57  C   UNL     1       6.478   6.895  -9.512  1.00  0.00     0.173 A 
ATOM     58  F   UNL     1       3.094   6.840  -8.180  1.00  0.00    -0.203 F 
ATOM     59  C   UNL     1       3.852   7.050 -10.398  1.00  0.00     0.198 A 
ATOM     60  C   UNL     1       6.206   7.062 -10.867  1.00  0.00     0.198 A 
ATOM     61  F   UNL     1       7.758   6.817  -9.118  1.00  0.00    -0.203 F 
ATOM     62  F   UNL     1       2.583   7.090 -10.826  1.00  0.00    -0.200 F 
ATOM     63  C   UNL     1       4.894   7.133 -11.309  1.00  0.00     0.200 A 
ATOM     64  F   UNL     1       7.214   7.158 -11.745  1.00  0.00    -0.200 F 
ATOM     65  F   UNL     1       4.633   7.275 -12.616  1.00  0.00    -0.200 F 
ENDBRANCH  41  55
BRANCH  42  66
ATOM     66  C   UNL     1       7.454   5.587   1.129  1.00  0.00     0.064 A 
ATOM     67  C   UNL     1       6.898   6.411   2.118  1.00  0.00     0.173 A 
ATOM     68  C   UNL     1       8.382   4.618   1.538  1.00  0.00     0.173 A 
ATOM     69  F   UNL     1       6.028   7.373   1.776  1.00  0.00    -0.203 F 
ATOM     70  C   UNL     1       7.279   6.294   3.453  1.00  0.00     0.198 A 
ATOM     71  C   UNL     1       8.737   4.478   2.878  1.00  0.00     0.198 A 
ATOM     72  F   UNL     1       8.951   3.807   0.633  1.00  0.00    -0.203 F 
ATOM     73  F   UNL     1       6.782   7.139   4.366  1.00  0.00    -0.200 F 
ATOM     74  C   UNL     1       8.194   5.324   3.833  1.00  0.00     0.200 A 
ATOM     75  F   UNL     1       9.616   3.534   3.242  1.00  0.00    -0.200 F 
ATOM     76  F   UNL     1       8.565   5.215   5.116  1.00  0.00    -0.200 F 
ENDBRANCH  42  66
BRANCH  54  77
ATOM     77  C   UNL     1       8.534  10.781  -3.397  1.00  0.00     0.064 A 
ATOM     78  C   UNL     1       9.912  10.951  -3.196  1.00  0.00     0.173 A 
ATOM     79  C   UNL     1       7.742  11.935  -3.507  1.00  0.00     0.173 A 
ATOM     80  F   UNL     1      10.714   9.883  -3.071  1.00  0.00    -0.203 F 
ATOM     81  C   UNL     1      10.468  12.224  -3.080  1.00  0.00     0.198 A 
ATOM     82  C   UNL     1       8.306  13.205  -3.428  1.00  0.00     0.198 A 
ATOM     83  F   UNL     1       6.420  11.832  -3.710  1.00  0.00    -0.203 F 
ATOM     84  F   UNL     1      11.778  12.360  -2.835  1.00  0.00    -0.200 F 
ATOM     85  C   UNL     1       9.666  13.349  -3.205  1.00  0.00     0.200 A 
ATOM     86  F   UNL     1       7.532  14.291  -3.568  1.00  0.00    -0.200 F 
ATOM     87  F   UNL     1      10.205  14.572  -3.104  1.00  0.00    -0.200 F 
ENDBRANCH  54  77
ENDBRANCH  28  29
ENDBRANCH  21  23
ENDBRANCH  20  21
ENDBRANCH  19  20
ENDBRANCH  18  19
ENDBRANCH  17  18
ENDBRANCH   1  17
TORSDOF 17
