REMARK SMILES C[N@H+](Cc1ccc(C(=O)OCCOCCOCCOC(=O)c2ccc(-c3c4nc(c(-c5c(F)c(F)c(F)c(F)c5F)c5ccc([nH]5)c(-c5c(F)c(F)c(F)c(F)c5F)c5nc(c(-c6c(F)c(F)c(F)c(F)c6F)c6ccc3[nH]6)C=C5)C=C4)cc2)cc1)[C@H]1CC(C)(C)OC1(C)C
REMARK SMILES IDX 14 1 13 2 12 3 11 4 10 5 8 6 9 7 7 8 4 9 5 10 86 11 6 12
REMARK SMILES IDX 85 13 3 14 2 15 1 16 87 18 88 19 93 20 89 21 92 22 94 23
REMARK SMILES IDX 95 24 90 25 91 26 15 27 16 28 17 29 18 30 19 31 20 32 21 33
REMARK SMILES IDX 22 34 23 35 84 36 24 37 83 38 25 39 26 40 27 41 77 42 28 43
REMARK SMILES IDX 82 44 76 45 78 46 29 47 81 48 75 49 74 50 30 52 62 53 42 54
REMARK SMILES IDX 61 55 43 56 46 57 60 58 79 59 44 60 45 61 59 63 80 64 47 65
REMARK SMILES IDX 31 66 32 67 40 68 33 69 34 70 38 71 41 72 35 73 36 74 39 75
REMARK SMILES IDX 37 76 63 77 64 78 72 79 65 80 66 81 70 82 73 83 67 84 68 85
REMARK SMILES IDX 71 86 69 87 48 88 49 89 57 90 50 91 51 92 55 93 58 94 52 95
REMARK SMILES IDX 53 96 56 97 54 98
REMARK H PARENT 2 17 78 51 46 62
REMARK Flexibility Score: inf
ROOT
ATOM      1  C   UNL     1       8.735  -0.247   7.314  1.00  0.00     0.188 C 
ENDROOT
BRANCH   1   2
ATOM      2  O   UNL     1       9.948   0.462   7.507  1.00  0.00    -0.376 OA
BRANCH   2   3
ATOM      3  C   UNL     1      10.037   1.841   7.174  1.00  0.00     0.202 C 
BRANCH   3   4
ATOM      4  C   UNL     1       9.506   2.379   5.838  1.00  0.00     0.261 C 
BRANCH   4   5
ATOM      5  O   UNL     1       8.180   1.951   5.507  1.00  0.00    -0.460 OA
BRANCH   5   6
ATOM      6  C   UNL     1       8.097   1.155   4.415  1.00  0.00     0.338 C 
ATOM      7  O   UNL     1       9.008   0.837   3.667  1.00  0.00    -0.246 OA
BRANCH   6   8
ATOM      8  C   UNL     1       6.759   0.534   4.331  1.00  0.00     0.060 A 
ATOM      9  C   UNL     1       4.296  -0.697   3.885  1.00  0.00     0.006 A 
ATOM     10  C   UNL     1       5.483  -1.425   3.727  1.00  0.00     0.010 A 
ATOM     11  C   UNL     1       4.350   0.605   4.411  1.00  0.00     0.010 A 
ATOM     12  C   UNL     1       6.709  -0.808   3.936  1.00  0.00     0.016 A 
ATOM     13  C   UNL     1       5.582   1.229   4.621  1.00  0.00     0.016 A 
BRANCH   9  14
ATOM     14  C   UNL     1       2.997  -1.308   3.392  1.00  0.00     0.299 C 
BRANCH  14  15
ATOM     15  N   UNL     1       2.165  -0.384   2.601  1.00  0.00    -0.329 N 
ATOM     16  C   UNL     1       2.894   0.127   1.428  1.00  0.00     0.333 C 
ATOM     17  H   UNL     1       1.958   0.383   3.241  1.00  0.00     0.348 HD
BRANCH  15  18
ATOM     18  C   UNL     1       0.849  -0.934   2.181  1.00  0.00     0.218 C 
ATOM     19  C   UNL     1       0.899  -2.268   1.421  1.00  0.00     0.103 C 
ATOM     20  C   UNL     1      -0.205  -1.232   3.281  1.00  0.00     0.115 C 
ATOM     21  C   UNL     1       0.384  -3.336   2.397  1.00  0.00     0.069 C 
ATOM     22  O   UNL     1      -0.091  -2.643   3.568  1.00  0.00    -0.363 OA
ATOM     23  C   UNL     1      -0.067  -0.427   4.575  1.00  0.00     0.048 C 
ATOM     24  C   UNL     1      -1.627  -0.966   2.740  1.00  0.00     0.048 C 
ATOM     25  C   UNL     1      -0.768  -4.147   1.786  1.00  0.00     0.042 C 
ATOM     26  C   UNL     1       1.461  -4.338   2.827  1.00  0.00     0.042 C 
ENDBRANCH  15  18
ENDBRANCH  14  15
ENDBRANCH   9  14
ENDBRANCH   6   8
ENDBRANCH   5   6
ENDBRANCH   4   5
ENDBRANCH   3   4
ENDBRANCH   2   3
ENDBRANCH   1   2
BRANCH   1  27
ATOM     27  C   UNL     1       7.406   0.295   7.882  1.00  0.00     0.188 C 
BRANCH  27  28
ATOM     28  O   UNL     1       7.444   1.584   8.440  1.00  0.00    -0.376 OA
BRANCH  28  29
ATOM     29  C   UNL     1       7.781   1.773   9.803  1.00  0.00     0.202 C 
BRANCH  29  30
ATOM     30  C   UNL     1       8.300   0.692  10.775  1.00  0.00     0.261 C 
BRANCH  30  31
ATOM     31  O   UNL     1       8.527  -0.627  10.276  1.00  0.00    -0.460 OA
BRANCH  31  32
ATOM     32  C   UNL     1       7.592  -1.552  10.604  1.00  0.00     0.338 C 
ATOM     33  O   UNL     1       6.564  -1.381  11.231  1.00  0.00    -0.246 OA
BRANCH  32  34
ATOM     34  C   UNL     1       7.932  -2.819   9.929  1.00  0.00     0.060 A 
ATOM     35  C   UNL     1       7.098  -3.282   8.904  1.00  0.00     0.016 A 
ATOM     36  C   UNL     1       9.046  -3.558  10.330  1.00  0.00     0.016 A 
ATOM     37  C   UNL     1       7.370  -4.501   8.283  1.00  0.00     0.010 A 
ATOM     38  C   UNL     1       9.305  -4.788   9.720  1.00  0.00     0.010 A 
ATOM     39  C   UNL     1       8.456  -5.277   8.710  1.00  0.00    -0.014 A 
BRANCH  39  40
ATOM     40  C   UNL     1       8.625  -6.661   8.206  1.00  0.00     0.031 A 
ATOM     41  C   UNL     1       8.131  -7.805   9.046  1.00  0.00     0.074 A 
ATOM     42  C   UNL     1       9.209  -6.901   7.019  1.00  0.00     0.049 A 
ATOM     43  N   UNL     1       8.232  -9.094   8.842  1.00  0.00    -0.248 NA
ATOM     44  C   UNL     1       7.428  -7.443  10.288  1.00  0.00     0.031 C 
ATOM     45  C   UNL     1       9.697  -5.879   6.096  1.00  0.00     0.029 A 
ATOM     46  N   UNL     1       9.504  -8.089   6.395  1.00  0.00    -0.354 N 
ATOM     47  C   UNL     1       7.613  -9.696   9.930  1.00  0.00     0.074 A 
ATOM     48  C   UNL     1       7.165  -8.634  10.805  1.00  0.00     0.031 C 
ATOM     49  C   UNL     1      10.247  -6.484   5.028  1.00  0.00     0.029 A 
ATOM     50  C   UNL     1      10.182  -7.934   5.212  1.00  0.00     0.049 A 
ATOM     51  H   UNL     1       9.253  -8.967   6.762  1.00  0.00     0.167 HD
ATOM     52  C   UNL     1       7.430 -11.016  10.173  1.00  0.00     0.037 A 
ATOM     53  C   UNL     1      10.713  -8.858   4.387  1.00  0.00     0.037 A 
ATOM     54  C   UNL     1       7.882 -12.071   9.304  1.00  0.00     0.049 A 
ATOM     55  C   UNL     1      10.569 -10.322   4.723  1.00  0.00     0.074 A 
ATOM     56  C   UNL     1       7.723 -13.438   9.453  1.00  0.00     0.029 A 
ATOM     57  N   UNL     1       8.593 -11.877   8.130  1.00  0.00    -0.354 N 
ATOM     58  N   UNL     1       9.955 -10.886   5.734  1.00  0.00    -0.248 NA
ATOM     59  C   UNL     1      11.194 -11.279   3.797  1.00  0.00     0.031 C 
ATOM     60  C   UNL     1       8.389 -14.073   8.399  1.00  0.00     0.029 A 
ATOM     61  C   UNL     1       8.910 -13.100   7.560  1.00  0.00     0.049 A 
ATOM     62  H   UNL     1       8.838 -10.999   7.756  1.00  0.00     0.167 HD
ATOM     63  C   UNL     1      10.095 -12.257   5.553  1.00  0.00     0.074 A 
ATOM     64  C   UNL     1      10.838 -12.441   4.325  1.00  0.00     0.031 C 
ATOM     65  C   UNL     1       9.647 -13.271   6.334  1.00  0.00     0.037 A 
BRANCH  52  66
ATOM     66  C   UNL     1       6.734 -11.395  11.448  1.00  0.00     0.064 A 
ATOM     67  C   UNL     1       5.364 -11.164  11.639  1.00  0.00     0.173 A 
ATOM     68  C   UNL     1       7.442 -12.031  12.479  1.00  0.00     0.173 A 
ATOM     69  F   UNL     1       4.644 -10.547  10.689  1.00  0.00    -0.203 F 
ATOM     70  C   UNL     1       4.734 -11.531  12.825  1.00  0.00     0.198 A 
ATOM     71  C   UNL     1       6.802 -12.425  13.651  1.00  0.00     0.198 A 
ATOM     72  F   UNL     1       8.753 -12.280  12.346  1.00  0.00    -0.203 F 
ATOM     73  F   UNL     1       3.434 -11.257  13.004  1.00  0.00    -0.200 F 
ATOM     74  C   UNL     1       5.451 -12.168  13.826  1.00  0.00     0.200 A 
ATOM     75  F   UNL     1       7.494 -13.053  14.612  1.00  0.00    -0.200 F 
ATOM     76  F   UNL     1       4.841 -12.528  14.964  1.00  0.00    -0.200 F 
ENDBRANCH  52  66
BRANCH  53  77
ATOM     77  C   UNL     1      11.452  -8.433   3.169  1.00  0.00     0.064 A 
ATOM     78  C   UNL     1      10.951  -8.703   1.888  1.00  0.00     0.173 A 
ATOM     79  C   UNL     1      12.687  -7.775   3.260  1.00  0.00     0.173 A 
ATOM     80  F   UNL     1       9.788  -9.357   1.748  1.00  0.00    -0.203 F 
ATOM     81  C   UNL     1      11.666  -8.349   0.745  1.00  0.00     0.198 A 
ATOM     82  C   UNL     1      13.387  -7.394   2.116  1.00  0.00     0.198 A 
ATOM     83  F   UNL     1      13.215  -7.499   4.461  1.00  0.00    -0.203 F 
ATOM     84  F   UNL     1      11.188  -8.667  -0.466  1.00  0.00    -0.200 F 
ATOM     85  C   UNL     1      12.880  -7.689   0.860  1.00  0.00     0.200 A 
ATOM     86  F   UNL     1      14.556  -6.749   2.232  1.00  0.00    -0.200 F 
ATOM     87  F   UNL     1      13.567  -7.349  -0.239  1.00  0.00    -0.200 F 
ENDBRANCH  53  77
BRANCH  65  88
ATOM     88  C   UNL     1       9.915 -14.675   5.869  1.00  0.00     0.064 A 
ATOM     89  C   UNL     1      11.204 -15.228   5.892  1.00  0.00     0.173 A 
ATOM     90  C   UNL     1       8.860 -15.494   5.435  1.00  0.00     0.173 A 
ATOM     91  F   UNL     1      12.250 -14.485   6.285  1.00  0.00    -0.203 F 
ATOM     92  C   UNL     1      11.431 -16.537   5.474  1.00  0.00     0.198 A 
ATOM     93  C   UNL     1       9.085 -16.812   5.049  1.00  0.00     0.198 A 
ATOM     94  F   UNL     1       7.606 -15.019   5.401  1.00  0.00    -0.203 F 
ATOM     95  F   UNL     1      12.679 -17.027   5.458  1.00  0.00    -0.200 F 
ATOM     96  C   UNL     1      10.371 -17.330   5.061  1.00  0.00     0.200 A 
ATOM     97  F   UNL     1       8.057 -17.582   4.666  1.00  0.00    -0.200 F 
ATOM     98  F   UNL     1      10.590 -18.593   4.667  1.00  0.00    -0.200 F 
ENDBRANCH  65  88
ENDBRANCH  39  40
ENDBRANCH  32  34
ENDBRANCH  31  32
ENDBRANCH  30  31
ENDBRANCH  29  30
ENDBRANCH  28  29
ENDBRANCH  27  28
ENDBRANCH   1  27
TORSDOF 20
