REMARK SMILES C[C@@H](O)CN(C)C(=O)N[C@H]1C=C[C@@H](C(=O)OCCOCCOCCOC(=O)c2ccc(-c3c4nc(c(-c5c(F)c(F)c(F)c(F)c5F)c5ccc([nH]5)c(-c5c(F)c(F)c(F)c(F)c5F)c5nc(c(-c6c(F)c(F)c(F)c(F)c6F)c6ccc3[nH]6)C=C5)C=C4)cc2)C1
REMARK SMILES IDX 19 1 18 2 17 3 16 4 14 5 15 6 13 7 10 8 11 9 91 10 12 11
REMARK SMILES IDX 9 12 7 13 8 14 5 16 6 17 4 18 2 19 1 20 3 21 20 23 21 24
REMARK SMILES IDX 22 25 23 26 24 27 25 28 26 29 27 30 28 31 29 32 90 33 30 34
REMARK SMILES IDX 89 35 31 36 32 37 33 38 83 39 34 40 88 41 82 42 84 43 35 44
REMARK SMILES IDX 87 45 81 46 80 47 36 49 68 50 48 51 67 52 49 53 52 54 66 55
REMARK SMILES IDX 85 56 50 57 51 58 65 60 86 61 53 62 37 63 38 64 46 65 39 66
REMARK SMILES IDX 40 67 44 68 47 69 41 70 42 71 45 72 43 73 69 74 70 75 78 76
REMARK SMILES IDX 71 77 72 78 76 79 79 80 73 81 74 82 77 83 75 84 54 85 55 86
REMARK SMILES IDX 63 87 56 88 57 89 61 90 64 91 58 92 59 93 62 94 60 95
REMARK H PARENT 9 15 3 22 84 48 52 59
REMARK Flexibility Score: inf
ROOT
ATOM      1  O   UNL     1      -8.116  -1.068  -0.365  1.00  0.00    -0.376 OA
ENDROOT
BRANCH   1   2
ATOM      2  C   UNL     1      -7.087  -1.413   0.559  1.00  0.00     0.202 C 
BRANCH   2   3
ATOM      3  C   UNL     1      -5.870  -2.196   0.037  1.00  0.00     0.261 C 
BRANCH   3   4
ATOM      4  O   UNL     1      -5.238  -1.599  -1.111  1.00  0.00    -0.463 OA
BRANCH   4   5
ATOM      5  C   UNL     1      -5.012  -2.380  -2.200  1.00  0.00     0.312 C 
ATOM      6  O   UNL     1      -5.256  -3.580  -2.249  1.00  0.00    -0.252 OA
BRANCH   5   7
ATOM      7  C   UNL     1      -4.483  -1.585  -3.414  1.00  0.00     0.124 C 
ATOM      8  C   UNL     1      -2.454  -0.199  -3.685  1.00  0.00     0.107 C 
ATOM      9  C   UNL     1      -2.229  -1.581  -4.161  1.00  0.00    -0.006 C 
ATOM     10  C   UNL     1      -3.877  -0.193  -3.150  1.00  0.00     0.048 C 
ATOM     11  C   UNL     1      -3.343  -2.319  -4.072  1.00  0.00    -0.014 C 
BRANCH   8  12
ATOM     12  N   UNL     1      -1.479   0.348  -2.766  1.00  0.00    -0.332 N 
ATOM     13  C   UNL     1      -1.202   0.268  -1.454  1.00  0.00     0.317 C 
ATOM     14  O   UNL     1      -0.771   1.318  -0.964  1.00  0.00    -0.249 OA
ATOM     15  H   UNL     1      -0.845   0.942  -3.229  1.00  0.00     0.165 HD
BRANCH  13  16
ATOM     16  N   UNL     1      -1.298  -0.875  -0.718  1.00  0.00    -0.325 N 
ATOM     17  C   UNL     1      -1.639  -2.192  -1.202  1.00  0.00     0.148 C 
BRANCH  16  18
ATOM     18  C   UNL     1      -0.706  -0.858   0.624  1.00  0.00     0.152 C 
BRANCH  18  19
ATOM     19  C   UNL     1       0.800  -1.192   0.589  1.00  0.00     0.130 C 
ATOM     20  C   UNL     1       1.669   0.018   0.266  1.00  0.00     0.040 C 
BRANCH  19  21
ATOM     21  O   UNL     1       1.194  -1.721   1.857  1.00  0.00    -0.392 OA
ATOM     22  H   UNL     1       1.051  -1.053   2.545  1.00  0.00     0.211 HD
ENDBRANCH  19  21
ENDBRANCH  18  19
ENDBRANCH  16  18
ENDBRANCH  13  16
ENDBRANCH   8  12
ENDBRANCH   5   7
ENDBRANCH   4   5
ENDBRANCH   3   4
ENDBRANCH   2   3
ENDBRANCH   1   2
BRANCH   1  23
ATOM     23  C   UNL     1      -7.777  -0.355  -1.550  1.00  0.00     0.188 C 
BRANCH  23  24
ATOM     24  C   UNL     1      -6.721   0.758  -1.484  1.00  0.00     0.188 C 
BRANCH  24  25
ATOM     25  O   UNL     1      -6.289   1.080  -0.188  1.00  0.00    -0.376 OA
BRANCH  25  26
ATOM     26  C   UNL     1      -6.567   2.375   0.306  1.00  0.00     0.202 C 
BRANCH  26  27
ATOM     27  C   UNL     1      -8.001   2.929   0.207  1.00  0.00     0.261 C 
BRANCH  27  28
ATOM     28  O   UNL     1      -8.744   2.632  -0.991  1.00  0.00    -0.460 OA
BRANCH  28  29
ATOM     29  C   UNL     1      -8.476   3.360  -2.099  1.00  0.00     0.338 C 
ATOM     30  O   UNL     1      -7.670   4.274  -2.202  1.00  0.00    -0.246 OA
BRANCH  29  31
ATOM     31  C   UNL     1      -9.141   2.697  -3.248  1.00  0.00     0.060 A 
ATOM     32  C   UNL     1      -8.358   2.183  -4.295  1.00  0.00     0.016 A 
ATOM     33  C   UNL     1     -10.529   2.557  -3.280  1.00  0.00     0.016 A 
ATOM     34  C   UNL     1      -8.962   1.543  -5.382  1.00  0.00     0.010 A 
ATOM     35  C   UNL     1     -11.134   1.945  -4.383  1.00  0.00     0.010 A 
ATOM     36  C   UNL     1     -10.358   1.458  -5.452  1.00  0.00    -0.014 A 
BRANCH  36  37
ATOM     37  C   UNL     1     -11.027   1.053  -6.715  1.00  0.00     0.031 A 
ATOM     38  C   UNL     1     -11.542   2.137  -7.622  1.00  0.00     0.074 A 
ATOM     39  C   UNL     1     -11.198  -0.238  -7.050  1.00  0.00     0.049 A 
ATOM     40  N   UNL     1     -12.274   2.047  -8.703  1.00  0.00    -0.248 NA
ATOM     41  C   UNL     1     -11.184   3.516  -7.250  1.00  0.00     0.031 C 
ATOM     42  C   UNL     1     -10.705  -1.383  -6.290  1.00  0.00     0.029 A 
ATOM     43  N   UNL     1     -11.861  -0.799  -8.116  1.00  0.00    -0.354 N 
ATOM     44  C   UNL     1     -12.475   3.353  -9.130  1.00  0.00     0.074 A 
ATOM     45  C   UNL     1     -11.814   4.219  -8.178  1.00  0.00     0.031 C 
ATOM     46  C   UNL     1     -11.107  -2.514  -6.899  1.00  0.00     0.029 A 
ATOM     47  C   UNL     1     -11.920  -2.171  -8.066  1.00  0.00     0.049 A 
ATOM     48  H   UNL     1     -12.255  -0.269  -8.846  1.00  0.00     0.167 HD
ATOM     49  C   UNL     1     -13.144   3.792 -10.223  1.00  0.00     0.037 A 
ATOM     50  C   UNL     1     -12.587  -3.043  -8.849  1.00  0.00     0.037 A 
ATOM     51  C   UNL     1     -13.810   2.931 -11.164  1.00  0.00     0.049 A 
ATOM     52  C   UNL     1     -13.407  -2.525 -10.008  1.00  0.00     0.074 A 
ATOM     53  C   UNL     1     -14.512   3.279 -12.304  1.00  0.00     0.029 A 
ATOM     54  N   UNL     1     -13.865   1.549 -11.067  1.00  0.00    -0.354 N 
ATOM     55  N   UNL     1     -13.581  -1.292 -10.418  1.00  0.00    -0.248 NA
ATOM     56  C   UNL     1     -14.125  -3.525 -10.814  1.00  0.00     0.031 C 
ATOM     57  C   UNL     1     -15.042   2.113 -12.864  1.00  0.00     0.029 A 
ATOM     58  C   UNL     1     -14.612   1.031 -12.113  1.00  0.00     0.049 A 
ATOM     59  H   UNL     1     -13.437   1.014 -10.359  1.00  0.00     0.167 HD
ATOM     60  C   UNL     1     -14.393  -1.371 -11.544  1.00  0.00     0.074 A 
ATOM     61  C   UNL     1     -14.669  -2.775 -11.761  1.00  0.00     0.031 C 
ATOM     62  C   UNL     1     -14.865  -0.371 -12.329  1.00  0.00     0.037 A 
BRANCH  49  63
ATOM     63  C   UNL     1     -13.215   5.276 -10.441  1.00  0.00     0.064 A 
ATOM     64  C   UNL     1     -12.083   6.025 -10.799  1.00  0.00     0.173 A 
ATOM     65  C   UNL     1     -14.438   5.954 -10.320  1.00  0.00     0.173 A 
ATOM     66  F   UNL     1     -10.887   5.428 -10.914  1.00  0.00    -0.203 F 
ATOM     67  C   UNL     1     -12.168   7.401 -10.998  1.00  0.00     0.198 A 
ATOM     68  C   UNL     1     -14.525   7.324 -10.553  1.00  0.00     0.198 A 
ATOM     69  F   UNL     1     -15.551   5.286  -9.983  1.00  0.00    -0.203 F 
ATOM     70  F   UNL     1     -11.064   8.103 -11.286  1.00  0.00    -0.200 F 
ATOM     71  C   UNL     1     -13.389   8.047 -10.883  1.00  0.00     0.200 A 
ATOM     72  F   UNL     1     -15.709   7.944 -10.456  1.00  0.00    -0.200 F 
ATOM     73  F   UNL     1     -13.471   9.370 -11.084  1.00  0.00    -0.200 F 
ENDBRANCH  49  63
BRANCH  50  74
ATOM     74  C   UNL     1     -12.541  -4.502  -8.554  1.00  0.00     0.064 A 
ATOM     75  C   UNL     1     -11.938  -5.403  -9.443  1.00  0.00     0.173 A 
ATOM     76  C   UNL     1     -13.138  -5.031  -7.399  1.00  0.00     0.173 A 
ATOM     77  F   UNL     1     -11.381  -4.953 -10.577  1.00  0.00    -0.203 F 
ATOM     78  C   UNL     1     -11.954  -6.776  -9.201  1.00  0.00     0.198 A 
ATOM     79  C   UNL     1     -13.123  -6.400  -7.141  1.00  0.00     0.198 A 
ATOM     80  F   UNL     1     -13.736  -4.215  -6.519  1.00  0.00    -0.203 F 
ATOM     81  F   UNL     1     -11.424  -7.618 -10.099  1.00  0.00    -0.200 F 
ATOM     82  C   UNL     1     -12.541  -7.273  -8.048  1.00  0.00     0.200 A 
ATOM     83  F   UNL     1     -13.683  -6.875  -6.020  1.00  0.00    -0.200 F 
ATOM     84  F   UNL     1     -12.558  -8.592  -7.817  1.00  0.00    -0.200 F 
ENDBRANCH  50  74
BRANCH  62  85
ATOM     85  C   UNL     1     -15.684  -0.752 -13.531  1.00  0.00     0.064 A 
ATOM     86  C   UNL     1     -16.983  -1.270 -13.413  1.00  0.00     0.173 A 
ATOM     87  C   UNL     1     -15.179  -0.544 -14.825  1.00  0.00     0.173 A 
ATOM     88  F   UNL     1     -17.510  -1.500 -12.201  1.00  0.00    -0.203 F 
ATOM     89  C   UNL     1     -17.734  -1.588 -14.542  1.00  0.00     0.198 A 
ATOM     90  C   UNL     1     -15.946  -0.830 -15.951  1.00  0.00     0.198 A 
ATOM     91  F   UNL     1     -13.947  -0.042 -14.997  1.00  0.00    -0.203 F 
ATOM     92  F   UNL     1     -18.953  -2.127 -14.404  1.00  0.00    -0.200 F 
ATOM     93  C   UNL     1     -17.219  -1.359 -15.810  1.00  0.00     0.200 A 
ATOM     94  F   UNL     1     -15.452  -0.590 -17.174  1.00  0.00    -0.200 F 
ATOM     95  F   UNL     1     -17.948  -1.654 -16.895  1.00  0.00    -0.200 F 
ENDBRANCH  62  85
ENDBRANCH  36  37
ENDBRANCH  29  31
ENDBRANCH  28  29
ENDBRANCH  27  28
ENDBRANCH  26  27
ENDBRANCH  25  26
ENDBRANCH  24  25
ENDBRANCH  23  24
ENDBRANCH   1  23
TORSDOF 22
