REMARK SMILES COc1ccc2c(CC(=O)OCCOCCOCCOC(=O)c3ccc(-c4c5nc(c(-c6c(F)c(F)c(F)c(F)c6F)c6ccc([nH]6)c(-c6c(F)c(F)c(F)c(F)c6F)c6nc(c(-c7c(F)c(F)c(F)c(F)c7F)c7ccc4[nH]7)C=C6)C=C5)cc3)c(C(=O)c3cc(C)ccn3)[nH]c2c1
REMARK SMILES IDX 15 1 14 2 13 3 12 4 11 5 9 6 10 7 8 8 7 9 3 10 4 11 98 12
REMARK SMILES IDX 5 13 97 14 6 15 96 16 86 17 2 19 1 20 87 21 88 22 89 23
REMARK SMILES IDX 90 24 95 25 91 26 94 27 92 28 93 29 16 30 17 31 18 32 19 33
REMARK SMILES IDX 20 34 21 35 22 36 23 37 24 38 85 39 25 40 84 41 26 42 27 43
REMARK SMILES IDX 28 44 78 45 29 46 83 47 77 48 79 49 30 50 82 51 76 52 75 53
REMARK SMILES IDX 31 55 63 56 43 57 62 58 44 59 47 60 61 61 80 62 45 63 46 64
REMARK SMILES IDX 60 66 81 67 48 68 32 69 33 70 41 71 34 72 35 73 39 74 42 75
REMARK SMILES IDX 36 76 37 77 40 78 38 79 64 80 65 81 73 82 66 83 67 84 71 85
REMARK SMILES IDX 74 86 68 87 69 88 72 89 70 90 49 91 50 92 58 93 51 94 52 95
REMARK SMILES IDX 56 96 59 97 53 98 54 99 57 100 55 101
REMARK H PARENT 96 18 79 54 47 65
REMARK Flexibility Score: inf
ROOT
ATOM      1  C   UNL     1       2.160  -7.966   6.316  1.00  0.00     0.188 C 
ENDROOT
BRANCH   1   2
ATOM      2  O   UNL     1       3.349  -7.962   7.103  1.00  0.00    -0.376 OA
BRANCH   2   3
ATOM      3  C   UNL     1       4.054  -6.736   7.251  1.00  0.00     0.202 C 
BRANCH   3   4
ATOM      4  C   UNL     1       4.614  -6.132   5.957  1.00  0.00     0.261 C 
BRANCH   4   5
ATOM      5  O   UNL     1       3.571  -5.875   4.992  1.00  0.00    -0.463 OA
BRANCH   5   6
ATOM      6  C   UNL     1       3.857  -6.136   3.691  1.00  0.00     0.310 C 
ATOM      7  O   UNL     1       4.993  -6.340   3.275  1.00  0.00    -0.252 OA
BRANCH   6   8
ATOM      8  C   UNL     1       2.620  -6.348   2.825  1.00  0.00     0.161 C 
BRANCH   8   9
ATOM      9  C   UNL     1       1.497  -5.341   2.909  1.00  0.00     0.000 A 
ATOM     10  C   UNL     1       1.103  -1.295   1.839  1.00  0.00     0.120 A 
ATOM     11  C   UNL     1       2.403  -1.796   1.791  1.00  0.00     0.047 A 
ATOM     12  C   UNL     1       0.058  -2.056   2.361  1.00  0.00     0.073 A 
ATOM     13  C   UNL     1       2.675  -3.112   2.189  1.00  0.00     0.014 A 
ATOM     14  C   UNL     1       0.343  -3.381   2.706  1.00  0.00     0.050 A 
ATOM     15  C   UNL     1       1.615  -3.940   2.611  1.00  0.00     0.004 A 
ATOM     16  N   UNL     1      -0.497  -4.370   3.148  1.00  0.00    -0.351 N 
ATOM     17  C   UNL     1       0.120  -5.597   3.029  1.00  0.00     0.093 A 
ATOM     18  H   UNL     1      -1.405  -4.226   3.499  1.00  0.00     0.167 HD
BRANCH  10  19
ATOM     19  O   UNL     1       0.783  -0.032   1.413  1.00  0.00    -0.497 OA
ATOM     20  C   UNL     1       1.172   0.188   0.056  1.00  0.00     0.278 C 
ENDBRANCH  10  19
BRANCH  17  21
ATOM     21  C   UNL     1      -0.609  -6.858   2.973  1.00  0.00     0.227 C 
ATOM     22  O   UNL     1      -0.105  -7.916   2.602  1.00  0.00    -0.285 OA
BRANCH  21  23
ATOM     23  C   UNL     1      -2.055  -6.878   3.348  1.00  0.00     0.113 A 
ATOM     24  C   UNL     1      -3.048  -6.818   2.372  1.00  0.00     0.036 A 
ATOM     25  N   UNL     1      -2.307  -7.013   4.674  1.00  0.00    -0.253 NA
ATOM     26  C   UNL     1      -4.384  -6.934   2.779  1.00  0.00    -0.047 A 
ATOM     27  C   UNL     1      -3.601  -7.175   5.027  1.00  0.00     0.112 A 
ATOM     28  C   UNL     1      -5.527  -6.842   1.811  1.00  0.00     0.044 C 
ATOM     29  C   UNL     1      -4.655  -7.152   4.131  1.00  0.00     0.023 A 
ENDBRANCH  21  23
ENDBRANCH  17  21
ENDBRANCH   8   9
ENDBRANCH   6   8
ENDBRANCH   5   6
ENDBRANCH   4   5
ENDBRANCH   3   4
ENDBRANCH   2   3
ENDBRANCH   1   2
BRANCH   1  30
ATOM     30  C   UNL     1       1.208  -6.751   6.372  1.00  0.00     0.188 C 
BRANCH  30  31
ATOM     31  O   UNL     1       1.216  -6.072   7.621  1.00  0.00    -0.376 OA
BRANCH  31  32
ATOM     32  C   UNL     1      -0.023  -6.110   8.315  1.00  0.00     0.202 C 
BRANCH  32  33
ATOM     33  C   UNL     1      -0.260  -7.479   8.947  1.00  0.00     0.261 C 
BRANCH  33  34
ATOM     34  O   UNL     1      -0.399  -8.505   7.941  1.00  0.00    -0.460 OA
BRANCH  34  35
ATOM     35  C   UNL     1      -1.647  -8.832   7.568  1.00  0.00     0.338 C 
ATOM     36  O   UNL     1      -2.692  -8.388   8.043  1.00  0.00    -0.246 OA
BRANCH  35  37
ATOM     37  C   UNL     1      -1.615  -9.887   6.533  1.00  0.00     0.060 A 
ATOM     38  C   UNL     1      -0.905  -9.749   5.334  1.00  0.00     0.016 A 
ATOM     39  C   UNL     1      -2.404 -11.017   6.732  1.00  0.00     0.016 A 
ATOM     40  C   UNL     1      -1.010 -10.710   4.322  1.00  0.00     0.010 A 
ATOM     41  C   UNL     1      -2.467 -12.002   5.745  1.00  0.00     0.010 A 
ATOM     42  C   UNL     1      -1.785 -11.854   4.523  1.00  0.00    -0.014 A 
BRANCH  42  43
ATOM     43  C   UNL     1      -1.943 -12.912   3.493  1.00  0.00     0.031 A 
ATOM     44  C   UNL     1      -3.309 -13.204   2.945  1.00  0.00     0.074 A 
ATOM     45  C   UNL     1      -0.904 -13.685   3.128  1.00  0.00     0.049 A 
ATOM     46  N   UNL     1      -3.767 -14.292   2.383  1.00  0.00    -0.248 NA
ATOM     47  C   UNL     1      -4.296 -12.119   3.061  1.00  0.00     0.031 C 
ATOM     48  C   UNL     1       0.494 -13.462   3.488  1.00  0.00     0.029 A 
ATOM     49  N   UNL     1      -0.883 -14.856   2.406  1.00  0.00    -0.354 N 
ATOM     50  C   UNL     1      -5.109 -14.047   2.128  1.00  0.00     0.074 A 
ATOM     51  C   UNL     1      -5.388 -12.700   2.583  1.00  0.00     0.031 C 
ATOM     52  C   UNL     1       1.233 -14.480   3.020  1.00  0.00     0.029 A 
ATOM     53  C   UNL     1       0.348 -15.467   2.408  1.00  0.00     0.049 A 
ATOM     54  H   UNL     1      -1.668 -15.219   1.936  1.00  0.00     0.167 HD
ATOM     55  C   UNL     1      -6.022 -14.884   1.580  1.00  0.00     0.037 A 
ATOM     56  C   UNL     1       0.708 -16.711   2.036  1.00  0.00     0.037 A 
ATOM     57  C   UNL     1      -5.722 -16.213   1.110  1.00  0.00     0.049 A 
ATOM     58  C   UNL     1      -0.338 -17.665   1.524  1.00  0.00     0.074 A 
ATOM     59  C   UNL     1      -6.578 -17.145   0.549  1.00  0.00     0.029 A 
ATOM     60  N   UNL     1      -4.463 -16.795   1.139  1.00  0.00    -0.354 N 
ATOM     61  N   UNL     1      -1.623 -17.472   1.353  1.00  0.00    -0.248 NA
ATOM     62  C   UNL     1       0.114 -19.019   1.172  1.00  0.00     0.031 C 
ATOM     63  C   UNL     1      -5.846 -18.306   0.280  1.00  0.00     0.029 A 
ATOM     64  C   UNL     1      -4.523 -18.078   0.621  1.00  0.00     0.049 A 
ATOM     65  H   UNL     1      -3.648 -16.360   1.479  1.00  0.00     0.167 HD
ATOM     66  C   UNL     1      -2.124 -18.662   0.841  1.00  0.00     0.074 A 
ATOM     67  C   UNL     1      -1.006 -19.574   0.731  1.00  0.00     0.031 C 
ATOM     68  C   UNL     1      -3.397 -18.967   0.491  1.00  0.00     0.037 A 
BRANCH  55  69
ATOM     69  C   UNL     1      -7.445 -14.415   1.506  1.00  0.00     0.064 A 
ATOM     70  C   UNL     1      -7.859 -13.434   0.595  1.00  0.00     0.173 A 
ATOM     71  C   UNL     1      -8.419 -14.998   2.333  1.00  0.00     0.173 A 
ATOM     72  F   UNL     1      -6.965 -12.835  -0.206  1.00  0.00    -0.203 F 
ATOM     73  C   UNL     1      -9.193 -13.040   0.527  1.00  0.00     0.198 A 
ATOM     74  C   UNL     1      -9.756 -14.621   2.242  1.00  0.00     0.198 A 
ATOM     75  F   UNL     1      -8.077 -15.944   3.220  1.00  0.00    -0.203 F 
ATOM     76  F   UNL     1      -9.560 -12.069  -0.322  1.00  0.00    -0.200 F 
ATOM     77  C   UNL     1     -10.141 -13.639   1.344  1.00  0.00     0.200 A 
ATOM     78  F   UNL     1     -10.672 -15.210   3.024  1.00  0.00    -0.200 F 
ATOM     79  F   UNL     1     -11.425 -13.263   1.270  1.00  0.00    -0.200 F 
ENDBRANCH  55  69
BRANCH  56  80
ATOM     80  C   UNL     1       2.120 -17.148   2.195  1.00  0.00     0.064 A 
ATOM     81  C   UNL     1       2.925 -17.399   1.076  1.00  0.00     0.173 A 
ATOM     82  C   UNL     1       2.691 -17.328   3.464  1.00  0.00     0.173 A 
ATOM     83  F   UNL     1       2.413 -17.273  -0.157  1.00  0.00    -0.203 F 
ATOM     84  C   UNL     1       4.244 -17.823   1.220  1.00  0.00     0.198 A 
ATOM     85  C   UNL     1       4.020 -17.721   3.607  1.00  0.00     0.198 A 
ATOM     86  F   UNL     1       1.961 -17.110   4.568  1.00  0.00    -0.203 F 
ATOM     87  F   UNL     1       4.978 -18.101   0.134  1.00  0.00    -0.200 F 
ATOM     88  C   UNL     1       4.793 -17.975   2.485  1.00  0.00     0.200 A 
ATOM     89  F   UNL     1       4.549 -17.857   4.830  1.00  0.00    -0.200 F 
ATOM     90  F   UNL     1       6.064 -18.376   2.621  1.00  0.00    -0.200 F 
ENDBRANCH  56  80
BRANCH  68  91
ATOM     91  C   UNL     1      -3.646 -20.318  -0.115  1.00  0.00     0.064 A 
ATOM     92  C   UNL     1      -3.645 -21.488   0.657  1.00  0.00     0.173 A 
ATOM     93  C   UNL     1      -3.947 -20.430  -1.481  1.00  0.00     0.173 A 
ATOM     94  F   UNL     1      -3.348 -21.435   1.964  1.00  0.00    -0.203 F 
ATOM     95  C   UNL     1      -3.921 -22.725   0.078  1.00  0.00     0.198 A 
ATOM     96  C   UNL     1      -4.248 -21.664  -2.050  1.00  0.00     0.198 A 
ATOM     97  F   UNL     1      -3.967 -19.339  -2.261  1.00  0.00    -0.203 F 
ATOM     98  F   UNL     1      -3.879 -23.837   0.826  1.00  0.00    -0.200 F 
ATOM     99  C   UNL     1      -4.230 -22.811  -1.272  1.00  0.00     0.200 A 
ATOM    100  F   UNL     1      -4.559 -21.743  -3.351  1.00  0.00    -0.200 F 
ATOM    101  F   UNL     1      -4.508 -24.000  -1.823  1.00  0.00    -0.200 F 
ENDBRANCH  68  91
ENDBRANCH  42  43
ENDBRANCH  35  37
ENDBRANCH  34  35
ENDBRANCH  33  34
ENDBRANCH  32  33
ENDBRANCH  31  32
ENDBRANCH  30  31
ENDBRANCH   1  30
TORSDOF 21
