REMARK SMILES O=C(NNS(=O)(=O)c1cccc(C(=O)OCCOCCOCCOC(=O)c2ccc(-c3c4nc(c(-c5c(F)c(F)c(F)c(F)c5F)c5ccc([nH]5)c(-c5c(F)c(F)c(F)c(F)c5F)c5nc(c(-c6c(F)c(F)c(F)c(F)c6F)c6ccc3[nH]6)C=C5)C=C4)cc2)c1)c1ccc2c(c1)OCO2
REMARK SMILES IDX 19 1 18 2 17 3 16 4 15 5 13 6 14 7 12 8 8 9 9 10 90 11 10 12
REMARK SMILES IDX 11 13 5 14 6 15 7 16 4 17 3 19 1 20 2 21 91 23 92 24 96 25
REMARK SMILES IDX 93 26 95 27 94 28 97 29 99 30 98 31 20 32 21 33 22 34 23 35
REMARK SMILES IDX 24 36 25 37 26 38 27 39 28 40 89 41 29 42 88 43 30 44 31 45
REMARK SMILES IDX 32 46 82 47 33 48 87 49 81 50 83 51 34 52 86 53 80 54 79 55
REMARK SMILES IDX 35 57 67 58 47 59 66 60 48 61 51 62 65 63 84 64 49 65 50 66
REMARK SMILES IDX 64 68 85 69 52 70 36 71 37 72 45 73 38 74 39 75 43 76 46 77
REMARK SMILES IDX 40 78 41 79 44 80 42 81 68 82 69 83 77 84 70 85 71 86 75 87
REMARK SMILES IDX 78 88 72 89 73 90 76 91 74 92 53 93 54 94 62 95 55 96 56 97
REMARK SMILES IDX 60 98 63 99 57 100 58 101 61 102 59 103
REMARK H PARENT 4 18 3 22 83 56 51 67
REMARK Flexibility Score: inf
ROOT
ATOM      1  C   UNL     1       0.670   3.556  -5.936  1.00  0.00     0.188 C 
ENDROOT
BRANCH   1   2
ATOM      2  O   UNL     1       0.139   2.765  -6.982  1.00  0.00    -0.376 OA
BRANCH   2   3
ATOM      3  C   UNL     1       0.515   1.403  -7.113  1.00  0.00     0.202 C 
BRANCH   3   4
ATOM      4  C   UNL     1       1.963   0.920  -6.919  1.00  0.00     0.261 C 
BRANCH   4   5
ATOM      5  O   UNL     1       2.676   1.488  -5.812  1.00  0.00    -0.460 OA
BRANCH   5   6
ATOM      6  C   UNL     1       3.725   2.284  -6.141  1.00  0.00     0.338 C 
ATOM      7  O   UNL     1       4.137   2.540  -7.259  1.00  0.00    -0.246 OA
BRANCH   6   8
ATOM      8  C   UNL     1       4.178   3.010  -4.935  1.00  0.00     0.061 A 
ATOM      9  C   UNL     1       4.848   3.116  -2.631  1.00  0.00     0.084 A 
ATOM     10  C   UNL     1       4.887   4.516  -2.699  1.00  0.00     0.022 A 
ATOM     11  C   UNL     1       4.473   2.349  -3.739  1.00  0.00     0.037 A 
ATOM     12  C   UNL     1       4.587   5.164  -3.894  1.00  0.00     0.002 A 
ATOM     13  C   UNL     1       4.249   4.410  -5.016  1.00  0.00     0.016 A 
BRANCH   9  14
ATOM     14  S   UNL     1       5.252   2.365  -1.079  1.00  0.00     0.257 S 
ATOM     15  O   UNL     1       4.728   3.223  -0.029  1.00  0.00    -0.205 OA
ATOM     16  O   UNL     1       6.635   1.976  -1.131  1.00  0.00    -0.205 OA
BRANCH  14  17
ATOM     17  N   UNL     1       4.340   0.941  -1.038  1.00  0.00    -0.123 NA
ATOM     18  H   UNL     1       4.456   0.485  -1.942  1.00  0.00     0.167 HD
BRANCH  17  19
ATOM     19  N   UNL     1       2.922   1.028  -0.787  1.00  0.00    -0.273 N 
ATOM     20  O   UNL     1       0.967   0.086  -0.120  1.00  0.00    -0.268 OA
ATOM     21  C   UNL     1       2.195   0.083  -0.103  1.00  0.00     0.266 C 
ATOM     22  H   UNL     1       2.443   1.816  -1.130  1.00  0.00     0.186 HD
BRANCH  21  23
ATOM     23  C   UNL     1       2.905  -0.908   0.735  1.00  0.00     0.045 A 
ATOM     24  C   UNL     1       3.893  -0.493   1.660  1.00  0.00     0.018 A 
ATOM     25  C   UNL     1       2.464  -2.235   0.703  1.00  0.00     0.064 A 
ATOM     26  C   UNL     1       4.455  -1.410   2.553  1.00  0.00     0.051 A 
ATOM     27  C   UNL     1       3.015  -3.103   1.618  1.00  0.00     0.166 A 
ATOM     28  C   UNL     1       3.978  -2.703   2.519  1.00  0.00     0.165 A 
ATOM     29  O   UNL     1       2.659  -4.405   1.790  1.00  0.00    -0.454 OA
ATOM     30  O   UNL     1       4.334  -3.704   3.368  1.00  0.00    -0.454 OA
ATOM     31  C   UNL     1       3.350  -4.702   3.021  1.00  0.00     0.468 C 
ENDBRANCH  21  23
ENDBRANCH  17  19
ENDBRANCH  14  17
ENDBRANCH   9  14
ENDBRANCH   6   8
ENDBRANCH   5   6
ENDBRANCH   4   5
ENDBRANCH   3   4
ENDBRANCH   2   3
ENDBRANCH   1   2
BRANCH   1  32
ATOM     32  C   UNL     1       0.556   3.099  -4.468  1.00  0.00     0.188 C 
BRANCH  32  33
ATOM     33  O   UNL     1       0.052   1.810  -4.231  1.00  0.00    -0.376 OA
BRANCH  33  34
ATOM     34  C   UNL     1      -1.346   1.567  -4.212  1.00  0.00     0.202 C 
BRANCH  34  35
ATOM     35  C   UNL     1      -2.463   2.608  -4.434  1.00  0.00     0.261 C 
BRANCH  35  36
ATOM     36  O   UNL     1      -2.104   3.907  -4.908  1.00  0.00    -0.460 OA
BRANCH  36  37
ATOM     37  C   UNL     1      -2.126   4.894  -3.981  1.00  0.00     0.338 C 
ATOM     38  O   UNL     1      -2.353   4.793  -2.788  1.00  0.00    -0.246 OA
BRANCH  37  39
ATOM     39  C   UNL     1      -1.659   6.139  -4.612  1.00  0.00     0.060 A 
ATOM     40  C   UNL     1      -0.427   6.679  -4.217  1.00  0.00     0.016 A 
ATOM     41  C   UNL     1      -2.454   6.789  -5.556  1.00  0.00     0.016 A 
ATOM     42  C   UNL     1       0.008   7.889  -4.756  1.00  0.00     0.010 A 
ATOM     43  C   UNL     1      -2.028   8.011  -6.077  1.00  0.00     0.010 A 
ATOM     44  C   UNL     1      -0.810   8.580  -5.659  1.00  0.00    -0.014 A 
BRANCH  44  45
ATOM     45  C   UNL     1      -0.501   9.981  -6.031  1.00  0.00     0.031 A 
ATOM     46  C   UNL     1      -1.219  11.084  -5.307  1.00  0.00     0.074 A 
ATOM     47  C   UNL     1       0.378  10.269  -7.005  1.00  0.00     0.049 A 
ATOM     48  N   UNL     1      -1.225  12.371  -5.542  1.00  0.00    -0.248 NA
ATOM     49  C   UNL     1      -2.052  10.674  -4.165  1.00  0.00     0.031 C 
ATOM     50  C   UNL     1       1.174   9.292  -7.743  1.00  0.00     0.029 A 
ATOM     51  N   UNL     1       0.727  11.477  -7.556  1.00  0.00    -0.354 N 
ATOM     52  C   UNL     1      -2.074  12.921  -4.590  1.00  0.00     0.074 A 
ATOM     53  C   UNL     1      -2.583  11.828  -3.791  1.00  0.00     0.031 C 
ATOM     54  C   UNL     1       1.905   9.938  -8.668  1.00  0.00     0.029 A 
ATOM     55  C   UNL     1       1.592  11.366  -8.616  1.00  0.00     0.049 A 
ATOM     56  H   UNL     1       0.389  12.340  -7.223  1.00  0.00     0.167 HD
ATOM     57  C   UNL     1      -2.397  14.222  -4.400  1.00  0.00     0.037 A 
ATOM     58  C   UNL     1       2.047  12.307  -9.466  1.00  0.00     0.037 A 
ATOM     59  C   UNL     1      -1.894  15.304  -5.205  1.00  0.00     0.049 A 
ATOM     60  C   UNL     1       1.602  13.739  -9.293  1.00  0.00     0.074 A 
ATOM     61  C   UNL     1      -2.152  16.658  -5.091  1.00  0.00     0.029 A 
ATOM     62  N   UNL     1      -1.036  15.150  -6.285  1.00  0.00    -0.354 N 
ATOM     63  N   UNL     1       0.810  14.259  -8.386  1.00  0.00    -0.248 NA
ATOM     64  C   UNL     1       2.117  14.715 -10.264  1.00  0.00     0.031 C 
ATOM     65  C   UNL     1      -1.500  17.317  -6.138  1.00  0.00     0.029 A 
ATOM     66  C   UNL     1      -0.777  16.383  -6.862  1.00  0.00     0.049 A 
ATOM     67  H   UNL     1      -0.667  14.292  -6.596  1.00  0.00     0.167 HD
ATOM     68  C   UNL     1       0.763  15.622  -8.652  1.00  0.00     0.074 A 
ATOM     69  C   UNL     1       1.610  15.850  -9.804  1.00  0.00     0.031 C 
ATOM     70  C   UNL     1       0.084  16.598  -7.998  1.00  0.00     0.037 A 
BRANCH  57  71
ATOM     71  C   UNL     1      -3.371  14.538  -3.302  1.00  0.00     0.064 A 
ATOM     72  C   UNL     1      -3.037  14.387  -1.947  1.00  0.00     0.173 A 
ATOM     73  C   UNL     1      -4.656  15.010  -3.610  1.00  0.00     0.173 A 
ATOM     74  F   UNL     1      -1.827  13.924  -1.598  1.00  0.00    -0.203 F 
ATOM     75  C   UNL     1      -3.963  14.664  -0.945  1.00  0.00     0.198 A 
ATOM     76  C   UNL     1      -5.568  15.319  -2.604  1.00  0.00     0.198 A 
ATOM     77  F   UNL     1      -5.028  15.176  -4.888  1.00  0.00    -0.203 F 
ATOM     78  F   UNL     1      -3.640  14.455   0.339  1.00  0.00    -0.200 F 
ATOM     79  C   UNL     1      -5.225  15.136  -1.274  1.00  0.00     0.200 A 
ATOM     80  F   UNL     1      -6.782  15.789  -2.924  1.00  0.00    -0.200 F 
ATOM     81  F   UNL     1      -6.114  15.406  -0.308  1.00  0.00    -0.200 F 
ENDBRANCH  57  71
BRANCH  58  82
ATOM     82  C   UNL     1       2.966  11.929 -10.572  1.00  0.00     0.064 A 
ATOM     83  C   UNL     1       4.298  12.366 -10.583  1.00  0.00     0.173 A 
ATOM     84  C   UNL     1       2.531  11.139 -11.647  1.00  0.00     0.173 A 
ATOM     85  F   UNL     1       4.754  13.146  -9.592  1.00  0.00    -0.203 F 
ATOM     86  C   UNL     1       5.154  12.043 -11.634  1.00  0.00     0.198 A 
ATOM     87  C   UNL     1       3.396  10.791 -12.682  1.00  0.00     0.198 A 
ATOM     88  F   UNL     1       1.265  10.699 -11.688  1.00  0.00    -0.203 F 
ATOM     89  F   UNL     1       6.408  12.515 -11.643  1.00  0.00    -0.200 F 
ATOM     90  C   UNL     1       4.705  11.250 -12.679  1.00  0.00     0.200 A 
ATOM     91  F   UNL     1       2.961  10.016 -13.685  1.00  0.00    -0.200 F 
ATOM     92  F   UNL     1       5.529  10.937 -13.688  1.00  0.00    -0.200 F 
ENDBRANCH  58  82
BRANCH  70  93
ATOM     93  C   UNL     1       0.275  18.014  -8.466  1.00  0.00     0.064 A 
ATOM     94  C   UNL     1      -0.255  18.475  -9.679  1.00  0.00     0.173 A 
ATOM     95  C   UNL     1       0.954  18.937  -7.654  1.00  0.00     0.173 A 
ATOM     96  F   UNL     1      -0.901  17.632 -10.498  1.00  0.00    -0.203 F 
ATOM     97  C   UNL     1      -0.091  19.802 -10.074  1.00  0.00     0.198 A 
ATOM     98  C   UNL     1       1.086  20.269  -8.035  1.00  0.00     0.198 A 
ATOM     99  F   UNL     1       1.473  18.551  -6.479  1.00  0.00    -0.203 F 
ATOM    100  F   UNL     1      -0.565  20.209 -11.259  1.00  0.00    -0.200 F 
ATOM    101  C   UNL     1       0.570  20.699  -9.248  1.00  0.00     0.200 A 
ATOM    102  F   UNL     1       1.710  21.138  -7.227  1.00  0.00    -0.200 F 
ATOM    103  F   UNL     1       0.715  21.977  -9.624  1.00  0.00    -0.200 F 
ENDBRANCH  70  93
ENDBRANCH  44  45
ENDBRANCH  37  39
ENDBRANCH  36  37
ENDBRANCH  35  36
ENDBRANCH  34  35
ENDBRANCH  33  34
ENDBRANCH  32  33
ENDBRANCH   1  32
TORSDOF 21
