REMARK SMILES NS(=O)(=O)c1ccc(-n2nc(C(F)F)cc2-c2ccc(C(=O)OCCOCCOCCOC(=O)c3ccc(-c4c5nc(c(-c6c(F)c(F)c(F)c(F)c6F)c6ccc([nH]6)c(-c6c(F)c(F)c(F)c(F)c6F)c6nc(c(-c7c(F)c(F)c(F)c(F)c7F)c7ccc4[nH]7)C=C6)C=C5)cc3)cc2)cc1
REMARK SMILES IDX 27 1 26 2 25 3 24 4 23 5 21 6 22 7 20 8 17 9 18 10 99 11
REMARK SMILES IDX 19 12 98 13 16 14 9 15 10 16 11 17 15 18 8 19 5 20 6 21
REMARK SMILES IDX 101 22 7 23 100 24 2 25 3 26 4 27 1 28 12 31 13 32 14 33
REMARK SMILES IDX 28 34 29 35 30 36 31 37 32 38 33 39 34 40 35 41 36 42 97 43
REMARK SMILES IDX 37 44 96 45 38 46 39 47 40 48 90 49 41 50 95 51 89 52 91 53
REMARK SMILES IDX 42 54 94 55 88 56 87 57 43 59 75 60 55 61 74 62 56 63 59 64
REMARK SMILES IDX 73 65 92 66 57 67 58 68 72 70 93 71 60 72 44 73 45 74 53 75
REMARK SMILES IDX 46 76 47 77 51 78 54 79 48 80 49 81 52 82 50 83 76 84 77 85
REMARK SMILES IDX 85 86 78 87 79 88 83 89 86 90 80 91 81 92 84 93 82 94 61 95
REMARK SMILES IDX 62 96 70 97 63 98 64 99 68 100 71 101 65 102 66 103 69 104
REMARK SMILES IDX 67 105
REMARK H PARENT 1 29 1 30 91 58 59 69
REMARK Flexibility Score: inf
ROOT
ATOM      1  C   UNL     1       7.160   0.618   2.730  1.00  0.00     0.188 C 
ENDROOT
BRANCH   1   2
ATOM      2  O   UNL     1       8.194  -0.299   3.001  1.00  0.00    -0.376 OA
BRANCH   2   3
ATOM      3  C   UNL     1       9.221   0.050   3.916  1.00  0.00     0.202 C 
BRANCH   3   4
ATOM      4  C   UNL     1       9.028   0.976   5.138  1.00  0.00     0.261 C 
BRANCH   4   5
ATOM      5  O   UNL     1       7.797   1.695   5.251  1.00  0.00    -0.460 OA
BRANCH   5   6
ATOM      6  C   UNL     1       7.818   2.987   4.848  1.00  0.00     0.338 C 
ATOM      7  O   UNL     1       8.771   3.589   4.385  1.00  0.00    -0.246 OA
BRANCH   6   8
ATOM      8  C   UNL     1       6.440   3.532   4.864  1.00  0.00     0.060 A 
ATOM      9  C   UNL     1       3.878   4.676   4.824  1.00  0.00     0.000 A 
ATOM     10  C   UNL     1       4.744   4.840   3.733  1.00  0.00     0.011 A 
ATOM     11  C   UNL     1       4.287   3.889   5.910  1.00  0.00     0.011 A 
ATOM     12  C   UNL     1       6.022   4.282   3.758  1.00  0.00     0.016 A 
ATOM     13  C   UNL     1       5.560   3.305   5.927  1.00  0.00     0.016 A 
BRANCH   9  14
ATOM     14  C   UNL     1       2.640   5.450   4.893  1.00  0.00     0.075 A 
ATOM     15  N   UNL     1       1.636   5.511   3.933  1.00  0.00    -0.233 N 
ATOM     16  N   UNL     1       0.844   6.602   4.108  1.00  0.00    -0.166 NA
ATOM     17  C   UNL     1       1.192   7.099   5.305  1.00  0.00     0.129 A 
ATOM     18  C   UNL     1       2.322   6.426   5.819  1.00  0.00     0.060 A 
BRANCH  15  19
ATOM     19  C   UNL     1       1.350   4.596   2.884  1.00  0.00     0.065 A 
ATOM     20  C   UNL     1       0.739   2.814   0.827  1.00  0.00     0.082 A 
ATOM     21  C   UNL     1       1.248   2.327   2.033  1.00  0.00     0.024 A 
ATOM     22  C   UNL     1       0.519   4.184   0.646  1.00  0.00     0.024 A 
ATOM     23  C   UNL     1       1.570   3.222   3.058  1.00  0.00     0.030 A 
ATOM     24  C   UNL     1       0.798   5.074   1.686  1.00  0.00     0.030 A 
BRANCH  20  25
ATOM     25  S   UNL     1       0.355   1.735  -0.520  1.00  0.00     0.238 S 
ATOM     26  O   UNL     1       1.173   2.122  -1.650  1.00  0.00    -0.207 OA
ATOM     27  O   UNL     1      -1.074   1.586  -0.601  1.00  0.00    -0.207 OA
BRANCH  25  28
ATOM     28  N   UNL     1       0.947   0.232  -0.058  1.00  0.00    -0.225 NA
ATOM     29  H   UNL     1       0.759  -0.448  -0.795  1.00  0.00     0.137 HD
ATOM     30  H   UNL     1       0.488  -0.064   0.803  1.00  0.00     0.137 HD
ENDBRANCH  25  28
ENDBRANCH  20  25
ENDBRANCH  15  19
BRANCH  17  31
ATOM     31  C   UNL     1       0.472   8.245   5.952  1.00  0.00     0.393 C 
ATOM     32  F   UNL     1       0.227   9.266   5.087  1.00  0.00    -0.203 F 
ATOM     33  F   UNL     1      -0.733   7.858   6.453  1.00  0.00    -0.203 F 
ENDBRANCH  17  31
ENDBRANCH   9  14
ENDBRANCH   6   8
ENDBRANCH   5   6
ENDBRANCH   4   5
ENDBRANCH   3   4
ENDBRANCH   2   3
ENDBRANCH   1   2
BRANCH   1  34
ATOM     34  C   UNL     1       5.848   0.336   3.491  1.00  0.00     0.188 C 
BRANCH  34  35
ATOM     35  O   UNL     1       5.815  -0.461   4.668  1.00  0.00    -0.376 OA
BRANCH  35  36
ATOM     36  C   UNL     1       6.463  -1.722   4.755  1.00  0.00     0.202 C 
BRANCH  36  37
ATOM     37  C   UNL     1       6.335  -2.792   3.672  1.00  0.00     0.261 C 
BRANCH  37  38
ATOM     38  O   UNL     1       6.412  -2.318   2.342  1.00  0.00    -0.460 OA
BRANCH  38  39
ATOM     39  C   UNL     1       5.206  -2.130   1.778  1.00  0.00     0.338 C 
ATOM     40  O   UNL     1       4.114  -2.139   2.324  1.00  0.00    -0.246 OA
BRANCH  39  41
ATOM     41  C   UNL     1       5.367  -2.017   0.331  1.00  0.00     0.060 A 
ATOM     42  C   UNL     1       4.258  -1.546  -0.370  1.00  0.00     0.016 A 
ATOM     43  C   UNL     1       6.423  -2.694  -0.292  1.00  0.00     0.016 A 
ATOM     44  C   UNL     1       4.082  -1.979  -1.661  1.00  0.00     0.010 A 
ATOM     45  C   UNL     1       6.243  -3.132  -1.581  1.00  0.00     0.010 A 
ATOM     46  C   UNL     1       5.031  -2.854  -2.205  1.00  0.00    -0.014 A 
BRANCH  46  47
ATOM     47  C   UNL     1       4.729  -3.437  -3.492  1.00  0.00     0.031 A 
ATOM     48  C   UNL     1       4.812  -2.462  -4.598  1.00  0.00     0.074 A 
ATOM     49  C   UNL     1       4.465  -4.746  -3.650  1.00  0.00     0.049 A 
ATOM     50  N   UNL     1       3.850  -2.032  -5.341  1.00  0.00    -0.248 NA
ATOM     51  C   UNL     1       6.090  -1.759  -4.786  1.00  0.00     0.031 C 
ATOM     52  C   UNL     1       4.619  -5.834  -2.682  1.00  0.00     0.029 A 
ATOM     53  N   UNL     1       4.078  -5.396  -4.779  1.00  0.00    -0.354 N 
ATOM     54  C   UNL     1       4.437  -1.130  -6.221  1.00  0.00     0.074 A 
ATOM     55  C   UNL     1       5.762  -0.871  -5.723  1.00  0.00     0.031 C 
ATOM     56  C   UNL     1       4.554  -7.019  -3.333  1.00  0.00     0.029 A 
ATOM     57  C   UNL     1       4.223  -6.774  -4.727  1.00  0.00     0.049 A 
ATOM     58  H   UNL     1       3.723  -4.927  -5.568  1.00  0.00     0.167 HD
ATOM     59  C   UNL     1       3.871  -0.872  -7.429  1.00  0.00     0.037 A 
ATOM     60  C   UNL     1       4.156  -7.619  -5.786  1.00  0.00     0.037 A 
ATOM     61  C   UNL     1       2.472  -1.217  -7.432  1.00  0.00     0.049 A 
ATOM     62  C   UNL     1       3.447  -6.904  -6.881  1.00  0.00     0.074 A 
ATOM     63  C   UNL     1       1.372  -0.798  -6.707  1.00  0.00     0.029 A 
ATOM     64  N   UNL     1       2.095  -2.396  -8.026  1.00  0.00    -0.354 N 
ATOM     65  N   UNL     1       2.180  -6.597  -6.847  1.00  0.00    -0.248 NA
ATOM     66  C   UNL     1       4.253  -6.125  -7.810  1.00  0.00     0.031 C 
ATOM     67  C   UNL     1       0.584  -1.971  -6.515  1.00  0.00     0.029 A 
ATOM     68  C   UNL     1       1.217  -3.021  -7.179  1.00  0.00     0.049 A 
ATOM     69  H   UNL     1       2.399  -2.730  -8.901  1.00  0.00     0.167 HD
ATOM     70  C   UNL     1       2.110  -5.329  -7.405  1.00  0.00     0.074 A 
ATOM     71  C   UNL     1       3.402  -5.125  -8.055  1.00  0.00     0.031 C 
ATOM     72  C   UNL     1       1.127  -4.455  -7.042  1.00  0.00     0.037 A 
BRANCH  59  73
ATOM     73  C   UNL     1       4.671  -0.693  -8.696  1.00  0.00     0.064 A 
ATOM     74  C   UNL     1       3.992  -0.358  -9.884  1.00  0.00     0.173 A 
ATOM     75  C   UNL     1       6.004  -1.132  -8.862  1.00  0.00     0.173 A 
ATOM     76  F   UNL     1       2.717   0.057  -9.849  1.00  0.00    -0.203 F 
ATOM     77  C   UNL     1       4.573  -0.541 -11.141  1.00  0.00     0.198 A 
ATOM     78  C   UNL     1       6.598  -1.260 -10.115  1.00  0.00     0.198 A 
ATOM     79  F   UNL     1       6.753  -1.565  -7.843  1.00  0.00    -0.203 F 
ATOM     80  F   UNL     1       3.840  -0.343 -12.245  1.00  0.00    -0.200 F 
ATOM     81  C   UNL     1       5.872  -1.000 -11.256  1.00  0.00     0.200 A 
ATOM     82  F   UNL     1       7.853  -1.723 -10.203  1.00  0.00    -0.200 F 
ATOM     83  F   UNL     1       6.406  -1.243 -12.459  1.00  0.00    -0.200 F 
ENDBRANCH  59  73
BRANCH  60  84
ATOM     84  C   UNL     1       4.955  -8.844  -6.035  1.00  0.00     0.064 A 
ATOM     85  C   UNL     1       4.586  -9.754  -7.040  1.00  0.00     0.173 A 
ATOM     86  C   UNL     1       6.246  -9.000  -5.495  1.00  0.00     0.173 A 
ATOM     87  F   UNL     1       3.392  -9.648  -7.641  1.00  0.00    -0.203 F 
ATOM     88  C   UNL     1       5.467 -10.742  -7.496  1.00  0.00     0.198 A 
ATOM     89  C   UNL     1       7.121  -9.990  -5.945  1.00  0.00     0.198 A 
ATOM     90  F   UNL     1       6.724  -8.134  -4.590  1.00  0.00    -0.203 F 
ATOM     91  F   UNL     1       5.103 -11.549  -8.502  1.00  0.00    -0.200 F 
ATOM     92  C   UNL     1       6.737 -10.851  -6.955  1.00  0.00     0.200 A 
ATOM     93  F   UNL     1       8.361 -10.060  -5.439  1.00  0.00    -0.200 F 
ATOM     94  F   UNL     1       7.604 -11.754  -7.435  1.00  0.00    -0.200 F 
ENDBRANCH  60  84
BRANCH  72  95
ATOM     95  C   UNL     1      -0.023  -4.989  -6.235  1.00  0.00     0.064 A 
ATOM     96  C   UNL     1       0.106  -5.537  -4.947  1.00  0.00     0.173 A 
ATOM     97  C   UNL     1      -1.321  -4.805  -6.730  1.00  0.00     0.173 A 
ATOM     98  F   UNL     1       1.305  -5.650  -4.361  1.00  0.00    -0.203 F 
ATOM     99  C   UNL     1      -1.014  -5.926  -4.212  1.00  0.00     0.198 A 
ATOM    100  C   UNL     1      -2.438  -5.157  -5.979  1.00  0.00     0.198 A 
ATOM    101  F   UNL     1      -1.507  -4.236  -7.931  1.00  0.00    -0.203 F 
ATOM    102  F   UNL     1      -0.864  -6.458  -2.990  1.00  0.00    -0.200 F 
ATOM    103  C   UNL     1      -2.284  -5.728  -4.726  1.00  0.00     0.200 A 
ATOM    104  F   UNL     1      -3.666  -4.917  -6.459  1.00  0.00    -0.200 F 
ATOM    105  F   UNL     1      -3.362  -6.060  -4.002  1.00  0.00    -0.200 F 
ENDBRANCH  72  95
ENDBRANCH  46  47
ENDBRANCH  39  41
ENDBRANCH  38  39
ENDBRANCH  37  38
ENDBRANCH  36  37
ENDBRANCH  35  36
ENDBRANCH  34  35
ENDBRANCH   1  34
TORSDOF 22
