REMARK SMILES O=C(OCCOCCOCCOC(=O)[C@]12C[NH2+]C[C@H]1CN(C(=O)c1ccccc1-n1cncn1)C2)c1ccc(-c2c3nc(c(-c4c(F)c(F)c(F)c(F)c4F)c4ccc([nH]4)c(-c4c(F)c(F)c(F)c(F)c4F)c4nc(c(-c5c(F)c(F)c(F)c(F)c5F)c5ccc2[nH]5)C=C4)C=C3)cc1
REMARK SMILES IDX 8 1 7 2 6 3 5 4 4 5 3 6 2 7 1 8 36 9 37 10 98 11 38 12 97 13
REMARK SMILES IDX 39 14 40 15 41 16 91 17 42 18 96 19 90 20 92 21 43 22 95 23
REMARK SMILES IDX 89 24 88 25 44 27 76 28 56 29 75 30 57 31 60 32 74 33 93 34
REMARK SMILES IDX 58 35 59 36 73 38 94 39 61 40 45 41 46 42 54 43 47 44 48 45
REMARK SMILES IDX 52 46 55 47 49 48 50 49 53 50 51 51 77 52 78 53 86 54 79 55
REMARK SMILES IDX 80 56 84 57 87 58 81 59 82 60 85 61 83 62 62 63 63 64 71 65
REMARK SMILES IDX 64 66 65 67 69 68 72 69 66 70 67 71 70 72 68 73 9 74 10 75
REMARK SMILES IDX 11 76 12 77 13 78 14 79 15 80 16 81 19 82 35 83 17 84 18 85
REMARK SMILES IDX 20 86 21 87 22 90 23 91 24 92 25 93 29 94 26 95 28 96 27 97
REMARK SMILES IDX 30 98 31 99 34 100 32 101 33 102
REMARK H PARENT 92 26 60 37 17 88 17 89
REMARK Flexibility Score: inf
ROOT
ATOM      1  C   UNL     1       2.196  -2.982  -0.921  1.00  0.00     0.188 C 
ENDROOT
BRANCH   1   2
ATOM      2  C   UNL     1       2.430  -1.651  -0.223  1.00  0.00     0.188 C 
BRANCH   2   3
ATOM      3  O   UNL     1       3.715  -1.040  -0.343  1.00  0.00    -0.376 OA
BRANCH   3   4
ATOM      4  C   UNL     1       4.477  -1.051   0.863  1.00  0.00     0.202 C 
BRANCH   4   5
ATOM      5  C   UNL     1       4.067  -0.036   1.944  1.00  0.00     0.261 C 
BRANCH   5   6
ATOM      6  O   UNL     1       2.667  -0.052   2.304  1.00  0.00    -0.460 OA
BRANCH   6   7
ATOM      7  C   UNL     1       1.592   0.406   1.617  1.00  0.00     0.338 C 
ATOM      8  O   UNL     1       0.523  -0.199   1.697  1.00  0.00    -0.246 OA
BRANCH   7   9
ATOM      9  C   UNL     1       1.596   1.704   0.903  1.00  0.00     0.060 A 
ATOM     10  C   UNL     1       2.736   2.381   0.496  1.00  0.00     0.016 A 
ATOM     11  C   UNL     1       0.344   2.323   0.737  1.00  0.00     0.016 A 
ATOM     12  C   UNL     1       2.676   3.739   0.247  1.00  0.00     0.010 A 
ATOM     13  C   UNL     1       0.264   3.662   0.393  1.00  0.00     0.010 A 
ATOM     14  C   UNL     1       1.445   4.385   0.278  1.00  0.00    -0.014 A 
BRANCH  14  15
ATOM     15  C   UNL     1       1.466   5.838   0.223  1.00  0.00     0.031 A 
ATOM     16  C   UNL     1       2.040   6.433  -1.019  1.00  0.00     0.074 A 
ATOM     17  C   UNL     1       0.964   6.555   1.249  1.00  0.00     0.049 A 
ATOM     18  N   UNL     1       2.969   7.328  -1.128  1.00  0.00    -0.248 NA
ATOM     19  C   UNL     1       1.584   5.886  -2.308  1.00  0.00     0.031 C 
ATOM     20  C   UNL     1       0.203   6.069   2.407  1.00  0.00     0.029 A 
ATOM     21  N   UNL     1       0.934   7.902   1.420  1.00  0.00    -0.354 N 
ATOM     22  C   UNL     1       3.109   7.573  -2.495  1.00  0.00     0.074 A 
ATOM     23  C   UNL     1       2.312   6.588  -3.176  1.00  0.00     0.031 C 
ATOM     24  C   UNL     1      -0.431   7.108   2.991  1.00  0.00     0.029 A 
ATOM     25  C   UNL     1      -0.021   8.332   2.329  1.00  0.00     0.049 A 
ATOM     26  H   UNL     1       1.535   8.518   0.942  1.00  0.00     0.167 HD
ATOM     27  C   UNL     1       3.724   8.692  -2.966  1.00  0.00     0.037 A 
ATOM     28  C   UNL     1      -0.518   9.589   2.432  1.00  0.00     0.037 A 
ATOM     29  C   UNL     1       4.629   9.246  -1.999  1.00  0.00     0.049 A 
ATOM     30  C   UNL     1       0.439  10.504   1.758  1.00  0.00     0.074 A 
ATOM     31  C   UNL     1       5.785   8.793  -1.392  1.00  0.00     0.029 A 
ATOM     32  N   UNL     1       4.228  10.333  -1.266  1.00  0.00    -0.354 N 
ATOM     33  N   UNL     1       1.632  10.767   2.214  1.00  0.00    -0.248 NA
ATOM     34  C   UNL     1       0.246  10.745   0.334  1.00  0.00     0.031 C 
ATOM     35  C   UNL     1       5.726   9.304  -0.064  1.00  0.00     0.029 A 
ATOM     36  C   UNL     1       4.568  10.075   0.037  1.00  0.00     0.049 A 
ATOM     37  H   UNL     1       3.783  11.142  -1.608  1.00  0.00     0.167 HD
ATOM     38  C   UNL     1       2.442  10.800   1.087  1.00  0.00     0.074 A 
ATOM     39  C   UNL     1       1.522  10.847  -0.047  1.00  0.00     0.031 C 
ATOM     40  C   UNL     1       3.769  10.494   1.160  1.00  0.00     0.037 A 
BRANCH  27  41
ATOM     41  C   UNL     1       3.240   9.477  -4.161  1.00  0.00     0.064 A 
ATOM     42  C   UNL     1       4.005  10.566  -4.627  1.00  0.00     0.173 A 
ATOM     43  C   UNL     1       1.917   9.410  -4.646  1.00  0.00     0.173 A 
ATOM     44  F   UNL     1       5.274  10.734  -4.224  1.00  0.00    -0.203 F 
ATOM     45  C   UNL     1       3.452  11.562  -5.436  1.00  0.00     0.198 A 
ATOM     46  C   UNL     1       1.384  10.380  -5.492  1.00  0.00     0.198 A 
ATOM     47  F   UNL     1       1.054   8.473  -4.233  1.00  0.00    -0.203 F 
ATOM     48  F   UNL     1       4.176  12.647  -5.744  1.00  0.00    -0.200 F 
ATOM     49  C   UNL     1       2.138  11.475  -5.857  1.00  0.00     0.200 A 
ATOM     50  F   UNL     1       0.102  10.287  -5.875  1.00  0.00    -0.200 F 
ATOM     51  F   UNL     1       1.584  12.464  -6.570  1.00  0.00    -0.200 F 
ENDBRANCH  27  41
BRANCH  28  52
ATOM     52  C   UNL     1      -1.925   9.960   2.723  1.00  0.00     0.064 A 
ATOM     53  C   UNL     1      -2.268  11.261   3.117  1.00  0.00     0.173 A 
ATOM     54  C   UNL     1      -2.996   9.108   2.380  1.00  0.00     0.173 A 
ATOM     55  F   UNL     1      -1.308  12.152   3.407  1.00  0.00    -0.203 F 
ATOM     56  C   UNL     1      -3.601  11.686   3.160  1.00  0.00     0.198 A 
ATOM     57  C   UNL     1      -4.324   9.528   2.435  1.00  0.00     0.198 A 
ATOM     58  F   UNL     1      -2.775   7.878   1.895  1.00  0.00    -0.203 F 
ATOM     59  F   UNL     1      -3.888  12.953   3.490  1.00  0.00    -0.200 F 
ATOM     60  C   UNL     1      -4.627  10.821   2.815  1.00  0.00     0.200 A 
ATOM     61  F   UNL     1      -5.302   8.690   2.062  1.00  0.00    -0.200 F 
ATOM     62  F   UNL     1      -5.899  11.243   2.808  1.00  0.00    -0.200 F 
ENDBRANCH  28  52
BRANCH  40  63
ATOM     63  C   UNL     1       4.381  10.330   2.520  1.00  0.00     0.064 A 
ATOM     64  C   UNL     1       4.010   9.316   3.420  1.00  0.00     0.173 A 
ATOM     65  C   UNL     1       5.490  11.117   2.853  1.00  0.00     0.173 A 
ATOM     66  F   UNL     1       3.033   8.451   3.119  1.00  0.00    -0.203 F 
ATOM     67  C   UNL     1       4.691   9.132   4.621  1.00  0.00     0.198 A 
ATOM     68  C   UNL     1       6.192  10.907   4.037  1.00  0.00     0.198 A 
ATOM     69  F   UNL     1       5.930  12.054   2.000  1.00  0.00    -0.203 F 
ATOM     70  F   UNL     1       4.316   8.160   5.466  1.00  0.00    -0.200 F 
ATOM     71  C   UNL     1       5.786   9.924   4.925  1.00  0.00     0.200 A 
ATOM     72  F   UNL     1       7.285  11.637   4.300  1.00  0.00    -0.200 F 
ATOM     73  F   UNL     1       6.472   9.717   6.058  1.00  0.00    -0.200 F 
ENDBRANCH  40  63
ENDBRANCH  14  15
ENDBRANCH   7   9
ENDBRANCH   6   7
ENDBRANCH   5   6
ENDBRANCH   4   5
ENDBRANCH   3   4
ENDBRANCH   2   3
ENDBRANCH   1   2
BRANCH   1  74
ATOM     74  O   UNL     1       2.990  -4.073  -0.489  1.00  0.00    -0.376 OA
BRANCH  74  75
ATOM     75  C   UNL     1       4.298  -4.159  -1.066  1.00  0.00     0.202 C 
BRANCH  75  76
ATOM     76  C   UNL     1       4.365  -4.279  -2.610  1.00  0.00     0.261 C 
BRANCH  76  77
ATOM     77  O   UNL     1       4.102  -2.977  -3.175  1.00  0.00    -0.463 OA
BRANCH  77  78
ATOM     78  C   UNL     1       3.473  -2.772  -4.384  1.00  0.00     0.320 C 
ATOM     79  O   UNL     1       3.301  -3.626  -5.228  1.00  0.00    -0.251 OA
BRANCH  78  80
ATOM     80  C   UNL     1       2.925  -1.322  -4.373  1.00  0.00     0.144 C 
ATOM     81  C   UNL     1       1.477  -1.375  -3.882  1.00  0.00     0.281 C 
ATOM     82  C   UNL     1       2.780  -0.431  -5.619  1.00  0.00     0.088 C 
ATOM     83  C   UNL     1       3.988  -0.537  -3.583  1.00  0.00     0.145 C 
ATOM     84  N   UNL     1       0.652  -1.351  -5.091  1.00  0.00    -0.345 N 
ATOM     85  C   UNL     1       1.338  -0.562  -6.099  1.00  0.00     0.267 C 
ATOM     86  C   UNL     1       3.007   1.000  -5.060  1.00  0.00     0.130 C 
ATOM     87  N   UNL     1       3.965   0.841  -3.991  1.00  0.00    -0.337 N 
ATOM     88  H   UNL     1      -0.253  -0.930  -4.882  1.00  0.00     0.346 HD
ATOM     89  H   UNL     1       0.502  -2.300  -5.431  1.00  0.00     0.346 HD
BRANCH  87  90
ATOM     90  C   UNL     1       4.666   1.900  -3.428  1.00  0.00     0.256 C 
ATOM     91  O   UNL     1       4.384   3.071  -3.670  1.00  0.00    -0.269 OA
BRANCH  90  92
ATOM     92  C   UNL     1       5.820   1.633  -2.501  1.00  0.00     0.065 A 
ATOM     93  C   UNL     1       5.853   2.363  -1.304  1.00  0.00     0.016 A 
ATOM     94  C   UNL     1       6.860   0.720  -2.738  1.00  0.00     0.079 A 
ATOM     95  C   UNL     1       6.803   2.094  -0.311  1.00  0.00     0.001 A 
ATOM     96  C   UNL     1       7.768   0.390  -1.712  1.00  0.00     0.029 A 
ATOM     97  C   UNL     1       7.737   1.081  -0.501  1.00  0.00     0.002 A 
BRANCH  94  98
ATOM     98  N   UNL     1       7.102   0.183  -4.019  1.00  0.00    -0.220 N 
ATOM     99  C   UNL     1       6.831   0.729  -5.250  1.00  0.00     0.225 A 
ATOM    100  N   UNL     1       7.646  -1.049  -4.186  1.00  0.00    -0.155 NA
ATOM    101  N   UNL     1       7.037  -0.157  -6.196  1.00  0.00    -0.223 NA
ATOM    102  C   UNL     1       7.516  -1.228  -5.503  1.00  0.00     0.246 A 
ENDBRANCH  94  98
ENDBRANCH  90  92
ENDBRANCH  87  90
ENDBRANCH  78  80
ENDBRANCH  77  78
ENDBRANCH  76  77
ENDBRANCH  75  76
ENDBRANCH  74  75
ENDBRANCH   1  74
TORSDOF 20
