REMARK SMILES O=C(OCCOCCOCCOC(=O)[C@H]1[C@H]2CC[C@H](CC2)[C@H]1C(=O)Nc1ccc(C(=O)N2CCCC2)cc1)c1ccc(-c2c3nc(c(-c4c(F)c(F)c(F)c(F)c4F)c4ccc([nH]4)c(-c4c(F)c(F)c(F)c(F)c4F)c4nc(c(-c5c(F)c(F)c(F)c(F)c5F)c5ccc2[nH]5)C=C4)C=C3)cc1
REMARK SMILES IDX 8 1 7 2 6 3 5 4 4 5 3 6 2 7 1 8 39 9 40 10 101 11 41 12
REMARK SMILES IDX 100 13 42 14 43 15 44 16 94 17 45 18 99 19 93 20 95 21 46 22
REMARK SMILES IDX 98 23 92 24 91 25 47 27 79 28 59 29 78 30 60 31 63 32 77 33
REMARK SMILES IDX 96 34 61 35 62 36 76 38 97 39 64 40 48 41 49 42 57 43 50 44
REMARK SMILES IDX 51 45 55 46 58 47 52 48 53 49 56 50 54 51 80 52 81 53 89 54
REMARK SMILES IDX 82 55 83 56 87 57 90 58 84 59 85 60 88 61 86 62 65 63 66 64
REMARK SMILES IDX 74 65 67 66 68 67 72 68 75 69 69 70 70 71 73 72 71 73 9 74
REMARK SMILES IDX 10 75 11 76 12 77 13 78 14 79 15 80 16 81 22 82 21 83 17 84
REMARK SMILES IDX 19 85 20 86 18 87 23 88 24 89 25 90 26 92 27 93 38 94 28 95
REMARK SMILES IDX 37 96 29 97 30 98 31 99 32 100 33 101 36 102 34 103 35 104
REMARK H PARENT 95 26 63 37 25 91
REMARK Flexibility Score: inf
ROOT
ATOM      1  C   UNL     1       1.715   0.972  -2.603  1.00  0.00     0.188 C 
ENDROOT
BRANCH   1   2
ATOM      2  C   UNL     1       2.379   0.940  -1.224  1.00  0.00     0.188 C 
BRANCH   2   3
ATOM      3  O   UNL     1       3.795   0.913  -1.115  1.00  0.00    -0.376 OA
BRANCH   3   4
ATOM      4  C   UNL     1       4.482  -0.332  -1.228  1.00  0.00     0.202 C 
BRANCH   4   5
ATOM      5  C   UNL     1       4.174  -1.472  -0.228  1.00  0.00     0.261 C 
BRANCH   5   6
ATOM      6  O   UNL     1       2.815  -1.580   0.229  1.00  0.00    -0.460 OA
BRANCH   6   7
ATOM      7  C   UNL     1       2.248  -1.157   1.394  1.00  0.00     0.338 C 
ATOM      8  O   UNL     1       1.177  -1.631   1.732  1.00  0.00    -0.246 OA
BRANCH   7   9
ATOM      9  C   UNL     1       2.832  -0.071   2.252  1.00  0.00     0.060 A 
ATOM     10  C   UNL     1       3.896   0.736   1.886  1.00  0.00     0.016 A 
ATOM     11  C   UNL     1       2.238   0.191   3.501  1.00  0.00     0.016 A 
ATOM     12  C   UNL     1       4.434   1.683   2.742  1.00  0.00     0.010 A 
ATOM     13  C   UNL     1       2.783   1.144   4.384  1.00  0.00     0.010 A 
ATOM     14  C   UNL     1       3.944   1.842   4.033  1.00  0.00    -0.014 A 
BRANCH  14  15
ATOM     15  C   UNL     1       4.842   2.490   5.029  1.00  0.00     0.031 A 
ATOM     16  C   UNL     1       5.555   1.605   6.011  1.00  0.00     0.074 A 
ATOM     17  C   UNL     1       5.252   3.768   4.912  1.00  0.00     0.049 A 
ATOM     18  N   UNL     1       6.437   1.922   6.923  1.00  0.00    -0.248 NA
ATOM     19  C   UNL     1       5.278   0.163   5.919  1.00  0.00     0.031 C 
ATOM     20  C   UNL     1       4.857   4.658   3.832  1.00  0.00     0.029 A 
ATOM     21  N   UNL     1       6.150   4.514   5.640  1.00  0.00    -0.354 N 
ATOM     22  C   UNL     1       6.777   0.730   7.543  1.00  0.00     0.074 A 
ATOM     23  C   UNL     1       6.024  -0.321   6.897  1.00  0.00     0.031 C 
ATOM     24  C   UNL     1       5.555   5.798   3.929  1.00  0.00     0.029 A 
ATOM     25  C   UNL     1       6.360   5.774   5.131  1.00  0.00     0.049 A 
ATOM     26  H   UNL     1       6.600   4.178   6.448  1.00  0.00     0.167 HD
ATOM     27  C   UNL     1       7.630   0.534   8.573  1.00  0.00     0.037 A 
ATOM     28  C   UNL     1       7.098   6.816   5.557  1.00  0.00     0.037 A 
ATOM     29  C   UNL     1       8.394   1.580   9.196  1.00  0.00     0.049 A 
ATOM     30  C   UNL     1       7.926   6.616   6.785  1.00  0.00     0.074 A 
ATOM     31  C   UNL     1       9.214   1.502  10.306  1.00  0.00     0.029 A 
ATOM     32  N   UNL     1       8.436   2.897   8.757  1.00  0.00    -0.354 N 
ATOM     33  N   UNL     1       8.148   5.507   7.444  1.00  0.00    -0.248 NA
ATOM     34  C   UNL     1       8.608   7.796   7.327  1.00  0.00     0.031 C 
ATOM     35  C   UNL     1       9.701   2.785  10.579  1.00  0.00     0.029 A 
ATOM     36  C   UNL     1       9.242   3.649   9.598  1.00  0.00     0.049 A 
ATOM     37  H   UNL     1       7.964   3.244   7.967  1.00  0.00     0.167 HD
ATOM     38  C   UNL     1       9.018   5.846   8.465  1.00  0.00     0.074 A 
ATOM     39  C   UNL     1       9.307   7.259   8.316  1.00  0.00     0.031 C 
ATOM     40  C   UNL     1       9.524   5.053   9.439  1.00  0.00     0.037 A 
BRANCH  27  41
ATOM     41  C   UNL     1       7.661  -0.845   9.160  1.00  0.00     0.064 A 
ATOM     42  C   UNL     1       8.245  -1.937   8.501  1.00  0.00     0.173 A 
ATOM     43  C   UNL     1       7.029  -1.080  10.391  1.00  0.00     0.173 A 
ATOM     44  F   UNL     1       8.821  -1.772   7.300  1.00  0.00    -0.203 F 
ATOM     45  C   UNL     1       8.163  -3.220   9.038  1.00  0.00     0.198 A 
ATOM     46  C   UNL     1       6.979  -2.356  10.940  1.00  0.00     0.198 A 
ATOM     47  F   UNL     1       6.442  -0.071  11.051  1.00  0.00    -0.203 F 
ATOM     48  F   UNL     1       8.660  -4.262   8.357  1.00  0.00    -0.200 F 
ATOM     49  C   UNL     1       7.535  -3.427  10.258  1.00  0.00     0.200 A 
ATOM     50  F   UNL     1       6.372  -2.552  12.119  1.00  0.00    -0.200 F 
ATOM     51  F   UNL     1       7.449  -4.663  10.768  1.00  0.00    -0.200 F 
ENDBRANCH  27  41
BRANCH  28  52
ATOM     52  C   UNL     1       7.079   8.124   4.835  1.00  0.00     0.064 A 
ATOM     53  C   UNL     1       8.242   8.659   4.264  1.00  0.00     0.173 A 
ATOM     54  C   UNL     1       5.898   8.878   4.715  1.00  0.00     0.173 A 
ATOM     55  F   UNL     1       9.403   7.995   4.368  1.00  0.00    -0.203 F 
ATOM     56  C   UNL     1       8.231   9.901   3.626  1.00  0.00     0.198 A 
ATOM     57  C   UNL     1       5.880  10.099   4.043  1.00  0.00     0.198 A 
ATOM     58  F   UNL     1       4.752   8.420   5.240  1.00  0.00    -0.203 F 
ATOM     59  F   UNL     1       9.371  10.416   3.146  1.00  0.00    -0.200 F 
ATOM     60  C   UNL     1       7.049  10.616   3.509  1.00  0.00     0.200 A 
ATOM     61  F   UNL     1       4.729  10.776   3.919  1.00  0.00    -0.200 F 
ATOM     62  F   UNL     1       7.038  11.807   2.896  1.00  0.00    -0.200 F 
ENDBRANCH  28  52
BRANCH  40  63
ATOM     63  C   UNL     1      10.470   5.697  10.405  1.00  0.00     0.064 A 
ATOM     64  C   UNL     1      10.036   6.649  11.338  1.00  0.00     0.173 A 
ATOM     65  C   UNL     1      11.828   5.348  10.400  1.00  0.00     0.173 A 
ATOM     66  F   UNL     1       8.749   7.030  11.367  1.00  0.00    -0.203 F 
ATOM     67  C   UNL     1      10.935   7.256  12.209  1.00  0.00     0.198 A 
ATOM     68  C   UNL     1      12.717   5.928  11.298  1.00  0.00     0.198 A 
ATOM     69  F   UNL     1      12.291   4.439   9.528  1.00  0.00    -0.203 F 
ATOM     70  F   UNL     1      10.510   8.211  13.047  1.00  0.00    -0.200 F 
ATOM     71  C   UNL     1      12.273   6.890  12.193  1.00  0.00     0.200 A 
ATOM     72  F   UNL     1      14.006   5.563  11.292  1.00  0.00    -0.200 F 
ATOM     73  F   UNL     1      13.137   7.472  13.035  1.00  0.00    -0.200 F 
ENDBRANCH  40  63
ENDBRANCH  14  15
ENDBRANCH   7   9
ENDBRANCH   6   7
ENDBRANCH   5   6
ENDBRANCH   4   5
ENDBRANCH   3   4
ENDBRANCH   2   3
ENDBRANCH   1   2
BRANCH   1  74
ATOM     74  O   UNL     1       2.511   0.763  -3.750  1.00  0.00    -0.376 OA
BRANCH  74  75
ATOM     75  C   UNL     1       3.614   1.633  -3.962  1.00  0.00     0.202 C 
BRANCH  75  76
ATOM     76  C   UNL     1       3.438   3.134  -3.720  1.00  0.00     0.261 C 
BRANCH  76  77
ATOM     77  O   UNL     1       3.227   3.503  -2.336  1.00  0.00    -0.463 OA
BRANCH  77  78
ATOM     78  C   UNL     1       2.183   4.316  -2.095  1.00  0.00     0.310 C 
ATOM     79  O   UNL     1       1.230   4.411  -2.868  1.00  0.00    -0.252 OA
BRANCH  78  80
ATOM     80  C   UNL     1       2.252   5.240  -0.865  1.00  0.00     0.115 C 
ATOM     81  C   UNL     1       2.996   5.228   0.517  1.00  0.00     0.004 C 
ATOM     82  C   UNL     1       2.265   6.668  -1.378  1.00  0.00     0.096 C 
ATOM     83  C   UNL     1       4.138   6.285   0.773  1.00  0.00     0.005 C 
ATOM     84  C   UNL     1       1.927   5.779   1.511  1.00  0.00     0.005 C 
ATOM     85  C   UNL     1       2.394   7.668  -0.198  1.00  0.00     0.002 C 
ATOM     86  C   UNL     1       3.842   7.679   0.244  1.00  0.00     0.005 C 
ATOM     87  C   UNL     1       1.546   7.210   1.043  1.00  0.00     0.005 C 
BRANCH  82  88
ATOM     88  C   UNL     1       3.170   6.921  -2.609  1.00  0.00     0.228 C 
ATOM     89  O   UNL     1       2.671   7.606  -3.521  1.00  0.00    -0.274 OA
ATOM     90  N   UNL     1       4.482   6.612  -2.827  1.00  0.00    -0.326 N 
ATOM     91  H   UNL     1       4.764   6.990  -3.691  1.00  0.00     0.169 HD
BRANCH  90  92
ATOM     92  C   UNL     1       5.576   5.934  -2.237  1.00  0.00     0.041 A 
ATOM     93  C   UNL     1       6.846   6.462  -2.488  1.00  0.00     0.027 A 
ATOM     94  C   UNL     1       5.544   4.834  -1.396  1.00  0.00     0.027 A 
ATOM     95  C   UNL     1       7.969   6.050  -1.737  1.00  0.00     0.016 A 
ATOM     96  C   UNL     1       6.653   4.400  -0.648  1.00  0.00     0.016 A 
ATOM     97  C   UNL     1       7.864   5.058  -0.749  1.00  0.00     0.040 A 
BRANCH  97  98
ATOM     98  C   UNL     1       8.885   5.018   0.347  1.00  0.00     0.253 C 
ATOM     99  O   UNL     1       9.619   6.003   0.453  1.00  0.00    -0.269 OA
ATOM    100  N   UNL     1       8.871   4.039   1.329  1.00  0.00    -0.339 N 
ATOM    101  C   UNL     1       8.580   2.615   1.259  1.00  0.00     0.120 C 
ATOM    102  C   UNL     1       9.301   4.392   2.679  1.00  0.00     0.120 C 
ATOM    103  C   UNL     1       8.160   2.293   2.683  1.00  0.00     0.023 C 
ATOM    104  C   UNL     1       9.118   3.130   3.516  1.00  0.00     0.023 C 
ENDBRANCH  97  98
ENDBRANCH  90  92
ENDBRANCH  82  88
ENDBRANCH  78  80
ENDBRANCH  77  78
ENDBRANCH  76  77
ENDBRANCH  75  76
ENDBRANCH  74  75
ENDBRANCH   1  74
TORSDOF 20
