REMARK SMILES O=C(OCCOCCOCCOC(=O)[C@@H]1CC=CC[C@@H]1C(=O)Nc1sc2c(c1C(=O)N1CCCCC1)CCCC2)c1ccc(-c2c3nc(c(-c4c(F)c(F)c(F)c(F)c4F)c4ccc([nH]4)c(-c4c(F)c(F)c(F)c(F)c4F)c4nc(c(-c5c(F)c(F)c(F)c(F)c5F)c5ccc2[nH]5)C=C4)C=C3)cc1
REMARK SMILES IDX 8 1 7 2 6 3 5 4 4 5 3 6 2 7 1 8 41 9 42 10 103 11 43 12
REMARK SMILES IDX 102 13 44 14 45 15 46 16 96 17 47 18 101 19 95 20 97 21
REMARK SMILES IDX 48 22 100 23 94 24 93 25 49 27 81 28 61 29 80 30 62 31 65 32
REMARK SMILES IDX 79 33 98 34 63 35 64 36 78 38 99 39 66 40 50 41 51 42 59 43
REMARK SMILES IDX 52 44 53 45 57 46 60 47 54 48 55 49 58 50 56 51 82 52 83 53
REMARK SMILES IDX 91 54 84 55 85 56 89 57 92 58 86 59 87 60 90 61 88 62 67 63
REMARK SMILES IDX 68 64 76 65 69 66 70 67 74 68 77 69 71 70 72 71 75 72 73 73
REMARK SMILES IDX 9 74 10 75 11 76 12 77 13 78 14 79 15 80 16 81 20 82 17 83
REMARK SMILES IDX 19 84 18 85 21 86 22 87 23 88 24 90 25 91 28 92 26 93 27 94
REMARK SMILES IDX 40 95 37 96 39 97 38 98 29 99 30 100 31 101 32 102 36 103
REMARK SMILES IDX 33 104 35 105 34 106
REMARK H PARENT 97 26 65 37 23 89
REMARK Flexibility Score: inf
ROOT
ATOM      1  C   UNL     1      -0.455   0.641  -2.086  1.00  0.00     0.188 C 
ENDROOT
BRANCH   1   2
ATOM      2  C   UNL     1      -0.506  -0.487  -1.056  1.00  0.00     0.188 C 
BRANCH   2   3
ATOM      3  O   UNL     1      -0.709  -1.793  -1.611  1.00  0.00    -0.376 OA
BRANCH   3   4
ATOM      4  C   UNL     1      -1.665  -2.586  -0.896  1.00  0.00     0.202 C 
BRANCH   4   5
ATOM      5  C   UNL     1      -1.286  -3.023   0.531  1.00  0.00     0.261 C 
BRANCH   5   6
ATOM      6  O   UNL     1      -0.378  -2.137   1.202  1.00  0.00    -0.460 OA
BRANCH   6   7
ATOM      7  C   UNL     1       0.976  -2.155   1.227  1.00  0.00     0.338 C 
ATOM      8  O   UNL     1       1.552  -1.337   1.944  1.00  0.00    -0.246 OA
BRANCH   7   9
ATOM      9  C   UNL     1       1.825  -3.090   0.423  1.00  0.00     0.060 A 
ATOM     10  C   UNL     1       1.415  -3.812  -0.700  1.00  0.00     0.016 A 
ATOM     11  C   UNL     1       3.172  -3.200   0.811  1.00  0.00     0.016 A 
ATOM     12  C   UNL     1       2.272  -4.680  -1.368  1.00  0.00     0.010 A 
ATOM     13  C   UNL     1       4.051  -4.048   0.133  1.00  0.00     0.010 A 
ATOM     14  C   UNL     1       3.584  -4.823  -0.935  1.00  0.00    -0.014 A 
BRANCH  14  15
ATOM     15  C   UNL     1       4.395  -5.933  -1.461  1.00  0.00     0.031 A 
ATOM     16  C   UNL     1       4.578  -7.130  -0.588  1.00  0.00     0.074 A 
ATOM     17  C   UNL     1       4.875  -5.917  -2.714  1.00  0.00     0.049 A 
ATOM     18  N   UNL     1       5.357  -8.163  -0.747  1.00  0.00    -0.248 NA
ATOM     19  C   UNL     1       3.747  -7.176   0.627  1.00  0.00     0.031 C 
ATOM     20  C   UNL     1       4.588  -4.886  -3.705  1.00  0.00     0.029 A 
ATOM     21  N   UNL     1       5.705  -6.792  -3.364  1.00  0.00    -0.354 N 
ATOM     22  C   UNL     1       5.133  -8.967   0.359  1.00  0.00     0.074 A 
ATOM     23  C   UNL     1       4.155  -8.300   1.189  1.00  0.00     0.031 C 
ATOM     24  C   UNL     1       5.260  -5.173  -4.830  1.00  0.00     0.029 A 
ATOM     25  C   UNL     1       6.099  -6.335  -4.596  1.00  0.00     0.049 A 
ATOM     26  H   UNL     1       5.989  -7.656  -2.988  1.00  0.00     0.167 HD
ATOM     27  C   UNL     1       5.708 -10.156   0.647  1.00  0.00     0.037 A 
ATOM     28  C   UNL     1       7.083  -6.753  -5.412  1.00  0.00     0.037 A 
ATOM     29  C   UNL     1       6.688 -10.775  -0.203  1.00  0.00     0.049 A 
ATOM     30  C   UNL     1       7.839  -7.981  -5.008  1.00  0.00     0.074 A 
ATOM     31  C   UNL     1       7.378 -11.955  -0.014  1.00  0.00     0.029 A 
ATOM     32  N   UNL     1       7.125 -10.239  -1.410  1.00  0.00    -0.354 N 
ATOM     33  N   UNL     1       7.681  -8.718  -3.934  1.00  0.00    -0.248 NA
ATOM     34  C   UNL     1       8.888  -8.450  -5.917  1.00  0.00     0.031 C 
ATOM     35  C   UNL     1       8.278 -12.101  -1.076  1.00  0.00     0.029 A 
ATOM     36  C   UNL     1       8.101 -11.048  -1.963  1.00  0.00     0.049 A 
ATOM     37  H   UNL     1       6.790  -9.405  -1.812  1.00  0.00     0.167 HD
ATOM     38  C   UNL     1       8.579  -9.764  -4.053  1.00  0.00     0.074 A 
ATOM     39  C   UNL     1       9.291  -9.555  -5.302  1.00  0.00     0.031 C 
ATOM     40  C   UNL     1       8.780 -10.811  -3.216  1.00  0.00     0.037 A 
BRANCH  27  41
ATOM     41  C   UNL     1       5.351 -10.773   1.967  1.00  0.00     0.064 A 
ATOM     42  C   UNL     1       4.065 -11.265   2.242  1.00  0.00     0.173 A 
ATOM     43  C   UNL     1       6.292 -10.787   3.007  1.00  0.00     0.173 A 
ATOM     44  F   UNL     1       3.116 -11.244   1.293  1.00  0.00    -0.203 F 
ATOM     45  C   UNL     1       3.721 -11.694   3.522  1.00  0.00     0.198 A 
ATOM     46  C   UNL     1       5.955 -11.250   4.276  1.00  0.00     0.198 A 
ATOM     47  F   UNL     1       7.534 -10.321   2.802  1.00  0.00    -0.203 F 
ATOM     48  F   UNL     1       2.461 -12.072   3.784  1.00  0.00    -0.200 F 
ATOM     49  C   UNL     1       4.665 -11.687   4.537  1.00  0.00     0.200 A 
ATOM     50  F   UNL     1       6.870 -11.243   5.254  1.00  0.00    -0.200 F 
ATOM     51  F   UNL     1       4.326 -12.078   5.773  1.00  0.00    -0.200 F 
ENDBRANCH  27  41
BRANCH  28  52
ATOM     52  C   UNL     1       7.423  -5.954  -6.619  1.00  0.00     0.064 A 
ATOM     53  C   UNL     1       7.143  -6.413  -7.910  1.00  0.00     0.173 A 
ATOM     54  C   UNL     1       7.982  -4.669  -6.494  1.00  0.00     0.173 A 
ATOM     55  F   UNL     1       6.619  -7.635  -8.086  1.00  0.00    -0.203 F 
ATOM     56  C   UNL     1       7.408  -5.622  -9.030  1.00  0.00     0.198 A 
ATOM     57  C   UNL     1       8.224  -3.870  -7.610  1.00  0.00     0.198 A 
ATOM     58  F   UNL     1       8.264  -4.176  -5.279  1.00  0.00    -0.203 F 
ATOM     59  F   UNL     1       7.149  -6.095 -10.256  1.00  0.00    -0.200 F 
ATOM     60  C   UNL     1       7.940  -4.349  -8.878  1.00  0.00     0.200 A 
ATOM     61  F   UNL     1       8.723  -2.636  -7.454  1.00  0.00    -0.200 F 
ATOM     62  F   UNL     1       8.182  -3.588  -9.954  1.00  0.00    -0.200 F 
ENDBRANCH  28  52
BRANCH  40  63
ATOM     63  C   UNL     1       9.767 -11.847  -3.652  1.00  0.00     0.064 A 
ATOM     64  C   UNL     1      11.148 -11.623  -3.591  1.00  0.00     0.173 A 
ATOM     65  C   UNL     1       9.314 -13.113  -4.052  1.00  0.00     0.173 A 
ATOM     66  F   UNL     1      11.623 -10.420  -3.233  1.00  0.00    -0.203 F 
ATOM     67  C   UNL     1      12.045 -12.634  -3.920  1.00  0.00     0.198 A 
ATOM     68  C   UNL     1      10.213 -14.129  -4.350  1.00  0.00     0.198 A 
ATOM     69  F   UNL     1       7.999 -13.370  -4.122  1.00  0.00    -0.203 F 
ATOM     70  F   UNL     1      13.363 -12.395  -3.882  1.00  0.00    -0.200 F 
ATOM     71  C   UNL     1      11.577 -13.889  -4.285  1.00  0.00     0.200 A 
ATOM     72  F   UNL     1       9.760 -15.345  -4.686  1.00  0.00    -0.200 F 
ATOM     73  F   UNL     1      12.444 -14.869  -4.575  1.00  0.00    -0.200 F 
ENDBRANCH  40  63
ENDBRANCH  14  15
ENDBRANCH   7   9
ENDBRANCH   6   7
ENDBRANCH   5   6
ENDBRANCH   4   5
ENDBRANCH   3   4
ENDBRANCH   2   3
ENDBRANCH   1   2
BRANCH   1  74
ATOM     74  O   UNL     1      -1.677   0.932  -2.757  1.00  0.00    -0.376 OA
BRANCH  74  75
ATOM     75  C   UNL     1      -2.276  -0.123  -3.502  1.00  0.00     0.202 C 
BRANCH  75  76
ATOM     76  C   UNL     1      -1.524  -0.597  -4.747  1.00  0.00     0.261 C 
BRANCH  76  77
ATOM     77  O   UNL     1      -0.180  -1.016  -4.465  1.00  0.00    -0.463 OA
BRANCH  77  78
ATOM     78  C   UNL     1       0.805  -0.374  -5.150  1.00  0.00     0.310 C 
ATOM     79  O   UNL     1       0.617   0.528  -5.959  1.00  0.00    -0.252 OA
BRANCH  78  80
ATOM     80  C   UNL     1       2.180  -0.909  -4.768  1.00  0.00     0.116 C 
ATOM     81  C   UNL     1       3.047   0.313  -4.384  1.00  0.00     0.043 C 
ATOM     82  C   UNL     1       2.747  -1.879  -5.831  1.00  0.00     0.097 C 
ATOM     83  C   UNL     1       4.476   0.305  -4.805  1.00  0.00    -0.030 C 
ATOM     84  C   UNL     1       4.280  -1.856  -6.002  1.00  0.00     0.041 C 
ATOM     85  C   UNL     1       5.024  -0.654  -5.549  1.00  0.00    -0.030 C 
BRANCH  82  86
ATOM     86  C   UNL     1       2.075  -1.782  -7.199  1.00  0.00     0.229 C 
ATOM     87  O   UNL     1       2.571  -1.044  -8.062  1.00  0.00    -0.274 OA
ATOM     88  N   UNL     1       0.948  -2.460  -7.561  1.00  0.00    -0.317 N 
ATOM     89  H   UNL     1       0.694  -2.270  -8.493  1.00  0.00     0.170 HD
BRANCH  88  90
ATOM     90  C   UNL     1       0.066  -3.349  -6.960  1.00  0.00     0.108 A 
ATOM     91  S   UNL     1       0.277  -3.929  -5.383  1.00  0.00    -0.122 S 
ATOM     92  C   UNL     1      -1.069  -3.903  -7.568  1.00  0.00     0.078 A 
ATOM     93  C   UNL     1      -1.258  -4.623  -5.344  1.00  0.00     0.011 A 
ATOM     94  C   UNL     1      -1.867  -4.626  -6.583  1.00  0.00    -0.019 A 
ATOM     95  C   UNL     1      -1.857  -5.149  -4.080  1.00  0.00     0.047 C 
ATOM     96  C   UNL     1      -3.194  -5.306  -6.771  1.00  0.00     0.037 C 
ATOM     97  C   UNL     1      -2.923  -6.201  -4.393  1.00  0.00     0.006 C 
ATOM     98  C   UNL     1      -3.894  -5.691  -5.458  1.00  0.00     0.005 C 
BRANCH  92  99
ATOM     99  C   UNL     1      -1.335  -3.706  -9.008  1.00  0.00     0.257 C 
ATOM    100  O   UNL     1      -0.726  -2.860  -9.676  1.00  0.00    -0.269 OA
ATOM    101  N   UNL     1      -2.174  -4.623  -9.611  1.00  0.00    -0.339 N 
ATOM    102  C   UNL     1      -1.583  -5.630 -10.484  1.00  0.00     0.120 C 
ATOM    103  C   UNL     1      -3.583  -4.309  -9.803  1.00  0.00     0.120 C 
ATOM    104  C   UNL     1      -1.977  -5.454 -11.949  1.00  0.00     0.022 C 
ATOM    105  C   UNL     1      -3.964  -4.114 -11.264  1.00  0.00     0.022 C 
ATOM    106  C   UNL     1      -3.488  -5.299 -12.097  1.00  0.00     0.004 C 
ENDBRANCH  92  99
ENDBRANCH  88  90
ENDBRANCH  82  86
ENDBRANCH  78  80
ENDBRANCH  77  78
ENDBRANCH  76  77
ENDBRANCH  75  76
ENDBRANCH  74  75
ENDBRANCH   1  74
TORSDOF 20
