REMARK SMILES O=C(OCCOCCOCCOC(=O)[C@H]1CCCC[C@H]1C(=O)Nc1ccc(Cl)cc1F)c1ccc(-c2c3nc(c(-c4c(F)c(F)c(F)c(F)c4F)c4ccc([nH]4)c(-c4c(F)c(F)c(F)c(F)c4F)c4nc(c(-c5c(F)c(F)c(F)c(F)c5F)c5ccc2[nH]5)C=C4)C=C3)cc1
REMARK SMILES IDX 7 1 6 2 5 3 4 4 3 5 2 6 1 7 32 8 33 9 94 10 34 11 93 12
REMARK SMILES IDX 35 13 36 14 37 15 87 16 38 17 92 18 86 19 88 20 39 21 91 22
REMARK SMILES IDX 85 23 84 24 40 26 72 27 52 28 71 29 53 30 56 31 70 32 89 33
REMARK SMILES IDX 54 34 55 35 69 37 90 38 57 39 41 40 42 41 50 42 43 43 44 44
REMARK SMILES IDX 48 45 51 46 45 47 46 48 49 49 47 50 73 51 74 52 82 53 75 54
REMARK SMILES IDX 76 55 80 56 83 57 77 58 78 59 81 60 79 61 58 62 59 63 67 64
REMARK SMILES IDX 60 65 61 66 65 67 68 68 62 69 63 70 66 71 64 72 8 73 9 74
REMARK SMILES IDX 10 75 11 76 12 77 13 78 14 79 15 80 16 81 20 82 17 83 19 84
REMARK SMILES IDX 18 85 21 86 22 87 23 88 24 90 25 91 30 92 26 93 29 94 31 95
REMARK SMILES IDX 27 96 28 97
REMARK H PARENT 88 25 56 36 23 89
REMARK Flexibility Score: inf
ROOT
ATOM      1  C   UNL     1      -0.971   1.253   2.862  1.00  0.00     0.188 C 
ENDROOT
BRANCH   1   2
ATOM      2  O   UNL     1      -1.733   2.380   2.417  1.00  0.00    -0.376 OA
BRANCH   2   3
ATOM      3  C   UNL     1      -2.988   2.095   1.808  1.00  0.00     0.202 C 
BRANCH   3   4
ATOM      4  C   UNL     1      -2.905   1.599   0.358  1.00  0.00     0.261 C 
BRANCH   4   5
ATOM      5  O   UNL     1      -1.968   0.520   0.213  1.00  0.00    -0.460 OA
BRANCH   5   6
ATOM      6  C   UNL     1      -1.004   0.620  -0.742  1.00  0.00     0.338 C 
ATOM      7  O   UNL     1      -0.956  -0.139  -1.701  1.00  0.00    -0.246 OA
BRANCH   6   8
ATOM      8  C   UNL     1       0.165   1.474  -0.378  1.00  0.00     0.060 A 
ATOM      9  C   UNL     1       0.023   2.787   0.075  1.00  0.00     0.016 A 
ATOM     10  C   UNL     1       1.457   0.936  -0.505  1.00  0.00     0.016 A 
ATOM     11  C   UNL     1       1.134   3.535   0.440  1.00  0.00     0.010 A 
ATOM     12  C   UNL     1       2.585   1.704  -0.183  1.00  0.00     0.010 A 
ATOM     13  C   UNL     1       2.420   3.015   0.278  1.00  0.00    -0.014 A 
BRANCH  13  14
ATOM     14  C   UNL     1       3.527   3.985   0.404  1.00  0.00     0.031 A 
ATOM     15  C   UNL     1       3.733   4.933  -0.742  1.00  0.00     0.074 A 
ATOM     16  C   UNL     1       4.159   4.165   1.575  1.00  0.00     0.049 A 
ATOM     17  N   UNL     1       4.385   6.064  -0.779  1.00  0.00    -0.248 NA
ATOM     18  C   UNL     1       3.051   4.585  -2.002  1.00  0.00     0.031 C 
ATOM     19  C   UNL     1       3.963   3.355   2.776  1.00  0.00     0.029 A 
ATOM     20  N   UNL     1       5.062   5.124   1.957  1.00  0.00    -0.354 N 
ATOM     21  C   UNL     1       4.122   6.600  -2.031  1.00  0.00     0.074 A 
ATOM     22  C   UNL     1       3.293   5.653  -2.744  1.00  0.00     0.031 C 
ATOM     23  C   UNL     1       4.725   3.854   3.766  1.00  0.00     0.029 A 
ATOM     24  C   UNL     1       5.459   5.016   3.267  1.00  0.00     0.049 A 
ATOM     25  H   UNL     1       5.394   5.824   1.349  1.00  0.00     0.167 HD
ATOM     26  C   UNL     1       4.527   7.787  -2.537  1.00  0.00     0.037 A 
ATOM     27  C   UNL     1       6.317   5.780   3.971  1.00  0.00     0.037 A 
ATOM     28  C   UNL     1       5.445   8.665  -1.870  1.00  0.00     0.049 A 
ATOM     29  C   UNL     1       6.909   7.002   3.309  1.00  0.00     0.074 A 
ATOM     30  C   UNL     1       6.039   9.821  -2.342  1.00  0.00     0.029 A 
ATOM     31  N   UNL     1       5.931   8.454  -0.587  1.00  0.00    -0.354 N 
ATOM     32  N   UNL     1       6.646   7.516   2.131  1.00  0.00    -0.248 NA
ATOM     33  C   UNL     1       7.910   7.754   4.079  1.00  0.00     0.031 C 
ATOM     34  C   UNL     1       6.924  10.282  -1.361  1.00  0.00     0.029 A 
ATOM     35  C   UNL     1       6.844   9.441  -0.261  1.00  0.00     0.049 A 
ATOM     36  H   UNL     1       5.666   7.713   0.003  1.00  0.00     0.167 HD
ATOM     37  C   UNL     1       7.432   8.657   2.025  1.00  0.00     0.074 A 
ATOM     38  C   UNL     1       8.161   8.775   3.272  1.00  0.00     0.031 C 
ATOM     39  C   UNL     1       7.550   9.528   0.992  1.00  0.00     0.037 A 
BRANCH  26  40
ATOM     40  C   UNL     1       4.010   8.152  -3.893  1.00  0.00     0.064 A 
ATOM     41  C   UNL     1       2.693   8.603  -4.069  1.00  0.00     0.173 A 
ATOM     42  C   UNL     1       4.821   8.020  -5.028  1.00  0.00     0.173 A 
ATOM     43  F   UNL     1       1.871   8.719  -3.015  1.00  0.00    -0.203 F 
ATOM     44  C   UNL     1       2.201   8.891  -5.339  1.00  0.00     0.198 A 
ATOM     45  C   UNL     1       4.330   8.323  -6.294  1.00  0.00     0.198 A 
ATOM     46  F   UNL     1       6.082   7.579  -4.909  1.00  0.00    -0.203 F 
ATOM     47  F   UNL     1       0.927   9.280  -5.492  1.00  0.00    -0.200 F 
ATOM     48  C   UNL     1       3.020   8.753  -6.450  1.00  0.00     0.200 A 
ATOM     49  F   UNL     1       5.120   8.185  -7.368  1.00  0.00    -0.200 F 
ATOM     50  F   UNL     1       2.542   9.019  -7.674  1.00  0.00    -0.200 F 
ENDBRANCH  26  40
BRANCH  27  51
ATOM     51  C   UNL     1       6.696   5.408   5.362  1.00  0.00     0.064 A 
ATOM     52  C   UNL     1       6.402   6.235   6.454  1.00  0.00     0.173 A 
ATOM     53  C   UNL     1       7.427   4.236   5.615  1.00  0.00     0.173 A 
ATOM     54  F   UNL     1       5.730   7.380   6.266  1.00  0.00    -0.203 F 
ATOM     55  C   UNL     1       6.851   5.922   7.738  1.00  0.00     0.198 A 
ATOM     56  C   UNL     1       7.849   3.909   6.902  1.00  0.00     0.198 A 
ATOM     57  F   UNL     1       7.744   3.410   4.606  1.00  0.00    -0.203 F 
ATOM     58  F   UNL     1       6.612   6.764   8.752  1.00  0.00    -0.200 F 
ATOM     59  C   UNL     1       7.572   4.759   7.960  1.00  0.00     0.200 A 
ATOM     60  F   UNL     1       8.540   2.780   7.111  1.00  0.00    -0.200 F 
ATOM     61  F   UNL     1       8.016   4.466   9.191  1.00  0.00    -0.200 F 
ENDBRANCH  27  51
BRANCH  39  62
ATOM     62  C   UNL     1       8.494  10.679   1.172  1.00  0.00     0.064 A 
ATOM     63  C   UNL     1       9.884  10.494   1.153  1.00  0.00     0.173 A 
ATOM     64  C   UNL     1       8.004  11.986   1.316  1.00  0.00     0.173 A 
ATOM     65  F   UNL     1      10.399   9.261   1.031  1.00  0.00    -0.203 F 
ATOM     66  C   UNL     1      10.751  11.573   1.297  1.00  0.00     0.198 A 
ATOM     67  C   UNL     1       8.874  13.066   1.431  1.00  0.00     0.198 A 
ATOM     68  F   UNL     1       6.683  12.215   1.330  1.00  0.00    -0.203 F 
ATOM     69  F   UNL     1      12.075  11.369   1.321  1.00  0.00    -0.200 F 
ATOM     70  C   UNL     1      10.245  12.858   1.429  1.00  0.00     0.200 A 
ATOM     71  F   UNL     1       8.385  14.309   1.544  1.00  0.00    -0.200 F 
ATOM     72  F   UNL     1      11.081  13.898   1.559  1.00  0.00    -0.200 F 
ENDBRANCH  39  62
ENDBRANCH  13  14
ENDBRANCH   6   8
ENDBRANCH   5   6
ENDBRANCH   4   5
ENDBRANCH   3   4
ENDBRANCH   2   3
ENDBRANCH   1   2
BRANCH   1  73
ATOM     73  C   UNL     1      -1.725   0.256   3.741  1.00  0.00     0.188 C 
BRANCH  73  74
ATOM     74  O   UNL     1      -2.419   0.793   4.863  1.00  0.00    -0.376 OA
BRANCH  74  75
ATOM     75  C   UNL     1      -1.713   1.785   5.604  1.00  0.00     0.202 C 
BRANCH  75  76
ATOM     76  C   UNL     1      -0.477   1.285   6.360  1.00  0.00     0.261 C 
BRANCH  76  77
ATOM     77  O   UNL     1       0.517   0.690   5.499  1.00  0.00    -0.463 OA
BRANCH  77  78
ATOM     78  C   UNL     1       1.651   0.324   6.157  1.00  0.00     0.309 C 
ATOM     79  O   UNL     1       1.817   0.516   7.357  1.00  0.00    -0.252 OA
BRANCH  78  80
ATOM     80  C   UNL     1       2.724  -0.228   5.215  1.00  0.00     0.111 C 
ATOM     81  C   UNL     1       4.087  -0.154   5.935  1.00  0.00     0.016 C 
ATOM     82  C   UNL     1       2.573  -1.621   4.556  1.00  0.00     0.093 C 
ATOM     83  C   UNL     1       4.289  -1.334   6.886  1.00  0.00     0.001 C 
ATOM     84  C   UNL     1       3.073  -2.879   5.284  1.00  0.00     0.014 C 
ATOM     85  C   UNL     1       4.324  -2.649   6.122  1.00  0.00     0.001 C 
BRANCH  82  86
ATOM     86  C   UNL     1       1.352  -1.859   3.687  1.00  0.00     0.228 C 
ATOM     87  O   UNL     1       1.350  -1.378   2.542  1.00  0.00    -0.274 OA
ATOM     88  N   UNL     1       0.268  -2.617   3.994  1.00  0.00    -0.323 N 
ATOM     89  H   UNL     1      -0.051  -3.146   3.227  1.00  0.00     0.170 HD
BRANCH  88  90
ATOM     90  C   UNL     1      -0.510  -2.822   5.157  1.00  0.00     0.077 A 
ATOM     91  C   UNL     1      -1.802  -3.325   4.923  1.00  0.00     0.031 A 
ATOM     92  C   UNL     1      -0.213  -2.413   6.456  1.00  0.00     0.148 A 
ATOM     93  C   UNL     1      -2.781  -3.302   5.924  1.00  0.00     0.023 A 
ATOM     94  C   UNL     1      -1.177  -2.388   7.462  1.00  0.00     0.062 A 
ATOM     95  F   UNL     1       1.002  -1.992   6.798  1.00  0.00    -0.205 F 
ATOM     96  C   UNL     1      -2.469  -2.804   7.183  1.00  0.00     0.044 A 
ATOM     97  Cl  UNL     1      -3.687  -2.680   8.389  1.00  0.00    -0.084 Cl
ENDBRANCH  88  90
ENDBRANCH  82  86
ENDBRANCH  78  80
ENDBRANCH  77  78
ENDBRANCH  76  77
ENDBRANCH  75  76
ENDBRANCH  74  75
ENDBRANCH  73  74
ENDBRANCH   1  73
TORSDOF 19
