REMARK SMILES Cc1ccc(C(=O)C[C@@H](C(=O)OCCOCCOCCOC(=O)c2ccc(-c3c4nc(c(-c5c(F)c(F)c(F)c(F)c5F)c5ccc([nH]5)c(-c5c(F)c(F)c(F)c(F)c5F)c5nc(c(-c6c(F)c(F)c(F)c(F)c6F)c6ccc3[nH]6)C=C5)C=C4)cc2)[NH+]2CC[NH+](Cc3ccccc3)CC2)cc1
REMARK SMILES IDX 16 1 15 2 14 3 13 4 12 5 10 6 11 7 9 8 8 9 6 10 7 11 5 12
REMARK SMILES IDX 1 13 2 14 3 15 101 16 4 17 100 18 87 19 88 20 99 21 89 23
REMARK SMILES IDX 98 24 90 25 91 27 92 28 93 29 97 30 94 31 96 32 95 33 17 34
REMARK SMILES IDX 18 35 19 36 20 37 21 38 22 39 23 40 24 41 25 42 86 43 26 44
REMARK SMILES IDX 85 45 27 46 28 47 29 48 79 49 30 50 84 51 78 52 80 53 31 54
REMARK SMILES IDX 83 55 77 56 76 57 32 59 64 60 44 61 63 62 45 63 48 64 62 65
REMARK SMILES IDX 81 66 46 67 47 68 61 70 82 71 49 72 33 73 34 74 42 75 35 76
REMARK SMILES IDX 36 77 40 78 43 79 37 80 38 81 41 82 39 83 65 84 66 85 74 86
REMARK SMILES IDX 67 87 68 88 72 89 75 90 69 91 70 92 73 93 71 94 50 95 51 96
REMARK SMILES IDX 59 97 52 98 53 99 57 100 60 101 54 102 55 103 58 104 56 105
REMARK H PARENT 87 22 90 26 80 58 48 69
REMARK Flexibility Score: inf
ROOT
ATOM      1  C   UNL     1       0.977   3.916  -0.980  1.00  0.00     0.188 C 
ENDROOT
BRANCH   1   2
ATOM      2  O   UNL     1       1.759   3.217  -0.015  1.00  0.00    -0.376 OA
BRANCH   2   3
ATOM      3  C   UNL     1       1.688   1.787  -0.086  1.00  0.00     0.202 C 
BRANCH   3   4
ATOM      4  C   UNL     1       0.982   1.077   1.073  1.00  0.00     0.261 C 
BRANCH   4   5
ATOM      5  O   UNL     1      -0.480   0.827   1.099  1.00  0.00    -0.459 OA
BRANCH   5   6
ATOM      6  C   UNL     1      -1.510   0.661   0.225  1.00  0.00     0.365 C 
ATOM      7  O   UNL     1      -1.230   0.712  -0.974  1.00  0.00    -0.245 OA
BRANCH   6   8
ATOM      8  C   UNL     1      -3.244   0.390   0.844  1.00  0.00     0.303 C 
BRANCH   8   9
ATOM      9  C   UNL     1      -4.014  -0.488  -0.183  1.00  0.00     0.158 C 
BRANCH   9  10
ATOM     10  C   UNL     1      -3.376  -1.873  -0.522  1.00  0.00     0.169 C 
ATOM     11  O   UNL     1      -4.100  -2.849  -0.725  1.00  0.00    -0.294 OA
BRANCH  10  12
ATOM     12  C   UNL     1      -1.900  -2.121  -0.607  1.00  0.00     0.018 A 
ATOM     13  C   UNL     1       2.414  -2.046  -0.297  1.00  0.00     0.044 C 
ATOM     14  C   UNL     1       0.925  -2.197  -0.467  1.00  0.00    -0.051 A 
ATOM     15  C   UNL     1       0.144  -2.844   0.498  1.00  0.00     0.004 A 
ATOM     16  C   UNL     1       0.280  -1.645  -1.579  1.00  0.00     0.004 A 
ATOM     17  C   UNL     1      -1.260  -2.800   0.434  1.00  0.00     0.012 A 
ATOM     18  C   UNL     1      -1.127  -1.661  -1.678  1.00  0.00     0.012 A 
ENDBRANCH  10  12
ENDBRANCH   9  10
ENDBRANCH   8   9
BRANCH   8  19
ATOM     19  N   UNL     1      -4.109   1.538   1.771  1.00  0.00    -0.314 N 
ATOM     20  C   UNL     1      -5.167   1.018   2.687  1.00  0.00     0.325 C 
ATOM     21  C   UNL     1      -4.496   2.969   1.490  1.00  0.00     0.325 C 
ATOM     22  H   UNL     1      -3.130   1.689   2.017  1.00  0.00     0.349 HD
ATOM     23  C   UNL     1      -5.606   1.983   3.874  1.00  0.00     0.324 C 
ATOM     24  C   UNL     1      -5.111   3.940   2.581  1.00  0.00     0.324 C 
ATOM     25  N   UNL     1      -6.004   3.333   3.523  1.00  0.00    -0.322 N 
ATOM     26  H   UNL     1      -5.891   3.766   4.440  1.00  0.00     0.348 HD
BRANCH  25  27
ATOM     27  C   UNL     1      -7.379   3.805   3.564  1.00  0.00     0.299 C 
BRANCH  27  28
ATOM     28  C   UNL     1      -8.270   3.544   2.363  1.00  0.00     0.006 A 
ATOM     29  C   UNL     1      -9.601   3.982   2.373  1.00  0.00     0.009 A 
ATOM     30  C   UNL     1      -7.823   2.908   1.204  1.00  0.00     0.009 A 
ATOM     31  C   UNL     1     -10.430   3.772   1.263  1.00  0.00     0.001 A 
ATOM     32  C   UNL     1      -8.622   2.728   0.082  1.00  0.00     0.001 A 
ATOM     33  C   UNL     1      -9.937   3.152   0.116  1.00  0.00     0.000 A 
ENDBRANCH  27  28
ENDBRANCH  25  27
ENDBRANCH   8  19
ENDBRANCH   6   8
ENDBRANCH   5   6
ENDBRANCH   4   5
ENDBRANCH   3   4
ENDBRANCH   2   3
ENDBRANCH   1   2
BRANCH   1  34
ATOM     34  C   UNL     1       1.245   3.680  -2.458  1.00  0.00     0.188 C 
BRANCH  34  35
ATOM     35  O   UNL     1       0.606   2.461  -2.812  1.00  0.00    -0.376 OA
BRANCH  35  36
ATOM     36  C   UNL     1       0.686   2.091  -4.177  1.00  0.00     0.202 C 
BRANCH  36  37
ATOM     37  C   UNL     1      -0.225   2.936  -5.077  1.00  0.00     0.261 C 
BRANCH  37  38
ATOM     38  O   UNL     1      -1.564   2.929  -4.541  1.00  0.00    -0.460 OA
BRANCH  38  39
ATOM     39  C   UNL     1      -2.036   4.142  -4.128  1.00  0.00     0.338 C 
ATOM     40  O   UNL     1      -1.893   5.202  -4.708  1.00  0.00    -0.246 OA
BRANCH  39  41
ATOM     41  C   UNL     1      -2.457   4.005  -2.712  1.00  0.00     0.060 A 
ATOM     42  C   UNL     1      -2.272   4.992  -1.755  1.00  0.00     0.016 A 
ATOM     43  C   UNL     1      -2.888   2.814  -2.238  1.00  0.00     0.016 A 
ATOM     44  C   UNL     1      -2.134   4.650  -0.358  1.00  0.00     0.010 A 
ATOM     45  C   UNL     1      -2.817   2.593  -0.849  1.00  0.00     0.010 A 
ATOM     46  C   UNL     1      -2.142   3.337   0.154  1.00  0.00    -0.014 A 
BRANCH  46  47
ATOM     47  C   UNL     1      -1.577   2.938   1.787  1.00  0.00     0.031 A 
ATOM     48  C   UNL     1      -1.794   1.672   3.031  1.00  0.00     0.074 A 
ATOM     49  C   UNL     1      -0.628   3.787   2.231  1.00  0.00     0.049 A 
ATOM     50  N   UNL     1      -2.018   1.859   4.335  1.00  0.00    -0.248 NA
ATOM     51  C   UNL     1      -1.731   0.132   2.928  1.00  0.00     0.031 C 
ATOM     52  C   UNL     1       0.235   3.634   3.390  1.00  0.00     0.029 A 
ATOM     53  N   UNL     1      -0.282   5.048   1.736  1.00  0.00    -0.354 N 
ATOM     54  C   UNL     1      -2.020   0.554   4.918  1.00  0.00     0.074 A 
ATOM     55  C   UNL     1      -2.500  -0.283   3.924  1.00  0.00     0.031 C 
ATOM     56  C   UNL     1       0.757   4.834   3.690  1.00  0.00     0.029 A 
ATOM     57  C   UNL     1       0.078   5.805   2.853  1.00  0.00     0.049 A 
ATOM     58  H   UNL     1      -0.289   5.341   0.796  1.00  0.00     0.167 HD
ATOM     59  C   UNL     1      -1.142   0.067   5.865  1.00  0.00     0.037 A 
ATOM     60  C   UNL     1      -0.714   6.836   3.268  1.00  0.00     0.037 A 
ATOM     61  C   UNL     1      -0.510   1.196   6.480  1.00  0.00     0.049 A 
ATOM     62  C   UNL     1      -1.181   6.630   4.689  1.00  0.00     0.074 A 
ATOM     63  C   UNL     1       0.769   1.706   6.484  1.00  0.00     0.029 A 
ATOM     64  N   UNL     1      -1.350   2.184   6.944  1.00  0.00    -0.354 N 
ATOM     65  N   UNL     1      -1.108   5.474   5.293  1.00  0.00    -0.248 NA
ATOM     66  C   UNL     1      -1.702   7.667   5.572  1.00  0.00     0.031 C 
ATOM     67  C   UNL     1       0.653   3.091   6.808  1.00  0.00     0.029 A 
ATOM     68  C   UNL     1      -0.682   3.377   7.048  1.00  0.00     0.049 A 
ATOM     69  H   UNL     1      -2.299   2.053   7.169  1.00  0.00     0.167 HD
ATOM     70  C   UNL     1      -1.493   5.592   6.593  1.00  0.00     0.074 A 
ATOM     71  C   UNL     1      -1.882   6.981   6.718  1.00  0.00     0.031 C 
ATOM     72  C   UNL     1      -1.459   4.535   7.453  1.00  0.00     0.037 A 
BRANCH  59  73
ATOM     73  C   UNL     1      -0.669  -1.432   6.074  1.00  0.00     0.064 A 
ATOM     74  C   UNL     1       0.224  -1.727   7.133  1.00  0.00     0.173 A 
ATOM     75  C   UNL     1      -0.953  -2.592   5.283  1.00  0.00     0.173 A 
ATOM     76  F   UNL     1       0.614  -0.769   7.984  1.00  0.00    -0.203 F 
ATOM     77  C   UNL     1       0.771  -3.010   7.364  1.00  0.00     0.198 A 
ATOM     78  C   UNL     1      -0.451  -3.880   5.549  1.00  0.00     0.198 A 
ATOM     79  F   UNL     1      -1.671  -2.578   4.158  1.00  0.00    -0.203 F 
ATOM     80  F   UNL     1       1.659  -3.187   8.353  1.00  0.00    -0.200 F 
ATOM     81  C   UNL     1       0.424  -4.089   6.581  1.00  0.00     0.200 A 
ATOM     82  F   UNL     1      -0.804  -4.904   4.755  1.00  0.00    -0.200 F 
ATOM     83  F   UNL     1       0.943  -5.306   6.797  1.00  0.00    -0.200 F 
ENDBRANCH  59  73
BRANCH  60  84
ATOM     84  C   UNL     1      -1.340   7.598   2.139  1.00  0.00     0.064 A 
ATOM     85  C   UNL     1      -0.460   8.073   1.132  1.00  0.00     0.173 A 
ATOM     86  C   UNL     1      -2.703   7.571   1.809  1.00  0.00     0.173 A 
ATOM     87  F   UNL     1       0.862   8.119   1.371  1.00  0.00    -0.203 F 
ATOM     88  C   UNL     1      -0.891   8.368  -0.161  1.00  0.00     0.198 A 
ATOM     89  C   UNL     1      -3.142   7.909   0.513  1.00  0.00     0.198 A 
ATOM     90  F   UNL     1      -3.603   7.091   2.677  1.00  0.00    -0.203 F 
ATOM     91  F   UNL     1       0.008   8.628  -1.122  1.00  0.00    -0.200 F 
ATOM     92  C   UNL     1      -2.233   8.277  -0.473  1.00  0.00     0.200 A 
ATOM     93  F   UNL     1      -4.430   7.745   0.176  1.00  0.00    -0.200 F 
ATOM     94  F   UNL     1      -2.635   8.445  -1.742  1.00  0.00    -0.200 F 
ENDBRANCH  60  84
BRANCH  72  95
ATOM     95  C   UNL     1      -2.230   4.426   8.744  1.00  0.00     0.064 A 
ATOM     96  C   UNL     1      -3.466   5.056   8.948  1.00  0.00     0.173 A 
ATOM     97  C   UNL     1      -1.868   3.444   9.702  1.00  0.00     0.173 A 
ATOM     98  F   UNL     1      -3.960   5.928   8.059  1.00  0.00    -0.203 F 
ATOM     99  C   UNL     1      -4.271   4.745  10.044  1.00  0.00     0.198 A 
ATOM    100  C   UNL     1      -2.712   3.080  10.746  1.00  0.00     0.198 A 
ATOM    101  F   UNL     1      -0.716   2.763   9.606  1.00  0.00    -0.203 F 
ATOM    102  F   UNL     1      -5.431   5.393  10.216  1.00  0.00    -0.200 F 
ATOM    103  C   UNL     1      -3.908   3.742  10.926  1.00  0.00     0.200 A 
ATOM    104  F   UNL     1      -2.379   2.057  11.546  1.00  0.00    -0.200 F 
ATOM    105  F   UNL     1      -4.721   3.398  11.933  1.00  0.00    -0.200 F 
ENDBRANCH  72  95
ENDBRANCH  46  47
ENDBRANCH  39  41
ENDBRANCH  38  39
ENDBRANCH  37  38
ENDBRANCH  36  37
ENDBRANCH  35  36
ENDBRANCH  34  35
ENDBRANCH   1  34
TORSDOF 23
