REMARK SMILES Cc1cccc(-n2c(C)cc(/C=N\c3ccc(O)c(C(=O)OCCOCCOCCOC(=O)c4ccc(-c5c6nc(c(-c7c(F)c(F)c(F)c(F)c7F)c7ccc([nH]7)c(-c7c(F)c(F)c(F)c(F)c7F)c7nc(c(-c8c(F)c(F)c(F)c(F)c8F)c8ccc5[nH]8)C=C7)C=C6)cc4)c3)c2C)c1
REMARK SMILES IDX 26 1 25 2 24 3 23 4 22 5 20 6 21 7 19 8 14 9 15 10 97 11
REMARK SMILES IDX 16 12 17 13 13 14 12 15 11 16 7 17 8 18 98 19 9 20 10 21
REMARK SMILES IDX 99 22 6 23 1 24 2 25 3 26 100 27 4 28 5 29 18 30 27 32 28 33
REMARK SMILES IDX 29 34 30 35 31 36 32 37 33 38 34 39 35 40 96 41 36 42 95 43
REMARK SMILES IDX 37 44 38 45 39 46 89 47 40 48 94 49 88 50 90 51 41 52 93 53
REMARK SMILES IDX 87 54 86 55 42 57 74 58 54 59 73 60 55 61 58 62 72 63 91 64
REMARK SMILES IDX 56 65 57 66 71 68 92 69 59 70 43 71 44 72 52 73 45 74 46 75
REMARK SMILES IDX 50 76 53 77 47 78 48 79 51 80 49 81 75 82 76 83 84 84 77 85
REMARK SMILES IDX 78 86 82 87 85 88 79 89 80 90 83 91 81 92 60 93 61 94 69 95
REMARK SMILES IDX 62 96 63 97 67 98 70 99 64 100 65 101 68 102 66 103
REMARK H PARENT 18 31 90 56 58 67
REMARK Flexibility Score: inf
ROOT
ATOM      1  C   UNL     1      -8.172  -0.744   7.633  1.00  0.00     0.188 C 
ENDROOT
BRANCH   1   2
ATOM      2  O   UNL     1      -7.861  -1.956   6.932  1.00  0.00    -0.376 OA
BRANCH   2   3
ATOM      3  C   UNL     1      -6.665  -2.720   7.166  1.00  0.00     0.202 C 
BRANCH   3   4
ATOM      4  C   UNL     1      -5.397  -2.838   6.149  1.00  0.00     0.261 C 
BRANCH   4   5
ATOM      5  O   UNL     1      -4.647  -1.621   5.644  1.00  0.00    -0.460 OA
BRANCH   5   6
ATOM      6  C   UNL     1      -3.332  -1.220   5.584  1.00  0.00     0.342 C 
ATOM      7  O   UNL     1      -2.440  -1.997   5.916  1.00  0.00    -0.246 OA
BRANCH   6   8
ATOM      8  C   UNL     1      -2.905   0.348   5.129  1.00  0.00     0.103 A 
ATOM      9  C   UNL     1      -3.015   2.625   3.843  1.00  0.00     0.064 A 
ATOM     10  C   UNL     1      -1.783   2.941   4.363  1.00  0.00     0.032 A 
ATOM     11  C   UNL     1      -3.561   1.385   4.312  1.00  0.00     0.048 A 
ATOM     12  C   UNL     1      -1.112   2.018   5.192  1.00  0.00     0.049 A 
ATOM     13  C   UNL     1      -1.636   0.747   5.527  1.00  0.00     0.130 A 
BRANCH   9  14
ATOM     14  N   UNL     1      -3.768   3.561   3.077  1.00  0.00    -0.256 NA
ATOM     15  C   UNL     1      -3.623   4.015   1.851  1.00  0.00     0.121 C 
BRANCH  15  16
ATOM     16  C   UNL     1      -2.764   3.621   0.718  1.00  0.00     0.014 A 
ATOM     17  N   UNL     1      -1.564   2.300  -0.700  1.00  0.00    -0.318 N 
ATOM     18  C   UNL     1      -1.511   3.574  -1.223  1.00  0.00     0.021 A 
ATOM     19  C   UNL     1      -2.395   2.334   0.397  1.00  0.00     0.029 A 
ATOM     20  C   UNL     1      -0.768   3.872  -2.481  1.00  0.00     0.065 C 
ATOM     21  C   UNL     1      -2.291   4.390  -0.401  1.00  0.00     0.033 A 
ATOM     22  C   UNL     1      -2.754   1.143   1.140  1.00  0.00     0.065 C 
BRANCH  17  23
ATOM     23  C   UNL     1      -0.769   1.165  -1.026  1.00  0.00     0.046 A 
ATOM     24  C   UNL     1       2.702   0.015   0.008  1.00  0.00     0.044 C 
ATOM     25  C   UNL     1       1.273   0.006  -0.445  1.00  0.00    -0.049 A 
ATOM     26  C   UNL     1       0.602  -1.219  -0.590  1.00  0.00     0.003 A 
ATOM     27  C   UNL     1       0.582   1.205  -0.667  1.00  0.00     0.030 A 
ATOM     28  C   UNL     1      -0.722  -1.255  -1.024  1.00  0.00     0.002 A 
ATOM     29  C   UNL     1      -1.399  -0.063  -1.276  1.00  0.00     0.026 A 
ENDBRANCH  17  23
ENDBRANCH  15  16
ENDBRANCH   9  14
BRANCH  13  30
ATOM     30  O   UNL     1      -0.803  -0.059   6.256  1.00  0.00    -0.507 OA
ATOM     31  H   UNL     1       0.046   0.249   6.505  1.00  0.00     0.293 HD
ENDBRANCH  13  30
ENDBRANCH   6   8
ENDBRANCH   5   6
ENDBRANCH   4   5
ENDBRANCH   3   4
ENDBRANCH   2   3
ENDBRANCH   1   2
BRANCH   1  32
ATOM     32  C   UNL     1      -7.817  -0.498   9.079  1.00  0.00     0.188 C 
BRANCH  32  33
ATOM     33  O   UNL     1      -6.426  -0.679   9.244  1.00  0.00    -0.376 OA
BRANCH  33  34
ATOM     34  C   UNL     1      -5.939  -0.447  10.552  1.00  0.00     0.202 C 
BRANCH  34  35
ATOM     35  C   UNL     1      -6.074   1.021  11.010  1.00  0.00     0.261 C 
BRANCH  35  36
ATOM     36  O   UNL     1      -5.240   1.897  10.203  1.00  0.00    -0.460 OA
BRANCH  36  37
ATOM     37  C   UNL     1      -5.847   2.798   9.364  1.00  0.00     0.338 C 
ATOM     38  O   UNL     1      -6.572   3.713   9.748  1.00  0.00    -0.246 OA
BRANCH  37  39
ATOM     39  C   UNL     1      -5.641   2.411   7.923  1.00  0.00     0.060 A 
ATOM     40  C   UNL     1      -6.320   2.911   6.798  1.00  0.00     0.016 A 
ATOM     41  C   UNL     1      -4.956   1.257   7.728  1.00  0.00     0.016 A 
ATOM     42  C   UNL     1      -6.440   2.136   5.563  1.00  0.00     0.010 A 
ATOM     43  C   UNL     1      -5.394   0.446   6.686  1.00  0.00     0.010 A 
ATOM     44  C   UNL     1      -6.054   0.789   5.481  1.00  0.00    -0.014 A 
BRANCH  44  45
ATOM     45  C   UNL     1      -6.382  -0.304   4.309  1.00  0.00     0.031 A 
ATOM     46  C   UNL     1      -5.422  -1.251   3.381  1.00  0.00     0.074 A 
ATOM     47  C   UNL     1      -7.646  -0.779   4.328  1.00  0.00     0.049 A 
ATOM     48  N   UNL     1      -5.671  -2.494   3.048  1.00  0.00    -0.248 NA
ATOM     49  C   UNL     1      -4.091  -0.979   2.838  1.00  0.00     0.031 C 
ATOM     50  C   UNL     1      -8.203  -2.042   3.829  1.00  0.00     0.029 A 
ATOM     51  N   UNL     1      -8.792  -0.125   4.778  1.00  0.00    -0.354 N 
ATOM     52  C   UNL     1      -4.560  -3.107   2.477  1.00  0.00     0.074 A 
ATOM     53  C   UNL     1      -3.557  -2.119   2.408  1.00  0.00     0.031 C 
ATOM     54  C   UNL     1      -9.522  -1.894   3.630  1.00  0.00     0.029 A 
ATOM     55  C   UNL     1      -9.810  -0.500   3.875  1.00  0.00     0.049 A 
ATOM     56  H   UNL     1      -8.874   0.471   5.558  1.00  0.00     0.167 HD
ATOM     57  C   UNL     1      -4.607  -4.324   1.876  1.00  0.00     0.037 A 
ATOM     58  C   UNL     1     -10.211   0.445   2.981  1.00  0.00     0.037 A 
ATOM     59  C   UNL     1      -5.944  -4.456   1.328  1.00  0.00     0.049 A 
ATOM     60  C   UNL     1      -9.724   0.079   1.589  1.00  0.00     0.074 A 
ATOM     61  C   UNL     1      -7.146  -4.983   1.745  1.00  0.00     0.029 A 
ATOM     62  N   UNL     1      -6.250  -3.551   0.323  1.00  0.00    -0.354 N 
ATOM     63  N   UNL     1      -8.989  -0.976   1.333  1.00  0.00    -0.248 NA
ATOM     64  C   UNL     1     -10.012   0.833   0.377  1.00  0.00     0.031 C 
ATOM     65  C   UNL     1      -8.181  -4.206   1.110  1.00  0.00     0.029 A 
ATOM     66  C   UNL     1      -7.597  -3.253   0.282  1.00  0.00     0.049 A 
ATOM     67  H   UNL     1      -5.584  -3.165  -0.290  1.00  0.00     0.167 HD
ATOM     68  C   UNL     1      -8.733  -1.083   0.007  1.00  0.00     0.074 A 
ATOM     69  C   UNL     1      -9.363   0.106  -0.554  1.00  0.00     0.031 C 
ATOM     70  C   UNL     1      -8.043  -2.128  -0.544  1.00  0.00     0.037 A 
BRANCH  57  71
ATOM     71  C   UNL     1      -3.442  -5.270   1.618  1.00  0.00     0.064 A 
ATOM     72  C   UNL     1      -3.700  -6.556   1.093  1.00  0.00     0.173 A 
ATOM     73  C   UNL     1      -2.093  -5.060   1.996  1.00  0.00     0.173 A 
ATOM     74  F   UNL     1      -4.941  -6.911   0.730  1.00  0.00    -0.203 F 
ATOM     75  C   UNL     1      -2.707  -7.540   0.966  1.00  0.00     0.198 A 
ATOM     76  C   UNL     1      -1.092  -6.033   1.832  1.00  0.00     0.198 A 
ATOM     77  F   UNL     1      -1.685  -3.928   2.579  1.00  0.00    -0.203 F 
ATOM     78  F   UNL     1      -3.031  -8.757   0.506  1.00  0.00    -0.200 F 
ATOM     79  C   UNL     1      -1.402  -7.278   1.331  1.00  0.00     0.200 A 
ATOM     80  F   UNL     1       0.172  -5.758   2.189  1.00  0.00    -0.200 F 
ATOM     81  F   UNL     1      -0.457  -8.222   1.220  1.00  0.00    -0.200 F 
ENDBRANCH  57  71
BRANCH  58  82
ATOM     82  C   UNL     1     -10.318   1.770   3.697  1.00  0.00     0.064 A 
ATOM     83  C   UNL     1     -11.039   1.756   4.929  1.00  0.00     0.173 A 
ATOM     84  C   UNL     1      -9.424   2.829   3.520  1.00  0.00     0.173 A 
ATOM     85  F   UNL     1     -11.917   0.767   5.177  1.00  0.00    -0.203 F 
ATOM     86  C   UNL     1     -10.721   2.606   5.987  1.00  0.00     0.198 A 
ATOM     87  C   UNL     1      -9.181   3.747   4.560  1.00  0.00     0.198 A 
ATOM     88  F   UNL     1      -8.671   2.906   2.414  1.00  0.00    -0.203 F 
ATOM     89  F   UNL     1     -11.250   2.394   7.202  1.00  0.00    -0.200 F 
ATOM     90  C   UNL     1      -9.777   3.593   5.806  1.00  0.00     0.200 A 
ATOM     91  F   UNL     1      -8.247   4.697   4.403  1.00  0.00    -0.200 F 
ATOM     92  F   UNL     1      -9.390   4.351   6.844  1.00  0.00    -0.200 F 
ENDBRANCH  58  82
BRANCH  70  93
ATOM     93  C   UNL     1      -7.747  -2.122  -2.008  1.00  0.00     0.064 A 
ATOM     94  C   UNL     1      -8.775  -1.988  -2.948  1.00  0.00     0.173 A 
ATOM     95  C   UNL     1      -6.443  -2.297  -2.507  1.00  0.00     0.173 A 
ATOM     96  F   UNL     1     -10.050  -1.863  -2.550  1.00  0.00    -0.203 F 
ATOM     97  C   UNL     1      -8.504  -1.956  -4.312  1.00  0.00     0.198 A 
ATOM     98  C   UNL     1      -6.186  -2.351  -3.871  1.00  0.00     0.198 A 
ATOM     99  F   UNL     1      -5.385  -2.386  -1.685  1.00  0.00    -0.203 F 
ATOM    100  F   UNL     1      -9.497  -1.718  -5.179  1.00  0.00    -0.200 F 
ATOM    101  C   UNL     1      -7.213  -2.152  -4.774  1.00  0.00     0.200 A 
ATOM    102  F   UNL     1      -4.936  -2.574  -4.302  1.00  0.00    -0.200 F 
ATOM    103  F   UNL     1      -6.955  -2.132  -6.088  1.00  0.00    -0.200 F 
ENDBRANCH  70  93
ENDBRANCH  44  45
ENDBRANCH  37  39
ENDBRANCH  36  37
ENDBRANCH  35  36
ENDBRANCH  34  35
ENDBRANCH  33  34
ENDBRANCH  32  33
ENDBRANCH   1  32
TORSDOF 21
