REMARK SMILES C=CCN(CC(=O)OCCOCCOCCOC(=O)c1ccc(-c2c3nc(c(-c4c(F)c(F)c(F)c(F)c4F)c4ccc([nH]4)c(-c4c(F)c(F)c(F)c(F)c4F)c4nc(c(-c5c(F)c(F)c(F)c(F)c5F)c5ccc2[nH]5)C=C4)C=C3)cc1)C(=O)c1sc(N)nc1C
REMARK SMILES IDX 12 1 11 2 10 3 9 4 8 5 6 6 7 7 5 8 4 9 3 10 2 11 1 12 83 13
REMARK SMILES IDX 84 14 85 15 86 16 90 17 87 18 89 19 91 20 88 21 13 24 14 25
REMARK SMILES IDX 15 26 16 27 17 28 18 29 19 30 20 31 21 32 82 33 22 34 81 35
REMARK SMILES IDX 23 36 24 37 25 38 75 39 26 40 80 41 74 42 76 43 27 44 79 45
REMARK SMILES IDX 73 46 72 47 28 49 60 50 40 51 59 52 41 53 44 54 58 55 77 56
REMARK SMILES IDX 42 57 43 58 57 60 78 61 45 62 29 63 30 64 38 65 31 66 32 67
REMARK SMILES IDX 36 68 39 69 33 70 34 71 37 72 35 73 61 74 62 75 70 76 63 77
REMARK SMILES IDX 64 78 68 79 71 80 65 81 66 82 69 83 67 84 46 85 47 86 55 87
REMARK SMILES IDX 48 88 49 89 53 90 56 91 50 92 51 93 54 94 52 95
REMARK H PARENT 88 22 88 23 76 48 44 59
REMARK Flexibility Score: inf
ROOT
ATOM      1  C   UNL     1      -5.657   1.902  -4.087  1.00  0.00     0.188 C 
ENDROOT
BRANCH   1   2
ATOM      2  O   UNL     1      -6.592   0.819  -4.062  1.00  0.00    -0.376 OA
BRANCH   2   3
ATOM      3  C   UNL     1      -6.999   0.406  -2.764  1.00  0.00     0.202 C 
BRANCH   3   4
ATOM      4  C   UNL     1      -6.296  -0.896  -2.192  1.00  0.00     0.261 C 
BRANCH   4   5
ATOM      5  O   UNL     1      -4.822  -0.937  -1.938  1.00  0.00    -0.462 OA
BRANCH   5   6
ATOM      6  C   UNL     1      -4.059  -2.032  -2.313  1.00  0.00     0.325 C 
ATOM      7  O   UNL     1      -4.573  -3.077  -2.710  1.00  0.00    -0.250 OA
BRANCH   6   8
ATOM      8  C   UNL     1      -2.396  -1.789  -2.462  1.00  0.00     0.242 C 
BRANCH   8   9
ATOM      9  N   UNL     1      -1.480  -0.605  -2.066  1.00  0.00    -0.323 N 
BRANCH   9  10
ATOM     10  C   UNL     1      -1.028  -0.744  -0.681  1.00  0.00     0.147 C 
BRANCH  10  11
ATOM     11  C   UNL     1       0.447  -0.996  -0.572  1.00  0.00    -0.014 C 
ATOM     12  C   UNL     1       1.232  -0.243   0.213  1.00  0.00     0.006 C 
ENDBRANCH  10  11
ENDBRANCH   9  10
BRANCH   9  13
ATOM     13  C   UNL     1      -0.890   0.562  -2.796  1.00  0.00     0.266 C 
ATOM     14  O   UNL     1       0.081   1.142  -2.306  1.00  0.00    -0.268 OA
BRANCH  13  15
ATOM     15  C   UNL     1      -1.465   1.136  -4.046  1.00  0.00     0.117 A 
ATOM     16  S   UNL     1      -0.136   2.307  -5.569  1.00  0.00    -0.092 S 
ATOM     17  C   UNL     1      -2.962   0.799  -4.753  1.00  0.00     0.063 A 
ATOM     18  C   UNL     1      -2.132   2.127  -7.114  1.00  0.00     0.180 A 
ATOM     19  N   UNL     1      -3.294   1.383  -6.369  1.00  0.00    -0.225 NA
ATOM     20  C   UNL     1      -3.727  -0.399  -4.514  1.00  0.00     0.068 C 
BRANCH  18  21
ATOM     21  N   UNL     1      -2.615   2.621  -8.324  1.00  0.00    -0.375 N 
ATOM     22  H   UNL     1      -2.018   3.120  -8.927  1.00  0.00     0.159 HD
ATOM     23  H   UNL     1      -3.555   2.471  -8.576  1.00  0.00     0.159 HD
ENDBRANCH  18  21
ENDBRANCH  13  15
ENDBRANCH   9  13
ENDBRANCH   8   9
ENDBRANCH   6   8
ENDBRANCH   5   6
ENDBRANCH   4   5
ENDBRANCH   3   4
ENDBRANCH   2   3
ENDBRANCH   1   2
BRANCH   1  24
ATOM     24  C   UNL     1      -4.756   1.966  -2.833  1.00  0.00     0.188 C 
BRANCH  24  25
ATOM     25  O   UNL     1      -5.239   2.755  -1.786  1.00  0.00    -0.376 OA
BRANCH  25  26
ATOM     26  C   UNL     1      -5.280   4.134  -2.074  1.00  0.00     0.202 C 
BRANCH  26  27
ATOM     27  C   UNL     1      -4.471   4.795  -3.240  1.00  0.00     0.261 C 
BRANCH  27  28
ATOM     28  O   UNL     1      -3.880   3.986  -4.308  1.00  0.00    -0.460 OA
BRANCH  28  29
ATOM     29  C   UNL     1      -2.595   3.532  -4.150  1.00  0.00     0.338 C 
ATOM     30  O   UNL     1      -1.877   3.854  -3.216  1.00  0.00    -0.246 OA
BRANCH  29  31
ATOM     31  C   UNL     1      -2.095   2.696  -5.401  1.00  0.00     0.060 A 
ATOM     32  C   UNL     1      -1.407   0.863  -6.058  1.00  0.00     0.016 A 
ATOM     33  C   UNL     1      -1.539   4.066  -6.385  1.00  0.00     0.016 A 
ATOM     34  C   UNL     1      -0.408   0.724  -7.398  1.00  0.00     0.010 A 
ATOM     35  C   UNL     1      -0.539   3.704  -7.709  1.00  0.00     0.010 A 
ATOM     36  C   UNL     1      -0.090   2.089  -8.206  1.00  0.00    -0.014 A 
BRANCH  36  37
ATOM     37  C   UNL     1       0.240   1.777  -9.622  1.00  0.00     0.031 A 
ATOM     38  C   UNL     1       1.341   2.551 -10.216  1.00  0.00     0.074 A 
ATOM     39  C   UNL     1      -0.430   0.807 -10.308  1.00  0.00     0.049 A 
ATOM     40  N   UNL     1       1.809   2.494 -11.425  1.00  0.00    -0.248 NA
ATOM     41  C   UNL     1       1.959   3.575  -9.359  1.00  0.00     0.031 C 
ATOM     42  C   UNL     1      -1.586   0.019  -9.834  1.00  0.00     0.029 A 
ATOM     43  N   UNL     1      -0.204   0.259 -11.548  1.00  0.00    -0.354 N 
ATOM     44  C   UNL     1       2.761   3.490 -11.466  1.00  0.00     0.074 A 
ATOM     45  C   UNL     1       2.688   4.236 -10.236  1.00  0.00     0.031 C 
ATOM     46  C   UNL     1      -1.871  -0.967 -10.693  1.00  0.00     0.029 A 
ATOM     47  C   UNL     1      -1.005  -0.829 -11.842  1.00  0.00     0.049 A 
ATOM     48  H   UNL     1       0.470   0.611 -12.174  1.00  0.00     0.167 HD
ATOM     49  C   UNL     1       3.680   3.694 -12.424  1.00  0.00     0.037 A 
ATOM     50  C   UNL     1      -1.043  -1.624 -12.927  1.00  0.00     0.037 A 
ATOM     51  C   UNL     1       3.751   2.896 -13.607  1.00  0.00     0.049 A 
ATOM     52  C   UNL     1      -0.061  -1.309 -14.017  1.00  0.00     0.074 A 
ATOM     53  C   UNL     1       4.632   3.007 -14.659  1.00  0.00     0.029 A 
ATOM     54  N   UNL     1       2.894   1.838 -13.892  1.00  0.00    -0.354 N 
ATOM     55  N   UNL     1       0.874  -0.389 -14.034  1.00  0.00    -0.248 NA
ATOM     56  C   UNL     1      -0.136  -2.121 -15.234  1.00  0.00     0.031 C 
ATOM     57  C   UNL     1       4.248   2.080 -15.628  1.00  0.00     0.029 A 
ATOM     58  C   UNL     1       3.199   1.317 -15.134  1.00  0.00     0.049 A 
ATOM     59  H   UNL     1       2.180   1.511 -13.299  1.00  0.00     0.167 HD
ATOM     60  C   UNL     1       1.519  -0.527 -15.250  1.00  0.00     0.074 A 
ATOM     61  C   UNL     1       0.882  -1.638 -15.930  1.00  0.00     0.031 C 
ATOM     62  C   UNL     1       2.542   0.199 -15.761  1.00  0.00     0.037 A 
BRANCH  49  63
ATOM     63  C   UNL     1       4.619   4.832 -12.210  1.00  0.00     0.064 A 
ATOM     64  C   UNL     1       5.540   4.853 -11.149  1.00  0.00     0.173 A 
ATOM     65  C   UNL     1       4.533   5.957 -13.037  1.00  0.00     0.173 A 
ATOM     66  F   UNL     1       5.621   3.817 -10.299  1.00  0.00    -0.203 F 
ATOM     67  C   UNL     1       6.308   5.984 -10.898  1.00  0.00     0.198 A 
ATOM     68  C   UNL     1       5.342   7.063 -12.816  1.00  0.00     0.198 A 
ATOM     69  F   UNL     1       3.645   5.992 -14.042  1.00  0.00    -0.203 F 
ATOM     70  F   UNL     1       7.103   6.026  -9.820  1.00  0.00    -0.200 F 
ATOM     71  C   UNL     1       6.217   7.082 -11.739  1.00  0.00     0.200 A 
ATOM     72  F   UNL     1       5.257   8.121 -13.632  1.00  0.00    -0.200 F 
ATOM     73  F   UNL     1       6.961   8.170 -11.502  1.00  0.00    -0.200 F 
ENDBRANCH  49  63
BRANCH  50  74
ATOM     74  C   UNL     1      -2.022  -2.745 -13.053  1.00  0.00     0.064 A 
ATOM     75  C   UNL     1      -1.598  -4.075 -13.201  1.00  0.00     0.173 A 
ATOM     76  C   UNL     1      -3.407  -2.510 -13.081  1.00  0.00     0.173 A 
ATOM     77  F   UNL     1      -0.288  -4.366 -13.191  1.00  0.00    -0.203 F 
ATOM     78  C   UNL     1      -2.510  -5.110 -13.421  1.00  0.00     0.198 A 
ATOM     79  C   UNL     1      -4.320  -3.551 -13.256  1.00  0.00     0.198 A 
ATOM     80  F   UNL     1      -3.881  -1.264 -12.938  1.00  0.00    -0.203 F 
ATOM     81  F   UNL     1      -2.066  -6.356 -13.640  1.00  0.00    -0.200 F 
ATOM     82  C   UNL     1      -3.870  -4.847 -13.446  1.00  0.00     0.200 A 
ATOM     83  F   UNL     1      -5.635  -3.292 -13.258  1.00  0.00    -0.200 F 
ATOM     84  F   UNL     1      -4.745  -5.838 -13.667  1.00  0.00    -0.200 F 
ENDBRANCH  50  74
BRANCH  62  85
ATOM     85  C   UNL     1       3.068  -0.222 -17.097  1.00  0.00     0.064 A 
ATOM     86  C   UNL     1       2.319  -0.063 -18.270  1.00  0.00     0.173 A 
ATOM     87  C   UNL     1       4.378  -0.713 -17.204  1.00  0.00     0.173 A 
ATOM     88  F   UNL     1       1.060   0.398 -18.213  1.00  0.00    -0.203 F 
ATOM     89  C   UNL     1       2.854  -0.415 -19.503  1.00  0.00     0.198 A 
ATOM     90  C   UNL     1       4.928  -1.008 -18.444  1.00  0.00     0.198 A 
ATOM     91  F   UNL     1       5.138  -0.864 -16.108  1.00  0.00    -0.203 F 
ATOM     92  F   UNL     1       2.101  -0.316 -20.607  1.00  0.00    -0.200 F 
ATOM     93  C   UNL     1       4.161  -0.872 -19.590  1.00  0.00     0.200 A 
ATOM     94  F   UNL     1       6.202  -1.413 -18.528  1.00  0.00    -0.200 F 
ATOM     95  F   UNL     1       4.683  -1.184 -20.784  1.00  0.00    -0.200 F 
ENDBRANCH  62  85
ENDBRANCH  36  37
ENDBRANCH  29  31
ENDBRANCH  28  29
ENDBRANCH  27  28
ENDBRANCH  26  27
ENDBRANCH  25  26
ENDBRANCH  24  25
ENDBRANCH   1  24
TORSDOF 23
