REMARK SMILES CCCc1c(C(=O)OCCOCCOCCOC(=O)c2ccc(-c3c4nc(c(-c5c(F)c(F)c(F)c(F)c5F)c5ccc([nH]5)c(-c5c(F)c(F)c(F)c(F)c5F)c5nc(c(-c6c(F)c(F)c(F)c(F)c6F)c6ccc3[nH]6)C=C5)C=C4)cc2)nnn1-c1ccccc1[N+](=O)[O-]
REMARK SMILES IDX 12 1 11 2 10 3 9 4 8 5 6 6 7 7 5 8 4 9 85 10 83 11 84 12
REMARK SMILES IDX 3 13 2 14 1 15 86 16 87 17 91 18 88 19 90 20 89 21 92 22
REMARK SMILES IDX 93 23 94 24 13 25 14 26 15 27 16 28 17 29 18 30 19 31 20 32
REMARK SMILES IDX 21 33 82 34 22 35 81 36 23 37 24 38 25 39 75 40 26 41 80 42
REMARK SMILES IDX 74 43 76 44 27 45 79 46 73 47 72 48 28 50 60 51 40 52 59 53
REMARK SMILES IDX 41 54 44 55 58 56 77 57 42 58 43 59 57 61 78 62 45 63 29 64
REMARK SMILES IDX 30 65 38 66 31 67 32 68 36 69 39 70 33 71 34 72 37 73 35 74
REMARK SMILES IDX 61 75 62 76 70 77 63 78 64 79 68 80 71 81 65 82 66 83 69 84
REMARK SMILES IDX 67 85 46 86 47 87 55 88 48 89 49 90 53 91 56 92 50 93 51 94
REMARK SMILES IDX 54 95 52 96
REMARK H PARENT 76 49 44 60
REMARK Flexibility Score: inf
ROOT
ATOM      1  C   UNL     1      -3.949   2.231   1.018  1.00  0.00     0.188 C 
ENDROOT
BRANCH   1   2
ATOM      2  O   UNL     1      -4.776   1.329   0.316  1.00  0.00    -0.376 OA
BRANCH   2   3
ATOM      3  C   UNL     1      -4.220   0.281  -0.460  1.00  0.00     0.202 C 
BRANCH   3   4
ATOM      4  C   UNL     1      -2.751   0.215  -0.918  1.00  0.00     0.261 C 
BRANCH   4   5
ATOM      5  O   UNL     1      -1.783   0.723   0.003  1.00  0.00    -0.458 OA
BRANCH   5   6
ATOM      6  C   UNL     1      -1.067   1.808  -0.413  1.00  0.00     0.360 C 
ATOM      7  O   UNL     1      -1.187   2.319  -1.522  1.00  0.00    -0.244 OA
BRANCH   6   8
ATOM      8  C   UNL     1      -0.253   2.402   0.637  1.00  0.00     0.194 A 
ATOM      9  C   UNL     1       0.592   1.849   1.599  1.00  0.00     0.080 A 
ATOM     10  N   UNL     1       1.145   2.985   2.192  1.00  0.00    -0.210 N 
ATOM     11  N   UNL     1      -0.351   3.759   0.860  1.00  0.00    -0.122 NA
ATOM     12  N   UNL     1       0.390   4.065   1.908  1.00  0.00    -0.061 NA
BRANCH   9  13
ATOM     13  C   UNL     1       0.896   0.464   2.089  1.00  0.00     0.059 C 
BRANCH  13  14
ATOM     14  C   UNL     1       0.674  -0.706   1.137  1.00  0.00     0.003 C 
ATOM     15  C   UNL     1       1.401  -0.601  -0.193  1.00  0.00     0.004 C 
ENDBRANCH  13  14
ENDBRANCH   9  13
BRANCH  10  16
ATOM     16  C   UNL     1       2.317   3.145   2.962  1.00  0.00     0.144 A 
ATOM     17  C   UNL     1       2.253   3.933   4.122  1.00  0.00     0.036 A 
ATOM     18  C   UNL     1       3.553   2.606   2.577  1.00  0.00     0.294 A 
ATOM     19  C   UNL     1       3.392   4.108   4.916  1.00  0.00     0.003 A 
ATOM     20  C   UNL     1       4.696   2.783   3.372  1.00  0.00     0.088 A 
ATOM     21  C   UNL     1       4.606   3.526   4.548  1.00  0.00     0.007 A 
BRANCH  18  22
ATOM     22  N   UNL     1       3.758   1.992   1.271  1.00  0.00     0.065 N 
ATOM     23  O   UNL     1       4.402   0.935   1.243  1.00  0.00    -0.258 OA
ATOM     24  O   UNL     1       3.289   2.571   0.284  1.00  0.00    -0.258 OA
ENDBRANCH  18  22
ENDBRANCH  10  16
ENDBRANCH   6   8
ENDBRANCH   5   6
ENDBRANCH   4   5
ENDBRANCH   3   4
ENDBRANCH   2   3
ENDBRANCH   1   2
BRANCH   1  25
ATOM     25  C   UNL     1      -3.240   1.767   2.308  1.00  0.00     0.188 C 
BRANCH  25  26
ATOM     26  O   UNL     1      -2.943   0.407   2.559  1.00  0.00    -0.376 OA
BRANCH  26  27
ATOM     27  C   UNL     1      -3.928  -0.594   2.747  1.00  0.00     0.202 C 
BRANCH  27  28
ATOM     28  C   UNL     1      -5.349  -0.354   3.248  1.00  0.00     0.261 C 
BRANCH  28  29
ATOM     29  O   UNL     1      -5.867   0.937   3.026  1.00  0.00    -0.460 OA
BRANCH  29  30
ATOM     30  C   UNL     1      -5.712   1.753   4.087  1.00  0.00     0.338 C 
ATOM     31  O   UNL     1      -5.019   1.569   5.073  1.00  0.00    -0.246 OA
BRANCH  30  32
ATOM     32  C   UNL     1      -6.601   2.899   3.926  1.00  0.00     0.060 A 
ATOM     33  C   UNL     1      -6.394   3.970   4.796  1.00  0.00     0.016 A 
ATOM     34  C   UNL     1      -7.785   2.732   3.195  1.00  0.00     0.016 A 
ATOM     35  C   UNL     1      -7.478   4.745   5.125  1.00  0.00     0.010 A 
ATOM     36  C   UNL     1      -8.872   3.491   3.541  1.00  0.00     0.010 A 
ATOM     37  C   UNL     1      -8.719   4.419   4.568  1.00  0.00    -0.014 A 
BRANCH  37  38
ATOM     38  C   UNL     1      -9.877   5.112   5.077  1.00  0.00     0.031 A 
ATOM     39  C   UNL     1      -9.998   6.490   4.569  1.00  0.00     0.074 A 
ATOM     40  C   UNL     1     -10.776   4.497   5.867  1.00  0.00     0.049 A 
ATOM     41  N   UNL     1      -9.964   7.586   5.248  1.00  0.00    -0.248 NA
ATOM     42  C   UNL     1     -10.008   6.677   3.109  1.00  0.00     0.031 C 
ATOM     43  C   UNL     1     -10.871   3.071   6.187  1.00  0.00     0.029 A 
ATOM     44  N   UNL     1     -11.874   5.023   6.469  1.00  0.00    -0.354 N 
ATOM     45  C   UNL     1     -10.136   8.601   4.316  1.00  0.00     0.074 A 
ATOM     46  C   UNL     1      -9.977   8.005   3.017  1.00  0.00     0.031 C 
ATOM     47  C   UNL     1     -12.086   2.820   6.727  1.00  0.00     0.029 A 
ATOM     48  C   UNL     1     -12.797   4.078   6.892  1.00  0.00     0.049 A 
ATOM     49  H   UNL     1     -12.004   5.990   6.594  1.00  0.00     0.167 HD
ATOM     50  C   UNL     1     -10.669   9.794   4.686  1.00  0.00     0.037 A 
ATOM     51  C   UNL     1     -14.079   4.326   7.256  1.00  0.00     0.037 A 
ATOM     52  C   UNL     1     -10.531  10.010   6.104  1.00  0.00     0.049 A 
ATOM     53  C   UNL     1     -14.181   5.777   7.566  1.00  0.00     0.074 A 
ATOM     54  C   UNL     1      -9.457  10.087   6.970  1.00  0.00     0.029 A 
ATOM     55  N   UNL     1     -11.637   9.825   6.897  1.00  0.00    -0.354 N 
ATOM     56  N   UNL     1     -13.632   6.344   8.603  1.00  0.00    -0.248 NA
ATOM     57  C   UNL     1     -14.541   6.680   6.481  1.00  0.00     0.031 C 
ATOM     58  C   UNL     1      -9.909   9.488   8.182  1.00  0.00     0.029 A 
ATOM     59  C   UNL     1     -11.243   9.121   8.005  1.00  0.00     0.049 A 
ATOM     60  H   UNL     1     -12.549  10.142   6.704  1.00  0.00     0.167 HD
ATOM     61  C   UNL     1     -13.182   7.570   8.136  1.00  0.00     0.074 A 
ATOM     62  C   UNL     1     -13.864   7.767   6.861  1.00  0.00     0.031 C 
ATOM     63  C   UNL     1     -12.085   8.167   8.686  1.00  0.00     0.037 A 
BRANCH  50  64
ATOM     64  C   UNL     1     -11.667  10.545   3.839  1.00  0.00     0.064 A 
ATOM     65  C   UNL     1     -12.091  11.817   4.266  1.00  0.00     0.173 A 
ATOM     66  C   UNL     1     -12.448   9.951   2.821  1.00  0.00     0.173 A 
ATOM     67  F   UNL     1     -11.434  12.465   5.239  1.00  0.00    -0.203 F 
ATOM     68  C   UNL     1     -13.261  12.403   3.778  1.00  0.00     0.198 A 
ATOM     69  C   UNL     1     -13.581  10.566   2.296  1.00  0.00     0.198 A 
ATOM     70  F   UNL     1     -12.226   8.711   2.371  1.00  0.00    -0.203 F 
ATOM     71  F   UNL     1     -13.703  13.547   4.317  1.00  0.00    -0.200 F 
ATOM     72  C   UNL     1     -14.009  11.774   2.801  1.00  0.00     0.200 A 
ATOM     73  F   UNL     1     -14.301   9.929   1.362  1.00  0.00    -0.200 F 
ATOM     74  F   UNL     1     -15.167  12.300   2.383  1.00  0.00    -0.200 F 
ENDBRANCH  50  64
BRANCH  51  75
ATOM     75  C   UNL     1     -15.277   3.474   7.060  1.00  0.00     0.064 A 
ATOM     76  C   UNL     1     -16.482   3.768   7.720  1.00  0.00     0.173 A 
ATOM     77  C   UNL     1     -15.351   2.527   6.020  1.00  0.00     0.173 A 
ATOM     78  F   UNL     1     -16.511   4.689   8.695  1.00  0.00    -0.203 F 
ATOM     79  C   UNL     1     -17.691   3.175   7.341  1.00  0.00     0.198 A 
ATOM     80  C   UNL     1     -16.556   1.927   5.651  1.00  0.00     0.198 A 
ATOM     81  F   UNL     1     -14.278   2.233   5.272  1.00  0.00    -0.203 F 
ATOM     82  F   UNL     1     -18.831   3.535   7.948  1.00  0.00    -0.200 F 
ATOM     83  C   UNL     1     -17.728   2.263   6.300  1.00  0.00     0.200 A 
ATOM     84  F   UNL     1     -16.582   1.070   4.620  1.00  0.00    -0.200 F 
ATOM     85  F   UNL     1     -18.895   1.742   5.894  1.00  0.00    -0.200 F 
ENDBRANCH  51  75
BRANCH  63  86
ATOM     86  C   UNL     1     -11.575   7.620   9.989  1.00  0.00     0.064 A 
ATOM     87  C   UNL     1     -11.079   6.315  10.155  1.00  0.00     0.173 A 
ATOM     88  C   UNL     1     -11.468   8.496  11.077  1.00  0.00     0.173 A 
ATOM     89  F   UNL     1     -11.050   5.451   9.133  1.00  0.00    -0.203 F 
ATOM     90  C   UNL     1     -10.549   5.896  11.374  1.00  0.00     0.198 A 
ATOM     91  C   UNL     1     -10.901   8.086  12.280  1.00  0.00     0.198 A 
ATOM     92  F   UNL     1     -11.874   9.770  10.958  1.00  0.00    -0.203 F 
ATOM     93  F   UNL     1     -10.099   4.640  11.515  1.00  0.00    -0.200 F 
ATOM     94  C   UNL     1     -10.454   6.784  12.433  1.00  0.00     0.200 A 
ATOM     95  F   UNL     1     -10.765   8.963  13.285  1.00  0.00    -0.200 F 
ATOM     96  F   UNL     1      -9.907   6.393  13.592  1.00  0.00    -0.200 F 
ENDBRANCH  63  86
ENDBRANCH  37  38
ENDBRANCH  30  32
ENDBRANCH  29  30
ENDBRANCH  28  29
ENDBRANCH  27  28
ENDBRANCH  26  27
ENDBRANCH  25  26
ENDBRANCH   1  25
TORSDOF 21
