REMARK SMILES Cc1cc(C[N@H+]2CC[C@](C)(C(=O)OCCOCCOCCOC(=O)c3ccc(-c4c5nc(c(-c6c(F)c(F)c(F)c(F)c6F)c6ccc([nH]6)c(-c6c(F)c(F)c(F)c(F)c6F)c6nc(c(-c7c(F)c(F)c(F)c(F)c7F)c7ccc4[nH]7)C=C6)C=C5)cc3)C2)c2ccccc2n1
REMARK SMILES IDX 17 1 16 2 15 3 14 4 13 5 11 6 12 7 9 8 6 9 7 10 88 11 8 13
REMARK SMILES IDX 10 14 5 15 4 16 1 17 2 18 3 19 95 20 94 21 89 22 93 23 90 24
REMARK SMILES IDX 92 25 91 26 18 27 19 28 20 29 21 30 22 31 23 32 24 33 25 34
REMARK SMILES IDX 26 35 87 36 27 37 86 38 28 39 29 40 30 41 80 42 31 43 85 44
REMARK SMILES IDX 79 45 81 46 32 47 84 48 78 49 77 50 33 52 65 53 45 54 64 55
REMARK SMILES IDX 46 56 49 57 63 58 82 59 47 60 48 61 62 63 83 64 50 65 34 66
REMARK SMILES IDX 35 67 43 68 36 69 37 70 41 71 44 72 38 73 39 74 42 75 40 76
REMARK SMILES IDX 66 77 67 78 75 79 68 80 69 81 73 82 76 83 70 84 71 85 74 86
REMARK SMILES IDX 72 87 51 88 52 89 60 90 53 91 54 92 58 93 61 94 55 95 56 96
REMARK SMILES IDX 59 97 57 98
REMARK H PARENT 6 12 81 51 49 62
REMARK Flexibility Score: inf
ROOT
ATOM      1  C   UNL     1       3.610   5.549   3.500  1.00  0.00     0.188 C 
ENDROOT
BRANCH   1   2
ATOM      2  O   UNL     1       4.840   5.468   4.210  1.00  0.00    -0.376 OA
BRANCH   2   3
ATOM      3  C   UNL     1       5.823   4.522   3.818  1.00  0.00     0.202 C 
BRANCH   3   4
ATOM      4  C   UNL     1       5.471   3.026   3.841  1.00  0.00     0.261 C 
BRANCH   4   5
ATOM      5  O   UNL     1       4.241   2.643   3.196  1.00  0.00    -0.463 OA
BRANCH   5   6
ATOM      6  C   UNL     1       3.211   2.312   4.018  1.00  0.00     0.317 C 
ATOM      7  O   UNL     1       3.277   2.341   5.244  1.00  0.00    -0.251 OA
BRANCH   6   8
ATOM      8  C   UNL     1       1.948   1.846   3.296  1.00  0.00     0.119 C 
ATOM      9  N   UNL     1       0.674   2.958   1.550  1.00  0.00    -0.330 N 
ATOM     10  C   UNL     1      -0.234   2.704   2.664  1.00  0.00     0.263 C 
ATOM     11  C   UNL     1       1.840   2.079   1.782  1.00  0.00     0.281 C 
ATOM     12  H   UNL     1       0.981   3.930   1.529  1.00  0.00     0.348 HD
ATOM     13  C   UNL     1       0.724   2.599   3.844  1.00  0.00     0.086 C 
ATOM     14  C   UNL     1       1.838   0.330   3.558  1.00  0.00     0.030 C 
BRANCH   9  15
ATOM     15  C   UNL     1       0.043   2.880   0.207  1.00  0.00     0.299 C 
BRANCH  15  16
ATOM     16  C   UNL     1      -0.405   1.493  -0.244  1.00  0.00     0.017 A 
ATOM     17  C   UNL     1      -3.467  -0.717   0.078  1.00  0.00     0.067 C 
ATOM     18  C   UNL     1      -2.058  -0.242  -0.108  1.00  0.00     0.038 A 
ATOM     19  C   UNL     1      -1.735   1.104  -0.035  1.00  0.00     0.033 A 
ATOM     20  N   UNL     1      -1.117  -1.200  -0.265  1.00  0.00    -0.253 NA
ATOM     21  C   UNL     1       0.153  -0.829  -0.501  1.00  0.00     0.071 A 
ATOM     22  C   UNL     1       0.536   0.515  -0.652  1.00  0.00     0.009 A 
ATOM     23  C   UNL     1       1.151  -1.796  -0.509  1.00  0.00     0.029 A 
ATOM     24  C   UNL     1       1.866   0.811  -1.050  1.00  0.00     0.011 A 
ATOM     25  C   UNL     1       2.493  -1.478  -0.740  1.00  0.00     0.002 A 
ATOM     26  C   UNL     1       2.845  -0.177  -1.062  1.00  0.00     0.001 A 
ENDBRANCH  15  16
ENDBRANCH   9  15
ENDBRANCH   6   8
ENDBRANCH   5   6
ENDBRANCH   4   5
ENDBRANCH   3   4
ENDBRANCH   2   3
ENDBRANCH   1   2
BRANCH   1  27
ATOM     27  C   UNL     1       3.558   5.217   2.001  1.00  0.00     0.188 C 
BRANCH  27  28
ATOM     28  O   UNL     1       4.816   5.176   1.366  1.00  0.00    -0.376 OA
BRANCH  28  29
ATOM     29  C   UNL     1       5.064   6.138   0.360  1.00  0.00     0.202 C 
BRANCH  29  30
ATOM     30  C   UNL     1       4.997   7.616   0.776  1.00  0.00     0.261 C 
BRANCH  30  31
ATOM     31  O   UNL     1       3.845   8.013   1.544  1.00  0.00    -0.460 OA
BRANCH  31  32
ATOM     32  C   UNL     1       2.665   8.125   0.893  1.00  0.00     0.338 C 
ATOM     33  O   UNL     1       2.467   7.955  -0.299  1.00  0.00    -0.246 OA
BRANCH  32  34
ATOM     34  C   UNL     1       1.594   8.274   1.909  1.00  0.00     0.060 A 
ATOM     35  C   UNL     1       0.583   7.304   1.985  1.00  0.00     0.016 A 
ATOM     36  C   UNL     1       1.592   9.354   2.795  1.00  0.00     0.016 A 
ATOM     37  C   UNL     1      -0.446   7.429   2.925  1.00  0.00     0.010 A 
ATOM     38  C   UNL     1       0.549   9.489   3.720  1.00  0.00     0.010 A 
ATOM     39  C   UNL     1      -0.493   8.544   3.772  1.00  0.00    -0.014 A 
BRANCH  39  40
ATOM     40  C   UNL     1      -1.715   8.827   4.574  1.00  0.00     0.031 A 
ATOM     41  C   UNL     1      -2.703   9.832   4.040  1.00  0.00     0.074 A 
ATOM     42  C   UNL     1      -1.964   8.205   5.741  1.00  0.00     0.049 A 
ATOM     43  N   UNL     1      -3.790  10.310   4.591  1.00  0.00    -0.248 NA
ATOM     44  C   UNL     1      -2.425  10.369   2.697  1.00  0.00     0.031 C 
ATOM     45  C   UNL     1      -1.124   7.178   6.352  1.00  0.00     0.029 A 
ATOM     46  N   UNL     1      -3.001   8.363   6.631  1.00  0.00    -0.354 N 
ATOM     47  C   UNL     1      -4.323  11.199   3.665  1.00  0.00     0.074 A 
ATOM     48  C   UNL     1      -3.423  11.223   2.533  1.00  0.00     0.031 C 
ATOM     49  C   UNL     1      -1.667   6.813   7.528  1.00  0.00     0.029 A 
ATOM     50  C   UNL     1      -2.872   7.606   7.771  1.00  0.00     0.049 A 
ATOM     51  H   UNL     1      -3.764   8.963   6.467  1.00  0.00     0.167 HD
ATOM     52  C   UNL     1      -5.468  11.918   3.742  1.00  0.00     0.037 A 
ATOM     53  C   UNL     1      -3.623   7.581   8.891  1.00  0.00     0.037 A 
ATOM     54  C   UNL     1      -6.364  11.907   4.868  1.00  0.00     0.049 A 
ATOM     55  C   UNL     1      -4.839   8.474   8.993  1.00  0.00     0.074 A 
ATOM     56  C   UNL     1      -7.538  12.619   5.043  1.00  0.00     0.029 A 
ATOM     57  N   UNL     1      -6.183  11.146   6.013  1.00  0.00    -0.354 N 
ATOM     58  N   UNL     1      -5.343   9.300   8.108  1.00  0.00    -0.248 NA
ATOM     59  C   UNL     1      -5.596   8.424  10.254  1.00  0.00     0.031 C 
ATOM     60  C   UNL     1      -8.045  12.324   6.312  1.00  0.00     0.029 A 
ATOM     61  C   UNL     1      -7.218  11.383   6.903  1.00  0.00     0.049 A 
ATOM     62  H   UNL     1      -5.432  10.530   6.169  1.00  0.00     0.167 HD
ATOM     63  C   UNL     1      -6.489   9.833   8.688  1.00  0.00     0.074 A 
ATOM     64  C   UNL     1      -6.620   9.223   9.993  1.00  0.00     0.031 C 
ATOM     65  C   UNL     1      -7.356  10.748   8.188  1.00  0.00     0.037 A 
BRANCH  52  66
ATOM     66  C   UNL     1      -5.822  12.791   2.574  1.00  0.00     0.064 A 
ATOM     67  C   UNL     1      -6.261  12.244   1.359  1.00  0.00     0.173 A 
ATOM     68  C   UNL     1      -5.787  14.189   2.690  1.00  0.00     0.173 A 
ATOM     69  F   UNL     1      -6.298  10.913   1.192  1.00  0.00    -0.203 F 
ATOM     70  C   UNL     1      -6.640  13.064   0.300  1.00  0.00     0.198 A 
ATOM     71  C   UNL     1      -6.195  15.006   1.639  1.00  0.00     0.198 A 
ATOM     72  F   UNL     1      -5.378  14.763   3.832  1.00  0.00    -0.203 F 
ATOM     73  F   UNL     1      -7.023  12.519  -0.863  1.00  0.00    -0.200 F 
ATOM     74  C   UNL     1      -6.617  14.443   0.444  1.00  0.00     0.200 A 
ATOM     75  F   UNL     1      -6.187  16.338   1.786  1.00  0.00    -0.200 F 
ATOM     76  F   UNL     1      -7.000  15.230  -0.570  1.00  0.00    -0.200 F 
ENDBRANCH  52  66
BRANCH  53  77
ATOM     77  C   UNL     1      -3.244   6.713  10.042  1.00  0.00     0.064 A 
ATOM     78  C   UNL     1      -4.082   5.675  10.476  1.00  0.00     0.173 A 
ATOM     79  C   UNL     1      -2.082   6.962  10.788  1.00  0.00     0.173 A 
ATOM     80  F   UNL     1      -5.223   5.416   9.818  1.00  0.00    -0.203 F 
ATOM     81  C   UNL     1      -3.796   4.951  11.633  1.00  0.00     0.198 A 
ATOM     82  C   UNL     1      -1.778   6.212  11.923  1.00  0.00     0.198 A 
ATOM     83  F   UNL     1      -1.249   7.947  10.425  1.00  0.00    -0.203 F 
ATOM     84  F   UNL     1      -4.659   4.023  12.070  1.00  0.00    -0.200 F 
ATOM     85  C   UNL     1      -2.643   5.218  12.354  1.00  0.00     0.200 A 
ATOM     86  F   UNL     1      -0.658   6.469  12.612  1.00  0.00    -0.200 F 
ATOM     87  F   UNL     1      -2.377   4.534  13.475  1.00  0.00    -0.200 F 
ENDBRANCH  53  77
BRANCH  65  88
ATOM     88  C   UNL     1      -8.558  11.100   9.020  1.00  0.00     0.064 A 
ATOM     89  C   UNL     1      -8.449  11.835  10.210  1.00  0.00     0.173 A 
ATOM     90  C   UNL     1      -9.844  10.726   8.599  1.00  0.00     0.173 A 
ATOM     91  F   UNL     1      -7.243  12.210  10.664  1.00  0.00    -0.203 F 
ATOM     92  C   UNL     1      -9.577  12.150  10.964  1.00  0.00     0.198 A 
ATOM     93  C   UNL     1     -10.972  11.073   9.337  1.00  0.00     0.198 A 
ATOM     94  F   UNL     1     -10.009  10.032   7.463  1.00  0.00    -0.203 F 
ATOM     95  F   UNL     1      -9.441  12.803  12.127  1.00  0.00    -0.200 F 
ATOM     96  C   UNL     1     -10.837  11.776  10.524  1.00  0.00     0.200 A 
ATOM     97  F   UNL     1     -12.191  10.727   8.899  1.00  0.00    -0.200 F 
ATOM     98  F   UNL     1     -11.921  12.086  11.248  1.00  0.00    -0.200 F 
ENDBRANCH  65  88
ENDBRANCH  39  40
ENDBRANCH  32  34
ENDBRANCH  31  32
ENDBRANCH  30  31
ENDBRANCH  29  30
ENDBRANCH  28  29
ENDBRANCH  27  28
ENDBRANCH   1  27
TORSDOF 19
