REMARK SMILES Nc1c(CC(=O)OCCOCCOCCOC(=O)c2ccc(-c3c4nc(c(-c5c(F)c(F)c(F)c(F)c5F)c5ccc([nH]5)c(-c5c(F)c(F)c(F)c(F)c5F)c5nc(c(-c6c(F)c(F)c(F)c(F)c6F)c6ccc3[nH]6)C=C5)C=C4)cc2)cccc1C(=O)c1ccc(Br)cc1
REMARK SMILES IDX 11 1 10 2 9 3 8 4 7 5 5 6 6 7 4 8 3 9 2 10 85 11 82 12 84 13
REMARK SMILES IDX 83 14 1 15 86 18 87 19 88 20 89 21 94 22 90 23 93 24 91 25
REMARK SMILES IDX 92 26 12 27 13 28 14 29 15 30 16 31 17 32 18 33 19 34 20 35
REMARK SMILES IDX 81 36 21 37 80 38 22 39 23 40 24 41 74 42 25 43 79 44 73 45
REMARK SMILES IDX 75 46 26 47 78 48 72 49 71 50 27 52 59 53 39 54 58 55 40 56
REMARK SMILES IDX 43 57 57 58 76 59 41 60 42 61 56 63 77 64 44 65 28 66 29 67
REMARK SMILES IDX 37 68 30 69 31 70 35 71 38 72 32 73 33 74 36 75 34 76 60 77
REMARK SMILES IDX 61 78 69 79 62 80 63 81 67 82 70 83 64 84 65 85 68 86 66 87
REMARK SMILES IDX 45 88 46 89 54 90 47 91 48 92 52 93 55 94 49 95 50 96 53 97
REMARK SMILES IDX 51 98
REMARK H PARENT 1 16 1 17 75 51 43 62
REMARK Flexibility Score: inf
ROOT
ATOM      1  C   UNL     1      -1.314  -4.226   1.803  1.00  0.00     0.188 C 
ENDROOT
BRANCH   1   2
ATOM      2  O   UNL     1      -0.707  -5.064   2.788  1.00  0.00    -0.376 OA
BRANCH   2   3
ATOM      3  C   UNL     1       0.166  -4.479   3.747  1.00  0.00     0.202 C 
BRANCH   3   4
ATOM      4  C   UNL     1       1.471  -3.897   3.194  1.00  0.00     0.261 C 
BRANCH   4   5
ATOM      5  O   UNL     1       1.266  -3.012   2.072  1.00  0.00    -0.463 OA
BRANCH   5   6
ATOM      6  C   UNL     1       2.008  -3.239   0.964  1.00  0.00     0.310 C 
ATOM      7  O   UNL     1       2.939  -4.039   0.917  1.00  0.00    -0.252 OA
BRANCH   6   8
ATOM      8  C   UNL     1       1.515  -2.550  -0.295  1.00  0.00     0.160 C 
BRANCH   8   9
ATOM      9  C   UNL     1       0.781  -1.220  -0.234  1.00  0.00    -0.013 A 
ATOM     10  C   UNL     1       1.396  -0.024   0.192  1.00  0.00     0.047 A 
ATOM     11  C   UNL     1       0.665   1.194   0.074  1.00  0.00     0.046 A 
ATOM     12  C   UNL     1      -0.538  -1.171  -0.733  1.00  0.00     0.006 A 
ATOM     13  C   UNL     1      -0.677   1.191  -0.337  1.00  0.00     0.014 A 
ATOM     14  C   UNL     1      -1.279   0.009  -0.739  1.00  0.00     0.001 A 
BRANCH  10  15
ATOM     15  N   UNL     1       2.686  -0.075   0.707  1.00  0.00    -0.398 N 
ATOM     16  H   UNL     1       3.156  -0.937   0.771  1.00  0.00     0.156 HD
ATOM     17  H   UNL     1       3.128   0.752   1.008  1.00  0.00     0.156 HD
ENDBRANCH  10  15
BRANCH  11  18
ATOM     18  C   UNL     1       1.253   2.552   0.286  1.00  0.00     0.195 C 
ATOM     19  O   UNL     1       0.565   3.477   0.709  1.00  0.00    -0.289 OA
BRANCH  18  20
ATOM     20  C   UNL     1       2.674   2.815  -0.032  1.00  0.00     0.023 A 
ATOM     21  C   UNL     1       3.447   3.483   0.923  1.00  0.00     0.013 A 
ATOM     22  C   UNL     1       3.263   2.311  -1.199  1.00  0.00     0.013 A 
ATOM     23  C   UNL     1       4.829   3.559   0.758  1.00  0.00     0.016 A 
ATOM     24  C   UNL     1       4.647   2.390  -1.360  1.00  0.00     0.016 A 
ATOM     25  C   UNL     1       5.424   2.992  -0.370  1.00  0.00     0.018 A 
ATOM     26  Br  UNL     1       7.306   3.003  -0.539  1.00  0.00    -0.051 Br
ENDBRANCH  18  20
ENDBRANCH  11  18
ENDBRANCH   8   9
ENDBRANCH   6   8
ENDBRANCH   5   6
ENDBRANCH   4   5
ENDBRANCH   3   4
ENDBRANCH   2   3
ENDBRANCH   1   2
BRANCH   1  27
ATOM     27  C   UNL     1      -1.570  -2.742   2.120  1.00  0.00     0.188 C 
BRANCH  27  28
ATOM     28  O   UNL     1      -1.875  -2.561   3.490  1.00  0.00    -0.376 OA
BRANCH  28  29
ATOM     29  C   UNL     1      -2.987  -1.740   3.768  1.00  0.00     0.202 C 
BRANCH  29  30
ATOM     30  C   UNL     1      -4.310  -2.497   3.620  1.00  0.00     0.261 C 
BRANCH  30  31
ATOM     31  O   UNL     1      -4.444  -3.301   2.432  1.00  0.00    -0.460 OA
BRANCH  31  32
ATOM     32  C   UNL     1      -4.730  -2.670   1.277  1.00  0.00     0.338 C 
ATOM     33  O   UNL     1      -4.839  -1.462   1.099  1.00  0.00    -0.246 OA
BRANCH  32  34
ATOM     34  C   UNL     1      -4.738  -3.673   0.194  1.00  0.00     0.060 A 
ATOM     35  C   UNL     1      -3.820  -3.568  -0.860  1.00  0.00     0.016 A 
ATOM     36  C   UNL     1      -5.672  -4.708   0.210  1.00  0.00     0.016 A 
ATOM     37  C   UNL     1      -3.837  -4.492  -1.910  1.00  0.00     0.010 A 
ATOM     38  C   UNL     1      -5.705  -5.617  -0.850  1.00  0.00     0.010 A 
ATOM     39  C   UNL     1      -4.805  -5.503  -1.926  1.00  0.00    -0.014 A 
BRANCH  39  40
ATOM     40  C   UNL     1      -5.028  -6.350  -3.124  1.00  0.00     0.031 A 
ATOM     41  C   UNL     1      -6.199  -6.026  -4.009  1.00  0.00     0.074 A 
ATOM     42  C   UNL     1      -4.263  -7.424  -3.384  1.00  0.00     0.049 A 
ATOM     43  N   UNL     1      -6.768  -6.746  -4.939  1.00  0.00    -0.248 NA
ATOM     44  C   UNL     1      -6.819  -4.708  -3.799  1.00  0.00     0.031 C 
ATOM     45  C   UNL     1      -3.057  -7.803  -2.653  1.00  0.00     0.029 A 
ATOM     46  N   UNL     1      -4.417  -8.418  -4.321  1.00  0.00    -0.354 N 
ATOM     47  C   UNL     1      -7.834  -5.985  -5.401  1.00  0.00     0.074 A 
ATOM     48  C   UNL     1      -7.838  -4.753  -4.644  1.00  0.00     0.031 C 
ATOM     49  C   UNL     1      -2.598  -8.967  -3.146  1.00  0.00     0.029 A 
ATOM     50  C   UNL     1      -3.514  -9.444  -4.181  1.00  0.00     0.049 A 
ATOM     51  H   UNL     1      -5.107  -8.397  -5.023  1.00  0.00     0.167 HD
ATOM     52  C   UNL     1      -8.731  -6.294  -6.367  1.00  0.00     0.037 A 
ATOM     53  C   UNL     1      -3.469 -10.651  -4.782  1.00  0.00     0.037 A 
ATOM     54  C   UNL     1      -8.715  -7.523  -7.114  1.00  0.00     0.049 A 
ATOM     55  C   UNL     1      -4.538 -11.018  -5.784  1.00  0.00     0.074 A 
ATOM     56  C   UNL     1      -9.578  -7.938  -8.113  1.00  0.00     0.029 A 
ATOM     57  N   UNL     1      -7.788  -8.540  -6.936  1.00  0.00    -0.354 N 
ATOM     58  N   UNL     1      -5.556 -10.309  -6.208  1.00  0.00    -0.248 NA
ATOM     59  C   UNL     1      -4.457 -12.359  -6.384  1.00  0.00     0.031 C 
ATOM     60  C   UNL     1      -9.208  -9.229  -8.499  1.00  0.00     0.029 A 
ATOM     61  C   UNL     1      -8.071  -9.590  -7.793  1.00  0.00     0.049 A 
ATOM     62  H   UNL     1      -7.040  -8.519  -6.296  1.00  0.00     0.167 HD
ATOM     63  C   UNL     1      -6.205 -11.094  -7.155  1.00  0.00     0.074 A 
ATOM     64  C   UNL     1      -5.471 -12.338  -7.239  1.00  0.00     0.031 C 
ATOM     65  C   UNL     1      -7.305 -10.806  -7.893  1.00  0.00     0.037 A 
BRANCH  52  66
ATOM     66  C   UNL     1      -9.828  -5.307  -6.641  1.00  0.00     0.064 A 
ATOM     67  C   UNL     1      -9.578  -4.068  -7.248  1.00  0.00     0.173 A 
ATOM     68  C   UNL     1     -11.158  -5.621  -6.316  1.00  0.00     0.173 A 
ATOM     69  F   UNL     1      -8.323  -3.712  -7.564  1.00  0.00    -0.203 F 
ATOM     70  C   UNL     1     -10.612  -3.169  -7.495  1.00  0.00     0.198 A 
ATOM     71  C   UNL     1     -12.194  -4.734  -6.596  1.00  0.00     0.198 A 
ATOM     72  F   UNL     1     -11.454  -6.794  -5.737  1.00  0.00    -0.203 F 
ATOM     73  F   UNL     1     -10.341  -1.969  -8.027  1.00  0.00    -0.200 F 
ATOM     74  C   UNL     1     -11.919  -3.506  -7.176  1.00  0.00     0.200 A 
ATOM     75  F   UNL     1     -13.457  -5.068  -6.300  1.00  0.00    -0.200 F 
ATOM     76  F   UNL     1     -12.914  -2.642  -7.422  1.00  0.00    -0.200 F 
ENDBRANCH  52  66
BRANCH  53  77
ATOM     77  C   UNL     1      -2.397 -11.622  -4.433  1.00  0.00     0.064 A 
ATOM     78  C   UNL     1      -1.429 -11.997  -5.376  1.00  0.00     0.173 A 
ATOM     79  C   UNL     1      -2.332 -12.217  -3.163  1.00  0.00     0.173 A 
ATOM     80  F   UNL     1      -1.465 -11.479  -6.612  1.00  0.00    -0.203 F 
ATOM     81  C   UNL     1      -0.452 -12.943  -5.071  1.00  0.00     0.198 A 
ATOM     82  C   UNL     1      -1.334 -13.139  -2.849  1.00  0.00     0.198 A 
ATOM     83  F   UNL     1      -3.236 -11.901  -2.225  1.00  0.00    -0.203 F 
ATOM     84  F   UNL     1       0.426 -13.322  -6.009  1.00  0.00    -0.200 F 
ATOM     85  C   UNL     1      -0.401 -13.508  -3.805  1.00  0.00     0.200 A 
ATOM     86  F   UNL     1      -1.282 -13.674  -1.622  1.00  0.00    -0.200 F 
ATOM     87  F   UNL     1       0.539 -14.416  -3.513  1.00  0.00    -0.200 F 
ENDBRANCH  53  77
BRANCH  65  88
ATOM     88  C   UNL     1      -7.746 -11.806  -8.923  1.00  0.00     0.064 A 
ATOM     89  C   UNL     1      -8.376 -13.007  -8.574  1.00  0.00     0.173 A 
ATOM     90  C   UNL     1      -7.620 -11.501 -10.289  1.00  0.00     0.173 A 
ATOM     91  F   UNL     1      -8.509 -13.351  -7.284  1.00  0.00    -0.203 F 
ATOM     92  C   UNL     1      -8.860 -13.871  -9.555  1.00  0.00     0.198 A 
ATOM     93  C   UNL     1      -8.132 -12.351 -11.264  1.00  0.00     0.198 A 
ATOM     94  F   UNL     1      -7.031 -10.359 -10.675  1.00  0.00    -0.203 F 
ATOM     95  F   UNL     1      -9.436 -15.028  -9.200  1.00  0.00    -0.200 F 
ATOM     96  C   UNL     1      -8.750 -13.536 -10.897  1.00  0.00     0.200 A 
ATOM     97  F   UNL     1      -8.041 -12.015 -12.558  1.00  0.00    -0.200 F 
ATOM     98  F   UNL     1      -9.240 -14.356 -11.836  1.00  0.00    -0.200 F 
ENDBRANCH  65  88
ENDBRANCH  39  40
ENDBRANCH  32  34
ENDBRANCH  31  32
ENDBRANCH  30  31
ENDBRANCH  29  30
ENDBRANCH  28  29
ENDBRANCH  27  28
ENDBRANCH   1  27
TORSDOF 21
