REMARK SMILES CSc1nc(N)cc(Nc2cccc(C(=O)OCCOCCOCCOC(=O)c3ccc(-c4c5nc(c(-c6c(F)c(F)c(F)c(F)c6F)c6ccc([nH]6)c(-c6c(F)c(F)c(F)c(F)c6F)c6nc(c(-c7c(F)c(F)c(F)c(F)c7F)c7ccc4[nH]7)C=C6)C=C5)cc3)c2)n1
REMARK SMILES IDX 21 1 20 2 19 3 18 4 17 5 15 6 16 7 14 8 10 9 11 10 92 11
REMARK SMILES IDX 12 12 13 13 9 14 8 16 3 17 4 18 93 19 5 20 7 21 2 22 1 23
REMARK SMILES IDX 6 24 22 27 23 28 24 29 25 30 26 31 27 32 28 33 29 34 30 35
REMARK SMILES IDX 91 36 31 37 90 38 32 39 33 40 34 41 84 42 35 43 89 44 83 45
REMARK SMILES IDX 85 46 36 47 88 48 82 49 81 50 37 52 69 53 49 54 68 55 50 56
REMARK SMILES IDX 53 57 67 58 86 59 51 60 52 61 66 63 87 64 54 65 38 66 39 67
REMARK SMILES IDX 47 68 40 69 41 70 45 71 48 72 42 73 43 74 46 75 44 76 70 77
REMARK SMILES IDX 71 78 79 79 72 80 73 81 77 82 80 83 74 84 75 85 78 86 76 87
REMARK SMILES IDX 55 88 56 89 64 90 57 91 58 92 62 93 65 94 59 95 60 96 63 97
REMARK SMILES IDX 61 98
REMARK H PARENT 9 15 6 25 6 26 85 51 53 62
REMARK Flexibility Score: inf
ROOT
ATOM      1  C   UNL     1      -6.124   5.251  -3.114  1.00  0.00     0.188 C 
ENDROOT
BRANCH   1   2
ATOM      2  O   UNL     1      -7.058   4.277  -2.695  1.00  0.00    -0.376 OA
BRANCH   2   3
ATOM      3  C   UNL     1      -6.658   3.222  -1.834  1.00  0.00     0.202 C 
BRANCH   3   4
ATOM      4  C   UNL     1      -5.328   2.477  -2.008  1.00  0.00     0.261 C 
BRANCH   4   5
ATOM      5  O   UNL     1      -4.189   3.319  -2.212  1.00  0.00    -0.460 OA
BRANCH   5   6
ATOM      6  C   UNL     1      -3.588   3.208  -3.426  1.00  0.00     0.338 C 
ATOM      7  O   UNL     1      -3.895   2.451  -4.329  1.00  0.00    -0.246 OA
BRANCH   6   8
ATOM      8  C   UNL     1      -2.634   4.326  -3.596  1.00  0.00     0.062 A 
ATOM      9  C   UNL     1      -0.865   5.758  -2.741  1.00  0.00     0.040 A 
ATOM     10  C   UNL     1      -0.896   6.479  -3.942  1.00  0.00     0.026 A 
ATOM     11  C   UNL     1      -1.781   4.710  -2.563  1.00  0.00     0.041 A 
ATOM     12  C   UNL     1      -1.775   6.118  -4.969  1.00  0.00     0.003 A 
ATOM     13  C   UNL     1      -2.625   5.025  -4.807  1.00  0.00     0.016 A 
BRANCH   9  14
ATOM     14  N   UNL     1       0.172   5.978  -1.810  1.00  0.00    -0.340 N 
ATOM     15  H   UNL     1       0.404   6.910  -1.593  1.00  0.00     0.168 HD
BRANCH  14  16
ATOM     16  C   UNL     1       0.899   4.955  -1.167  1.00  0.00     0.137 A 
ATOM     17  C   UNL     1       1.309   2.711  -0.880  1.00  0.00     0.191 A 
ATOM     18  N   UNL     1       2.193   2.910   0.102  1.00  0.00    -0.206 NA
ATOM     19  N   UNL     1       0.675   3.685  -1.532  1.00  0.00    -0.205 NA
ATOM     20  C   UNL     1       2.432   4.185   0.431  1.00  0.00     0.130 A 
ATOM     21  C   UNL     1       1.784   5.252  -0.158  1.00  0.00     0.093 A 
BRANCH  17  22
ATOM     22  S   UNL     1       0.912   1.067  -1.415  1.00  0.00    -0.090 SA
ATOM     23  C   UNL     1       1.285   0.148   0.089  1.00  0.00     0.094 C 
ENDBRANCH  17  22
BRANCH  20  24
ATOM     24  N   UNL     1       3.338   4.390   1.456  1.00  0.00    -0.383 N 
ATOM     25  H   UNL     1       3.796   3.623   1.869  1.00  0.00     0.158 HD
ATOM     26  H   UNL     1       3.526   5.303   1.771  1.00  0.00     0.158 HD
ENDBRANCH  20  24
ENDBRANCH  14  16
ENDBRANCH   9  14
ENDBRANCH   6   8
ENDBRANCH   5   6
ENDBRANCH   4   5
ENDBRANCH   3   4
ENDBRANCH   2   3
ENDBRANCH   1   2
BRANCH   1  27
ATOM     27  C   UNL     1      -5.341   6.098  -2.088  1.00  0.00     0.188 C 
BRANCH  27  28
ATOM     28  O   UNL     1      -5.508   5.882  -0.708  1.00  0.00    -0.376 OA
BRANCH  28  29
ATOM     29  C   UNL     1      -6.738   6.179  -0.073  1.00  0.00     0.202 C 
BRANCH  29  30
ATOM     30  C   UNL     1      -7.745   7.230  -0.567  1.00  0.00     0.261 C 
BRANCH  30  31
ATOM     31  O   UNL     1      -7.832   7.439  -1.980  1.00  0.00    -0.460 OA
BRANCH  31  32
ATOM     32  C   UNL     1      -7.386   8.646  -2.414  1.00  0.00     0.338 C 
ATOM     33  O   UNL     1      -6.913   9.549  -1.752  1.00  0.00    -0.246 OA
BRANCH  32  34
ATOM     34  C   UNL     1      -7.407   8.656  -3.888  1.00  0.00     0.060 A 
ATOM     35  C   UNL     1      -6.189   8.686  -4.582  1.00  0.00     0.016 A 
ATOM     36  C   UNL     1      -8.620   8.676  -4.575  1.00  0.00     0.016 A 
ATOM     37  C   UNL     1      -6.183   8.740  -5.976  1.00  0.00     0.010 A 
ATOM     38  C   UNL     1      -8.611   8.754  -5.969  1.00  0.00     0.010 A 
ATOM     39  C   UNL     1      -7.394   8.806  -6.675  1.00  0.00    -0.014 A 
BRANCH  39  40
ATOM     40  C   UNL     1      -7.406   9.084  -8.131  1.00  0.00     0.031 A 
ATOM     41  C   UNL     1      -7.641  10.494  -8.593  1.00  0.00     0.074 A 
ATOM     42  C   UNL     1      -7.232   8.099  -9.028  1.00  0.00     0.049 A 
ATOM     43  N   UNL     1      -7.799  10.959  -9.806  1.00  0.00    -0.248 NA
ATOM     44  C   UNL     1      -7.711  11.519  -7.540  1.00  0.00     0.031 C 
ATOM     45  C   UNL     1      -6.947   6.703  -8.706  1.00  0.00     0.029 A 
ATOM     46  N   UNL     1      -7.289   8.126 -10.400  1.00  0.00    -0.354 N 
ATOM     47  C   UNL     1      -8.002  12.324  -9.661  1.00  0.00     0.074 A 
ATOM     48  C   UNL     1      -7.970  12.611  -8.243  1.00  0.00     0.031 C 
ATOM     49  C   UNL     1      -6.870   6.001  -9.850  1.00  0.00     0.029 A 
ATOM     50  C   UNL     1      -7.143   6.890 -10.979  1.00  0.00     0.049 A 
ATOM     51  H   UNL     1      -7.422   8.952 -10.918  1.00  0.00     0.167 HD
ATOM     52  C   UNL     1      -8.197  13.255 -10.626  1.00  0.00     0.037 A 
ATOM     53  C   UNL     1      -7.251   6.518 -12.270  1.00  0.00     0.037 A 
ATOM     54  C   UNL     1      -8.234  12.964 -12.035  1.00  0.00     0.049 A 
ATOM     55  C   UNL     1      -7.571   7.558 -13.316  1.00  0.00     0.074 A 
ATOM     56  C   UNL     1      -8.395  13.841 -13.093  1.00  0.00     0.029 A 
ATOM     57  N   UNL     1      -8.126  11.693 -12.582  1.00  0.00    -0.354 N 
ATOM     58  N   UNL     1      -7.727   8.853 -13.181  1.00  0.00    -0.248 NA
ATOM     59  C   UNL     1      -7.736   7.080 -14.697  1.00  0.00     0.031 C 
ATOM     60  C   UNL     1      -8.450  13.095 -14.274  1.00  0.00     0.029 A 
ATOM     61  C   UNL     1      -8.257  11.759 -13.960  1.00  0.00     0.049 A 
ATOM     62  H   UNL     1      -7.979  10.867 -12.067  1.00  0.00     0.167 HD
ATOM     63  C   UNL     1      -7.974   9.346 -14.456  1.00  0.00     0.074 A 
ATOM     64  C   UNL     1      -7.938   8.213 -15.356  1.00  0.00     0.031 C 
ATOM     65  C   UNL     1      -8.208  10.624 -14.847  1.00  0.00     0.037 A 
BRANCH  52  66
ATOM     66  C   UNL     1      -8.426  14.671 -10.185  1.00  0.00     0.064 A 
ATOM     67  C   UNL     1      -7.403  15.446  -9.617  1.00  0.00     0.173 A 
ATOM     68  C   UNL     1      -9.685  15.269 -10.352  1.00  0.00     0.173 A 
ATOM     69  F   UNL     1      -6.185  14.918  -9.423  1.00  0.00    -0.203 F 
ATOM     70  C   UNL     1      -7.641  16.754  -9.204  1.00  0.00     0.198 A 
ATOM     71  C   UNL     1      -9.910  16.588  -9.969  1.00  0.00     0.198 A 
ATOM     72  F   UNL     1     -10.697  14.574 -10.894  1.00  0.00    -0.203 F 
ATOM     73  F   UNL     1      -6.663  17.457  -8.615  1.00  0.00    -0.200 F 
ATOM     74  C   UNL     1      -8.891  17.326  -9.386  1.00  0.00     0.200 A 
ATOM     75  F   UNL     1     -11.115  17.142 -10.158  1.00  0.00    -0.200 F 
ATOM     76  F   UNL     1      -9.117  18.587  -8.993  1.00  0.00    -0.200 F 
ENDBRANCH  52  66
BRANCH  53  77
ATOM     77  C   UNL     1      -7.074   5.093 -12.655  1.00  0.00     0.064 A 
ATOM     78  C   UNL     1      -5.984   4.690 -13.439  1.00  0.00     0.173 A 
ATOM     79  C   UNL     1      -8.001   4.111 -12.275  1.00  0.00     0.173 A 
ATOM     80  F   UNL     1      -5.087   5.597 -13.854  1.00  0.00    -0.203 F 
ATOM     81  C   UNL     1      -5.838   3.365 -13.844  1.00  0.00     0.198 A 
ATOM     82  C   UNL     1      -7.838   2.780 -12.655  1.00  0.00     0.198 A 
ATOM     83  F   UNL     1      -9.067   4.445 -11.533  1.00  0.00    -0.203 F 
ATOM     84  F   UNL     1      -4.816   3.018 -14.638  1.00  0.00    -0.200 F 
ATOM     85  C   UNL     1      -6.762   2.410 -13.446  1.00  0.00     0.200 A 
ATOM     86  F   UNL     1      -8.730   1.860 -12.263  1.00  0.00    -0.200 F 
ATOM     87  F   UNL     1      -6.622   1.136 -13.837  1.00  0.00    -0.200 F 
ENDBRANCH  53  77
BRANCH  65  88
ATOM     88  C   UNL     1      -8.402  10.880 -16.315  1.00  0.00     0.064 A 
ATOM     89  C   UNL     1      -9.564  10.478 -16.989  1.00  0.00     0.173 A 
ATOM     90  C   UNL     1      -7.435  11.591 -17.044  1.00  0.00     0.173 A 
ATOM     91  F   UNL     1     -10.513   9.783 -16.343  1.00  0.00    -0.203 F 
ATOM     92  C   UNL     1      -9.743  10.762 -18.341  1.00  0.00     0.198 A 
ATOM     93  C   UNL     1      -7.632  11.902 -18.386  1.00  0.00     0.198 A 
ATOM     94  F   UNL     1      -6.308  12.006 -16.447  1.00  0.00    -0.203 F 
ATOM     95  F   UNL     1     -10.843  10.332 -18.974  1.00  0.00    -0.200 F 
ATOM     96  C   UNL     1      -8.783  11.482 -19.035  1.00  0.00     0.200 A 
ATOM     97  F   UNL     1      -6.710  12.613 -19.050  1.00  0.00    -0.200 F 
ATOM     98  F   UNL     1      -8.964  11.768 -20.332  1.00  0.00    -0.200 F 
ENDBRANCH  65  88
ENDBRANCH  39  40
ENDBRANCH  32  34
ENDBRANCH  31  32
ENDBRANCH  30  31
ENDBRANCH  29  30
ENDBRANCH  28  29
ENDBRANCH  27  28
ENDBRANCH   1  27
TORSDOF 21
