REMARK SMILES O=C(CCn1c(SCc2ccccn2)nc2ccccc2c1=O)OCCOCCOCCOC(=O)c1ccc(-c2c3nc(c(-c4c(F)c(F)c(F)c(F)c4F)c4ccc([nH]4)c(-c4c(F)c(F)c(F)c(F)c4F)c4nc(c(-c5c(F)c(F)c(F)c(F)c5F)c5ccc2[nH]5)C=C4)C=C3)cc1
REMARK SMILES IDX 27 1 26 2 25 3 24 4 2 5 1 6 3 7 4 8 5 9 6 10 22 11 15 12
REMARK SMILES IDX 21 13 23 14 16 15 20 16 17 17 19 18 18 19 7 20 8 21 9 22
REMARK SMILES IDX 10 23 14 24 11 25 13 26 12 27 28 28 29 29 30 30 31 31 32 32
REMARK SMILES IDX 33 33 34 34 35 35 36 36 37 37 98 38 38 39 97 40 39 41 40 42
REMARK SMILES IDX 41 43 91 44 42 45 96 46 90 47 92 48 43 49 95 50 89 51 88 52
REMARK SMILES IDX 44 54 76 55 56 56 75 57 57 58 60 59 74 60 93 61 58 62 59 63
REMARK SMILES IDX 73 65 94 66 61 67 45 68 46 69 54 70 47 71 48 72 52 73 55 74
REMARK SMILES IDX 49 75 50 76 53 77 51 78 77 79 78 80 86 81 79 82 80 83 84 84
REMARK SMILES IDX 87 85 81 86 82 87 85 88 83 89 62 90 63 91 71 92 64 93 65 94
REMARK SMILES IDX 69 95 72 96 66 97 67 98 70 99 68 100
REMARK H PARENT 92 53 60 64
REMARK Flexibility Score: inf
ROOT
ATOM      1  O   UNL     1       3.166   1.479   1.238  1.00  0.00    -0.376 OA
ENDROOT
BRANCH   1   2
ATOM      2  C   UNL     1       3.996   1.739   0.117  1.00  0.00     0.202 C 
BRANCH   2   3
ATOM      3  C   UNL     1       3.612   1.168  -1.254  1.00  0.00     0.261 C 
BRANCH   3   4
ATOM      4  O   UNL     1       2.341   0.513  -1.366  1.00  0.00    -0.463 OA
BRANCH   4   5
ATOM      5  C   UNL     1       2.143  -0.789  -1.068  1.00  0.00     0.307 C 
ATOM      6  O   UNL     1       1.155  -1.383  -1.494  1.00  0.00    -0.252 OA
BRANCH   5   7
ATOM      7  C   UNL     1       3.139  -1.496  -0.194  1.00  0.00     0.144 C 
BRANCH   7   8
ATOM      8  C   UNL     1       4.070  -2.345  -1.044  1.00  0.00     0.140 C 
BRANCH   8   9
ATOM      9  N   UNL     1       5.443  -2.490  -0.542  1.00  0.00    -0.286 N 
ATOM     10  C   UNL     1       6.198  -3.460  -1.153  1.00  0.00     0.171 A 
ATOM     11  C   UNL     1       6.144  -1.319  -0.310  1.00  0.00     0.262 A 
ATOM     12  N   UNL     1       7.024  -3.184  -2.118  1.00  0.00    -0.224 NA
ATOM     13  C   UNL     1       6.925  -0.847  -1.467  1.00  0.00     0.066 A 
ATOM     14  O   UNL     1       6.102  -0.677   0.729  1.00  0.00    -0.269 OA
ATOM     15  C   UNL     1       7.217  -1.822  -2.419  1.00  0.00     0.079 A 
ATOM     16  C   UNL     1       7.214   0.505  -1.667  1.00  0.00     0.016 A 
ATOM     17  C   UNL     1       7.737  -1.411  -3.644  1.00  0.00     0.029 A 
ATOM     18  C   UNL     1       7.734   0.903  -2.895  1.00  0.00     0.001 A 
ATOM     19  C   UNL     1       7.974  -0.050  -3.888  1.00  0.00     0.002 A 
BRANCH  10  20
ATOM     20  S   UNL     1       6.035  -5.112  -0.635  1.00  0.00    -0.081 SA
BRANCH  20  21
ATOM     21  C   UNL     1       5.015  -5.098   0.856  1.00  0.00     0.134 C 
BRANCH  21  22
ATOM     22  C   UNL     1       5.430  -4.225   2.020  1.00  0.00     0.051 A 
ATOM     23  C   UNL     1       4.521  -3.305   2.550  1.00  0.00     0.025 A 
ATOM     24  N   UNL     1       6.640  -4.434   2.590  1.00  0.00    -0.260 NA
ATOM     25  C   UNL     1       4.879  -2.535   3.652  1.00  0.00     0.003 A 
ATOM     26  C   UNL     1       6.952  -3.692   3.680  1.00  0.00     0.111 A 
ATOM     27  C   UNL     1       6.119  -2.736   4.237  1.00  0.00     0.020 A 
ENDBRANCH  21  22
ENDBRANCH  20  21
ENDBRANCH  10  20
ENDBRANCH   8   9
ENDBRANCH   7   8
ENDBRANCH   5   7
ENDBRANCH   4   5
ENDBRANCH   3   4
ENDBRANCH   2   3
ENDBRANCH   1   2
BRANCH   1  28
ATOM     28  C   UNL     1       1.802   1.863   1.178  1.00  0.00     0.188 C 
BRANCH  28  29
ATOM     29  C   UNL     1       1.438   3.320   0.867  1.00  0.00     0.188 C 
BRANCH  29  30
ATOM     30  O   UNL     1       2.453   4.077   0.220  1.00  0.00    -0.376 OA
BRANCH  30  31
ATOM     31  C   UNL     1       2.900   5.210   0.973  1.00  0.00     0.202 C 
BRANCH  31  32
ATOM     32  C   UNL     1       4.029   4.895   1.969  1.00  0.00     0.261 C 
BRANCH  32  33
ATOM     33  O   UNL     1       3.725   3.893   2.954  1.00  0.00    -0.460 OA
BRANCH  33  34
ATOM     34  C   UNL     1       2.756   4.191   3.840  1.00  0.00     0.338 C 
ATOM     35  O   UNL     1       2.083   5.210   3.880  1.00  0.00    -0.246 OA
BRANCH  34  36
ATOM     36  C   UNL     1       2.531   3.032   4.724  1.00  0.00     0.060 A 
ATOM     37  C   UNL     1       3.591   2.444   5.420  1.00  0.00     0.016 A 
ATOM     38  C   UNL     1       1.219   2.583   4.918  1.00  0.00     0.016 A 
ATOM     39  C   UNL     1       3.328   1.441   6.357  1.00  0.00     0.010 A 
ATOM     40  C   UNL     1       0.960   1.565   5.837  1.00  0.00     0.010 A 
ATOM     41  C   UNL     1       2.009   1.016   6.590  1.00  0.00    -0.014 A 
BRANCH  41  42
ATOM     42  C   UNL     1       1.704   0.175   7.771  1.00  0.00     0.031 A 
ATOM     43  C   UNL     1       1.609  -1.314   7.689  1.00  0.00     0.074 A 
ATOM     44  C   UNL     1       1.499   0.801   8.945  1.00  0.00     0.049 A 
ATOM     45  N   UNL     1       1.482  -2.180   8.663  1.00  0.00    -0.248 NA
ATOM     46  C   UNL     1       1.649  -1.911   6.348  1.00  0.00     0.031 C 
ATOM     47  C   UNL     1       1.523   2.253   9.132  1.00  0.00     0.029 A 
ATOM     48  N   UNL     1       1.234   0.305  10.195  1.00  0.00    -0.354 N 
ATOM     49  C   UNL     1       1.460  -3.428   8.060  1.00  0.00     0.074 A 
ATOM     50  C   UNL     1       1.538  -3.204   6.630  1.00  0.00     0.031 C 
ATOM     51  C   UNL     1       1.296   2.531  10.424  1.00  0.00     0.029 A 
ATOM     52  C   UNL     1       1.116   1.280  11.154  1.00  0.00     0.049 A 
ATOM     53  H   UNL     1       1.137  -0.656  10.386  1.00  0.00     0.167 HD
ATOM     54  C   UNL     1       1.398  -4.643   8.657  1.00  0.00     0.037 A 
ATOM     55  C   UNL     1       0.909   1.178  12.479  1.00  0.00     0.037 A 
ATOM     56  C   UNL     1       1.300  -4.852  10.080  1.00  0.00     0.049 A 
ATOM     57  C   UNL     1       0.812  -0.179  13.109  1.00  0.00     0.074 A 
ATOM     58  C   UNL     1       1.320  -6.046  10.781  1.00  0.00     0.029 A 
ATOM     59  N   UNL     1       1.139  -3.844  11.020  1.00  0.00    -0.354 N 
ATOM     60  N   UNL     1       0.917  -1.357  12.546  1.00  0.00    -0.248 NA
ATOM     61  C   UNL     1       0.580  -0.222  14.559  1.00  0.00     0.031 C 
ATOM     62  C   UNL     1       1.121  -5.765  12.137  1.00  0.00     0.029 A 
ATOM     63  C   UNL     1       1.018  -4.391  12.288  1.00  0.00     0.049 A 
ATOM     64  H   UNL     1       1.115  -2.881  10.816  1.00  0.00     0.167 HD
ATOM     65  C   UNL     1       0.783  -2.282  13.570  1.00  0.00     0.074 A 
ATOM     66  C   UNL     1       0.598  -1.528  14.793  1.00  0.00     0.031 C 
ATOM     67  C   UNL     1       0.816  -3.634  13.497  1.00  0.00     0.037 A 
BRANCH  54  68
ATOM     68  C   UNL     1       1.454  -5.857   7.778  1.00  0.00     0.064 A 
ATOM     69  C   UNL     1       2.654  -6.258   7.172  1.00  0.00     0.173 A 
ATOM     70  C   UNL     1       0.328  -6.677   7.615  1.00  0.00     0.173 A 
ATOM     71  F   UNL     1       3.758  -5.506   7.300  1.00  0.00    -0.203 F 
ATOM     72  C   UNL     1       2.722  -7.429   6.423  1.00  0.00     0.198 A 
ATOM     73  C   UNL     1       0.404  -7.859   6.881  1.00  0.00     0.198 A 
ATOM     74  F   UNL     1      -0.840  -6.343   8.183  1.00  0.00    -0.203 F 
ATOM     75  F   UNL     1       3.873  -7.783   5.835  1.00  0.00    -0.200 F 
ATOM     76  C   UNL     1       1.599  -8.233   6.285  1.00  0.00     0.200 A 
ATOM     77  F   UNL     1      -0.677  -8.641   6.759  1.00  0.00    -0.200 F 
ATOM     78  F   UNL     1       1.669  -9.367   5.575  1.00  0.00    -0.200 F 
ENDBRANCH  54  68
BRANCH  55  79
ATOM     79  C   UNL     1       0.855   2.414  13.295  1.00  0.00     0.064 A 
ATOM     80  C   UNL     1       1.946   2.790  14.089  1.00  0.00     0.173 A 
ATOM     81  C   UNL     1      -0.251   3.274  13.243  1.00  0.00     0.173 A 
ATOM     82  F   UNL     1       3.019   1.990  14.174  1.00  0.00    -0.203 F 
ATOM     83  C   UNL     1       1.933   3.985  14.804  1.00  0.00     0.198 A 
ATOM     84  C   UNL     1      -0.255   4.477  13.945  1.00  0.00     0.198 A 
ATOM     85  F   UNL     1      -1.312   2.958  12.488  1.00  0.00    -0.203 F 
ATOM     86  F   UNL     1       2.984   4.318  15.566  1.00  0.00    -0.200 F 
ATOM     87  C   UNL     1       0.837   4.831  14.725  1.00  0.00     0.200 A 
ATOM     88  F   UNL     1      -1.309   5.300  13.855  1.00  0.00    -0.200 F 
ATOM     89  F   UNL     1       0.833   5.989  15.399  1.00  0.00    -0.200 F 
ENDBRANCH  55  79
BRANCH  67  90
ATOM     90  C   UNL     1       0.637  -4.396  14.776  1.00  0.00     0.064 A 
ATOM     91  C   UNL     1      -0.624  -4.525  15.375  1.00  0.00     0.173 A 
ATOM     92  C   UNL     1       1.722  -5.052  15.376  1.00  0.00     0.173 A 
ATOM     93  F   UNL     1      -1.688  -3.901  14.847  1.00  0.00    -0.203 F 
ATOM     94  C   UNL     1      -0.792  -5.277  16.534  1.00  0.00     0.198 A 
ATOM     95  C   UNL     1       1.547  -5.821  16.523  1.00  0.00     0.198 A 
ATOM     96  F   UNL     1       2.948  -4.960  14.840  1.00  0.00    -0.203 F 
ATOM     97  F   UNL     1      -2.001  -5.365  17.105  1.00  0.00    -0.200 F 
ATOM     98  C   UNL     1       0.292  -5.931  17.102  1.00  0.00     0.200 A 
ATOM     99  F   UNL     1       2.593  -6.460  17.066  1.00  0.00    -0.200 F 
ATOM    100  F   UNL     1       0.126  -6.666  18.211  1.00  0.00    -0.200 F 
ENDBRANCH  67  90
ENDBRANCH  41  42
ENDBRANCH  34  36
ENDBRANCH  33  34
ENDBRANCH  32  33
ENDBRANCH  31  32
ENDBRANCH  30  31
ENDBRANCH  29  30
ENDBRANCH  28  29
ENDBRANCH   1  28
TORSDOF 22
