REMARK SMILES Cc1ccnc(C(=O)c2[nH]c3ccc(OC(F)(F)F)cc3c2CC(=O)OCCOCCOCCOC(=O)c2ccc(-c3c4nc(c(-c5c(F)c(F)c(F)c(F)c5F)c5ccc([nH]5)c(-c5c(F)c(F)c(F)c(F)c5F)c5nc(c(-c6c(F)c(F)c(F)c(F)c6F)c6ccc3[nH]6)C=C5)C=C4)cc2)c1
REMARK SMILES IDX 30 1 29 2 28 3 27 4 26 5 24 6 25 7 23 8 22 9 9 10 10 11
REMARK SMILES IDX 11 12 21 14 12 15 20 16 13 17 14 18 7 19 8 20 6 21 1 22 2 23
REMARK SMILES IDX 3 24 101 25 4 26 5 27 15 28 16 29 17 30 18 31 19 32 31 33
REMARK SMILES IDX 32 34 33 35 34 36 35 37 36 38 37 39 38 40 39 41 100 42 40 43
REMARK SMILES IDX 99 44 41 45 42 46 43 47 93 48 44 49 98 50 92 51 94 52 45 53
REMARK SMILES IDX 97 54 91 55 90 56 46 58 78 59 58 60 77 61 59 62 62 63 76 64
REMARK SMILES IDX 95 65 60 66 61 67 75 69 96 70 63 71 47 72 48 73 56 74 49 75
REMARK SMILES IDX 50 76 54 77 57 78 51 79 52 80 55 81 53 82 79 83 80 84 88 85
REMARK SMILES IDX 81 86 82 87 86 88 89 89 83 90 84 91 87 92 85 93 64 94 65 95
REMARK SMILES IDX 73 96 66 97 67 98 71 99 74 100 68 101 69 102 72 103 70 104
REMARK H PARENT 10 13 94 57 62 68
REMARK Flexibility Score: inf
ROOT
ATOM      1  C   UNL     1       4.814  -3.307   0.367  1.00  0.00     0.188 C 
ENDROOT
BRANCH   1   2
ATOM      2  O   UNL     1       6.005  -4.078   0.495  1.00  0.00    -0.376 OA
BRANCH   2   3
ATOM      3  C   UNL     1       5.884  -5.493   0.408  1.00  0.00     0.202 C 
BRANCH   3   4
ATOM      4  C   UNL     1       5.077  -6.142   1.533  1.00  0.00     0.261 C 
BRANCH   4   5
ATOM      5  O   UNL     1       3.673  -5.803   1.462  1.00  0.00    -0.463 OA
BRANCH   5   6
ATOM      6  C   UNL     1       3.059  -5.618   2.657  1.00  0.00     0.310 C 
ATOM      7  O   UNL     1       3.620  -5.787   3.738  1.00  0.00    -0.252 OA
BRANCH   6   8
ATOM      8  C   UNL     1       1.623  -5.136   2.607  1.00  0.00     0.161 C 
BRANCH   8   9
ATOM      9  C   UNL     1       0.852  -5.139   1.308  1.00  0.00     0.000 A 
ATOM     10  C   UNL     1       0.470  -4.033   0.536  1.00  0.00     0.093 A 
ATOM     11  N   UNL     1      -0.208  -4.521  -0.560  1.00  0.00    -0.352 N 
ATOM     12  C   UNL     1      -0.571  -5.826  -0.347  1.00  0.00     0.046 A 
ATOM     13  H   UNL     1      -0.403  -4.008  -1.377  1.00  0.00     0.167 HD
ATOM     14  C   UNL     1       0.102  -6.253   0.794  1.00  0.00     0.008 A 
ATOM     15  C   UNL     1      -1.456  -6.638  -1.060  1.00  0.00     0.030 A 
ATOM     16  C   UNL     1      -0.139  -7.564   1.254  1.00  0.00     0.057 A 
ATOM     17  C   UNL     1      -1.726  -7.910  -0.544  1.00  0.00     0.049 A 
ATOM     18  C   UNL     1      -1.096  -8.365   0.614  1.00  0.00     0.130 A 
BRANCH  10  19
ATOM     19  C   UNL     1       0.704  -2.622   0.784  1.00  0.00     0.227 C 
ATOM     20  O   UNL     1       1.525  -2.215   1.604  1.00  0.00    -0.285 OA
BRANCH  19  21
ATOM     21  C   UNL     1      -0.113  -1.606   0.056  1.00  0.00     0.113 A 
ATOM     22  C   UNL     1      -3.495   0.076   0.248  1.00  0.00     0.044 C 
ATOM     23  C   UNL     1      -2.088  -0.268  -0.141  1.00  0.00    -0.047 A 
ATOM     24  C   UNL     1      -1.375   0.568  -1.005  1.00  0.00     0.023 A 
ATOM     25  C   UNL     1      -1.435  -1.373   0.419  1.00  0.00     0.036 A 
ATOM     26  C   UNL     1      -0.077   0.224  -1.341  1.00  0.00     0.112 A 
ATOM     27  N   UNL     1       0.559  -0.861  -0.853  1.00  0.00    -0.253 NA
ENDBRANCH  19  21
ENDBRANCH  10  19
BRANCH  18  28
ATOM     28  O   UNL     1      -1.331  -9.561   1.234  1.00  0.00    -0.406 OA
BRANCH  28  29
ATOM     29  C   UNL     1      -2.543 -10.225   0.918  1.00  0.00     0.573 C 
ATOM     30  F   UNL     1      -3.607  -9.399   1.023  1.00  0.00    -0.132 F 
ATOM     31  F   UNL     1      -2.497 -10.743  -0.328  1.00  0.00    -0.132 F 
ATOM     32  F   UNL     1      -2.720 -11.243   1.790  1.00  0.00    -0.132 F 
ENDBRANCH  28  29
ENDBRANCH  18  28
ENDBRANCH   8   9
ENDBRANCH   6   8
ENDBRANCH   5   6
ENDBRANCH   4   5
ENDBRANCH   3   4
ENDBRANCH   2   3
ENDBRANCH   1   2
BRANCH   1  33
ATOM     33  C   UNL     1       3.810  -3.700  -0.737  1.00  0.00     0.188 C 
BRANCH  33  34
ATOM     34  O   UNL     1       4.316  -4.258  -1.944  1.00  0.00    -0.376 OA
BRANCH  34  35
ATOM     35  C   UNL     1       5.350  -3.536  -2.604  1.00  0.00     0.202 C 
BRANCH  35  36
ATOM     36  C   UNL     1       4.911  -2.163  -3.099  1.00  0.00     0.261 C 
BRANCH  36  37
ATOM     37  O   UNL     1       4.786  -1.254  -1.987  1.00  0.00    -0.460 OA
BRANCH  37  38
ATOM     38  C   UNL     1       4.090  -0.135  -2.273  1.00  0.00     0.338 C 
ATOM     39  O   UNL     1       3.665   0.203  -3.365  1.00  0.00    -0.246 OA
BRANCH  38  40
ATOM     40  C   UNL     1       3.865   0.675  -1.058  1.00  0.00     0.060 A 
ATOM     41  C   UNL     1       3.222   0.128   0.049  1.00  0.00     0.016 A 
ATOM     42  C   UNL     1       4.073   2.053  -1.120  1.00  0.00     0.016 A 
ATOM     43  C   UNL     1       2.629   0.964   0.998  1.00  0.00     0.010 A 
ATOM     44  C   UNL     1       3.565   2.881  -0.112  1.00  0.00     0.010 A 
ATOM     45  C   UNL     1       2.761   2.356   0.915  1.00  0.00    -0.014 A 
BRANCH  45  46
ATOM     46  C   UNL     1       1.968   3.259   1.805  1.00  0.00     0.031 A 
ATOM     47  C   UNL     1       1.017   4.270   1.202  1.00  0.00     0.074 A 
ATOM     48  C   UNL     1       2.033   3.156   3.148  1.00  0.00     0.049 A 
ATOM     49  N   UNL     1       0.370   5.255   1.777  1.00  0.00    -0.248 NA
ATOM     50  C   UNL     1       0.756   4.158  -0.243  1.00  0.00     0.031 C 
ATOM     51  C   UNL     1       2.822   2.173   3.888  1.00  0.00     0.029 A 
ATOM     52  N   UNL     1       1.412   3.890   4.133  1.00  0.00    -0.354 N 
ATOM     53  C   UNL     1      -0.334   5.898   0.765  1.00  0.00     0.074 A 
ATOM     54  C   UNL     1      -0.032   5.201  -0.466  1.00  0.00     0.031 C 
ATOM     55  C   UNL     1       2.617   2.343   5.203  1.00  0.00     0.029 A 
ATOM     56  C   UNL     1       1.762   3.507   5.405  1.00  0.00     0.049 A 
ATOM     57  H   UNL     1       0.779   4.620   3.943  1.00  0.00     0.167 HD
ATOM     58  C   UNL     1      -1.155   6.973   0.851  1.00  0.00     0.037 A 
ATOM     59  C   UNL     1       1.477   4.059   6.601  1.00  0.00     0.037 A 
ATOM     60  C   UNL     1      -1.480   7.660   2.074  1.00  0.00     0.049 A 
ATOM     61  C   UNL     1       0.645   5.311   6.659  1.00  0.00     0.074 A 
ATOM     62  C   UNL     1      -2.269   8.785   2.252  1.00  0.00     0.029 A 
ATOM     63  N   UNL     1      -1.044   7.280   3.333  1.00  0.00    -0.354 N 
ATOM     64  N   UNL     1       0.058   5.965   5.686  1.00  0.00    -0.248 NA
ATOM     65  C   UNL     1       0.456   5.916   7.985  1.00  0.00     0.031 C 
ATOM     66  C   UNL     1      -2.278   9.107   3.613  1.00  0.00     0.029 A 
ATOM     67  C   UNL     1      -1.535   8.156   4.290  1.00  0.00     0.049 A 
ATOM     68  H   UNL     1      -0.469   6.502   3.521  1.00  0.00     0.167 HD
ATOM     69  C   UNL     1      -0.574   7.048   6.282  1.00  0.00     0.074 A 
ATOM     70  C   UNL     1      -0.329   6.945   7.705  1.00  0.00     0.031 C 
ATOM     71  C   UNL     1      -1.282   8.047   5.702  1.00  0.00     0.037 A 
BRANCH  58  72
ATOM     72  C   UNL     1      -1.747   7.505  -0.423  1.00  0.00     0.064 A 
ATOM     73  C   UNL     1      -2.798   6.850  -1.080  1.00  0.00     0.173 A 
ATOM     74  C   UNL     1      -1.299   8.725  -0.954  1.00  0.00     0.173 A 
ATOM     75  F   UNL     1      -3.250   5.672  -0.624  1.00  0.00    -0.203 F 
ATOM     76  C   UNL     1      -3.374   7.394  -2.226  1.00  0.00     0.198 A 
ATOM     77  C   UNL     1      -1.893   9.277  -2.086  1.00  0.00     0.198 A 
ATOM     78  F   UNL     1      -0.297   9.392  -0.361  1.00  0.00    -0.203 F 
ATOM     79  F   UNL     1      -4.359   6.737  -2.855  1.00  0.00    -0.200 F 
ATOM     80  C   UNL     1      -2.928   8.610  -2.722  1.00  0.00     0.200 A 
ATOM     81  F   UNL     1      -1.467  10.457  -2.556  1.00  0.00    -0.200 F 
ATOM     82  F   UNL     1      -3.494   9.138  -3.816  1.00  0.00    -0.200 F 
ENDBRANCH  58  72
BRANCH  59  83
ATOM     83  C   UNL     1       2.045   3.475   7.846  1.00  0.00     0.064 A 
ATOM     84  C   UNL     1       1.218   2.924   8.834  1.00  0.00     0.173 A 
ATOM     85  C   UNL     1       3.428   3.491   8.090  1.00  0.00     0.173 A 
ATOM     86  F   UNL     1      -0.113   2.920   8.667  1.00  0.00    -0.203 F 
ATOM     87  C   UNL     1       1.749   2.428  10.023  1.00  0.00     0.198 A 
ATOM     88  C   UNL     1       3.961   2.960   9.261  1.00  0.00     0.198 A 
ATOM     89  F   UNL     1       4.264   4.020   7.184  1.00  0.00    -0.203 F 
ATOM     90  F   UNL     1       0.930   1.964  10.977  1.00  0.00    -0.200 F 
ATOM     91  C   UNL     1       3.120   2.438  10.232  1.00  0.00     0.200 A 
ATOM     92  F   UNL     1       5.287   2.963   9.452  1.00  0.00    -0.200 F 
ATOM     93  F   UNL     1       3.630   1.960  11.375  1.00  0.00    -0.200 F 
ENDBRANCH  59  83
BRANCH  71  94
ATOM     94  C   UNL     1      -1.861   9.089   6.615  1.00  0.00     0.064 A 
ATOM     95  C   UNL     1      -1.046  10.027   7.268  1.00  0.00     0.173 A 
ATOM     96  C   UNL     1      -3.243   9.143   6.850  1.00  0.00     0.173 A 
ATOM     97  F   UNL     1       0.283  10.007   7.088  1.00  0.00    -0.203 F 
ATOM     98  C   UNL     1      -1.589  10.951   8.157  1.00  0.00     0.198 A 
ATOM     99  C   UNL     1      -3.786  10.088   7.716  1.00  0.00     0.198 A 
ATOM    100  F   UNL     1      -4.067   8.275   6.244  1.00  0.00    -0.203 F 
ATOM    101  F   UNL     1      -0.784  11.792   8.820  1.00  0.00    -0.200 F 
ATOM    102  C   UNL     1      -2.958  10.982   8.378  1.00  0.00     0.200 A 
ATOM    103  F   UNL     1      -5.110  10.125   7.921  1.00  0.00    -0.200 F 
ATOM    104  F   UNL     1      -3.478  11.866   9.241  1.00  0.00    -0.200 F 
ENDBRANCH  71  94
ENDBRANCH  45  46
ENDBRANCH  38  40
ENDBRANCH  37  38
ENDBRANCH  36  37
ENDBRANCH  35  36
ENDBRANCH  34  35
ENDBRANCH  33  34
ENDBRANCH   1  33
TORSDOF 22
