REMARK SMILES CC1=C(CC(=O)OCCOCCOCCOC(=O)c2ccc(-c3c4nc(c(-c5c(F)c(F)c(F)c(F)c5F)c5ccc([nH]5)c(-c5c(F)c(F)c(F)c(F)c5F)c5nc(c(-c6c(F)c(F)c(F)c(F)c6F)c6ccc3[nH]6)C=C5)C=C4)cc2)c2cc(F)ccc2/C1=C\c1ccc([S@@+](C)[O-])cc1
REMARK SMILES IDX 11 1 10 2 9 3 8 4 7 5 5 6 6 7 4 8 3 9 1 10 2 11 89 12 82 13
REMARK SMILES IDX 88 14 90 15 83 16 87 17 84 18 86 19 85 20 91 21 92 22 99 23
REMARK SMILES IDX 93 24 98 25 94 26 95 27 96 28 97 29 12 30 13 31 14 32 15 33
REMARK SMILES IDX 16 34 17 35 18 36 19 37 20 38 81 39 21 40 80 41 22 42 23 43
REMARK SMILES IDX 24 44 74 45 25 46 79 47 73 48 75 49 26 50 78 51 72 52 71 53
REMARK SMILES IDX 27 55 59 56 39 57 58 58 40 59 43 60 57 61 76 62 41 63 42 64
REMARK SMILES IDX 56 66 77 67 44 68 28 69 29 70 37 71 30 72 31 73 35 74 38 75
REMARK SMILES IDX 32 76 33 77 36 78 34 79 60 80 61 81 69 82 62 83 63 84 67 85
REMARK SMILES IDX 70 86 64 87 65 88 68 89 66 90 45 91 46 92 54 93 47 94 48 95
REMARK SMILES IDX 52 96 55 97 49 98 50 99 53 100 51 101
REMARK H PARENT 75 54 43 65
REMARK Flexibility Score: inf
ROOT
ATOM      1  C   UNL     1      -0.750   1.469   5.591  1.00  0.00     0.188 C 
ENDROOT
BRANCH   1   2
ATOM      2  O   UNL     1      -0.315   0.391   6.417  1.00  0.00    -0.376 OA
BRANCH   2   3
ATOM      3  C   UNL     1       0.829  -0.344   5.996  1.00  0.00     0.202 C 
BRANCH   3   4
ATOM      4  C   UNL     1       0.597  -1.218   4.763  1.00  0.00     0.261 C 
BRANCH   4   5
ATOM      5  O   UNL     1       0.284  -0.429   3.592  1.00  0.00    -0.463 OA
BRANCH   5   6
ATOM      6  C   UNL     1      -0.661  -0.949   2.771  1.00  0.00     0.310 C 
ATOM      7  O   UNL     1      -1.190  -2.045   2.939  1.00  0.00    -0.252 OA
BRANCH   6   8
ATOM      8  C   UNL     1      -1.126  -0.014   1.654  1.00  0.00     0.159 C 
BRANCH   8   9
ATOM      9  C   UNL     1      -0.270   1.120   1.172  1.00  0.00    -0.025 C 
ATOM     10  C   UNL     1       1.565  -0.140  -0.063  1.00  0.00     0.045 C 
ATOM     11  C   UNL     1       0.864   1.080   0.430  1.00  0.00    -0.039 C 
ATOM     12  C   UNL     1       1.291   2.449   0.078  1.00  0.00    -0.014 C 
ATOM     13  C   UNL     1      -0.681   2.537   1.251  1.00  0.00    -0.011 A 
ATOM     14  C   UNL     1       0.296   3.364   0.669  1.00  0.00    -0.010 A 
ATOM     15  C   UNL     1       2.342   2.763  -0.710  1.00  0.00     0.017 C 
ATOM     16  C   UNL     1      -1.861   3.094   1.724  1.00  0.00     0.048 A 
ATOM     17  C   UNL     1       0.151   4.748   0.674  1.00  0.00     0.012 A 
ATOM     18  C   UNL     1      -2.018   4.480   1.661  1.00  0.00     0.123 A 
ATOM     19  C   UNL     1      -1.013   5.311   1.186  1.00  0.00     0.040 A 
ATOM     20  F   UNL     1      -3.164   5.029   2.085  1.00  0.00    -0.207 F 
BRANCH  15  21
ATOM     21  C   UNL     1       2.723   4.133  -1.081  1.00  0.00    -0.025 A 
ATOM     22  C   UNL     1       3.501   4.892  -0.201  1.00  0.00     0.013 A 
ATOM     23  C   UNL     1       2.172   4.745  -2.212  1.00  0.00     0.013 A 
ATOM     24  C   UNL     1       3.630   6.274  -0.384  1.00  0.00     0.061 A 
ATOM     25  C   UNL     1       2.316   6.125  -2.403  1.00  0.00     0.061 A 
ATOM     26  C   UNL     1       3.012   6.907  -1.470  1.00  0.00     0.152 A 
BRANCH  26  27
ATOM     27  S   UNL     1       2.916   8.714  -1.576  1.00  0.00    -0.018 S 
ATOM     28  C   UNL     1       4.635   9.148  -1.254  1.00  0.00     0.346 C 
ATOM     29  O   UNL     1       2.595   9.070  -3.071  1.00  0.00    -0.612 OA
ENDBRANCH  26  27
ENDBRANCH  15  21
ENDBRANCH   8   9
ENDBRANCH   6   8
ENDBRANCH   5   6
ENDBRANCH   4   5
ENDBRANCH   3   4
ENDBRANCH   2   3
ENDBRANCH   1   2
BRANCH   1  30
ATOM     30  C   UNL     1       0.318   2.320   4.888  1.00  0.00     0.188 C 
BRANCH  30  31
ATOM     31  O   UNL     1       1.402   2.622   5.761  1.00  0.00    -0.376 OA
BRANCH  31  32
ATOM     32  C   UNL     1       1.769   3.996   5.764  1.00  0.00     0.202 C 
BRANCH  32  33
ATOM     33  C   UNL     1       1.051   4.720   6.903  1.00  0.00     0.261 C 
BRANCH  33  34
ATOM     34  O   UNL     1      -0.384   4.617   6.829  1.00  0.00    -0.460 OA
BRANCH  34  35
ATOM     35  C   UNL     1      -0.989   5.442   5.949  1.00  0.00     0.338 C 
ATOM     36  O   UNL     1      -0.460   6.237   5.196  1.00  0.00    -0.246 OA
BRANCH  35  37
ATOM     37  C   UNL     1      -2.433   5.152   5.971  1.00  0.00     0.060 A 
ATOM     38  C   UNL     1      -3.266   5.727   6.925  1.00  0.00     0.016 A 
ATOM     39  C   UNL     1      -2.971   4.346   4.969  1.00  0.00     0.016 A 
ATOM     40  C   UNL     1      -4.646   5.505   6.849  1.00  0.00     0.010 A 
ATOM     41  C   UNL     1      -4.350   4.166   4.860  1.00  0.00     0.010 A 
ATOM     42  C   UNL     1      -5.206   4.747   5.799  1.00  0.00    -0.014 A 
BRANCH  42  43
ATOM     43  C   UNL     1      -6.682   4.660   5.642  1.00  0.00     0.031 A 
ATOM     44  C   UNL     1      -7.426   3.368   5.822  1.00  0.00     0.074 A 
ATOM     45  C   UNL     1      -7.361   5.775   5.310  1.00  0.00     0.049 A 
ATOM     46  N   UNL     1      -8.719   3.168   5.901  1.00  0.00    -0.248 NA
ATOM     47  C   UNL     1      -6.626   2.136   5.896  1.00  0.00     0.031 C 
ATOM     48  C   UNL     1      -6.749   7.062   4.976  1.00  0.00     0.029 A 
ATOM     49  N   UNL     1      -8.710   6.014   5.218  1.00  0.00    -0.354 N 
ATOM     50  C   UNL     1      -8.885   1.799   6.058  1.00  0.00     0.074 A 
ATOM     51  C   UNL     1      -7.567   1.205   5.988  1.00  0.00     0.031 C 
ATOM     52  C   UNL     1      -7.716   7.972   4.784  1.00  0.00     0.029 A 
ATOM     53  C   UNL     1      -9.015   7.332   4.974  1.00  0.00     0.049 A 
ATOM     54  H   UNL     1      -9.392   5.311   5.316  1.00  0.00     0.167 HD
ATOM     55  C   UNL     1     -10.029   1.108   6.279  1.00  0.00     0.037 A 
ATOM     56  C   UNL     1     -10.204   7.963   4.951  1.00  0.00     0.037 A 
ATOM     57  C   UNL     1     -11.337   1.706   6.354  1.00  0.00     0.049 A 
ATOM     58  C   UNL     1     -11.456   7.188   5.249  1.00  0.00     0.074 A 
ATOM     59  C   UNL     1     -12.547   1.105   6.655  1.00  0.00     0.029 A 
ATOM     60  N   UNL     1     -11.606   3.046   6.115  1.00  0.00    -0.354 N 
ATOM     61  N   UNL     1     -11.591   5.918   5.540  1.00  0.00    -0.248 NA
ATOM     62  C   UNL     1     -12.720   7.938   5.234  1.00  0.00     0.031 C 
ATOM     63  C   UNL     1     -13.553   2.072   6.562  1.00  0.00     0.029 A 
ATOM     64  C   UNL     1     -12.965   3.285   6.243  1.00  0.00     0.049 A 
ATOM     65  H   UNL     1     -10.931   3.726   5.888  1.00  0.00     0.167 HD
ATOM     66  C   UNL     1     -12.946   5.717   5.757  1.00  0.00     0.074 A 
ATOM     67  C   UNL     1     -13.592   7.002   5.586  1.00  0.00     0.031 C 
ATOM     68  C   UNL     1     -13.595   4.569   6.067  1.00  0.00     0.037 A 
BRANCH  55  69
ATOM     69  C   UNL     1      -9.921  -0.372   6.507  1.00  0.00     0.064 A 
ATOM     70  C   UNL     1      -9.366  -0.883   7.691  1.00  0.00     0.173 A 
ATOM     71  C   UNL     1     -10.448  -1.287   5.583  1.00  0.00     0.173 A 
ATOM     72  F   UNL     1      -8.848  -0.050   8.606  1.00  0.00    -0.203 F 
ATOM     73  C   UNL     1      -9.325  -2.253   7.933  1.00  0.00     0.198 A 
ATOM     74  C   UNL     1     -10.429  -2.656   5.840  1.00  0.00     0.198 A 
ATOM     75  F   UNL     1     -11.002  -0.853   4.441  1.00  0.00    -0.203 F 
ATOM     76  F   UNL     1      -8.764  -2.716   9.058  1.00  0.00    -0.200 F 
ATOM     77  C   UNL     1      -9.864  -3.138   7.012  1.00  0.00     0.200 A 
ATOM     78  F   UNL     1     -10.965  -3.511   4.957  1.00  0.00    -0.200 F 
ATOM     79  F   UNL     1      -9.841  -4.456   7.254  1.00  0.00    -0.200 F 
ENDBRANCH  55  69
BRANCH  56  80
ATOM     80  C   UNL     1     -10.245   9.431   4.732  1.00  0.00     0.064 A 
ATOM     81  C   UNL     1     -10.518  10.303   5.796  1.00  0.00     0.173 A 
ATOM     82  C   UNL     1      -9.972   9.994   3.478  1.00  0.00     0.173 A 
ATOM     83  F   UNL     1     -10.800   9.809   7.011  1.00  0.00    -0.203 F 
ATOM     84  C   UNL     1     -10.525  11.684   5.611  1.00  0.00     0.198 A 
ATOM     85  C   UNL     1      -9.956  11.376   3.300  1.00  0.00     0.198 A 
ATOM     86  F   UNL     1      -9.696   9.201   2.433  1.00  0.00    -0.203 F 
ATOM     87  F   UNL     1     -10.815  12.493   6.638  1.00  0.00    -0.200 F 
ATOM     88  C   UNL     1     -10.236  12.219   4.365  1.00  0.00     0.200 A 
ATOM     89  F   UNL     1      -9.663  11.891   2.098  1.00  0.00    -0.200 F 
ATOM     90  F   UNL     1     -10.230  13.548   4.191  1.00  0.00    -0.200 F 
ENDBRANCH  56  80
BRANCH  68  91
ATOM     91  C   UNL     1     -15.083   4.640   6.242  1.00  0.00     0.064 A 
ATOM     92  C   UNL     1     -15.940   4.778   5.140  1.00  0.00     0.173 A 
ATOM     93  C   UNL     1     -15.660   4.499   7.513  1.00  0.00     0.173 A 
ATOM     94  F   UNL     1     -15.435   4.929   3.907  1.00  0.00    -0.203 F 
ATOM     95  C   UNL     1     -17.322   4.783   5.306  1.00  0.00     0.198 A 
ATOM     96  C   UNL     1     -17.043   4.480   7.672  1.00  0.00     0.198 A 
ATOM     97  F   UNL     1     -14.883   4.358   8.597  1.00  0.00    -0.203 F 
ATOM     98  F   UNL     1     -18.122   4.946   4.244  1.00  0.00    -0.200 F 
ATOM     99  C   UNL     1     -17.872   4.625   6.570  1.00  0.00     0.200 A 
ATOM    100  F   UNL     1     -17.573   4.315   8.892  1.00  0.00    -0.200 F 
ATOM    101  F   UNL     1     -19.203   4.616   6.726  1.00  0.00    -0.200 F 
ENDBRANCH  68  91
ENDBRANCH  42  43
ENDBRANCH  35  37
ENDBRANCH  34  35
ENDBRANCH  33  34
ENDBRANCH  32  33
ENDBRANCH  31  32
ENDBRANCH  30  31
ENDBRANCH   1  30
TORSDOF 20
