REMARK SMILES O=C(C[NH+]1CCN(C(=O)c2ccc(F)c(F)c2F)CC1)OCCOCCOCCOC(=O)c1ccc(-c2c3nc(c(-c4c(F)c(F)c(F)c(F)c4F)c4ccc([nH]4)c(-c4c(F)c(F)c(F)c(F)c4F)c4nc(c(-c5c(F)c(F)c(F)c(F)c5F)c5ccc2[nH]5)C=C4)C=C3)cc1
REMARK SMILES IDX 25 1 24 2 23 3 22 4 21 5 2 6 1 7 3 8 4 9 5 10 20 11 6 13
REMARK SMILES IDX 19 14 7 15 8 16 9 17 10 18 11 19 17 20 12 21 15 22 18 23
REMARK SMILES IDX 13 24 16 25 14 26 26 27 27 28 28 29 29 30 30 31 31 32 32 33
REMARK SMILES IDX 33 34 34 35 95 36 35 37 94 38 36 39 37 40 38 41 88 42 39 43
REMARK SMILES IDX 93 44 87 45 89 46 40 47 92 48 86 49 85 50 41 52 73 53 53 54
REMARK SMILES IDX 72 55 54 56 57 57 71 58 90 59 55 60 56 61 70 63 91 64 58 65
REMARK SMILES IDX 42 66 43 67 51 68 44 69 45 70 49 71 52 72 46 73 47 74 50 75
REMARK SMILES IDX 48 76 74 77 75 78 83 79 76 80 77 81 81 82 84 83 78 84 79 85
REMARK SMILES IDX 82 86 80 87 59 88 60 89 68 90 61 91 62 92 66 93 69 94 63 95
REMARK SMILES IDX 64 96 67 97 65 98
REMARK H PARENT 4 12 89 51 57 62
REMARK Flexibility Score: inf
ROOT
ATOM      1  C   UNL     1       3.336   0.030  -2.318  1.00  0.00     0.188 C 
ENDROOT
BRANCH   1   2
ATOM      2  O   UNL     1       4.557  -0.554  -1.900  1.00  0.00    -0.376 OA
BRANCH   2   3
ATOM      3  C   UNL     1       5.143  -0.037  -0.721  1.00  0.00     0.202 C 
BRANCH   3   4
ATOM      4  C   UNL     1       4.692  -0.875   0.469  1.00  0.00     0.261 C 
BRANCH   4   5
ATOM      5  O   UNL     1       3.265  -1.079   0.559  1.00  0.00    -0.459 OA
BRANCH   5   6
ATOM      6  C   UNL     1       2.330  -0.133   0.765  1.00  0.00     0.361 C 
ATOM      7  O   UNL     1       1.141  -0.447   0.811  1.00  0.00    -0.245 OA
BRANCH   6   8
ATOM      8  C   UNL     1       2.744   1.325   0.950  1.00  0.00     0.386 C 
BRANCH   8   9
ATOM      9  N   UNL     1       3.582   1.560   2.144  1.00  0.00    -0.323 N 
ATOM     10  C   UNL     1       3.608   3.019   2.456  1.00  0.00     0.284 C 
ATOM     11  C   UNL     1       3.037   0.840   3.320  1.00  0.00     0.284 C 
ATOM     12  H   UNL     1       4.523   1.218   1.945  1.00  0.00     0.348 HD
ATOM     13  C   UNL     1       2.284   3.608   3.018  1.00  0.00     0.181 C 
ATOM     14  C   UNL     1       1.629   1.323   3.689  1.00  0.00     0.181 C 
ATOM     15  N   UNL     1       1.707   2.741   4.051  1.00  0.00    -0.327 N 
ATOM     16  C   UNL     1       1.327   3.263   5.277  1.00  0.00     0.257 C 
ATOM     17  O   UNL     1       1.348   4.455   5.563  1.00  0.00    -0.269 OA
BRANCH  16  18
ATOM     18  C   UNL     1       0.929   2.292   6.308  1.00  0.00     0.079 A 
ATOM     19  C   UNL     1       1.893   1.413   6.831  1.00  0.00     0.020 A 
ATOM     20  C   UNL     1      -0.417   2.152   6.632  1.00  0.00     0.174 A 
ATOM     21  C   UNL     1       1.484   0.350   7.635  1.00  0.00     0.043 A 
ATOM     22  C   UNL     1      -0.812   1.107   7.455  1.00  0.00     0.195 A 
ATOM     23  F   UNL     1      -1.340   2.967   6.102  1.00  0.00    -0.203 F 
ATOM     24  C   UNL     1       0.132   0.204   7.939  1.00  0.00     0.161 A 
ATOM     25  F   UNL     1      -2.109   0.938   7.749  1.00  0.00    -0.200 F 
ATOM     26  F   UNL     1      -0.255  -0.837   8.686  1.00  0.00    -0.204 F 
ENDBRANCH  16  18
ENDBRANCH   8   9
ENDBRANCH   6   8
ENDBRANCH   5   6
ENDBRANCH   4   5
ENDBRANCH   3   4
ENDBRANCH   2   3
ENDBRANCH   1   2
BRANCH   1  27
ATOM     27  C   UNL     1       2.417  -0.982  -3.016  1.00  0.00     0.188 C 
BRANCH  27  28
ATOM     28  O   UNL     1       2.963  -2.026  -3.811  1.00  0.00    -0.376 OA
BRANCH  28  29
ATOM     29  C   UNL     1       4.257  -1.884  -4.372  1.00  0.00     0.202 C 
BRANCH  29  30
ATOM     30  C   UNL     1       4.408  -0.856  -5.499  1.00  0.00     0.261 C 
BRANCH  30  31
ATOM     31  O   UNL     1       4.067   0.500  -5.146  1.00  0.00    -0.460 OA
BRANCH  31  32
ATOM     32  C   UNL     1       2.886   0.954  -5.636  1.00  0.00     0.338 C 
ATOM     33  O   UNL     1       2.097   0.344  -6.337  1.00  0.00    -0.246 OA
BRANCH  32  34
ATOM     34  C   UNL     1       2.578   2.308  -5.118  1.00  0.00     0.060 A 
ATOM     35  C   UNL     1       1.341   2.513  -4.491  1.00  0.00     0.016 A 
ATOM     36  C   UNL     1       3.422   3.393  -5.366  1.00  0.00     0.016 A 
ATOM     37  C   UNL     1       0.916   3.807  -4.167  1.00  0.00     0.010 A 
ATOM     38  C   UNL     1       2.987   4.691  -5.057  1.00  0.00     0.010 A 
ATOM     39  C   UNL     1       1.714   4.910  -4.497  1.00  0.00    -0.014 A 
BRANCH  39  40
ATOM     40  C   UNL     1       1.145   6.285  -4.449  1.00  0.00     0.031 A 
ATOM     41  C   UNL     1       0.578   6.879  -5.713  1.00  0.00     0.074 A 
ATOM     42  C   UNL     1       1.105   7.000  -3.309  1.00  0.00     0.049 A 
ATOM     43  N   UNL     1       0.107   8.082  -5.931  1.00  0.00    -0.248 NA
ATOM     44  C   UNL     1       0.534   5.995  -6.889  1.00  0.00     0.031 C 
ATOM     45  C   UNL     1       1.552   6.532  -2.002  1.00  0.00     0.029 A 
ATOM     46  N   UNL     1       0.668   8.284  -3.078  1.00  0.00    -0.354 N 
ATOM     47  C   UNL     1      -0.284   8.099  -7.264  1.00  0.00     0.074 A 
ATOM     48  C   UNL     1       0.025   6.796  -7.813  1.00  0.00     0.031 C 
ATOM     49  C   UNL     1       1.379   7.519  -1.104  1.00  0.00     0.029 A 
ATOM     50  C   UNL     1       0.843   8.702  -1.781  1.00  0.00     0.049 A 
ATOM     51  H   UNL     1       0.267   8.851  -3.776  1.00  0.00     0.167 HD
ATOM     52  C   UNL     1      -0.857   9.105  -7.966  1.00  0.00     0.037 A 
ATOM     53  C   UNL     1       0.621   9.904  -1.210  1.00  0.00     0.037 A 
ATOM     54  C   UNL     1      -1.175  10.401  -7.429  1.00  0.00     0.049 A 
ATOM     55  C   UNL     1       0.073  11.042  -2.038  1.00  0.00     0.074 A 
ATOM     56  C   UNL     1      -1.762  11.477  -8.072  1.00  0.00     0.029 A 
ATOM     57  N   UNL     1      -0.931  10.799  -6.125  1.00  0.00    -0.354 N 
ATOM     58  N   UNL     1      -0.286  11.051  -3.298  1.00  0.00    -0.248 NA
ATOM     59  C   UNL     1      -0.094  12.340  -1.363  1.00  0.00     0.031 C 
ATOM     60  C   UNL     1      -1.829  12.543  -7.171  1.00  0.00     0.029 A 
ATOM     61  C   UNL     1      -1.333  12.114  -5.951  1.00  0.00     0.049 A 
ATOM     62  H   UNL     1      -0.531  10.232  -5.426  1.00  0.00     0.167 HD
ATOM     63  C   UNL     1      -0.746  12.337  -3.558  1.00  0.00     0.074 A 
ATOM     64  C   UNL     1      -0.627  13.083  -2.325  1.00  0.00     0.031 C 
ATOM     65  C   UNL     1      -1.224  12.849  -4.718  1.00  0.00     0.037 A 
BRANCH  52  66
ATOM     66  C   UNL     1      -1.174   8.858  -9.411  1.00  0.00     0.064 A 
ATOM     67  C   UNL     1      -0.440   9.504 -10.418  1.00  0.00     0.173 A 
ATOM     68  C   UNL     1      -2.255   8.053  -9.797  1.00  0.00     0.173 A 
ATOM     69  F   UNL     1       0.599  10.290 -10.098  1.00  0.00    -0.203 F 
ATOM     70  C   UNL     1      -0.790   9.368 -11.758  1.00  0.00     0.198 A 
ATOM     71  C   UNL     1      -2.586   7.898 -11.140  1.00  0.00     0.198 A 
ATOM     72  F   UNL     1      -2.979   7.406  -8.871  1.00  0.00    -0.203 F 
ATOM     73  F   UNL     1      -0.098  10.023 -12.700  1.00  0.00    -0.200 F 
ATOM     74  C   UNL     1      -1.861   8.564 -12.118  1.00  0.00     0.200 A 
ATOM     75  F   UNL     1      -3.609   7.105 -11.489  1.00  0.00    -0.200 F 
ATOM     76  F   UNL     1      -2.195   8.430 -13.409  1.00  0.00    -0.200 F 
ENDBRANCH  52  66
BRANCH  53  77
ATOM     77  C   UNL     1       0.934  10.107   0.230  1.00  0.00     0.064 A 
ATOM     78  C   UNL     1       2.258  10.114   0.693  1.00  0.00     0.173 A 
ATOM     79  C   UNL     1      -0.086  10.312   1.169  1.00  0.00     0.173 A 
ATOM     80  F   UNL     1       3.271   9.931  -0.166  1.00  0.00    -0.203 F 
ATOM     81  C   UNL     1       2.548  10.297   2.043  1.00  0.00     0.198 A 
ATOM     82  C   UNL     1       0.207  10.523   2.516  1.00  0.00     0.198 A 
ATOM     83  F   UNL     1      -1.365  10.349   0.769  1.00  0.00    -0.203 F 
ATOM     84  F   UNL     1       3.821  10.272   2.461  1.00  0.00    -0.200 F 
ATOM     85  C   UNL     1       1.523  10.507   2.953  1.00  0.00     0.200 A 
ATOM     86  F   UNL     1      -0.785  10.759   3.385  1.00  0.00    -0.200 F 
ATOM     87  F   UNL     1       1.805  10.705   4.248  1.00  0.00    -0.200 F 
ENDBRANCH  53  77
BRANCH  65  88
ATOM     88  C   UNL     1      -1.688  14.278  -4.726  1.00  0.00     0.064 A 
ATOM     89  C   UNL     1      -3.052  14.581  -4.862  1.00  0.00     0.173 A 
ATOM     90  C   UNL     1      -0.779  15.345  -4.702  1.00  0.00     0.173 A 
ATOM     91  F   UNL     1      -3.963  13.596  -4.901  1.00  0.00    -0.203 F 
ATOM     92  C   UNL     1      -3.486  15.898  -4.994  1.00  0.00     0.198 A 
ATOM     93  C   UNL     1      -1.219  16.663  -4.809  1.00  0.00     0.198 A 
ATOM     94  F   UNL     1       0.535  15.109  -4.565  1.00  0.00    -0.203 F 
ATOM     95  F   UNL     1      -4.789  16.159  -5.164  1.00  0.00    -0.200 F 
ATOM     96  C   UNL     1      -2.569  16.937  -4.966  1.00  0.00     0.200 A 
ATOM     97  F   UNL     1      -0.334  17.668  -4.762  1.00  0.00    -0.200 F 
ATOM     98  F   UNL     1      -2.987  18.204  -5.092  1.00  0.00    -0.200 F 
ENDBRANCH  65  88
ENDBRANCH  39  40
ENDBRANCH  32  34
ENDBRANCH  31  32
ENDBRANCH  30  31
ENDBRANCH  29  30
ENDBRANCH  28  29
ENDBRANCH  27  28
ENDBRANCH   1  27
TORSDOF 19
