REMARK SMILES O=C(OCCOCCOCCOC(=O)c1ccc(-c2c3nc(c(-c4c(F)c(F)c(F)c(F)c4F)c4ccc([nH]4)c(-c4c(F)c(F)c(F)c(F)c4F)c4nc(c(-c5c(F)c(F)c(F)c(F)c5F)c5ccc2[nH]5)C=C4)C=C3)cc1)c1ccc(NS(=O)(=O)C2=Cc3ccccc3CC2)cc1
REMARK SMILES IDX 7 1 6 2 5 3 4 4 3 5 2 6 1 7 78 8 79 9 97 10 80 11 96 12
REMARK SMILES IDX 81 13 82 14 83 16 84 17 85 18 86 19 87 20 95 21 88 22 94 23
REMARK SMILES IDX 89 24 93 25 90 26 92 27 91 28 8 29 9 30 10 31 11 32 12 33
REMARK SMILES IDX 13 34 14 35 15 36 16 37 77 38 17 39 76 40 18 41 19 42 20 43
REMARK SMILES IDX 70 44 21 45 75 46 69 47 71 48 22 49 74 50 68 51 67 52 23 54
REMARK SMILES IDX 55 55 35 56 54 57 36 58 39 59 53 60 72 61 37 62 38 63 52 65
REMARK SMILES IDX 73 66 40 67 24 68 25 69 33 70 26 71 27 72 31 73 34 74 28 75
REMARK SMILES IDX 29 76 32 77 30 78 56 79 57 80 65 81 58 82 59 83 63 84 66 85
REMARK SMILES IDX 60 86 61 87 64 88 62 89 41 90 42 91 50 92 43 93 44 94 48 95
REMARK SMILES IDX 51 96 45 97 46 98 49 99 47 100
REMARK H PARENT 82 15 71 53 39 64
REMARK Flexibility Score: inf
ROOT
ATOM      1  C   UNL     1       2.362  -0.604   1.271  1.00  0.00     0.188 C 
ENDROOT
BRANCH   1   2
ATOM      2  O   UNL     1       3.699  -0.860   0.823  1.00  0.00    -0.376 OA
BRANCH   2   3
ATOM      3  C   UNL     1       4.591   0.243   0.965  1.00  0.00     0.202 C 
BRANCH   3   4
ATOM      4  C   UNL     1       4.463   1.374  -0.065  1.00  0.00     0.261 C 
BRANCH   4   5
ATOM      5  O   UNL     1       3.236   1.482  -0.812  1.00  0.00    -0.460 OA
BRANCH   5   6
ATOM      6  C   UNL     1       2.698   0.686  -1.763  1.00  0.00     0.338 C 
ATOM      7  O   UNL     1       1.588   0.964  -2.214  1.00  0.00    -0.246 OA
BRANCH   6   8
ATOM      8  C   UNL     1       3.330  -0.583  -2.212  1.00  0.00     0.060 A 
ATOM      9  C   UNL     1       4.696  -0.836  -2.228  1.00  0.00     0.018 A 
ATOM     10  C   UNL     1       2.473  -1.593  -2.671  1.00  0.00     0.018 A 
ATOM     11  C   UNL     1       5.169  -2.126  -2.484  1.00  0.00     0.027 A 
ATOM     12  C   UNL     1       2.958  -2.877  -2.930  1.00  0.00     0.027 A 
ATOM     13  C   UNL     1       4.301  -3.179  -2.719  1.00  0.00     0.049 A 
BRANCH  13  14
ATOM     14  N   UNL     1       4.657  -4.550  -2.574  1.00  0.00    -0.280 N 
ATOM     15  H   UNL     1       3.937  -5.213  -2.680  1.00  0.00     0.180 HD
BRANCH  14  16
ATOM     16  S   UNL     1       6.196  -5.142  -2.237  1.00  0.00     0.258 S 
ATOM     17  O   UNL     1       5.997  -6.570  -2.172  1.00  0.00    -0.202 OA
ATOM     18  O   UNL     1       7.055  -4.586  -3.274  1.00  0.00    -0.202 OA
BRANCH  16  19
ATOM     19  C   UNL     1       6.712  -4.530  -0.631  1.00  0.00     0.066 C 
ATOM     20  C   UNL     1       6.937  -5.489   0.303  1.00  0.00     0.026 C 
ATOM     21  C   UNL     1       7.831  -3.500  -0.650  1.00  0.00     0.055 C 
ATOM     22  C   UNL     1       8.274  -6.152   0.170  1.00  0.00    -0.021 A 
ATOM     23  C   UNL     1       9.136  -4.143  -1.133  1.00  0.00     0.041 C 
ATOM     24  C   UNL     1       8.512  -7.381   0.788  1.00  0.00     0.008 A 
ATOM     25  C   UNL     1       9.303  -5.542  -0.584  1.00  0.00    -0.040 A 
ATOM     26  C   UNL     1       9.724  -8.043   0.576  1.00  0.00     0.001 A 
ATOM     27  C   UNL     1      10.486  -6.240  -0.840  1.00  0.00     0.004 A 
ATOM     28  C   UNL     1      10.691  -7.492  -0.267  1.00  0.00     0.000 A 
ENDBRANCH  16  19
ENDBRANCH  14  16
ENDBRANCH  13  14
ENDBRANCH   6   8
ENDBRANCH   5   6
ENDBRANCH   4   5
ENDBRANCH   3   4
ENDBRANCH   2   3
ENDBRANCH   1   2
BRANCH   1  29
ATOM     29  C   UNL     1       2.134  -0.779   2.776  1.00  0.00     0.188 C 
BRANCH  29  30
ATOM     30  O   UNL     1       3.205  -0.194   3.495  1.00  0.00    -0.376 OA
BRANCH  30  31
ATOM     31  C   UNL     1       3.895  -1.023   4.417  1.00  0.00     0.202 C 
BRANCH  31  32
ATOM     32  C   UNL     1       4.541  -2.352   3.966  1.00  0.00     0.261 C 
BRANCH  32  33
ATOM     33  O   UNL     1       3.939  -3.083   2.887  1.00  0.00    -0.460 OA
BRANCH  33  34
ATOM     34  C   UNL     1       3.029  -4.019   3.226  1.00  0.00     0.338 C 
ATOM     35  O   UNL     1       2.537  -4.206   4.332  1.00  0.00    -0.246 OA
BRANCH  34  36
ATOM     36  C   UNL     1       2.714  -4.845   2.048  1.00  0.00     0.060 A 
ATOM     37  C   UNL     1       1.545  -4.627   1.310  1.00  0.00     0.016 A 
ATOM     38  C   UNL     1       3.535  -5.938   1.766  1.00  0.00     0.016 A 
ATOM     39  C   UNL     1       1.170  -5.539   0.313  1.00  0.00     0.010 A 
ATOM     40  C   UNL     1       3.169  -6.833   0.760  1.00  0.00     0.010 A 
ATOM     41  C   UNL     1       1.962  -6.668   0.056  1.00  0.00    -0.014 A 
BRANCH  41  42
ATOM     42  C   UNL     1       1.513  -7.773  -0.836  1.00  0.00     0.031 A 
ATOM     43  C   UNL     1       1.049  -9.058  -0.224  1.00  0.00     0.074 A 
ATOM     44  C   UNL     1       1.601  -7.683  -2.173  1.00  0.00     0.049 A 
ATOM     45  N   UNL     1       0.822 -10.214  -0.792  1.00  0.00    -0.248 NA
ATOM     46  C   UNL     1       0.803  -9.033   1.225  1.00  0.00     0.031 C 
ATOM     47  C   UNL     1       1.952  -6.472  -2.889  1.00  0.00     0.029 A 
ATOM     48  N   UNL     1       1.458  -8.625  -3.161  1.00  0.00    -0.354 N 
ATOM     49  C   UNL     1       0.416 -11.058   0.230  1.00  0.00     0.074 A 
ATOM     50  C   UNL     1       0.456 -10.290   1.457  1.00  0.00     0.031 C 
ATOM     51  C   UNL     1       2.099  -6.749  -4.194  1.00  0.00     0.029 A 
ATOM     52  C   UNL     1       1.863  -8.176  -4.396  1.00  0.00     0.049 A 
ATOM     53  H   UNL     1       1.103  -9.530  -3.001  1.00  0.00     0.167 HD
ATOM     54  C   UNL     1       0.035 -12.354   0.144  1.00  0.00     0.037 A 
ATOM     55  C   UNL     1       2.066  -8.847  -5.546  1.00  0.00     0.037 A 
ATOM     56  C   UNL     1       0.009 -13.112  -1.079  1.00  0.00     0.049 A 
ATOM     57  C   UNL     1       1.751 -10.316  -5.603  1.00  0.00     0.074 A 
ATOM     58  C   UNL     1      -0.400 -14.419  -1.275  1.00  0.00     0.029 A 
ATOM     59  N   UNL     1       0.428 -12.635  -2.313  1.00  0.00    -0.354 N 
ATOM     60  N   UNL     1       1.326 -11.104  -4.646  1.00  0.00    -0.248 NA
ATOM     61  C   UNL     1       1.917 -10.985  -6.901  1.00  0.00     0.031 C 
ATOM     62  C   UNL     1      -0.172 -14.752  -2.615  1.00  0.00     0.029 A 
ATOM     63  C   UNL     1       0.319 -13.633  -3.269  1.00  0.00     0.049 A 
ATOM     64  H   UNL     1       0.755 -11.722  -2.485  1.00  0.00     0.167 HD
ATOM     65  C   UNL     1       1.129 -12.347  -5.231  1.00  0.00     0.074 A 
ATOM     66  C   UNL     1       1.492 -12.211  -6.627  1.00  0.00     0.031 C 
ATOM     67  C   UNL     1       0.670 -13.488  -4.661  1.00  0.00     0.037 A 
BRANCH  54  68
ATOM     68  C   UNL     1      -0.344 -13.038   1.424  1.00  0.00     0.064 A 
ATOM     69  C   UNL     1      -1.513 -12.703   2.124  1.00  0.00     0.173 A 
ATOM     70  C   UNL     1       0.479 -14.039   1.961  1.00  0.00     0.173 A 
ATOM     71  F   UNL     1      -2.326 -11.741   1.660  1.00  0.00    -0.203 F 
ATOM     72  C   UNL     1      -1.823 -13.316   3.334  1.00  0.00     0.198 A 
ATOM     73  C   UNL     1       0.148 -14.674   3.155  1.00  0.00     0.198 A 
ATOM     74  F   UNL     1       1.606 -14.400   1.330  1.00  0.00    -0.203 F 
ATOM     75  F   UNL     1      -2.912 -12.935   4.017  1.00  0.00    -0.200 F 
ATOM     76  C   UNL     1      -0.995 -14.304   3.846  1.00  0.00     0.200 A 
ATOM     77  F   UNL     1       0.944 -15.636   3.642  1.00  0.00    -0.200 F 
ATOM     78  F   UNL     1      -1.293 -14.891   5.013  1.00  0.00    -0.200 F 
ENDBRANCH  54  68
BRANCH  55  79
ATOM     79  C   UNL     1       2.603  -8.128  -6.730  1.00  0.00     0.064 A 
ATOM     80  C   UNL     1       1.787  -7.833  -7.828  1.00  0.00     0.173 A 
ATOM     81  C   UNL     1       3.939  -7.699  -6.773  1.00  0.00     0.173 A 
ATOM     82  F   UNL     1       0.508  -8.238  -7.839  1.00  0.00    -0.203 F 
ATOM     83  C   UNL     1       2.287  -7.142  -8.931  1.00  0.00     0.198 A 
ATOM     84  C   UNL     1       4.433  -6.991  -7.867  1.00  0.00     0.198 A 
ATOM     85  F   UNL     1       4.758  -7.950  -5.742  1.00  0.00    -0.203 F 
ATOM     86  F   UNL     1       1.491  -6.893  -9.979  1.00  0.00    -0.200 F 
ATOM     87  C   UNL     1       3.607  -6.716  -8.947  1.00  0.00     0.200 A 
ATOM     88  F   UNL     1       5.705  -6.571  -7.875  1.00  0.00    -0.200 F 
ATOM     89  F   UNL     1       4.082  -6.041 -10.002  1.00  0.00    -0.200 F 
ENDBRANCH  55  79
BRANCH  67  90
ATOM     90  C   UNL     1       0.470 -14.678  -5.554  1.00  0.00     0.064 A 
ATOM     91  C   UNL     1       1.549 -15.418  -6.058  1.00  0.00     0.173 A 
ATOM     92  C   UNL     1      -0.828 -15.121  -5.854  1.00  0.00     0.173 A 
ATOM     93  F   UNL     1       2.809 -15.027  -5.814  1.00  0.00    -0.203 F 
ATOM     94  C   UNL     1       1.335 -16.551  -6.840  1.00  0.00     0.198 A 
ATOM     95  C   UNL     1      -1.038 -16.269  -6.612  1.00  0.00     0.198 A 
ATOM     96  F   UNL     1      -1.895 -14.450  -5.393  1.00  0.00    -0.203 F 
ATOM     97  F   UNL     1       2.381 -17.224  -7.340  1.00  0.00    -0.200 F 
ATOM     98  C   UNL     1       0.044 -16.981  -7.107  1.00  0.00     0.200 A 
ATOM     99  F   UNL     1      -2.286 -16.691  -6.856  1.00  0.00    -0.200 F 
ATOM    100  F   UNL     1      -0.159 -18.081  -7.846  1.00  0.00    -0.200 F 
ENDBRANCH  67  90
ENDBRANCH  41  42
ENDBRANCH  34  36
ENDBRANCH  33  34
ENDBRANCH  32  33
ENDBRANCH  31  32
ENDBRANCH  30  31
ENDBRANCH  29  30
ENDBRANCH   1  29
TORSDOF 20
