REMARK SMILES CS(=O)(=O)c1ccc(C2=NN(c3ccc(C(=O)OCCOCCOCCOC(=O)c4ccc(-c5c6nc(c(-c7c(F)c(F)c(F)c(F)c7F)c7ccc([nH]7)c(-c7c(F)c(F)c(F)c(F)c7F)c7nc(c(-c8c(F)c(F)c(F)c(F)c8F)c8ccc5[nH]8)C=C7)C=C6)cc4)cc3)[C@H](c3cccs3)C2)cc1
REMARK SMILES IDX 22 1 21 2 20 3 19 4 18 5 16 6 17 7 15 8 12 9 13 10 94 11
REMARK SMILES IDX 14 12 93 13 11 14 9 15 10 16 101 17 95 18 8 19 5 20 6 21
REMARK SMILES IDX 103 22 7 23 102 24 2 25 1 26 3 27 4 28 96 29 97 30 100 31
REMARK SMILES IDX 98 32 99 33 23 34 24 35 25 36 26 37 27 38 28 39 29 40 30 41
REMARK SMILES IDX 31 42 92 43 32 44 91 45 33 46 34 47 35 48 85 49 36 50 90 51
REMARK SMILES IDX 84 52 86 53 37 54 89 55 83 56 82 57 38 59 70 60 50 61 69 62
REMARK SMILES IDX 51 63 54 64 68 65 87 66 52 67 53 68 67 70 88 71 55 72 39 73
REMARK SMILES IDX 40 74 48 75 41 76 42 77 46 78 49 79 43 80 44 81 47 82 45 83
REMARK SMILES IDX 71 84 72 85 80 86 73 87 74 88 78 89 81 90 75 91 76 92 79 93
REMARK SMILES IDX 77 94 56 95 57 96 65 97 58 98 59 99 63 100 66 101 60 102
REMARK SMILES IDX 61 103 64 104 62 105
REMARK H PARENT 86 58 54 69
REMARK Flexibility Score: inf
ROOT
ATOM      1  C   UNL     1      -0.410  -3.688 -14.538  1.00  0.00     0.188 C 
ENDROOT
BRANCH   1   2
ATOM      2  O   UNL     1      -0.427  -3.717 -15.958  1.00  0.00    -0.376 OA
BRANCH   2   3
ATOM      3  C   UNL     1       0.790  -3.788 -16.689  1.00  0.00     0.202 C 
BRANCH   3   4
ATOM      4  C   UNL     1       1.976  -2.867 -16.355  1.00  0.00     0.261 C 
BRANCH   4   5
ATOM      5  O   UNL     1       2.288  -2.745 -14.960  1.00  0.00    -0.460 OA
BRANCH   5   6
ATOM      6  C   UNL     1       2.013  -1.542 -14.398  1.00  0.00     0.338 C 
ATOM      7  O   UNL     1       1.591  -0.549 -14.968  1.00  0.00    -0.246 OA
BRANCH   6   8
ATOM      8  C   UNL     1       2.145  -1.620 -12.922  1.00  0.00     0.060 A 
ATOM      9  C   UNL     1       2.433  -1.548 -10.127  1.00  0.00     0.060 A 
ATOM     10  C   UNL     1       1.400  -0.837 -10.745  1.00  0.00     0.029 A 
ATOM     11  C   UNL     1       3.231  -2.393 -10.915  1.00  0.00     0.029 A 
ATOM     12  C   UNL     1       1.263  -0.863 -12.137  1.00  0.00     0.018 A 
ATOM     13  C   UNL     1       3.104  -2.424 -12.305  1.00  0.00     0.018 A 
BRANCH   9  14
ATOM     14  N   UNL     1       2.798  -1.301  -8.803  1.00  0.00    -0.257 N 
ATOM     15  C   UNL     1       2.393  -0.788  -6.782  1.00  0.00     0.071 C 
ATOM     16  N   UNL     1       1.955  -1.520  -7.761  1.00  0.00    -0.176 NA
ATOM     17  C   UNL     1       3.499   0.174  -7.120  1.00  0.00     0.091 C 
ATOM     18  C   UNL     1       3.834  -0.288  -8.540  1.00  0.00     0.154 C 
BRANCH  15  19
ATOM     19  C   UNL     1       1.875  -0.880  -5.405  1.00  0.00    -0.002 A 
ATOM     20  C   UNL     1       0.934  -1.139  -2.794  1.00  0.00     0.067 A 
ATOM     21  C   UNL     1       1.286  -2.280  -3.522  1.00  0.00     0.021 A 
ATOM     22  C   UNL     1       1.058   0.134  -3.363  1.00  0.00     0.021 A 
ATOM     23  C   UNL     1       1.745  -2.150  -4.834  1.00  0.00     0.011 A 
ATOM     24  C   UNL     1       1.546   0.263  -4.670  1.00  0.00     0.011 A 
BRANCH  20  25
ATOM     25  S   UNL     1       0.293  -1.346  -1.146  1.00  0.00     0.175 S 
ATOM     26  C   UNL     1       0.979  -0.034  -0.174  1.00  0.00     0.163 C 
ATOM     27  O   UNL     1       0.847  -2.583  -0.627  1.00  0.00    -0.224 OA
ATOM     28  O   UNL     1      -1.139  -1.141  -1.234  1.00  0.00    -0.224 OA
ENDBRANCH  20  25
ENDBRANCH  15  19
BRANCH  18  29
ATOM     29  C   UNL     1       5.251  -0.773  -8.787  1.00  0.00     0.030 A 
ATOM     30  C   UNL     1       5.906  -0.783 -10.010  1.00  0.00     0.017 A 
ATOM     31  S   UNL     1       6.220  -1.503  -7.577  1.00  0.00    -0.147 S 
ATOM     32  C   UNL     1       7.166  -1.440  -9.959  1.00  0.00     0.012 A 
ATOM     33  C   UNL     1       7.475  -1.848  -8.683  1.00  0.00     0.065 A 
ENDBRANCH  18  29
ENDBRANCH   9  14
ENDBRANCH   6   8
ENDBRANCH   5   6
ENDBRANCH   4   5
ENDBRANCH   3   4
ENDBRANCH   2   3
ENDBRANCH   1   2
BRANCH   1  34
ATOM     34  C   UNL     1       0.449  -4.699 -13.747  1.00  0.00     0.188 C 
BRANCH  34  35
ATOM     35  O   UNL     1       1.258  -5.528 -14.545  1.00  0.00    -0.376 OA
BRANCH  35  36
ATOM     36  C   UNL     1       0.797  -6.820 -14.899  1.00  0.00     0.202 C 
BRANCH  36  37
ATOM     37  C   UNL     1      -0.686  -7.245 -14.976  1.00  0.00     0.261 C 
BRANCH  37  38
ATOM     38  O   UNL     1      -1.680  -6.375 -14.424  1.00  0.00    -0.460 OA
BRANCH  38  39
ATOM     39  C   UNL     1      -2.110  -6.656 -13.174  1.00  0.00     0.338 C 
ATOM     40  O   UNL     1      -1.718  -7.552 -12.438  1.00  0.00    -0.246 OA
BRANCH  39  41
ATOM     41  C   UNL     1      -3.035  -5.591 -12.744  1.00  0.00     0.060 A 
ATOM     42  C   UNL     1      -2.630  -4.705 -11.738  1.00  0.00     0.016 A 
ATOM     43  C   UNL     1      -4.303  -5.478 -13.318  1.00  0.00     0.016 A 
ATOM     44  C   UNL     1      -3.502  -3.713 -11.287  1.00  0.00     0.010 A 
ATOM     45  C   UNL     1      -5.183  -4.496 -12.852  1.00  0.00     0.010 A 
ATOM     46  C   UNL     1      -4.796  -3.625 -11.816  1.00  0.00    -0.014 A 
BRANCH  46  47
ATOM     47  C   UNL     1      -5.791  -2.723 -11.184  1.00  0.00     0.031 A 
ATOM     48  C   UNL     1      -6.799  -3.302 -10.232  1.00  0.00     0.074 A 
ATOM     49  C   UNL     1      -5.796  -1.404 -11.446  1.00  0.00     0.049 A 
ATOM     50  N   UNL     1      -7.779  -2.713  -9.594  1.00  0.00    -0.248 NA
ATOM     51  C   UNL     1      -6.691  -4.745  -9.973  1.00  0.00     0.031 C 
ATOM     52  C   UNL     1      -4.864  -0.719 -12.336  1.00  0.00     0.029 A 
ATOM     53  N   UNL     1      -6.631  -0.411 -10.996  1.00  0.00    -0.354 N 
ATOM     54  C   UNL     1      -8.409  -3.715  -8.867  1.00  0.00     0.074 A 
ATOM     55  C   UNL     1      -7.723  -4.952  -9.171  1.00  0.00     0.031 C 
ATOM     56  C   UNL     1      -5.191   0.584 -12.386  1.00  0.00     0.029 A 
ATOM     57  C   UNL     1      -6.373   0.815 -11.556  1.00  0.00     0.049 A 
ATOM     58  H   UNL     1      -7.345  -0.564 -10.336  1.00  0.00     0.167 HD
ATOM     59  C   UNL     1      -9.461  -3.610  -8.018  1.00  0.00     0.037 A 
ATOM     60  C   UNL     1      -7.032   1.984 -11.434  1.00  0.00     0.037 A 
ATOM     61  C   UNL     1     -10.144  -2.377  -7.723  1.00  0.00     0.049 A 
ATOM     62  C   UNL     1      -8.229   2.071 -10.524  1.00  0.00     0.074 A 
ATOM     63  C   UNL     1     -11.188  -2.158  -6.841  1.00  0.00     0.029 A 
ATOM     64  N   UNL     1      -9.864  -1.155  -8.319  1.00  0.00    -0.354 N 
ATOM     65  N   UNL     1      -8.789   1.134  -9.796  1.00  0.00    -0.248 NA
ATOM     66  C   UNL     1      -8.882   3.383 -10.410  1.00  0.00     0.031 C 
ATOM     67  C   UNL     1     -11.587  -0.822  -6.958  1.00  0.00     0.029 A 
ATOM     68  C   UNL     1     -10.744  -0.187  -7.857  1.00  0.00     0.049 A 
ATOM     69  H   UNL     1      -9.145  -0.998  -8.973  1.00  0.00     0.167 HD
ATOM     70  C   UNL     1      -9.843   1.743  -9.127  1.00  0.00     0.074 A 
ATOM     71  C   UNL     1      -9.832   3.138  -9.519  1.00  0.00     0.031 C 
ATOM     72  C   UNL     1     -10.738   1.196  -8.265  1.00  0.00     0.037 A 
BRANCH  59  73
ATOM     73  C   UNL     1      -9.965  -4.879  -7.388  1.00  0.00     0.064 A 
ATOM     74  C   UNL     1      -9.208  -5.599  -6.450  1.00  0.00     0.173 A 
ATOM     75  C   UNL     1     -11.229  -5.383  -7.732  1.00  0.00     0.173 A 
ATOM     76  F   UNL     1      -7.989  -5.169  -6.093  1.00  0.00    -0.203 F 
ATOM     77  C   UNL     1      -9.678  -6.798  -5.918  1.00  0.00     0.198 A 
ATOM     78  C   UNL     1     -11.711  -6.562  -7.169  1.00  0.00     0.198 A 
ATOM     79  F   UNL     1     -11.999  -4.733  -8.618  1.00  0.00    -0.203 F 
ATOM     80  F   UNL     1      -8.907  -7.504  -5.078  1.00  0.00    -0.200 F 
ATOM     81  C   UNL     1     -10.930  -7.276  -6.274  1.00  0.00     0.200 A 
ATOM     82  F   UNL     1     -12.928  -7.013  -7.503  1.00  0.00    -0.200 F 
ATOM     83  F   UNL     1     -11.379  -8.430  -5.762  1.00  0.00    -0.200 F 
ENDBRANCH  59  73
BRANCH  60  84
ATOM     84  C   UNL     1      -6.576   3.163 -12.216  1.00  0.00     0.064 A 
ATOM     85  C   UNL     1      -5.989   4.270 -11.592  1.00  0.00     0.173 A 
ATOM     86  C   UNL     1      -6.707   3.194 -13.614  1.00  0.00     0.173 A 
ATOM     87  F   UNL     1      -5.867   4.301 -10.257  1.00  0.00    -0.203 F 
ATOM     88  C   UNL     1      -5.554   5.367 -12.334  1.00  0.00     0.198 A 
ATOM     89  C   UNL     1      -6.245   4.278 -14.357  1.00  0.00     0.198 A 
ATOM     90  F   UNL     1      -7.267   2.160 -14.259  1.00  0.00    -0.203 F 
ATOM     91  F   UNL     1      -5.029   6.430 -11.709  1.00  0.00    -0.200 F 
ATOM     92  C   UNL     1      -5.674   5.366 -13.716  1.00  0.00     0.200 A 
ATOM     93  F   UNL     1      -6.352   4.266 -15.692  1.00  0.00    -0.200 F 
ATOM     94  F   UNL     1      -5.243   6.415 -14.429  1.00  0.00    -0.200 F 
ENDBRANCH  60  84
BRANCH  72  95
ATOM     95  C   UNL     1     -11.773   2.113  -7.670  1.00  0.00     0.064 A 
ATOM     96  C   UNL     1     -12.805   2.666  -8.445  1.00  0.00     0.173 A 
ATOM     97  C   UNL     1     -11.749   2.420  -6.301  1.00  0.00     0.173 A 
ATOM     98  F   UNL     1     -12.870   2.416  -9.761  1.00  0.00    -0.203 F 
ATOM     99  C   UNL     1     -13.750   3.519  -7.878  1.00  0.00     0.198 A 
ATOM    100  C   UNL     1     -12.717   3.244  -5.731  1.00  0.00     0.198 A 
ATOM    101  F   UNL     1     -10.791   1.914  -5.510  1.00  0.00    -0.203 F 
ATOM    102  F   UNL     1     -14.689   4.082  -8.650  1.00  0.00    -0.200 F 
ATOM    103  C   UNL     1     -13.709   3.801  -6.521  1.00  0.00     0.200 A 
ATOM    104  F   UNL     1     -12.685   3.501  -4.416  1.00  0.00    -0.200 F 
ATOM    105  F   UNL     1     -14.621   4.619  -5.977  1.00  0.00    -0.200 F 
ENDBRANCH  72  95
ENDBRANCH  46  47
ENDBRANCH  39  41
ENDBRANCH  38  39
ENDBRANCH  37  38
ENDBRANCH  36  37
ENDBRANCH  35  36
ENDBRANCH  34  35
ENDBRANCH   1  34
TORSDOF 21
