REMARK SMILES CC[C@](C)(NC(=O)N[C@@H]1C[C@@H]1C)C(=O)OCCOCCOCCOC(=O)c1ccc(-c2c3nc(c(-c4c(F)c(F)c(F)c(F)c4F)c4ccc([nH]4)c(-c4c(F)c(F)c(F)c(F)c4F)c4nc(c(-c5c(F)c(F)c(F)c(F)c5F)c5ccc2[nH]5)C=C4)C=C3)cc1
REMARK SMILES IDX 19 1 18 2 17 3 16 4 15 5 13 6 14 7 3 8 4 9 2 10 1 11 5 12
REMARK SMILES IDX 6 13 7 15 8 16 9 18 10 19 11 20 12 21 20 22 21 23 22 24
REMARK SMILES IDX 23 25 24 26 25 27 26 28 27 29 28 30 89 31 29 32 88 33 30 34
REMARK SMILES IDX 31 35 32 36 82 37 33 38 87 39 81 40 83 41 34 42 86 43 80 44
REMARK SMILES IDX 79 45 35 47 67 48 47 49 66 50 48 51 51 52 65 53 84 54 49 55
REMARK SMILES IDX 50 56 64 58 85 59 52 60 36 61 37 62 45 63 38 64 39 65 43 66
REMARK SMILES IDX 46 67 40 68 41 69 44 70 42 71 68 72 69 73 77 74 70 75 71 76
REMARK SMILES IDX 75 77 78 78 72 79 73 80 76 81 74 82 53 83 54 84 62 85 55 86
REMARK SMILES IDX 56 87 60 88 63 89 57 90 58 91 61 92 59 93
REMARK H PARENT 5 14 8 17 83 46 51 57
REMARK Flexibility Score: inf
ROOT
ATOM      1  C   UNL     1       5.234   4.116   0.971  1.00  0.00     0.188 C 
ENDROOT
BRANCH   1   2
ATOM      2  O   UNL     1       5.522   3.486  -0.289  1.00  0.00    -0.376 OA
BRANCH   2   3
ATOM      3  C   UNL     1       5.092   4.058  -1.532  1.00  0.00     0.202 C 
BRANCH   3   4
ATOM      4  C   UNL     1       4.292   3.048  -2.434  1.00  0.00     0.261 C 
BRANCH   4   5
ATOM      5  O   UNL     1       2.844   3.049  -2.211  1.00  0.00    -0.462 OA
BRANCH   5   6
ATOM      6  C   UNL     1       2.131   1.883  -2.478  1.00  0.00     0.331 C 
ATOM      7  O   UNL     1       2.629   0.921  -3.054  1.00  0.00    -0.249 OA
BRANCH   6   8
ATOM      8  C   UNL     1       0.613   1.905  -1.955  1.00  0.00     0.136 C 
ATOM      9  C   UNL     1       0.118   0.842  -0.944  1.00  0.00     0.047 C 
BRANCH   8  10
ATOM     10  C   UNL     1      -0.324   1.754  -3.192  1.00  0.00     0.037 C 
ATOM     11  C   UNL     1      -0.432   0.319  -3.727  1.00  0.00     0.007 C 
ENDBRANCH   8  10
BRANCH   8  12
ATOM     12  N   UNL     1       0.380   3.185  -1.308  1.00  0.00    -0.322 N 
ATOM     13  C   UNL     1       0.921   3.612  -0.160  1.00  0.00     0.315 C 
ATOM     14  H   UNL     1      -0.239   3.802  -1.760  1.00  0.00     0.166 HD
ATOM     15  O   UNL     1       0.509   4.671   0.321  1.00  0.00    -0.249 OA
ATOM     16  N   UNL     1       1.907   2.969   0.508  1.00  0.00    -0.335 N 
ATOM     17  H   UNL     1       1.977   3.325   1.423  1.00  0.00     0.165 HD
BRANCH  16  18
ATOM     18  C   UNL     1       2.882   1.936   0.313  1.00  0.00     0.087 C 
ATOM     19  C   UNL     1       3.055   0.498  -0.044  1.00  0.00     0.030 C 
ATOM     20  C   UNL     1       3.060   0.886   1.390  1.00  0.00     0.010 C 
ATOM     21  C   UNL     1       1.960   0.316   2.203  1.00  0.00     0.010 C 
ENDBRANCH  16  18
ENDBRANCH   8  12
ENDBRANCH   6   8
ENDBRANCH   5   6
ENDBRANCH   4   5
ENDBRANCH   3   4
ENDBRANCH   2   3
ENDBRANCH   1   2
BRANCH   1  22
ATOM     22  C   UNL     1       4.250   5.295   1.033  1.00  0.00     0.188 C 
BRANCH  22  23
ATOM     23  O   UNL     1       4.855   6.581   0.978  1.00  0.00    -0.376 OA
BRANCH  23  24
ATOM     24  C   UNL     1       5.860   6.852   1.955  1.00  0.00     0.202 C 
BRANCH  24  25
ATOM     25  C   UNL     1       5.419   6.829   3.429  1.00  0.00     0.261 C 
BRANCH  25  26
ATOM     26  O   UNL     1       4.958   5.532   3.895  1.00  0.00    -0.460 OA
BRANCH  26  27
ATOM     27  C   UNL     1       3.717   5.527   4.438  1.00  0.00     0.338 C 
ATOM     28  O   UNL     1       2.972   6.509   4.557  1.00  0.00    -0.246 OA
BRANCH  27  29
ATOM     29  C   UNL     1       3.243   4.184   4.840  1.00  0.00     0.060 A 
ATOM     30  C   UNL     1       1.950   3.794   4.455  1.00  0.00     0.016 A 
ATOM     31  C   UNL     1       3.942   3.415   5.774  1.00  0.00     0.016 A 
ATOM     32  C   UNL     1       1.318   2.705   5.074  1.00  0.00     0.010 A 
ATOM     33  C   UNL     1       3.306   2.321   6.392  1.00  0.00     0.010 A 
ATOM     34  C   UNL     1       1.964   1.999   6.099  1.00  0.00    -0.014 A 
BRANCH  34  35
ATOM     35  C   UNL     1       1.170   1.156   7.053  1.00  0.00     0.031 A 
ATOM     36  C   UNL     1       0.715   1.788   8.345  1.00  0.00     0.074 A 
ATOM     37  C   UNL     1       0.831  -0.126   6.818  1.00  0.00     0.049 A 
ATOM     38  N   UNL     1       0.068   1.259   9.353  1.00  0.00    -0.248 NA
ATOM     39  C   UNL     1       1.048   3.209   8.525  1.00  0.00     0.031 C 
ATOM     40  C   UNL     1       1.161  -0.866   5.615  1.00  0.00     0.029 A 
ATOM     41  N   UNL     1       0.142  -1.041   7.584  1.00  0.00    -0.354 N 
ATOM     42  C   UNL     1      -0.068   2.275  10.290  1.00  0.00     0.074 A 
ATOM     43  C   UNL     1       0.594   3.441   9.746  1.00  0.00     0.031 C 
ATOM     44  C   UNL     1       0.683  -2.118   5.704  1.00  0.00     0.029 A 
ATOM     45  C   UNL     1       0.041  -2.286   7.005  1.00  0.00     0.049 A 
ATOM     46  H   UNL     1      -0.242  -0.824   8.464  1.00  0.00     0.167 HD
ATOM     47  C   UNL     1      -0.694   2.249  11.491  1.00  0.00     0.037 A 
ATOM     48  C   UNL     1      -0.488  -3.435   7.474  1.00  0.00     0.037 A 
ATOM     49  C   UNL     1      -1.358   1.097  12.042  1.00  0.00     0.049 A 
ATOM     50  C   UNL     1      -1.120  -3.458   8.843  1.00  0.00     0.074 A 
ATOM     51  C   UNL     1      -2.037   0.987  13.244  1.00  0.00     0.029 A 
ATOM     52  N   UNL     1      -1.420  -0.148  11.436  1.00  0.00    -0.354 N 
ATOM     53  N   UNL     1      -1.270  -2.482   9.704  1.00  0.00    -0.248 NA
ATOM     54  C   UNL     1      -1.666  -4.745   9.301  1.00  0.00     0.031 C 
ATOM     55  C   UNL     1      -2.455  -0.339  13.393  1.00  0.00     0.029 A 
ATOM     56  C   UNL     1      -2.103  -1.038  12.251  1.00  0.00     0.049 A 
ATOM     57  H   UNL     1      -1.036  -0.368  10.556  1.00  0.00     0.167 HD
ATOM     58  C   UNL     1      -1.967  -3.022  10.779  1.00  0.00     0.074 A 
ATOM     59  C   UNL     1      -2.217  -4.410  10.459  1.00  0.00     0.031 C 
ATOM     60  C   UNL     1      -2.370  -2.416  11.923  1.00  0.00     0.037 A 
BRANCH  47  61
ATOM     61  C   UNL     1      -0.659   3.506  12.311  1.00  0.00     0.064 A 
ATOM     62  C   UNL     1      -1.366   4.658  11.933  1.00  0.00     0.173 A 
ATOM     63  C   UNL     1       0.078   3.551  13.504  1.00  0.00     0.173 A 
ATOM     64  F   UNL     1      -2.075   4.673  10.794  1.00  0.00    -0.203 F 
ATOM     65  C   UNL     1      -1.308   5.818  12.701  1.00  0.00     0.198 A 
ATOM     66  C   UNL     1       0.104   4.701  14.288  1.00  0.00     0.198 A 
ATOM     67  F   UNL     1       0.769   2.477  13.914  1.00  0.00    -0.203 F 
ATOM     68  F   UNL     1      -1.943   6.925  12.291  1.00  0.00    -0.200 F 
ATOM     69  C   UNL     1      -0.580   5.836  13.881  1.00  0.00     0.200 A 
ATOM     70  F   UNL     1       0.796   4.711  15.436  1.00  0.00    -0.200 F 
ATOM     71  F   UNL     1      -0.530   6.951  14.623  1.00  0.00    -0.200 F 
ENDBRANCH  47  61
BRANCH  48  72
ATOM     72  C   UNL     1      -0.453  -4.677   6.649  1.00  0.00     0.064 A 
ATOM     73  C   UNL     1      -1.636  -5.254   6.162  1.00  0.00     0.173 A 
ATOM     74  C   UNL     1       0.752  -5.342   6.377  1.00  0.00     0.173 A 
ATOM     75  F   UNL     1      -2.818  -4.677   6.422  1.00  0.00    -0.203 F 
ATOM     76  C   UNL     1      -1.617  -6.457   5.459  1.00  0.00     0.198 A 
ATOM     77  C   UNL     1       0.772  -6.529   5.645  1.00  0.00     0.198 A 
ATOM     78  F   UNL     1       1.912  -4.840   6.824  1.00  0.00    -0.203 F 
ATOM     79  F   UNL     1      -2.768  -7.016   5.060  1.00  0.00    -0.200 F 
ATOM     80  C   UNL     1      -0.413  -7.091   5.196  1.00  0.00     0.200 A 
ATOM     81  F   UNL     1       1.940  -7.134   5.386  1.00  0.00    -0.200 F 
ATOM     82  F   UNL     1      -0.395  -8.250   4.523  1.00  0.00    -0.200 F 
ENDBRANCH  48  72
BRANCH  60  83
ATOM     83  C   UNL     1      -3.190  -3.226  12.890  1.00  0.00     0.064 A 
ATOM     84  C   UNL     1      -2.649  -4.296  13.617  1.00  0.00     0.173 A 
ATOM     85  C   UNL     1      -4.540  -2.905  13.108  1.00  0.00     0.173 A 
ATOM     86  F   UNL     1      -1.368  -4.654  13.441  1.00  0.00    -0.203 F 
ATOM     87  C   UNL     1      -3.437  -5.038  14.495  1.00  0.00     0.198 A 
ATOM     88  C   UNL     1      -5.314  -3.625  14.014  1.00  0.00     0.198 A 
ATOM     89  F   UNL     1      -5.109  -1.885  12.448  1.00  0.00    -0.203 F 
ATOM     90  F   UNL     1      -2.913  -6.096  15.131  1.00  0.00    -0.200 F 
ATOM     91  C   UNL     1      -4.766  -4.699  14.697  1.00  0.00     0.200 A 
ATOM     92  F   UNL     1      -6.593  -3.282  14.220  1.00  0.00    -0.200 F 
ATOM     93  F   UNL     1      -5.521  -5.412  15.544  1.00  0.00    -0.200 F 
ENDBRANCH  60  83
ENDBRANCH  34  35
ENDBRANCH  27  29
ENDBRANCH  26  27
ENDBRANCH  25  26
ENDBRANCH  24  25
ENDBRANCH  23  24
ENDBRANCH  22  23
ENDBRANCH   1  22
TORSDOF 20
