REMARK SMILES CS(=O)(=O)N(Cc1ccc(Cl)cc1)c1ccc(C(=O)Nc2ccccc2C(=O)OCCOCCOCCOC(=O)c2ccc(-c3c4nc(c(-c5c(F)c(F)c(F)c(F)c5F)c5ccc([nH]5)c(-c5c(F)c(F)c(F)c(F)c5F)c5nc(c(-c6c(F)c(F)c(F)c(F)c6F)c6ccc3[nH]6)C=C5)C=C4)cc2)cc1
REMARK SMILES IDX 32 1 31 2 30 3 29 4 27 5 28 6 26 7 21 8 22 9 23 10 25 11
REMARK SMILES IDX 24 12 20 13 18 14 19 15 17 17 14 18 15 19 105 20 16 21
REMARK SMILES IDX 104 22 5 23 2 24 1 25 3 26 4 27 6 28 7 29 8 30 13 31 9 32
REMARK SMILES IDX 12 33 10 34 11 35 33 36 34 37 35 38 36 39 37 40 38 41 39 42
REMARK SMILES IDX 40 43 41 44 42 45 103 46 43 47 102 48 44 49 45 50 46 51
REMARK SMILES IDX 96 52 47 53 101 54 95 55 97 56 48 57 100 58 94 59 93 60
REMARK SMILES IDX 49 62 81 63 61 64 80 65 62 66 65 67 79 68 98 69 63 70 64 71
REMARK SMILES IDX 78 73 99 74 66 75 50 76 51 77 59 78 52 79 53 80 57 81 60 82
REMARK SMILES IDX 54 83 55 84 58 85 56 86 82 87 83 88 91 89 84 90 85 91 89 92
REMARK SMILES IDX 92 93 86 94 87 95 90 96 88 97 67 98 68 99 76 100 69 101
REMARK SMILES IDX 70 102 74 103 77 104 71 105 72 106 75 107 73 108
REMARK H PARENT 20 16 97 61 65 72
REMARK Flexibility Score: inf
ROOT
ATOM      1  O   UNL     1      -1.538   4.325   7.221  1.00  0.00    -0.376 OA
ENDROOT
BRANCH   1   2
ATOM      2  C   UNL     1      -0.262   4.605   6.680  1.00  0.00     0.202 C 
BRANCH   2   3
ATOM      3  C   UNL     1       0.019   5.150   5.270  1.00  0.00     0.261 C 
BRANCH   3   4
ATOM      4  O   UNL     1      -1.034   5.803   4.562  1.00  0.00    -0.460 OA
BRANCH   4   5
ATOM      5  C   UNL     1      -1.613   5.066   3.581  1.00  0.00     0.340 C 
ATOM      6  O   UNL     1      -1.403   3.880   3.372  1.00  0.00    -0.246 OA
BRANCH   5   7
ATOM      7  C   UNL     1      -2.678   5.836   2.880  1.00  0.00     0.083 A 
ATOM      8  C   UNL     1      -2.650   7.222   2.626  1.00  0.00     0.056 A 
ATOM      9  C   UNL     1      -3.805   7.832   2.106  1.00  0.00     0.027 A 
ATOM     10  C   UNL     1      -4.912   7.071   1.722  1.00  0.00     0.002 A 
ATOM     11  C   UNL     1      -3.805   5.081   2.496  1.00  0.00     0.018 A 
ATOM     12  C   UNL     1      -4.906   5.693   1.900  1.00  0.00     0.001 A 
BRANCH   8  13
ATOM     13  N   UNL     1      -1.544   8.089   2.761  1.00  0.00    -0.321 N 
ATOM     14  C   UNL     1      -0.194   7.912   2.528  1.00  0.00     0.255 C 
ATOM     15  O   UNL     1       0.591   8.786   2.895  1.00  0.00    -0.269 OA
ATOM     16  H   UNL     1      -1.780   8.989   3.082  1.00  0.00     0.170 HD
BRANCH  14  17
ATOM     17  C   UNL     1       0.344   6.716   1.818  1.00  0.00     0.040 A 
ATOM     18  C   UNL     1       1.203   4.124   1.097  1.00  0.00     0.052 A 
ATOM     19  C   UNL     1       2.087   5.048   1.658  1.00  0.00     0.028 A 
ATOM     20  C   UNL     1      -0.028   4.628   0.665  1.00  0.00     0.028 A 
ATOM     21  C   UNL     1       1.647   6.306   2.090  1.00  0.00     0.016 A 
ATOM     22  C   UNL     1      -0.411   5.947   0.939  1.00  0.00     0.016 A 
BRANCH  18  23
ATOM     23  N   UNL     1       1.548   2.686   1.111  1.00  0.00    -0.266 N 
BRANCH  23  24
ATOM     24  S   UNL     1       0.548   1.705   0.110  1.00  0.00     0.232 S 
ATOM     25  C   UNL     1       1.424   0.163  -0.005  1.00  0.00     0.183 C 
ATOM     26  O   UNL     1       0.537   2.276  -1.222  1.00  0.00    -0.207 OA
ATOM     27  O   UNL     1      -0.695   1.446   0.810  1.00  0.00    -0.207 OA
ENDBRANCH  23  24
BRANCH  23  28
ATOM     28  C   UNL     1       1.774   2.102   2.498  1.00  0.00     0.170 C 
BRANCH  28  29
ATOM     29  C   UNL     1       3.195   2.300   3.021  1.00  0.00    -0.027 A 
ATOM     30  C   UNL     1       4.243   1.457   2.620  1.00  0.00     0.007 A 
ATOM     31  C   UNL     1       3.507   3.402   3.834  1.00  0.00     0.007 A 
ATOM     32  C   UNL     1       5.573   1.783   2.920  1.00  0.00     0.021 A 
ATOM     33  C   UNL     1       4.835   3.765   4.078  1.00  0.00     0.021 A 
ATOM     34  C   UNL     1       5.864   2.963   3.601  1.00  0.00     0.041 A 
ATOM     35  Cl  UNL     1       7.498   3.451   3.822  1.00  0.00    -0.084 Cl
ENDBRANCH  28  29
ENDBRANCH  23  28
ENDBRANCH  18  23
ENDBRANCH  14  17
ENDBRANCH   8  13
ENDBRANCH   5   7
ENDBRANCH   4   5
ENDBRANCH   3   4
ENDBRANCH   2   3
ENDBRANCH   1   2
BRANCH   1  36
ATOM     36  C   UNL     1      -2.706   4.517   6.463  1.00  0.00     0.188 C 
BRANCH  36  37
ATOM     37  C   UNL     1      -3.253   5.959   6.364  1.00  0.00     0.188 C 
BRANCH  37  38
ATOM     38  O   UNL     1      -2.601   7.027   7.022  1.00  0.00    -0.376 OA
BRANCH  38  39
ATOM     39  C   UNL     1      -2.270   6.889   8.393  1.00  0.00     0.202 C 
BRANCH  39  40
ATOM     40  C   UNL     1      -3.285   6.331   9.410  1.00  0.00     0.261 C 
BRANCH  40  41
ATOM     41  O   UNL     1      -4.035   5.176   8.996  1.00  0.00    -0.460 OA
BRANCH  41  42
ATOM     42  C   UNL     1      -5.347   5.392   8.706  1.00  0.00     0.338 C 
ATOM     43  O   UNL     1      -5.964   6.431   8.807  1.00  0.00    -0.246 OA
BRANCH  42  44
ATOM     44  C   UNL     1      -5.896   4.196   8.019  1.00  0.00     0.060 A 
ATOM     45  C   UNL     1      -6.378   4.332   6.706  1.00  0.00     0.016 A 
ATOM     46  C   UNL     1      -5.948   2.959   8.660  1.00  0.00     0.016 A 
ATOM     47  C   UNL     1      -6.934   3.240   6.038  1.00  0.00     0.010 A 
ATOM     48  C   UNL     1      -6.541   1.874   8.005  1.00  0.00     0.010 A 
ATOM     49  C   UNL     1      -7.068   2.018   6.706  1.00  0.00    -0.014 A 
BRANCH  49  50
ATOM     50  C   UNL     1      -7.978   0.976   6.168  1.00  0.00     0.031 A 
ATOM     51  C   UNL     1      -9.384   0.931   6.702  1.00  0.00     0.074 A 
ATOM     52  C   UNL     1      -7.587   0.091   5.235  1.00  0.00     0.049 A 
ATOM     53  N   UNL     1     -10.335   0.058   6.489  1.00  0.00    -0.248 NA
ATOM     54  C   UNL     1      -9.763   2.023   7.613  1.00  0.00     0.031 C 
ATOM     55  C   UNL     1      -6.280   0.064   4.586  1.00  0.00     0.029 A 
ATOM     56  N   UNL     1      -8.260  -0.974   4.686  1.00  0.00    -0.354 N 
ATOM     57  C   UNL     1     -11.415   0.487   7.250  1.00  0.00     0.074 A 
ATOM     58  C   UNL     1     -10.993   1.677   7.955  1.00  0.00     0.031 C 
ATOM     59  C   UNL     1      -6.238  -0.980   3.738  1.00  0.00     0.029 A 
ATOM     60  C   UNL     1      -7.500  -1.716   3.817  1.00  0.00     0.049 A 
ATOM     61  H   UNL     1      -9.199  -1.183   4.895  1.00  0.00     0.167 HD
ATOM     62  C   UNL     1     -12.650  -0.059   7.350  1.00  0.00     0.037 A 
ATOM     63  C   UNL     1      -7.784  -2.874   3.186  1.00  0.00     0.037 A 
ATOM     64  C   UNL     1     -13.065  -1.249   6.657  1.00  0.00     0.049 A 
ATOM     65  C   UNL     1      -9.133  -3.522   3.390  1.00  0.00     0.074 A 
ATOM     66  C   UNL     1     -14.295  -1.881   6.687  1.00  0.00     0.029 A 
ATOM     67  N   UNL     1     -12.253  -1.995   5.814  1.00  0.00    -0.354 N 
ATOM     68  N   UNL     1     -10.154  -3.111   4.103  1.00  0.00    -0.248 NA
ATOM     69  C   UNL     1      -9.366  -4.800   2.699  1.00  0.00     0.031 C 
ATOM     70  C   UNL     1     -14.208  -3.043   5.914  1.00  0.00     0.029 A 
ATOM     71  C   UNL     1     -12.947  -3.097   5.342  1.00  0.00     0.049 A 
ATOM     72  H   UNL     1     -11.321  -1.773   5.586  1.00  0.00     0.167 HD
ATOM     73  C   UNL     1     -11.160  -4.053   3.914  1.00  0.00     0.074 A 
ATOM     74  C   UNL     1     -10.628  -5.054   3.015  1.00  0.00     0.031 C 
ATOM     75  C   UNL     1     -12.413  -4.080   4.434  1.00  0.00     0.037 A 
BRANCH  62  76
ATOM     76  C   UNL     1     -13.624   0.610   8.277  1.00  0.00     0.064 A 
ATOM     77  C   UNL     1     -14.155   1.881   8.005  1.00  0.00     0.173 A 
ATOM     78  C   UNL     1     -14.035  -0.032   9.456  1.00  0.00     0.173 A 
ATOM     79  F   UNL     1     -13.783   2.546   6.901  1.00  0.00    -0.203 F 
ATOM     80  C   UNL     1     -15.027   2.499   8.897  1.00  0.00     0.198 A 
ATOM     81  C   UNL     1     -14.936   0.574  10.327  1.00  0.00     0.198 A 
ATOM     82  F   UNL     1     -13.562  -1.249   9.764  1.00  0.00    -0.203 F 
ATOM     83  F   UNL     1     -15.468   3.740   8.648  1.00  0.00    -0.200 F 
ATOM     84  C   UNL     1     -15.422   1.843  10.053  1.00  0.00     0.200 A 
ATOM     85  F   UNL     1     -15.328  -0.068  11.436  1.00  0.00    -0.200 F 
ATOM     86  F   UNL     1     -16.264   2.439  10.909  1.00  0.00    -0.200 F 
ENDBRANCH  62  76
BRANCH  63  87
ATOM     87  C   UNL     1      -6.769  -3.510   2.303  1.00  0.00     0.064 A 
ATOM     88  C   UNL     1      -6.975  -3.606   0.919  1.00  0.00     0.173 A 
ATOM     89  C   UNL     1      -5.586  -4.057   2.823  1.00  0.00     0.173 A 
ATOM     90  F   UNL     1      -8.105  -3.128   0.377  1.00  0.00    -0.203 F 
ATOM     91  C   UNL     1      -6.048  -4.238   0.093  1.00  0.00     0.198 A 
ATOM     92  C   UNL     1      -4.644  -4.661   1.992  1.00  0.00     0.198 A 
ATOM     93  F   UNL     1      -5.343  -4.002   4.140  1.00  0.00    -0.203 F 
ATOM     94  F   UNL     1      -6.296  -4.362  -1.218  1.00  0.00    -0.200 F 
ATOM     95  C   UNL     1      -4.879  -4.758   0.629  1.00  0.00     0.200 A 
ATOM     96  F   UNL     1      -3.513  -5.155   2.512  1.00  0.00    -0.200 F 
ATOM     97  F   UNL     1      -3.986  -5.363  -0.166  1.00  0.00    -0.200 F 
ENDBRANCH  63  87
BRANCH  75  98
ATOM     98  C   UNL     1     -13.326  -5.195   4.001  1.00  0.00     0.064 A 
ATOM     99  C   UNL     1     -13.128  -6.522   4.410  1.00  0.00     0.173 A 
ATOM    100  C   UNL     1     -14.450  -4.917   3.207  1.00  0.00     0.173 A 
ATOM    101  F   UNL     1     -12.064  -6.846   5.161  1.00  0.00    -0.203 F 
ATOM    102  C   UNL     1     -14.005  -7.532   4.019  1.00  0.00     0.198 A 
ATOM    103  C   UNL     1     -15.344  -5.922   2.847  1.00  0.00     0.198 A 
ATOM    104  F   UNL     1     -14.694  -3.664   2.795  1.00  0.00    -0.203 F 
ATOM    105  F   UNL     1     -13.768  -8.800   4.381  1.00  0.00    -0.200 F 
ATOM    106  C   UNL     1     -15.116  -7.230   3.246  1.00  0.00     0.200 A 
ATOM    107  F   UNL     1     -16.427  -5.624   2.116  1.00  0.00    -0.200 F 
ATOM    108  F   UNL     1     -15.965  -8.200   2.881  1.00  0.00    -0.200 F 
ENDBRANCH  75  98
ENDBRANCH  49  50
ENDBRANCH  42  44
ENDBRANCH  41  42
ENDBRANCH  40  41
ENDBRANCH  39  40
ENDBRANCH  38  39
ENDBRANCH  37  38
ENDBRANCH  36  37
ENDBRANCH   1  36
TORSDOF 23
