REMARK SMILES O=C(OCCOCCOCCOC(=O)[C@@H]1[C@H](C(=O)NCc2ccccc2Cl)[C@@H]2C=C[C@H]1C2)c1ccc(-c2c3nc(c(-c4c(F)c(F)c(F)c(F)c4F)c4ccc([nH]4)c(-c4c(F)c(F)c(F)c(F)c4F)c4nc(c(-c5c(F)c(F)c(F)c(F)c5F)c5ccc2[nH]5)C=C4)C=C3)cc1
REMARK SMILES IDX 8 1 7 2 6 3 5 4 4 5 3 6 2 7 1 8 33 9 34 10 95 11 35 12 94 13
REMARK SMILES IDX 36 14 37 15 38 16 88 17 39 18 93 19 87 20 89 21 40 22 92 23
REMARK SMILES IDX 86 24 85 25 41 27 73 28 53 29 72 30 54 31 57 32 71 33 90 34
REMARK SMILES IDX 55 35 56 36 70 38 91 39 58 40 42 41 43 42 51 43 44 44 45 45
REMARK SMILES IDX 49 46 52 47 46 48 47 49 50 50 48 51 74 52 75 53 83 54 76 55
REMARK SMILES IDX 77 56 81 57 84 58 78 59 79 60 82 61 80 62 59 63 60 64 68 65
REMARK SMILES IDX 61 66 62 67 66 68 69 69 63 70 64 71 67 72 65 73 9 74 10 75
REMARK SMILES IDX 11 76 12 77 13 78 14 79 15 80 16 81 31 82 28 83 30 84 32 85
REMARK SMILES IDX 29 86 17 87 18 88 19 89 20 91 21 92 22 93 26 94 23 95 25 96
REMARK SMILES IDX 27 97 24 98
REMARK H PARENT 89 26 57 37 19 90
REMARK Flexibility Score: inf
ROOT
ATOM      1  C   UNL     1       1.953   1.988  -1.545  1.00  0.00     0.188 C 
ENDROOT
BRANCH   1   2
ATOM      2  C   UNL     1       2.410   0.596  -1.143  1.00  0.00     0.188 C 
BRANCH   2   3
ATOM      3  O   UNL     1       3.703   0.626  -0.541  1.00  0.00    -0.376 OA
BRANCH   3   4
ATOM      4  C   UNL     1       4.612  -0.359  -1.033  1.00  0.00     0.202 C 
BRANCH   4   5
ATOM      5  C   UNL     1       4.296  -1.795  -0.618  1.00  0.00     0.261 C 
BRANCH   5   6
ATOM      6  O   UNL     1       2.952  -2.017  -0.154  1.00  0.00    -0.460 OA
BRANCH   6   7
ATOM      7  C   UNL     1       2.355  -1.761   1.032  1.00  0.00     0.338 C 
ATOM      8  O   UNL     1       1.175  -2.088   1.164  1.00  0.00    -0.246 OA
BRANCH   7   9
ATOM      9  C   UNL     1       3.009  -1.097   2.201  1.00  0.00     0.060 A 
ATOM     10  C   UNL     1       4.161  -0.318   2.148  1.00  0.00     0.016 A 
ATOM     11  C   UNL     1       2.369  -1.225   3.449  1.00  0.00     0.016 A 
ATOM     12  C   UNL     1       4.692   0.286   3.271  1.00  0.00     0.010 A 
ATOM     13  C   UNL     1       2.906  -0.643   4.602  1.00  0.00     0.010 A 
ATOM     14  C   UNL     1       4.094   0.084   4.508  1.00  0.00    -0.014 A 
BRANCH  14  15
ATOM     15  C   UNL     1       4.920   0.418   5.676  1.00  0.00     0.031 A 
ATOM     16  C   UNL     1       5.717  -0.693   6.279  1.00  0.00     0.074 A 
ATOM     17  C   UNL     1       5.131   1.704   5.997  1.00  0.00     0.049 A 
ATOM     18  N   UNL     1       6.530  -0.669   7.295  1.00  0.00    -0.248 NA
ATOM     19  C   UNL     1       5.604  -2.011   5.626  1.00  0.00     0.031 C 
ATOM     20  C   UNL     1       4.529   2.839   5.300  1.00  0.00     0.029 A 
ATOM     21  N   UNL     1       5.942   2.278   6.934  1.00  0.00    -0.354 N 
ATOM     22  C   UNL     1       6.986  -1.972   7.432  1.00  0.00     0.074 A 
ATOM     23  C   UNL     1       6.382  -2.760   6.386  1.00  0.00     0.031 C 
ATOM     24  C   UNL     1       5.022   3.976   5.813  1.00  0.00     0.029 A 
ATOM     25  C   UNL     1       5.890   3.650   6.933  1.00  0.00     0.049 A 
ATOM     26  H   UNL     1       6.508   1.758   7.550  1.00  0.00     0.167 HD
ATOM     27  C   UNL     1       7.821  -2.453   8.379  1.00  0.00     0.037 A 
ATOM     28  C   UNL     1       6.444   4.532   7.783  1.00  0.00     0.037 A 
ATOM     29  C   UNL     1       8.384  -1.619   9.404  1.00  0.00     0.049 A 
ATOM     30  C   UNL     1       7.269   3.960   8.902  1.00  0.00     0.074 A 
ATOM     31  C   UNL     1       9.153  -1.978  10.491  1.00  0.00     0.029 A 
ATOM     32  N   UNL     1       8.221  -0.238   9.457  1.00  0.00    -0.354 N 
ATOM     33  N   UNL     1       7.607   2.709   9.117  1.00  0.00    -0.248 NA
ATOM     34  C   UNL     1       7.767   4.901   9.909  1.00  0.00     0.031 C 
ATOM     35  C   UNL     1       9.407  -0.819  11.235  1.00  0.00     0.029 A 
ATOM     36  C   UNL     1       8.857   0.272  10.573  1.00  0.00     0.049 A 
ATOM     37  H   UNL     1       7.726   0.298   8.797  1.00  0.00     0.167 HD
ATOM     38  C   UNL     1       8.364   2.709  10.276  1.00  0.00     0.074 A 
ATOM     39  C   UNL     1       8.459   4.094  10.701  1.00  0.00     0.031 C 
ATOM     40  C   UNL     1       8.922   1.666  10.941  1.00  0.00     0.037 A 
BRANCH  27  41
ATOM     41  C   UNL     1       8.038  -3.936   8.399  1.00  0.00     0.064 A 
ATOM     42  C   UNL     1       8.774  -4.604   7.408  1.00  0.00     0.173 A 
ATOM     43  C   UNL     1       7.423  -4.713   9.393  1.00  0.00     0.173 A 
ATOM     44  F   UNL     1       9.343  -3.914   6.408  1.00  0.00    -0.203 F 
ATOM     45  C   UNL     1       8.858  -5.996   7.395  1.00  0.00     0.198 A 
ATOM     46  C   UNL     1       7.535  -6.101   9.394  1.00  0.00     0.198 A 
ATOM     47  F   UNL     1       6.689  -4.128  10.350  1.00  0.00    -0.203 F 
ATOM     48  F   UNL     1       9.503  -6.617   6.397  1.00  0.00    -0.200 F 
ATOM     49  C   UNL     1       8.243  -6.742   8.389  1.00  0.00     0.200 A 
ATOM     50  F   UNL     1       6.936  -6.819  10.354  1.00  0.00    -0.200 F 
ATOM     51  F   UNL     1       8.314  -8.080   8.367  1.00  0.00    -0.200 F 
ENDBRANCH  27  41
BRANCH  28  52
ATOM     52  C   UNL     1       6.167   5.992   7.660  1.00  0.00     0.064 A 
ATOM     53  C   UNL     1       7.194   6.921   7.448  1.00  0.00     0.173 A 
ATOM     54  C   UNL     1       4.858   6.495   7.768  1.00  0.00     0.173 A 
ATOM     55  F   UNL     1       8.465   6.504   7.352  1.00  0.00    -0.203 F 
ATOM     56  C   UNL     1       6.928   8.290   7.370  1.00  0.00     0.198 A 
ATOM     57  C   UNL     1       4.588   7.857   7.652  1.00  0.00     0.198 A 
ATOM     58  F   UNL     1       3.829   5.658   7.974  1.00  0.00    -0.203 F 
ATOM     59  F   UNL     1       7.937   9.158   7.220  1.00  0.00    -0.200 F 
ATOM     60  C   UNL     1       5.625   8.756   7.466  1.00  0.00     0.200 A 
ATOM     61  F   UNL     1       3.324   8.296   7.726  1.00  0.00    -0.200 F 
ATOM     62  F   UNL     1       5.371  10.069   7.390  1.00  0.00    -0.200 F 
ENDBRANCH  28  52
BRANCH  40  63
ATOM     63  C   UNL     1       9.714   2.005  12.165  1.00  0.00     0.064 A 
ATOM     64  C   UNL     1       9.095   2.430  13.348  1.00  0.00     0.173 A 
ATOM     65  C   UNL     1      11.108   1.854  12.160  1.00  0.00     0.173 A 
ATOM     66  F   UNL     1       7.765   2.604  13.391  1.00  0.00    -0.203 F 
ATOM     67  C   UNL     1       9.850   2.720  14.479  1.00  0.00     0.198 A 
ATOM     68  C   UNL     1      11.855   2.107  13.303  1.00  0.00     0.198 A 
ATOM     69  F   UNL     1      11.740   1.442  11.050  1.00  0.00    -0.203 F 
ATOM     70  F   UNL     1       9.247   3.179  15.584  1.00  0.00    -0.200 F 
ATOM     71  C   UNL     1      11.227   2.549  14.458  1.00  0.00     0.200 A 
ATOM     72  F   UNL     1      13.182   1.924  13.287  1.00  0.00    -0.200 F 
ATOM     73  F   UNL     1      11.952   2.817  15.553  1.00  0.00    -0.200 F 
ENDBRANCH  40  63
ENDBRANCH  14  15
ENDBRANCH   7   9
ENDBRANCH   6   7
ENDBRANCH   5   6
ENDBRANCH   4   5
ENDBRANCH   3   4
ENDBRANCH   2   3
ENDBRANCH   1   2
BRANCH   1  74
ATOM     74  O   UNL     1       2.787   2.693  -2.458  1.00  0.00    -0.376 OA
BRANCH  74  75
ATOM     75  C   UNL     1       4.191   2.703  -2.249  1.00  0.00     0.202 C 
BRANCH  75  76
ATOM     76  C   UNL     1       4.888   3.359  -1.021  1.00  0.00     0.261 C 
BRANCH  76  77
ATOM     77  O   UNL     1       4.252   3.452   0.266  1.00  0.00    -0.463 OA
BRANCH  77  78
ATOM     78  C   UNL     1       3.221   4.329   0.256  1.00  0.00     0.310 C 
ATOM     79  O   UNL     1       2.708   4.707  -0.771  1.00  0.00    -0.252 OA
BRANCH  78  80
ATOM     80  C   UNL     1       2.659   4.674   1.598  1.00  0.00     0.119 C 
ATOM     81  C   UNL     1       1.493   5.723   1.571  1.00  0.00     0.100 C 
ATOM     82  C   UNL     1       3.598   5.252   2.680  1.00  0.00     0.027 C 
ATOM     83  C   UNL     1       1.869   6.690   2.723  1.00  0.00     0.025 C 
ATOM     84  C   UNL     1       4.130   6.620   2.334  1.00  0.00    -0.027 C 
ATOM     85  C   UNL     1       2.544   5.715   3.708  1.00  0.00     0.017 C 
ATOM     86  C   UNL     1       3.101   7.481   2.384  1.00  0.00    -0.027 C 
BRANCH  81  87
ATOM     87  C   UNL     1       0.924   6.338   0.268  1.00  0.00     0.224 C 
ATOM     88  O   UNL     1      -0.292   6.189   0.061  1.00  0.00    -0.275 OA
ATOM     89  N   UNL     1       1.588   7.048  -0.686  1.00  0.00    -0.352 N 
ATOM     90  H   UNL     1       1.016   7.318  -1.440  1.00  0.00     0.163 HD
BRANCH  89  91
ATOM     91  C   UNL     1       2.968   7.490  -0.823  1.00  0.00     0.153 C 
BRANCH  91  92
ATOM     92  C   UNL     1       3.789   7.050  -2.028  1.00  0.00    -0.010 A 
ATOM     93  C   UNL     1       3.299   6.201  -3.034  1.00  0.00     0.007 A 
ATOM     94  C   UNL     1       5.160   7.385  -2.079  1.00  0.00     0.046 A 
ATOM     95  C   UNL     1       4.155   5.659  -4.004  1.00  0.00     0.000 A 
ATOM     96  C   UNL     1       6.015   6.834  -3.042  1.00  0.00     0.021 A 
ATOM     97  Cl  UNL     1       5.879   8.447  -0.913  1.00  0.00    -0.084 Cl
ATOM     98  C   UNL     1       5.516   5.954  -3.995  1.00  0.00     0.002 A 
ENDBRANCH  91  92
ENDBRANCH  89  91
ENDBRANCH  81  87
ENDBRANCH  78  80
ENDBRANCH  77  78
ENDBRANCH  76  77
ENDBRANCH  75  76
ENDBRANCH  74  75
ENDBRANCH   1  74
TORSDOF 20
