REMARK SMILES O=C(OCCOCCOCCOC(=O)[C@@H]1[C@H](C(=O)Nc2cccc(Cl)c2F)[C@@H]2C=C[C@H]1C2)c1ccc(-c2c3nc(c(-c4c(F)c(F)c(F)c(F)c4F)c4ccc([nH]4)c(-c4c(F)c(F)c(F)c(F)c4F)c4nc(c(-c5c(F)c(F)c(F)c(F)c5F)c5ccc2[nH]5)C=C4)C=C3)cc1
REMARK SMILES IDX 7 1 6 2 5 3 4 4 3 5 2 6 1 7 33 8 34 9 95 10 35 11 94 12
REMARK SMILES IDX 36 13 37 14 38 15 88 16 39 17 93 18 87 19 89 20 40 21 92 22
REMARK SMILES IDX 86 23 85 24 41 26 73 27 53 28 72 29 54 30 57 31 71 32 90 33
REMARK SMILES IDX 55 34 56 35 70 37 91 38 58 39 42 40 43 41 51 42 44 43 45 44
REMARK SMILES IDX 49 45 52 46 46 47 47 48 50 49 48 50 74 51 75 52 83 53 76 54
REMARK SMILES IDX 77 55 81 56 84 57 78 58 79 59 82 60 80 61 59 62 60 63 68 64
REMARK SMILES IDX 61 65 62 66 66 67 69 68 63 69 64 70 67 71 65 72 8 73 9 74
REMARK SMILES IDX 10 75 11 76 12 77 13 78 14 79 15 80 16 81 31 82 28 83 30 84
REMARK SMILES IDX 32 85 29 86 17 87 18 88 19 89 20 91 21 92 26 93 22 94 24 95
REMARK SMILES IDX 27 96 23 97 25 98
REMARK H PARENT 89 25 57 36 19 90
REMARK Flexibility Score: inf
ROOT
ATOM      1  C   UNL     1       2.772   1.195  -1.167  1.00  0.00     0.188 C 
ENDROOT
BRANCH   1   2
ATOM      2  O   UNL     1       4.143   0.808  -1.136  1.00  0.00    -0.376 OA
BRANCH   2   3
ATOM      3  C   UNL     1       4.472  -0.518  -1.529  1.00  0.00     0.202 C 
BRANCH   3   4
ATOM      4  C   UNL     1       4.202  -1.611  -0.495  1.00  0.00     0.261 C 
BRANCH   4   5
ATOM      5  O   UNL     1       2.871  -1.546   0.030  1.00  0.00    -0.460 OA
BRANCH   5   6
ATOM      6  C   UNL     1       2.514  -1.189   1.290  1.00  0.00     0.338 C 
ATOM      7  O   UNL     1       1.507  -1.686   1.773  1.00  0.00    -0.246 OA
BRANCH   6   8
ATOM      8  C   UNL     1       3.196  -0.086   2.061  1.00  0.00     0.060 A 
ATOM      9  C   UNL     1       4.471   0.431   1.821  1.00  0.00     0.016 A 
ATOM     10  C   UNL     1       2.464   0.466   3.134  1.00  0.00     0.016 A 
ATOM     11  C   UNL     1       5.037   1.385   2.661  1.00  0.00     0.010 A 
ATOM     12  C   UNL     1       3.022   1.431   3.982  1.00  0.00     0.010 A 
ATOM     13  C   UNL     1       4.338   1.846   3.776  1.00  0.00    -0.014 A 
BRANCH  13  14
ATOM     14  C   UNL     1       5.122   2.549   4.813  1.00  0.00     0.031 A 
ATOM     15  C   UNL     1       5.724   1.721   5.903  1.00  0.00     0.074 A 
ATOM     16  C   UNL     1       5.449   3.842   4.668  1.00  0.00     0.049 A 
ATOM     17  N   UNL     1       6.593   2.063   6.816  1.00  0.00    -0.248 NA
ATOM     18  C   UNL     1       5.317   0.307   5.951  1.00  0.00     0.031 C 
ATOM     19  C   UNL     1       4.976   4.688   3.584  1.00  0.00     0.029 A 
ATOM     20  N   UNL     1       6.283   4.654   5.390  1.00  0.00    -0.354 N 
ATOM     21  C   UNL     1       6.838   0.908   7.542  1.00  0.00     0.074 A 
ATOM     22  C   UNL     1       6.019  -0.141   6.978  1.00  0.00     0.031 C 
ATOM     23  C   UNL     1       5.563   5.892   3.677  1.00  0.00     0.029 A 
ATOM     24  C   UNL     1       6.420   5.912   4.854  1.00  0.00     0.049 A 
ATOM     25  H   UNL     1       6.740   4.365   6.213  1.00  0.00     0.167 HD
ATOM     26  C   UNL     1       7.672   0.745   8.593  1.00  0.00     0.037 A 
ATOM     27  C   UNL     1       7.155   6.960   5.271  1.00  0.00     0.037 A 
ATOM     28  C   UNL     1       8.447   1.811   9.164  1.00  0.00     0.049 A 
ATOM     29  C   UNL     1       7.998   6.778   6.503  1.00  0.00     0.074 A 
ATOM     30  C   UNL     1       9.261   1.787  10.280  1.00  0.00     0.029 A 
ATOM     31  N   UNL     1       8.487   3.106   8.661  1.00  0.00    -0.354 N 
ATOM     32  N   UNL     1       8.206   5.689   7.206  1.00  0.00    -0.248 NA
ATOM     33  C   UNL     1       8.699   7.964   7.008  1.00  0.00     0.031 C 
ATOM     34  C   UNL     1       9.754   3.082  10.482  1.00  0.00     0.029 A 
ATOM     35  C   UNL     1       9.293   3.899   9.460  1.00  0.00     0.049 A 
ATOM     36  H   UNL     1       8.013   3.413   7.855  1.00  0.00     0.167 HD
ATOM     37  C   UNL     1       9.073   6.052   8.225  1.00  0.00     0.074 A 
ATOM     38  C   UNL     1       9.371   7.458   8.032  1.00  0.00     0.031 C 
ATOM     39  C   UNL     1       9.572   5.295   9.233  1.00  0.00     0.037 A 
BRANCH  26  40
ATOM     40  C   UNL     1       7.693  -0.613   9.222  1.00  0.00     0.064 A 
ATOM     41  C   UNL     1       8.293  -1.714   8.592  1.00  0.00     0.173 A 
ATOM     42  C   UNL     1       7.035  -0.830  10.441  1.00  0.00     0.173 A 
ATOM     43  F   UNL     1       8.900  -1.565   7.405  1.00  0.00    -0.203 F 
ATOM     44  C   UNL     1       8.203  -2.990   9.145  1.00  0.00     0.198 A 
ATOM     45  C   UNL     1       6.969  -2.101  11.003  1.00  0.00     0.198 A 
ATOM     46  F   UNL     1       6.432   0.188  11.074  1.00  0.00    -0.203 F 
ATOM     47  F   UNL     1       8.723  -4.039   8.493  1.00  0.00    -0.200 F 
ATOM     48  C   UNL     1       7.543  -3.181  10.350  1.00  0.00     0.200 A 
ATOM     49  F   UNL     1       6.329  -2.285  12.166  1.00  0.00    -0.200 F 
ATOM     50  F   UNL     1       7.443  -4.411  10.872  1.00  0.00    -0.200 F 
ENDBRANCH  26  40
BRANCH  27  51
ATOM     51  C   UNL     1       7.121   8.255   4.537  1.00  0.00     0.064 A 
ATOM     52  C   UNL     1       8.265   8.772   3.912  1.00  0.00     0.173 A 
ATOM     53  C   UNL     1       5.942   9.015   4.455  1.00  0.00     0.173 A 
ATOM     54  F   UNL     1       9.424   8.100   3.973  1.00  0.00    -0.203 F 
ATOM     55  C   UNL     1       8.237  10.001   3.253  1.00  0.00     0.198 A 
ATOM     56  C   UNL     1       5.907  10.227   3.768  1.00  0.00     0.198 A 
ATOM     57  F   UNL     1       4.817   8.574   5.035  1.00  0.00    -0.203 F 
ATOM     58  F   UNL     1       9.357  10.491   2.704  1.00  0.00    -0.200 F 
ATOM     59  C   UNL     1       7.056  10.725   3.176  1.00  0.00     0.200 A 
ATOM     60  F   UNL     1       4.759  10.913   3.683  1.00  0.00    -0.200 F 
ATOM     61  F   UNL     1       7.029  11.902   2.537  1.00  0.00    -0.200 F 
ENDBRANCH  27  51
BRANCH  39  62
ATOM     62  C   UNL     1      10.514   5.973  10.181  1.00  0.00     0.064 A 
ATOM     63  C   UNL     1      10.064   6.913  11.118  1.00  0.00     0.173 A 
ATOM     64  C   UNL     1      11.879   5.649  10.170  1.00  0.00     0.173 A 
ATOM     65  F   UNL     1       8.770   7.266  11.154  1.00  0.00    -0.203 F 
ATOM     66  C   UNL     1      10.953   7.529  11.993  1.00  0.00     0.198 A 
ATOM     67  C   UNL     1      12.759   6.244  11.067  1.00  0.00     0.198 A 
ATOM     68  F   UNL     1      12.354   4.751   9.295  1.00  0.00    -0.203 F 
ATOM     69  F   UNL     1      10.512   8.464  12.846  1.00  0.00    -0.200 F 
ATOM     70  C   UNL     1      12.298   7.188  11.972  1.00  0.00     0.200 A 
ATOM     71  F   UNL     1      14.056   5.905  11.054  1.00  0.00    -0.200 F 
ATOM     72  F   UNL     1      13.152   7.778  12.819  1.00  0.00    -0.200 F 
ENDBRANCH  39  62
ENDBRANCH  13  14
ENDBRANCH   6   8
ENDBRANCH   5   6
ENDBRANCH   4   5
ENDBRANCH   3   4
ENDBRANCH   2   3
ENDBRANCH   1   2
BRANCH   1  73
ATOM     73  C   UNL     1       1.925   0.893  -2.410  1.00  0.00     0.188 C 
BRANCH  73  74
ATOM     74  O   UNL     1       2.403   1.075  -3.735  1.00  0.00    -0.376 OA
BRANCH  74  75
ATOM     75  C   UNL     1       3.625   1.740  -3.991  1.00  0.00     0.202 C 
BRANCH  75  76
ATOM     76  C   UNL     1       3.573   3.260  -3.935  1.00  0.00     0.261 C 
BRANCH  76  77
ATOM     77  O   UNL     1       3.357   3.764  -2.610  1.00  0.00    -0.463 OA
BRANCH  77  78
ATOM     78  C   UNL     1       2.176   4.342  -2.362  1.00  0.00     0.310 C 
ATOM     79  O   UNL     1       1.225   4.293  -3.139  1.00  0.00    -0.252 OA
BRANCH  78  80
ATOM     80  C   UNL     1       2.081   5.187  -1.105  1.00  0.00     0.119 C 
ATOM     81  C   UNL     1       2.184   6.673  -1.458  1.00  0.00     0.100 C 
ATOM     82  C   UNL     1       2.670   5.165   0.335  1.00  0.00     0.027 C 
ATOM     83  C   UNL     1       2.399   7.366  -0.090  1.00  0.00     0.025 C 
ATOM     84  C   UNL     1       3.979   5.904   0.569  1.00  0.00    -0.027 C 
ATOM     85  C   UNL     1       1.814   6.330   0.902  1.00  0.00     0.017 C 
ATOM     86  C   UNL     1       3.822   7.210   0.314  1.00  0.00    -0.027 C 
BRANCH  81  87
ATOM     87  C   UNL     1       3.098   7.051  -2.626  1.00  0.00     0.229 C 
ATOM     88  O   UNL     1       2.551   7.698  -3.542  1.00  0.00    -0.274 OA
ATOM     89  N   UNL     1       4.425   6.904  -2.845  1.00  0.00    -0.323 N 
ATOM     90  H   UNL     1       4.639   7.388  -3.675  1.00  0.00     0.170 HD
BRANCH  89  91
ATOM     91  C   UNL     1       5.635   6.337  -2.365  1.00  0.00     0.078 A 
ATOM     92  C   UNL     1       6.786   7.018  -2.812  1.00  0.00     0.029 A 
ATOM     93  C   UNL     1       5.875   5.217  -1.563  1.00  0.00     0.165 A 
ATOM     94  C   UNL     1       8.080   6.663  -2.405  1.00  0.00     0.004 A 
ATOM     95  C   UNL     1       7.167   4.857  -1.143  1.00  0.00     0.078 A 
ATOM     96  F   UNL     1       4.897   4.406  -1.165  1.00  0.00    -0.203 F 
ATOM     97  C   UNL     1       8.272   5.588  -1.550  1.00  0.00     0.024 A 
ATOM     98  Cl  UNL     1       7.399   3.502  -0.096  1.00  0.00    -0.081 Cl
ENDBRANCH  89  91
ENDBRANCH  81  87
ENDBRANCH  78  80
ENDBRANCH  77  78
ENDBRANCH  76  77
ENDBRANCH  75  76
ENDBRANCH  74  75
ENDBRANCH  73  74
ENDBRANCH   1  73
TORSDOF 19
