REMARK SMILES Cn1nc(C(=O)N2C[C@@H](O)C[C@H]2C(=O)OCCOCCOCCOC(=O)c2ccc(-c3c4nc(c(-c5c(F)c(F)c(F)c(F)c5F)c5ccc([nH]5)c(-c5c(F)c(F)c(F)c(F)c5F)c5nc(c(-c6c(F)c(F)c(F)c(F)c6F)c6ccc3[nH]6)C=C5)C=C4)cc2)ccc1=O
REMARK SMILES IDX 19 1 18 2 17 3 16 4 15 5 13 6 14 7 12 8 7 9 8 10 9 11 11 12
REMARK SMILES IDX 5 13 6 14 4 15 1 16 2 17 3 18 92 19 91 20 93 21 90 22 10 23
REMARK SMILES IDX 20 25 21 26 22 27 23 28 24 29 25 30 26 31 27 32 28 33 89 34
REMARK SMILES IDX 29 35 88 36 30 37 31 38 32 39 82 40 33 41 87 42 81 43 83 44
REMARK SMILES IDX 34 45 86 46 80 47 79 48 35 50 67 51 47 52 66 53 48 54 51 55
REMARK SMILES IDX 65 56 84 57 49 58 50 59 64 61 85 62 52 63 36 64 37 65 45 66
REMARK SMILES IDX 38 67 39 68 43 69 46 70 40 71 41 72 44 73 42 74 68 75 69 76
REMARK SMILES IDX 77 77 70 78 71 79 75 80 78 81 72 82 73 83 76 84 74 85 53 86
REMARK SMILES IDX 54 87 62 88 55 89 56 90 60 91 63 92 57 93 58 94 61 95 59 96
REMARK H PARENT 10 24 83 49 51 60
REMARK Flexibility Score: inf
ROOT
ATOM      1  C   UNL     1       1.180   0.949  -8.661  1.00  0.00     0.188 C 
ENDROOT
BRANCH   1   2
ATOM      2  O   UNL     1       0.852   0.423  -9.940  1.00  0.00    -0.376 OA
BRANCH   2   3
ATOM      3  C   UNL     1      -0.452  -0.091 -10.176  1.00  0.00     0.202 C 
BRANCH   3   4
ATOM      4  C   UNL     1      -0.877  -1.340  -9.382  1.00  0.00     0.261 C 
BRANCH   4   5
ATOM      5  O   UNL     1      -0.961  -1.212  -7.936  1.00  0.00    -0.462 OA
BRANCH   5   6
ATOM      6  C   UNL     1       0.031  -1.802  -7.215  1.00  0.00     0.329 C 
ATOM      7  O   UNL     1       0.943  -2.451  -7.723  1.00  0.00    -0.250 OA
BRANCH   6   8
ATOM      8  C   UNL     1      -0.082  -1.683  -5.660  1.00  0.00     0.198 C 
ATOM      9  N   UNL     1      -1.024  -0.832  -4.893  1.00  0.00    -0.321 N 
ATOM     10  C   UNL     1      -1.932  -1.614  -4.093  1.00  0.00     0.152 C 
ATOM     11  C   UNL     1      -1.264  -2.970  -3.948  1.00  0.00     0.136 C 
ATOM     12  C   UNL     1      -0.451  -3.114  -5.225  1.00  0.00     0.071 C 
BRANCH   9  13
ATOM     13  C   UNL     1      -0.879   0.514  -4.596  1.00  0.00     0.275 C 
ATOM     14  O   UNL     1      -1.415   1.380  -5.278  1.00  0.00    -0.267 OA
BRANCH  13  15
ATOM     15  C   UNL     1      -0.206   0.976  -3.284  1.00  0.00     0.149 A 
ATOM     16  C   UNL     1       1.011  -0.261  -0.120  1.00  0.00     0.178 C 
ATOM     17  N   UNL     1       0.642   0.666  -1.172  1.00  0.00    -0.232 N 
ATOM     18  N   UNL     1       0.145   0.128  -2.362  1.00  0.00    -0.165 NA
ATOM     19  C   UNL     1       0.779   2.028  -0.909  1.00  0.00     0.266 A 
ATOM     20  C   UNL     1       0.436   2.934  -2.015  1.00  0.00     0.076 A 
ATOM     21  O   UNL     1       1.171   2.509   0.151  1.00  0.00    -0.268 OA
ATOM     22  C   UNL     1      -0.032   2.448  -3.164  1.00  0.00     0.042 A 
ENDBRANCH  13  15
ENDBRANCH   9  13
BRANCH  11  23
ATOM     23  O   UNL     1      -2.209  -4.021  -3.832  1.00  0.00    -0.391 OA
ATOM     24  H   UNL     1      -2.785  -4.025  -4.612  1.00  0.00     0.211 HD
ENDBRANCH  11  23
ENDBRANCH   6   8
ENDBRANCH   5   6
ENDBRANCH   4   5
ENDBRANCH   3   4
ENDBRANCH   2   3
ENDBRANCH   1   2
BRANCH   1  25
ATOM     25  C   UNL     1       0.065   1.451  -7.746  1.00  0.00     0.188 C 
BRANCH  25  26
ATOM     26  O   UNL     1      -1.071   1.930  -8.433  1.00  0.00    -0.376 OA
BRANCH  26  27
ATOM     27  C   UNL     1      -1.574   3.177  -7.991  1.00  0.00     0.202 C 
BRANCH  27  28
ATOM     28  C   UNL     1      -0.715   4.336  -8.502  1.00  0.00     0.261 C 
BRANCH  28  29
ATOM     29  O   UNL     1       0.685   4.257  -8.150  1.00  0.00    -0.460 OA
BRANCH  29  30
ATOM     30  C   UNL     1       1.015   4.442  -6.855  1.00  0.00     0.338 C 
ATOM     31  O   UNL     1       0.266   4.729  -5.929  1.00  0.00    -0.246 OA
BRANCH  30  32
ATOM     32  C   UNL     1       2.424   4.029  -6.677  1.00  0.00     0.060 A 
ATOM     33  C   UNL     1       2.728   2.912  -5.881  1.00  0.00     0.016 A 
ATOM     34  C   UNL     1       3.446   4.753  -7.287  1.00  0.00     0.016 A 
ATOM     35  C   UNL     1       4.055   2.526  -5.681  1.00  0.00     0.010 A 
ATOM     36  C   UNL     1       4.776   4.388  -7.059  1.00  0.00     0.010 A 
ATOM     37  C   UNL     1       5.088   3.292  -6.234  1.00  0.00    -0.014 A 
BRANCH  37  38
ATOM     38  C   UNL     1       6.489   3.085  -5.794  1.00  0.00     0.031 A 
ATOM     39  C   UNL     1       7.003   3.928  -4.659  1.00  0.00     0.074 A 
ATOM     40  C   UNL     1       7.293   2.188  -6.392  1.00  0.00     0.049 A 
ATOM     41  N   UNL     1       8.214   4.022  -4.177  1.00  0.00    -0.248 NA
ATOM     42  C   UNL     1       6.015   4.782  -3.977  1.00  0.00     0.031 C 
ATOM     43  C   UNL     1       6.898   1.275  -7.460  1.00  0.00     0.029 A 
ATOM     44  N   UNL     1       8.625   1.915  -6.190  1.00  0.00    -0.354 N 
ATOM     45  C   UNL     1       8.135   4.945  -3.142  1.00  0.00     0.074 A 
ATOM     46  C   UNL     1       6.764   5.400  -3.077  1.00  0.00     0.031 C 
ATOM     47  C   UNL     1       7.972   0.560  -7.841  1.00  0.00     0.029 A 
ATOM     48  C   UNL     1       9.137   0.992  -7.069  1.00  0.00     0.049 A 
ATOM     49  H   UNL     1       9.161   2.341  -5.483  1.00  0.00     0.167 HD
ATOM     50  C   UNL     1       9.119   5.368  -2.317  1.00  0.00     0.037 A 
ATOM     51  C   UNL     1      10.406   0.572  -7.247  1.00  0.00     0.037 A 
ATOM     52  C   UNL     1      10.481   4.914  -2.383  1.00  0.00     0.049 A 
ATOM     53  C   UNL     1      11.503   1.133  -6.373  1.00  0.00     0.074 A 
ATOM     54  C   UNL     1      11.547   5.279  -1.580  1.00  0.00     0.029 A 
ATOM     55  N   UNL     1      10.966   4.000  -3.304  1.00  0.00    -0.354 N 
ATOM     56  N   UNL     1      11.419   1.990  -5.384  1.00  0.00    -0.248 NA
ATOM     57  C   UNL     1      12.874   0.670  -6.641  1.00  0.00     0.031 C 
ATOM     58  C   UNL     1      12.690   4.630  -2.050  1.00  0.00     0.029 A 
ATOM     59  C   UNL     1      12.324   3.811  -3.106  1.00  0.00     0.049 A 
ATOM     60  H   UNL     1      10.427   3.552  -3.996  1.00  0.00     0.167 HD
ATOM     61  C   UNL     1      12.711   2.142  -4.894  1.00  0.00     0.074 A 
ATOM     62  C   UNL     1      13.561   1.277  -5.683  1.00  0.00     0.031 C 
ATOM     63  C   UNL     1      13.155   2.930  -3.885  1.00  0.00     0.037 A 
BRANCH  50  64
ATOM     64  C   UNL     1       8.777   6.380  -1.266  1.00  0.00     0.064 A 
ATOM     65  C   UNL     1       8.054   6.025  -0.119  1.00  0.00     0.173 A 
ATOM     66  C   UNL     1       9.282   7.686  -1.351  1.00  0.00     0.173 A 
ATOM     67  F   UNL     1       7.539   4.792  -0.000  1.00  0.00    -0.203 F 
ATOM     68  C   UNL     1       7.857   6.940   0.911  1.00  0.00     0.198 A 
ATOM     69  C   UNL     1       9.105   8.590  -0.308  1.00  0.00     0.198 A 
ATOM     70  F   UNL     1       9.981   8.073  -2.429  1.00  0.00    -0.203 F 
ATOM     71  F   UNL     1       7.154   6.585   1.996  1.00  0.00    -0.200 F 
ATOM     72  C   UNL     1       8.395   8.216   0.823  1.00  0.00     0.200 A 
ATOM     73  F   UNL     1       9.640   9.816  -0.388  1.00  0.00    -0.200 F 
ATOM     74  F   UNL     1       8.235   9.084   1.831  1.00  0.00    -0.200 F 
ENDBRANCH  50  64
BRANCH  51  75
ATOM     75  C   UNL     1      10.729  -0.418  -8.312  1.00  0.00     0.064 A 
ATOM     76  C   UNL     1      11.210  -1.695  -7.991  1.00  0.00     0.173 A 
ATOM     77  C   UNL     1      10.606  -0.094  -9.672  1.00  0.00     0.173 A 
ATOM     78  F   UNL     1      11.377  -2.043  -6.707  1.00  0.00    -0.203 F 
ATOM     79  C   UNL     1      11.579  -2.599  -8.986  1.00  0.00     0.198 A 
ATOM     80  C   UNL     1      10.943  -1.012 -10.666  1.00  0.00     0.198 A 
ATOM     81  F   UNL     1      10.160   1.116 -10.038  1.00  0.00    -0.203 F 
ATOM     82  F   UNL     1      12.095  -3.789  -8.648  1.00  0.00    -0.200 F 
ATOM     83  C   UNL     1      11.440  -2.259 -10.322  1.00  0.00     0.200 A 
ATOM     84  F   UNL     1      10.798  -0.681 -11.957  1.00  0.00    -0.200 F 
ATOM     85  F   UNL     1      11.796  -3.128 -11.278  1.00  0.00    -0.200 F 
ENDBRANCH  51  75
BRANCH  63  86
ATOM     86  C   UNL     1      14.615   2.878  -3.537  1.00  0.00     0.064 A 
ATOM     87  C   UNL     1      15.590   3.439  -4.374  1.00  0.00     0.173 A 
ATOM     88  C   UNL     1      15.034   2.347  -2.306  1.00  0.00     0.173 A 
ATOM     89  F   UNL     1      15.245   3.952  -5.564  1.00  0.00    -0.203 F 
ATOM     90  C   UNL     1      16.931   3.456  -3.998  1.00  0.00     0.198 A 
ATOM     91  C   UNL     1      16.370   2.397  -1.919  1.00  0.00     0.198 A 
ATOM     92  F   UNL     1      14.139   1.811  -1.462  1.00  0.00    -0.203 F 
ATOM     93  F   UNL     1      17.851   3.966  -4.830  1.00  0.00    -0.200 F 
ATOM     94  C   UNL     1      17.318   2.947  -2.768  1.00  0.00     0.200 A 
ATOM     95  F   UNL     1      16.737   1.924  -0.720  1.00  0.00    -0.200 F 
ATOM     96  F   UNL     1      18.606   2.986  -2.399  1.00  0.00    -0.200 F 
ENDBRANCH  63  86
ENDBRANCH  37  38
ENDBRANCH  30  32
ENDBRANCH  29  30
ENDBRANCH  28  29
ENDBRANCH  27  28
ENDBRANCH  26  27
ENDBRANCH  25  26
ENDBRANCH   1  25
TORSDOF 20
