REMARK SMILES Cc1cccc(CNC(=O)N[C@@H](CC2=c3ccccc3=NC2)C(=O)OCCOCCOCCOC(=O)c2ccc(-c3c4nc(c(-c5c(F)c(F)c(F)c(F)c5F)c5ccc([nH]5)c(-c5c(F)c(F)c(F)c(F)c5F)c5nc(c(-c6c(F)c(F)c(F)c(F)c6F)c6ccc3[nH]6)C=C5)C=C4)cc2)c1
REMARK SMILES IDX 29 1 28 2 27 3 26 4 25 5 23 6 24 7 12 8 11 9 8 10 9 11 10 13
REMARK SMILES IDX 7 15 6 16 1 17 2 18 3 19 100 20 4 21 5 22 13 23 14 24 15 25
REMARK SMILES IDX 22 26 16 27 20 28 21 29 17 30 19 31 18 32 30 33 31 34 32 35
REMARK SMILES IDX 33 36 34 37 35 38 36 39 37 40 38 41 99 42 39 43 98 44 40 45
REMARK SMILES IDX 41 46 42 47 92 48 43 49 97 50 91 51 93 52 44 53 96 54 90 55
REMARK SMILES IDX 89 56 45 58 77 59 57 60 76 61 58 62 61 63 75 64 94 65 59 66
REMARK SMILES IDX 60 67 74 69 95 70 62 71 46 72 47 73 55 74 48 75 49 76 53 77
REMARK SMILES IDX 56 78 50 79 51 80 54 81 52 82 78 83 79 84 87 85 80 86 81 87
REMARK SMILES IDX 85 88 88 89 82 90 83 91 86 92 84 93 63 94 64 95 72 96 65 97
REMARK SMILES IDX 66 98 70 99 73 100 67 101 68 102 71 103 69 104
REMARK H PARENT 8 12 11 14 93 57 61 68
REMARK Flexibility Score: inf
ROOT
ATOM      1  C   UNL     1      -4.487  -3.492   0.415  1.00  0.00     0.188 C 
ENDROOT
BRANCH   1   2
ATOM      2  O   UNL     1      -5.146  -3.647   1.655  1.00  0.00    -0.376 OA
BRANCH   2   3
ATOM      3  C   UNL     1      -4.956  -2.567   2.552  1.00  0.00     0.202 C 
BRANCH   3   4
ATOM      4  C   UNL     1      -5.055  -1.129   2.000  1.00  0.00     0.261 C 
BRANCH   4   5
ATOM      5  O   UNL     1      -3.671  -0.363   1.605  1.00  0.00    -0.462 OA
BRANCH   5   6
ATOM      6  C   UNL     1      -2.829   0.767   1.665  1.00  0.00     0.329 C 
ATOM      7  O   UNL     1      -1.700   0.525   1.225  1.00  0.00    -0.250 OA
BRANCH   6   8
ATOM      8  C   UNL     1      -3.061   2.364   2.162  1.00  0.00     0.198 C 
BRANCH   8   9
ATOM      9  N   UNL     1      -3.464   3.320   1.060  1.00  0.00    -0.324 N 
ATOM     10  N   UNL     1      -2.144   3.031  -0.886  1.00  0.00    -0.334 N 
ATOM     11  C   UNL     1      -3.119   3.634  -0.200  1.00  0.00     0.315 C 
ATOM     12  H   UNL     1      -2.385   2.694  -1.779  1.00  0.00     0.165 HD
ATOM     13  O   UNL     1      -3.872   4.401  -0.807  1.00  0.00    -0.249 OA
ATOM     14  H   UNL     1      -4.211   3.888   1.359  1.00  0.00     0.166 HD
BRANCH  10  15
ATOM     15  C   UNL     1      -0.786   2.817  -0.470  1.00  0.00     0.153 C 
BRANCH  15  16
ATOM     16  C   UNL     1      -0.126   1.560  -0.981  1.00  0.00    -0.028 A 
ATOM     17  C   UNL     1       3.198  -0.083  -0.152  1.00  0.00     0.044 C 
ATOM     18  C   UNL     1       1.874   0.159  -0.817  1.00  0.00    -0.051 A 
ATOM     19  C   UNL     1       1.195  -0.875  -1.468  1.00  0.00     0.003 A 
ATOM     20  C   UNL     1       1.213   1.373  -0.601  1.00  0.00     0.009 A 
ATOM     21  C   UNL     1      -0.123  -0.692  -1.894  1.00  0.00     0.001 A 
ATOM     22  C   UNL     1      -0.783   0.519  -1.653  1.00  0.00     0.005 A 
ENDBRANCH  15  16
ENDBRANCH  10  15
ENDBRANCH   8   9
BRANCH   8  23
ATOM     23  C   UNL     1      -3.553   2.923   3.704  1.00  0.00     0.070 C 
BRANCH  23  24
ATOM     24  C   UNL     1      -5.160   3.098   4.358  1.00  0.00    -0.037 C 
ATOM     25  C   UNL     1      -6.704   2.313   4.688  1.00  0.00     0.001 A 
ATOM     26  C   UNL     1      -5.564   4.808   3.429  1.00  0.00     0.174 C 
ATOM     27  C   UNL     1      -7.366   0.929   4.784  1.00  0.00     0.010 A 
ATOM     28  C   UNL     1      -8.177   3.328   4.070  1.00  0.00     0.065 A 
ATOM     29  N   UNL     1      -7.754   4.541   3.354  1.00  0.00    -0.280 NA
ATOM     30  C   UNL     1      -8.675   0.653   4.697  1.00  0.00     0.001 A 
ATOM     31  C   UNL     1      -9.548   2.881   4.260  1.00  0.00     0.028 A 
ATOM     32  C   UNL     1      -9.739   1.603   4.582  1.00  0.00     0.002 A 
ENDBRANCH  23  24
ENDBRANCH   8  23
ENDBRANCH   6   8
ENDBRANCH   5   6
ENDBRANCH   4   5
ENDBRANCH   3   4
ENDBRANCH   2   3
ENDBRANCH   1   2
BRANCH   1  33
ATOM     33  C   UNL     1      -5.236  -2.560  -0.532  1.00  0.00     0.188 C 
BRANCH  33  34
ATOM     34  O   UNL     1      -6.484  -2.094  -0.038  1.00  0.00    -0.376 OA
BRANCH  34  35
ATOM     35  C   UNL     1      -7.690  -2.783  -0.236  1.00  0.00     0.202 C 
BRANCH  35  36
ATOM     36  C   UNL     1      -8.061  -2.728  -1.710  1.00  0.00     0.261 C 
BRANCH  36  37
ATOM     37  O   UNL     1      -8.263  -1.338  -2.079  1.00  0.00    -0.460 OA
BRANCH  37  38
ATOM     38  C   UNL     1      -7.135  -0.674  -2.453  1.00  0.00     0.338 C 
ATOM     39  O   UNL     1      -6.316  -1.082  -3.264  1.00  0.00    -0.246 OA
BRANCH  38  40
ATOM     40  C   UNL     1      -6.862   0.429  -1.473  1.00  0.00     0.060 A 
ATOM     41  C   UNL     1      -5.541   0.780  -1.290  1.00  0.00     0.016 A 
ATOM     42  C   UNL     1      -7.782   0.847  -0.508  1.00  0.00     0.016 A 
ATOM     43  C   UNL     1      -5.140   1.282  -0.041  1.00  0.00     0.010 A 
ATOM     44  C   UNL     1      -7.351   1.374   0.737  1.00  0.00     0.010 A 
ATOM     45  C   UNL     1      -5.991   1.487   1.070  1.00  0.00    -0.014 A 
BRANCH  45  46
ATOM     46  C   UNL     1      -5.667   1.733   2.615  1.00  0.00     0.031 A 
ATOM     47  C   UNL     1      -6.501   3.435   2.919  1.00  0.00     0.074 A 
ATOM     48  C   UNL     1      -4.847   0.862   3.759  1.00  0.00     0.049 A 
ATOM     49  N   UNL     1      -6.620   4.230   4.586  1.00  0.00    -0.248 NA
ATOM     50  C   UNL     1      -6.785   5.044   1.773  1.00  0.00     0.031 C 
ATOM     51  C   UNL     1      -4.897   0.869   5.405  1.00  0.00     0.029 A 
ATOM     52  N   UNL     1      -3.796  -0.146   3.861  1.00  0.00    -0.354 N 
ATOM     53  C   UNL     1      -6.926   5.887   4.561  1.00  0.00     0.074 A 
ATOM     54  C   UNL     1      -7.012   6.294   2.753  1.00  0.00     0.031 C 
ATOM     55  C   UNL     1      -4.215  -0.073   6.042  1.00  0.00     0.029 A 
ATOM     56  C   UNL     1      -3.255  -0.476   5.106  1.00  0.00     0.049 A 
ATOM     57  H   UNL     1      -3.467  -0.594   3.049  1.00  0.00     0.167 HD
ATOM     58  C   UNL     1      -7.005   6.264   5.879  1.00  0.00     0.037 A 
ATOM     59  C   UNL     1      -1.933  -0.490   5.422  1.00  0.00     0.037 A 
ATOM     60  C   UNL     1      -6.097   5.320   6.762  1.00  0.00     0.049 A 
ATOM     61  C   UNL     1      -1.617   0.770   6.254  1.00  0.00     0.074 A 
ATOM     62  C   UNL     1      -6.381   4.187   7.534  1.00  0.00     0.029 A 
ATOM     63  N   UNL     1      -4.674   5.272   6.646  1.00  0.00    -0.354 N 
ATOM     64  N   UNL     1      -2.475   1.756   6.426  1.00  0.00    -0.248 NA
ATOM     65  C   UNL     1      -0.392   1.002   6.998  1.00  0.00     0.031 C 
ATOM     66  C   UNL     1      -5.173   3.473   7.832  1.00  0.00     0.029 A 
ATOM     67  C   UNL     1      -4.089   4.135   7.274  1.00  0.00     0.049 A 
ATOM     68  H   UNL     1      -4.147   5.959   6.176  1.00  0.00     0.167 HD
ATOM     69  C   UNL     1      -1.972   2.745   7.212  1.00  0.00     0.074 A 
ATOM     70  C   UNL     1      -0.667   2.184   7.589  1.00  0.00     0.031 C 
ATOM     71  C   UNL     1      -2.615   3.940   7.484  1.00  0.00     0.037 A 
BRANCH  58  72
ATOM     72  C   UNL     1      -8.400   6.678   6.346  1.00  0.00     0.064 A 
ATOM     73  C   UNL     1      -8.811   6.483   7.686  1.00  0.00     0.173 A 
ATOM     74  C   UNL     1      -9.414   7.127   5.474  1.00  0.00     0.173 A 
ATOM     75  F   UNL     1      -7.940   6.123   8.639  1.00  0.00    -0.203 F 
ATOM     76  C   UNL     1     -10.139   6.645   8.099  1.00  0.00     0.198 A 
ATOM     77  C   UNL     1     -10.741   7.299   5.893  1.00  0.00     0.198 A 
ATOM     78  F   UNL     1      -9.150   7.411   4.192  1.00  0.00    -0.203 F 
ATOM     79  F   UNL     1     -10.478   6.397   9.373  1.00  0.00    -0.200 F 
ATOM     80  C   UNL     1     -11.105   7.047   7.201  1.00  0.00     0.200 A 
ATOM     81  F   UNL     1     -11.671   7.702   5.014  1.00  0.00    -0.200 F 
ATOM     82  F   UNL     1     -12.376   7.205   7.596  1.00  0.00    -0.200 F 
ENDBRANCH  58  72
BRANCH  59  83
ATOM     83  C   UNL     1      -1.134  -1.299   4.466  1.00  0.00     0.064 A 
ATOM     84  C   UNL     1      -1.562  -2.636   4.250  1.00  0.00     0.173 A 
ATOM     85  C   UNL     1      -0.279  -0.762   3.516  1.00  0.00     0.173 A 
ATOM     86  F   UNL     1      -2.324  -3.248   5.171  1.00  0.00    -0.203 F 
ATOM     87  C   UNL     1      -1.366  -3.289   3.033  1.00  0.00     0.198 A 
ATOM     88  C   UNL     1      -0.039  -1.452   2.320  1.00  0.00     0.198 A 
ATOM     89  F   UNL     1       0.208   0.477   3.668  1.00  0.00    -0.203 F 
ATOM     90  F   UNL     1      -1.966  -4.465   2.794  1.00  0.00    -0.200 F 
ATOM     91  C   UNL     1      -0.654  -2.663   2.036  1.00  0.00     0.200 A 
ATOM     92  F   UNL     1       0.722  -0.881   1.390  1.00  0.00    -0.200 F 
ATOM     93  F   UNL     1      -0.600  -3.197   0.807  1.00  0.00    -0.200 F 
ENDBRANCH  59  83
BRANCH  71  94
ATOM     94  C   UNL     1      -1.865   5.021   8.216  1.00  0.00     0.064 A 
ATOM     95  C   UNL     1      -0.499   5.286   8.016  1.00  0.00     0.173 A 
ATOM     96  C   UNL     1      -2.540   5.879   9.107  1.00  0.00     0.173 A 
ATOM     97  F   UNL     1       0.212   4.620   7.093  1.00  0.00    -0.203 F 
ATOM     98  C   UNL     1       0.171   6.263   8.748  1.00  0.00     0.198 A 
ATOM     99  C   UNL     1      -1.888   6.916   9.763  1.00  0.00     0.198 A 
ATOM    100  F   UNL     1      -3.848   5.739   9.359  1.00  0.00    -0.203 F 
ATOM    101  F   UNL     1       1.495   6.407   8.604  1.00  0.00    -0.200 F 
ATOM    102  C   UNL     1      -0.527   7.087   9.610  1.00  0.00     0.200 A 
ATOM    103  F   UNL     1      -2.590   7.750  10.542  1.00  0.00    -0.200 F 
ATOM    104  F   UNL     1       0.108   8.056  10.280  1.00  0.00    -0.200 F 
ENDBRANCH  71  94
ENDBRANCH  45  46
ENDBRANCH  38  40
ENDBRANCH  37  38
ENDBRANCH  36  37
ENDBRANCH  35  36
ENDBRANCH  34  35
ENDBRANCH  33  34
ENDBRANCH   1  33
TORSDOF 22
