REMARK SMILES COc1cc(/C=C2/C(=O)N(c3ccccc3)C(=O)N=C2OCCOCCOCCOC(=O)c2ccc(-c3c4nc(c(-c5c(F)c(F)c(F)c(F)c5F)c5ccc([nH]5)c(-c5c(F)c(F)c(F)c(F)c5F)c5nc(c(-c6c(F)c(F)c(F)c(F)c6F)c6ccc3[nH]6)C=C5)C=C4)cc2)ccc1OCC(=O)[O-]
REMARK SMILES IDX 25 1 24 2 23 3 22 4 21 5 20 6 6 7 7 8 8 9 9 10 10 11 19 12
REMARK SMILES IDX 17 13 18 14 5 15 3 16 4 17 98 18 97 19 96 20 2 21 1 22 99 23
REMARK SMILES IDX 100 24 101 25 102 26 103 27 11 28 12 29 16 30 13 31 15 32
REMARK SMILES IDX 14 33 26 34 27 35 28 36 29 37 30 38 31 39 32 40 33 41 34 42
REMARK SMILES IDX 95 43 35 44 94 45 36 46 37 47 38 48 88 49 39 50 93 51 87 52
REMARK SMILES IDX 89 53 40 54 92 55 86 56 85 57 41 59 73 60 53 61 72 62 54 63
REMARK SMILES IDX 57 64 71 65 90 66 55 67 56 68 70 70 91 71 58 72 42 73 43 74
REMARK SMILES IDX 51 75 44 76 45 77 49 78 52 79 46 80 47 81 50 82 48 83 74 84
REMARK SMILES IDX 75 85 83 86 76 87 77 88 81 89 84 90 78 91 79 92 82 93 80 94
REMARK SMILES IDX 59 95 60 96 68 97 61 98 62 99 66 100 69 101 63 102 64 103
REMARK SMILES IDX 67 104 65 105
REMARK H PARENT 89 58 57 69
REMARK Flexibility Score: inf
ROOT
ATOM      1  C   UNL     1      -3.122  -3.472   1.208  1.00  0.00     0.188 C 
ENDROOT
BRANCH   1   2
ATOM      2  O   UNL     1      -3.062  -2.062   1.020  1.00  0.00    -0.376 OA
BRANCH   2   3
ATOM      3  C   UNL     1      -3.615  -1.311   2.113  1.00  0.00     0.201 C 
BRANCH   3   4
ATOM      4  C   UNL     1      -2.559  -0.822   3.134  1.00  0.00     0.260 C 
BRANCH   4   5
ATOM      5  O   UNL     1      -1.689  -1.840   3.691  1.00  0.00    -0.475 OA
BRANCH   5   6
ATOM      6  C   UNL     1      -2.261  -2.921   4.237  1.00  0.00     0.231 C 
ATOM      7  C   UNL     1      -0.329  -4.439   3.458  1.00  0.00     0.027 C 
ATOM      8  C   UNL     1      -1.459  -4.155   4.163  1.00  0.00     0.103 C 
ATOM      9  C   UNL     1      -2.108  -5.321   4.871  1.00  0.00     0.272 C 
ATOM     10  O   UNL     1      -1.497  -6.378   5.025  1.00  0.00    -0.268 OA
ATOM     11  N   UNL     1      -3.443  -5.128   5.240  1.00  0.00    -0.226 N 
ATOM     12  N   UNL     1      -3.461  -2.824   4.669  1.00  0.00    -0.156 NA
ATOM     13  C   UNL     1      -4.144  -3.933   5.056  1.00  0.00     0.358 C 
ATOM     14  O   UNL     1      -5.358  -3.831   5.224  1.00  0.00    -0.245 OA
BRANCH   7  15
ATOM     15  C   UNL     1       0.643  -3.727   2.565  1.00  0.00    -0.021 A 
ATOM     16  C   UNL     1       1.512  -1.837   1.231  1.00  0.00     0.161 A 
ATOM     17  C   UNL     1       0.473  -2.489   1.931  1.00  0.00     0.058 A 
ATOM     18  C   UNL     1       2.731  -2.488   1.035  1.00  0.00     0.161 A 
ATOM     19  C   UNL     1       2.879  -3.776   1.553  1.00  0.00     0.051 A 
ATOM     20  C   UNL     1       1.864  -4.377   2.314  1.00  0.00     0.012 A 
BRANCH  16  21
ATOM     21  O   UNL     1       1.406  -0.526   0.851  1.00  0.00    -0.493 OA
ATOM     22  C   UNL     1       0.172  -0.105   0.287  1.00  0.00     0.278 C 
ENDBRANCH  16  21
BRANCH  18  23
ATOM     23  O   UNL     1       3.840  -2.041   0.370  1.00  0.00    -0.484 OA
BRANCH  23  24
ATOM     24  C   UNL     1       3.825  -0.781  -0.285  1.00  0.00     0.282 C 
BRANCH  24  25
ATOM     25  C   UNL     1       2.945  -0.613  -1.520  1.00  0.00     0.079 C 
ATOM     26  O   UNL     1       2.603   0.453  -2.015  1.00  0.00    -0.546 OA
ATOM     27  O   UNL     1       2.578  -1.771  -2.105  1.00  0.00    -0.546 OA
ENDBRANCH  24  25
ENDBRANCH  23  24
ENDBRANCH  18  23
ENDBRANCH   7  15
BRANCH  11  28
ATOM     28  C   UNL     1      -4.160  -6.214   5.835  1.00  0.00     0.054 A 
ATOM     29  C   UNL     1      -5.372  -6.660   5.288  1.00  0.00     0.027 A 
ATOM     30  C   UNL     1      -3.712  -6.769   7.038  1.00  0.00     0.027 A 
ATOM     31  C   UNL     1      -6.134  -7.628   5.943  1.00  0.00     0.002 A 
ATOM     32  C   UNL     1      -4.495  -7.711   7.710  1.00  0.00     0.002 A 
ATOM     33  C   UNL     1      -5.706  -8.136   7.166  1.00  0.00     0.000 A 
ENDBRANCH  11  28
ENDBRANCH   5   6
ENDBRANCH   4   5
ENDBRANCH   3   4
ENDBRANCH   2   3
ENDBRANCH   1   2
BRANCH   1  34
ATOM     34  C   UNL     1      -2.542  -4.372   0.107  1.00  0.00     0.188 C 
BRANCH  34  35
ATOM     35  O   UNL     1      -1.913  -3.767  -1.004  1.00  0.00    -0.376 OA
BRANCH  35  36
ATOM     36  C   UNL     1      -2.693  -2.853  -1.766  1.00  0.00     0.202 C 
BRANCH  36  37
ATOM     37  C   UNL     1      -4.005  -3.379  -2.364  1.00  0.00     0.261 C 
BRANCH  37  38
ATOM     38  O   UNL     1      -4.982  -3.777  -1.375  1.00  0.00    -0.460 OA
BRANCH  38  39
ATOM     39  C   UNL     1      -5.410  -5.061  -1.478  1.00  0.00     0.338 C 
ATOM     40  O   UNL     1      -5.063  -5.894  -2.298  1.00  0.00    -0.246 OA
BRANCH  39  41
ATOM     41  C   UNL     1      -6.296  -5.417  -0.353  1.00  0.00     0.060 A 
ATOM     42  C   UNL     1      -5.886  -6.430   0.524  1.00  0.00     0.016 A 
ATOM     43  C   UNL     1      -7.589  -4.897  -0.275  1.00  0.00     0.016 A 
ATOM     44  C   UNL     1      -6.784  -6.954   1.457  1.00  0.00     0.010 A 
ATOM     45  C   UNL     1      -8.494  -5.437   0.648  1.00  0.00     0.010 A 
ATOM     46  C   UNL     1      -8.107  -6.492   1.493  1.00  0.00    -0.014 A 
BRANCH  46  47
ATOM     47  C   UNL     1      -9.123  -7.237   2.282  1.00  0.00     0.031 A 
ATOM     48  C   UNL     1      -9.829  -8.403   1.641  1.00  0.00     0.074 A 
ATOM     49  C   UNL     1      -9.403  -6.899   3.553  1.00  0.00     0.049 A 
ATOM     50  N   UNL     1     -10.747  -9.195   2.136  1.00  0.00    -0.248 NA
ATOM     51  C   UNL     1      -9.459  -8.709   0.250  1.00  0.00     0.031 C 
ATOM     52  C   UNL     1      -8.784  -5.801   4.290  1.00  0.00     0.029 A 
ATOM     53  N   UNL     1     -10.269  -7.466   4.457  1.00  0.00    -0.354 N 
ATOM     54  C   UNL     1     -11.089 -10.066   1.109  1.00  0.00     0.074 A 
ATOM     55  C   UNL     1     -10.267  -9.721  -0.031  1.00  0.00     0.031 C 
ATOM     56  C   UNL     1      -9.256  -5.802   5.550  1.00  0.00     0.029 A 
ATOM     57  C   UNL     1     -10.241  -6.872   5.696  1.00  0.00     0.049 A 
ATOM     58  H   UNL     1     -10.855  -8.226   4.237  1.00  0.00     0.167 HD
ATOM     59  C   UNL     1     -12.020 -11.049   1.109  1.00  0.00     0.037 A 
ATOM     60  C   UNL     1     -10.932  -7.166   6.816  1.00  0.00     0.037 A 
ATOM     61  C   UNL     1     -12.839 -11.397   2.240  1.00  0.00     0.049 A 
ATOM     62  C   UNL     1     -11.949  -8.283   6.789  1.00  0.00     0.074 A 
ATOM     63  C   UNL     1     -13.816 -12.375   2.329  1.00  0.00     0.029 A 
ATOM     64  N   UNL     1     -12.780 -10.777   3.477  1.00  0.00    -0.354 N 
ATOM     65  N   UNL     1     -12.247  -9.114   5.821  1.00  0.00    -0.248 NA
ATOM     66  C   UNL     1     -12.738  -8.488   8.014  1.00  0.00     0.031 C 
ATOM     67  C   UNL     1     -14.379 -12.315   3.608  1.00  0.00     0.029 A 
ATOM     68  C   UNL     1     -13.715 -11.338   4.331  1.00  0.00     0.049 A 
ATOM     69  H   UNL     1     -12.164 -10.046   3.715  1.00  0.00     0.167 HD
ATOM     70  C   UNL     1     -13.242  -9.946   6.323  1.00  0.00     0.074 A 
ATOM     71  C   UNL     1     -13.472  -9.544   7.693  1.00  0.00     0.031 C 
ATOM     72  C   UNL     1     -13.918 -10.942   5.700  1.00  0.00     0.037 A 
BRANCH  59  73
ATOM     73  C   UNL     1     -12.251 -11.790  -0.174  1.00  0.00     0.064 A 
ATOM     74  C   UNL     1     -11.348 -12.752  -0.648  1.00  0.00     0.173 A 
ATOM     75  C   UNL     1     -13.424 -11.567  -0.912  1.00  0.00     0.173 A 
ATOM     76  F   UNL     1     -10.206 -12.990   0.014  1.00  0.00    -0.203 F 
ATOM     77  C   UNL     1     -11.607 -13.457  -1.821  1.00  0.00     0.198 A 
ATOM     78  C   UNL     1     -13.691 -12.290  -2.070  1.00  0.00     0.198 A 
ATOM     79  F   UNL     1     -14.320 -10.658  -0.498  1.00  0.00    -0.203 F 
ATOM     80  F   UNL     1     -10.718 -14.351  -2.274  1.00  0.00    -0.200 F 
ATOM     81  C   UNL     1     -12.781 -13.232  -2.526  1.00  0.00     0.200 A 
ATOM     82  F   UNL     1     -14.831 -12.079  -2.743  1.00  0.00    -0.200 F 
ATOM     83  F   UNL     1     -13.034 -13.920  -3.647  1.00  0.00    -0.200 F 
ENDBRANCH  59  73
BRANCH  60  84
ATOM     84  C   UNL     1     -10.699  -6.405   8.073  1.00  0.00     0.064 A 
ATOM     85  C   UNL     1     -10.168  -7.043   9.206  1.00  0.00     0.173 A 
ATOM     86  C   UNL     1     -11.059  -5.056   8.197  1.00  0.00     0.173 A 
ATOM     87  F   UNL     1      -9.836  -8.341   9.148  1.00  0.00    -0.203 F 
ATOM     88  C   UNL     1     -10.041  -6.370  10.419  1.00  0.00     0.198 A 
ATOM     89  C   UNL     1     -10.898  -4.375   9.402  1.00  0.00     0.198 A 
ATOM     90  F   UNL     1     -11.580  -4.401   7.149  1.00  0.00    -0.203 F 
ATOM     91  F   UNL     1      -9.601  -7.025  11.502  1.00  0.00    -0.200 F 
ATOM     92  C   UNL     1     -10.402  -5.035  10.515  1.00  0.00     0.200 A 
ATOM     93  F   UNL     1     -11.244  -3.083   9.490  1.00  0.00    -0.200 F 
ATOM     94  F   UNL     1     -10.292  -4.392  11.686  1.00  0.00    -0.200 F 
ENDBRANCH  60  84
BRANCH  72  95
ATOM     95  C   UNL     1     -14.949 -11.690   6.497  1.00  0.00     0.064 A 
ATOM     96  C   UNL     1     -16.170 -11.100   6.856  1.00  0.00     0.173 A 
ATOM     97  C   UNL     1     -14.735 -13.029   6.858  1.00  0.00     0.173 A 
ATOM     98  F   UNL     1     -16.419  -9.820   6.544  1.00  0.00    -0.203 F 
ATOM     99  C   UNL     1     -17.128 -11.816   7.571  1.00  0.00     0.198 A 
ATOM    100  C   UNL     1     -15.707 -13.750   7.546  1.00  0.00     0.198 A 
ATOM    101  F   UNL     1     -13.588 -13.643   6.529  1.00  0.00    -0.203 F 
ATOM    102  F   UNL     1     -18.268 -11.218   7.942  1.00  0.00    -0.200 F 
ATOM    103  C   UNL     1     -16.899 -13.141   7.909  1.00  0.00     0.200 A 
ATOM    104  F   UNL     1     -15.490 -15.035   7.859  1.00  0.00    -0.200 F 
ATOM    105  F   UNL     1     -17.825 -13.831   8.588  1.00  0.00    -0.200 F 
ENDBRANCH  72  95
ENDBRANCH  46  47
ENDBRANCH  39  41
ENDBRANCH  38  39
ENDBRANCH  37  38
ENDBRANCH  36  37
ENDBRANCH  35  36
ENDBRANCH  34  35
ENDBRANCH   1  34
TORSDOF 22
