REMARK SMILES C[C@H]1CC[C@@](NC(=O)N[C@H]2CCOC2)(C(=O)OCCOCCOCCOC(=O)c2ccc(-c3c4nc(c(-c5c(F)c(F)c(F)c(F)c5F)c5ccc([nH]5)c(-c5c(F)c(F)c(F)c(F)c5F)c5nc(c(-c6c(F)c(F)c(F)c(F)c6F)c6ccc3[nH]6)C=C5)C=C4)cc2)CC1
REMARK SMILES IDX 21 1 20 2 19 3 18 4 17 5 15 6 16 7 5 8 1 9 2 10 93 11 3 12
REMARK SMILES IDX 92 13 4 14 6 15 7 16 8 18 9 19 10 21 11 22 14 23 12 24 13 25
REMARK SMILES IDX 22 26 23 27 24 28 25 29 26 30 27 31 28 32 29 33 30 34 91 35
REMARK SMILES IDX 31 36 90 37 32 38 33 39 34 40 84 41 35 42 89 43 83 44 85 45
REMARK SMILES IDX 36 46 88 47 82 48 81 49 37 51 69 52 49 53 68 54 50 55 53 56
REMARK SMILES IDX 67 57 86 58 51 59 52 60 66 62 87 63 54 64 38 65 39 66 47 67
REMARK SMILES IDX 40 68 41 69 45 70 48 71 42 72 43 73 46 74 44 75 70 76 71 77
REMARK SMILES IDX 79 78 72 79 73 80 77 81 80 82 74 83 75 84 78 85 76 86 55 87
REMARK SMILES IDX 56 88 64 89 57 90 58 91 62 92 65 93 59 94 60 95 63 96 61 97
REMARK H PARENT 6 17 9 20 85 50 53 61
REMARK Flexibility Score: inf
ROOT
ATOM      1  C   UNL     1      -3.035   0.689   0.754  1.00  0.00     0.188 C 
ENDROOT
BRANCH   1   2
ATOM      2  O   UNL     1      -2.551   1.865   0.112  1.00  0.00    -0.376 OA
BRANCH   2   3
ATOM      3  C   UNL     1      -2.348   1.732  -1.292  1.00  0.00     0.202 C 
BRANCH   3   4
ATOM      4  C   UNL     1      -3.631   1.923  -2.105  1.00  0.00     0.261 C 
BRANCH   4   5
ATOM      5  O   UNL     1      -4.230   0.796  -2.797  1.00  0.00    -0.461 OA
BRANCH   5   6
ATOM      6  C   UNL     1      -4.127  -0.515  -2.458  1.00  0.00     0.331 C 
ATOM      7  O   UNL     1      -3.512  -0.963  -1.498  1.00  0.00    -0.249 OA
BRANCH   6   8
ATOM      8  C   UNL     1      -4.880  -1.399  -3.455  1.00  0.00     0.139 C 
ATOM      9  C   UNL     1      -7.241  -3.289  -0.227  1.00  0.00     0.007 C 
ATOM     10  C   UNL     1      -6.770  -2.975  -1.651  1.00  0.00    -0.014 C 
ATOM     11  C   UNL     1      -5.306  -3.387  -1.855  1.00  0.00     0.006 C 
ATOM     12  C   UNL     1      -6.994  -1.492  -1.958  1.00  0.00     0.006 C 
ATOM     13  C   UNL     1      -4.719  -2.911  -3.197  1.00  0.00     0.041 C 
ATOM     14  C   UNL     1      -6.396  -1.067  -3.301  1.00  0.00     0.041 C 
BRANCH   8  15
ATOM     15  N   UNL     1      -4.466  -1.028  -4.837  1.00  0.00    -0.322 N 
ATOM     16  C   UNL     1      -3.358  -0.958  -5.575  1.00  0.00     0.316 C 
ATOM     17  H   UNL     1      -5.248  -0.750  -5.366  1.00  0.00     0.166 HD
ATOM     18  O   UNL     1      -3.527  -0.890  -6.798  1.00  0.00    -0.249 OA
ATOM     19  N   UNL     1      -2.094  -0.911  -5.156  1.00  0.00    -0.333 N 
ATOM     20  H   UNL     1      -1.463  -0.998  -5.906  1.00  0.00     0.165 HD
BRANCH  19  21
ATOM     21  C   UNL     1      -1.399  -0.766  -3.895  1.00  0.00     0.112 C 
ATOM     22  C   UNL     1      -0.856  -2.047  -3.313  1.00  0.00     0.056 C 
ATOM     23  C   UNL     1      -0.138   0.101  -3.919  1.00  0.00     0.185 C 
ATOM     24  C   UNL     1       0.106  -1.524  -2.267  1.00  0.00     0.162 C 
ATOM     25  O   UNL     1       0.664  -0.311  -2.796  1.00  0.00    -0.379 OA
ENDBRANCH  19  21
ENDBRANCH   8  15
ENDBRANCH   6   8
ENDBRANCH   5   6
ENDBRANCH   4   5
ENDBRANCH   3   4
ENDBRANCH   2   3
ENDBRANCH   1   2
BRANCH   1  26
ATOM     26  C   UNL     1      -4.571   0.596   0.719  1.00  0.00     0.188 C 
BRANCH  26  27
ATOM     27  O   UNL     1      -5.302   1.720   1.198  1.00  0.00    -0.376 OA
BRANCH  27  28
ATOM     28  C   UNL     1      -4.764   2.356   2.349  1.00  0.00     0.202 C 
BRANCH  28  29
ATOM     29  C   UNL     1      -4.789   1.517   3.636  1.00  0.00     0.261 C 
BRANCH  29  30
ATOM     30  O   UNL     1      -4.141   0.228   3.503  1.00  0.00    -0.460 OA
BRANCH  30  31
ATOM     31  C   UNL     1      -4.862  -0.839   3.918  1.00  0.00     0.338 C 
ATOM     32  O   UNL     1      -5.954  -0.823   4.463  1.00  0.00    -0.246 OA
BRANCH  31  33
ATOM     33  C   UNL     1      -4.194  -2.120   3.595  1.00  0.00     0.060 A 
ATOM     34  C   UNL     1      -4.452  -2.742   2.370  1.00  0.00     0.016 A 
ATOM     35  C   UNL     1      -3.564  -2.839   4.610  1.00  0.00     0.016 A 
ATOM     36  C   UNL     1      -4.175  -4.098   2.185  1.00  0.00     0.010 A 
ATOM     37  C   UNL     1      -3.256  -4.194   4.415  1.00  0.00     0.010 A 
ATOM     38  C   UNL     1      -3.621  -4.853   3.224  1.00  0.00    -0.014 A 
BRANCH  38  39
ATOM     39  C   UNL     1      -3.633  -6.343   3.144  1.00  0.00     0.031 A 
ATOM     40  C   UNL     1      -4.528  -7.115   4.081  1.00  0.00     0.074 A 
ATOM     41  C   UNL     1      -2.948  -7.018   2.201  1.00  0.00     0.049 A 
ATOM     42  N   UNL     1      -4.570  -8.401   4.328  1.00  0.00    -0.248 NA
ATOM     43  C   UNL     1      -5.511  -6.328   4.842  1.00  0.00     0.031 C 
ATOM     44  C   UNL     1      -2.143  -6.416   1.140  1.00  0.00     0.029 A 
ATOM     45  N   UNL     1      -2.833  -8.371   1.981  1.00  0.00    -0.354 N 
ATOM     46  C   UNL     1      -5.532  -8.565   5.317  1.00  0.00     0.074 A 
ATOM     47  C   UNL     1      -6.059  -7.251   5.617  1.00  0.00     0.031 C 
ATOM     48  C   UNL     1      -1.630  -7.393   0.373  1.00  0.00     0.029 A 
ATOM     49  C   UNL     1      -2.002  -8.690   0.936  1.00  0.00     0.049 A 
ATOM     50  H   UNL     1      -3.303  -9.046   2.522  1.00  0.00     0.167 HD
ATOM     51  C   UNL     1      -5.936  -9.706   5.925  1.00  0.00     0.037 A 
ATOM     52  C   UNL     1      -1.550  -9.887   0.510  1.00  0.00     0.037 A 
ATOM     53  C   UNL     1      -5.466 -11.023   5.582  1.00  0.00     0.049 A 
ATOM     54  C   UNL     1      -1.963 -11.140   1.239  1.00  0.00     0.074 A 
ATOM     55  C   UNL     1      -5.805 -12.239   6.150  1.00  0.00     0.029 A 
ATOM     56  N   UNL     1      -4.572 -11.296   4.559  1.00  0.00    -0.354 N 
ATOM     57  N   UNL     1      -2.783 -11.280   2.252  1.00  0.00    -0.248 NA
ATOM     58  C   UNL     1      -1.364 -12.401   0.776  1.00  0.00     0.031 C 
ATOM     59  C   UNL     1      -5.090 -13.246   5.492  1.00  0.00     0.029 A 
ATOM     60  C   UNL     1      -4.339 -12.661   4.485  1.00  0.00     0.049 A 
ATOM     61  H   UNL     1      -4.162 -10.621   3.971  1.00  0.00     0.167 HD
ATOM     62  C   UNL     1      -2.803 -12.638   2.542  1.00  0.00     0.074 A 
ATOM     63  C   UNL     1      -1.937 -13.285   1.580  1.00  0.00     0.031 C 
ATOM     64  C   UNL     1      -3.472 -13.291   3.525  1.00  0.00     0.037 A 
BRANCH  51  65
ATOM     65  C   UNL     1      -6.900  -9.577   7.068  1.00  0.00     0.064 A 
ATOM     66  C   UNL     1      -8.254  -9.269   6.875  1.00  0.00     0.173 A 
ATOM     67  C   UNL     1      -6.456  -9.791   8.383  1.00  0.00     0.173 A 
ATOM     68  F   UNL     1      -8.724  -9.037   5.640  1.00  0.00    -0.203 F 
ATOM     69  C   UNL     1      -9.122  -9.155   7.958  1.00  0.00     0.198 A 
ATOM     70  C   UNL     1      -7.332  -9.705   9.460  1.00  0.00     0.198 A 
ATOM     71  F   UNL     1      -5.170 -10.092   8.621  1.00  0.00    -0.203 F 
ATOM     72  F   UNL     1     -10.402  -8.814   7.756  1.00  0.00    -0.200 F 
ATOM     73  C   UNL     1      -8.663  -9.380   9.248  1.00  0.00     0.200 A 
ATOM     74  F   UNL     1      -6.888  -9.934  10.704  1.00  0.00    -0.200 F 
ATOM     75  F   UNL     1      -9.502  -9.276  10.288  1.00  0.00    -0.200 F 
ENDBRANCH  51  65
BRANCH  52  76
ATOM     76  C   UNL     1      -0.596  -9.960  -0.628  1.00  0.00     0.064 A 
ATOM     77  C   UNL     1      -0.958 -10.562  -1.842  1.00  0.00     0.173 A 
ATOM     78  C   UNL     1       0.709  -9.458  -0.514  1.00  0.00     0.173 A 
ATOM     79  F   UNL     1      -2.182 -11.089  -1.989  1.00  0.00    -0.203 F 
ATOM     80  C   UNL     1      -0.048 -10.667  -2.892  1.00  0.00     0.198 A 
ATOM     81  C   UNL     1       1.607  -9.534  -1.576  1.00  0.00     0.198 A 
ATOM     82  F   UNL     1       1.110  -8.882   0.629  1.00  0.00    -0.203 F 
ATOM     83  F   UNL     1      -0.403 -11.290  -4.024  1.00  0.00    -0.200 F 
ATOM     84  C   UNL     1       1.231 -10.146  -2.761  1.00  0.00     0.200 A 
ATOM     85  F   UNL     1       2.837  -9.019  -1.447  1.00  0.00    -0.200 F 
ATOM     86  F   UNL     1       2.104 -10.243  -3.773  1.00  0.00    -0.200 F 
ENDBRANCH  52  76
BRANCH  64  87
ATOM     87  C   UNL     1      -3.307 -14.782   3.593  1.00  0.00     0.064 A 
ATOM     88  C   UNL     1      -2.111 -15.368   4.034  1.00  0.00     0.173 A 
ATOM     89  C   UNL     1      -4.359 -15.633   3.226  1.00  0.00     0.173 A 
ATOM     90  F   UNL     1      -1.069 -14.597   4.381  1.00  0.00    -0.203 F 
ATOM     91  C   UNL     1      -1.964 -16.752   4.074  1.00  0.00     0.198 A 
ATOM     92  C   UNL     1      -4.219 -17.017   3.294  1.00  0.00     0.198 A 
ATOM     93  F   UNL     1      -5.526 -15.124   2.803  1.00  0.00    -0.203 F 
ATOM     94  F   UNL     1      -0.794 -17.290   4.448  1.00  0.00    -0.200 F 
ATOM     95  C   UNL     1      -3.019 -17.575   3.709  1.00  0.00     0.200 A 
ATOM     96  F   UNL     1      -5.242 -17.811   2.950  1.00  0.00    -0.200 F 
ATOM     97  F   UNL     1      -2.875 -18.907   3.745  1.00  0.00    -0.200 F 
ENDBRANCH  64  87
ENDBRANCH  38  39
ENDBRANCH  31  33
ENDBRANCH  30  31
ENDBRANCH  29  30
ENDBRANCH  28  29
ENDBRANCH  27  28
ENDBRANCH  26  27
ENDBRANCH   1  26
TORSDOF 19
