REMARK SMILES Cc1ccc(-c2cnnc(-n3nc(C)c4c3NC(=O)C[C@@H]4c3ccc(C(=O)OCCOCCOCCOC(=O)c4ccc(-c5c6nc(c(-c7c(F)c(F)c(F)c(F)c7F)c7ccc([nH]7)c(-c7c(F)c(F)c(F)c(F)c7F)c7nc(c(-c8c(F)c(F)c(F)c(F)c8F)c8ccc5[nH]8)C=C7)C=C6)cc4)cc3)n2)cc1
REMARK SMILES IDX 32 1 31 2 30 3 29 4 28 5 26 6 27 7 25 8 22 9 23 10 104 11
REMARK SMILES IDX 24 12 103 13 21 14 11 15 12 16 16 17 13 18 15 19 17 20 14 21
REMARK SMILES IDX 18 22 20 24 19 25 10 26 6 27 7 28 105 29 8 30 9 31 5 32 1 33
REMARK SMILES IDX 2 34 3 35 107 36 4 37 106 38 33 39 34 40 35 41 36 42 37 43
REMARK SMILES IDX 38 44 39 45 40 46 41 47 102 48 42 49 101 50 43 51 44 52
REMARK SMILES IDX 45 53 95 54 46 55 100 56 94 57 96 58 47 59 99 60 93 61 92 62
REMARK SMILES IDX 48 64 80 65 60 66 79 67 61 68 64 69 78 70 97 71 62 72 63 73
REMARK SMILES IDX 77 75 98 76 65 77 49 78 50 79 58 80 51 81 52 82 56 83 59 84
REMARK SMILES IDX 53 85 54 86 57 87 55 88 81 89 82 90 90 91 83 92 84 93 88 94
REMARK SMILES IDX 91 95 85 96 86 97 89 98 87 99 66 100 67 101 75 102 68 103
REMARK SMILES IDX 69 104 73 105 76 106 70 107 71 108 74 109 72 110
REMARK H PARENT 17 23 96 63 64 74
REMARK Flexibility Score: inf
ROOT
ATOM      1  C   UNL     1     -11.826   7.633 -10.168  1.00  0.00     0.188 C 
ENDROOT
BRANCH   1   2
ATOM      2  O   UNL     1     -13.021   7.547  -9.373  1.00  0.00    -0.376 OA
BRANCH   2   3
ATOM      3  C   UNL     1     -13.106   8.106  -8.044  1.00  0.00     0.202 C 
BRANCH   3   4
ATOM      4  C   UNL     1     -13.294   7.130  -6.771  1.00  0.00     0.261 C 
BRANCH   4   5
ATOM      5  O   UNL     1     -12.168   6.742  -5.797  1.00  0.00    -0.460 OA
BRANCH   5   6
ATOM      6  C   UNL     1     -11.101   6.208  -6.456  1.00  0.00     0.338 C 
ATOM      7  O   UNL     1     -11.179   6.493  -7.639  1.00  0.00    -0.246 OA
BRANCH   6   8
ATOM      8  C   UNL     1      -9.925   4.999  -5.894  1.00  0.00     0.060 A 
ATOM      9  C   UNL     1      -7.806   2.970  -5.596  1.00  0.00    -0.040 A 
ATOM     10  C   UNL     1      -8.834   2.696  -6.418  1.00  0.00     0.005 A 
ATOM     11  C   UNL     1      -7.771   4.284  -5.006  1.00  0.00     0.005 A 
ATOM     12  C   UNL     1      -9.804   3.663  -6.508  1.00  0.00     0.016 A 
ATOM     13  C   UNL     1      -8.819   5.273  -5.123  1.00  0.00     0.016 A 
BRANCH   9  14
ATOM     14  C   UNL     1      -7.020   1.720  -5.269  1.00  0.00     0.064 C 
ATOM     15  N   UNL     1      -5.648   2.222  -2.022  1.00  0.00    -0.180 N 
ATOM     16  N   UNL     1      -6.934   2.577  -1.724  1.00  0.00    -0.168 NA
ATOM     17  C   UNL     1      -5.475   2.225  -3.397  1.00  0.00     0.143 A 
ATOM     18  C   UNL     1      -7.621   2.122  -2.771  1.00  0.00     0.066 A 
ATOM     19  C   UNL     1      -6.729   1.909  -3.856  1.00  0.00     0.026 A 
ATOM     20  N   UNL     1      -4.441   2.483  -4.288  1.00  0.00    -0.310 N 
ATOM     21  C   UNL     1      -9.107   2.139  -2.743  1.00  0.00     0.069 C 
ATOM     22  C   UNL     1      -4.668   2.303  -5.702  1.00  0.00     0.226 C 
ATOM     23  H   UNL     1      -3.564   2.785  -3.958  1.00  0.00     0.171 HD
ATOM     24  C   UNL     1      -5.800   1.418  -6.118  1.00  0.00     0.113 C 
ATOM     25  O   UNL     1      -3.848   2.796  -6.472  1.00  0.00    -0.275 OA
BRANCH  15  26
ATOM     26  C   UNL     1      -4.953   1.392  -1.113  1.00  0.00     0.272 A 
ATOM     27  C   UNL     1      -3.142   0.243  -0.421  1.00  0.00     0.095 A 
ATOM     28  C   UNL     1      -3.941  -0.454   0.471  1.00  0.00     0.164 A 
ATOM     29  N   UNL     1      -3.648   1.147  -1.294  1.00  0.00    -0.208 NA
ATOM     30  N   UNL     1      -5.253  -0.211   0.565  1.00  0.00    -0.153 NA
ATOM     31  N   UNL     1      -5.751   0.760  -0.207  1.00  0.00    -0.109 NA
BRANCH  27  32
ATOM     32  C   UNL     1      -1.688   0.144  -0.369  1.00  0.00     0.002 A 
ATOM     33  C   UNL     1       2.595  -0.058   0.082  1.00  0.00     0.044 C 
ATOM     34  C   UNL     1       1.107   0.021  -0.073  1.00  0.00    -0.051 A 
ATOM     35  C   UNL     1       0.349  -1.153  -0.135  1.00  0.00     0.004 A 
ATOM     36  C   UNL     1       0.466   1.258  -0.167  1.00  0.00     0.004 A 
ATOM     37  C   UNL     1      -1.036  -1.093  -0.283  1.00  0.00     0.011 A 
ATOM     38  C   UNL     1      -0.917   1.317  -0.318  1.00  0.00     0.011 A 
ENDBRANCH  27  32
ENDBRANCH  15  26
ENDBRANCH   9  14
ENDBRANCH   6   8
ENDBRANCH   5   6
ENDBRANCH   4   5
ENDBRANCH   3   4
ENDBRANCH   2   3
ENDBRANCH   1   2
BRANCH   1  39
ATOM     39  C   UNL     1     -10.806   8.762 -10.033  1.00  0.00     0.188 C 
BRANCH  39  40
ATOM     40  O   UNL     1     -10.297   8.828  -8.709  1.00  0.00    -0.376 OA
BRANCH  40  41
ATOM     41  C   UNL     1      -9.591  10.021  -8.408  1.00  0.00     0.202 C 
BRANCH  41  42
ATOM     42  C   UNL     1      -8.239  10.122  -9.136  1.00  0.00     0.261 C 
BRANCH  42  43
ATOM     43  O   UNL     1      -7.454   8.928  -8.897  1.00  0.00    -0.460 OA
BRANCH  43  44
ATOM     44  C   UNL     1      -7.117   8.111  -9.955  1.00  0.00     0.338 C 
ATOM     45  O   UNL     1      -6.908   8.486 -11.094  1.00  0.00    -0.246 OA
BRANCH  44  46
ATOM     46  C   UNL     1      -7.320   6.664  -9.553  1.00  0.00     0.060 A 
ATOM     47  C   UNL     1      -7.761   5.653 -10.424  1.00  0.00     0.016 A 
ATOM     48  C   UNL     1      -7.665   6.489  -8.268  1.00  0.00     0.016 A 
ATOM     49  C   UNL     1      -8.864   4.754 -10.078  1.00  0.00     0.010 A 
ATOM     50  C   UNL     1      -8.912   5.882  -8.147  1.00  0.00     0.010 A 
ATOM     51  C   UNL     1      -9.661   4.948  -8.953  1.00  0.00    -0.014 A 
BRANCH  51  52
ATOM     52  C   UNL     1     -11.318   4.372  -8.777  1.00  0.00     0.031 A 
ATOM     53  C   UNL     1     -12.377   3.817  -7.437  1.00  0.00     0.074 A 
ATOM     54  C   UNL     1     -12.050   4.341  -9.911  1.00  0.00     0.049 A 
ATOM     55  N   UNL     1     -13.322   2.893  -7.575  1.00  0.00    -0.248 NA
ATOM     56  C   UNL     1     -12.296   3.967  -5.907  1.00  0.00     0.031 C 
ATOM     57  C   UNL     1     -13.505   4.281 -10.004  1.00  0.00     0.029 A 
ATOM     58  N   UNL     1     -11.625   4.314 -11.242  1.00  0.00    -0.354 N 
ATOM     59  C   UNL     1     -13.895   2.709  -6.298  1.00  0.00     0.074 A 
ATOM     60  C   UNL     1     -12.870   2.901  -5.380  1.00  0.00     0.031 C 
ATOM     61  C   UNL     1     -13.845   3.933 -11.250  1.00  0.00     0.029 A 
ATOM     62  C   UNL     1     -12.624   3.608 -11.948  1.00  0.00     0.049 A 
ATOM     63  H   UNL     1     -10.801   4.706 -11.611  1.00  0.00     0.167 HD
ATOM     64  C   UNL     1     -15.226   2.796  -6.011  1.00  0.00     0.037 A 
ATOM     65  C   UNL     1     -12.324   2.424 -12.553  1.00  0.00     0.037 A 
ATOM     66  C   UNL     1     -15.935   2.472  -7.209  1.00  0.00     0.049 A 
ATOM     67  C   UNL     1     -13.106   1.248 -11.988  1.00  0.00     0.074 A 
ATOM     68  C   UNL     1     -16.638   3.122  -8.193  1.00  0.00     0.029 A 
ATOM     69  N   UNL     1     -15.619   1.238  -7.704  1.00  0.00    -0.354 N 
ATOM     70  N   UNL     1     -14.088   1.354 -11.130  1.00  0.00    -0.248 NA
ATOM     71  C   UNL     1     -12.799  -0.151 -12.284  1.00  0.00     0.031 C 
ATOM     72  C   UNL     1     -16.585   2.271  -9.355  1.00  0.00     0.029 A 
ATOM     73  C   UNL     1     -15.903   1.105  -9.029  1.00  0.00     0.049 A 
ATOM     74  H   UNL     1     -15.227   0.519  -7.158  1.00  0.00     0.167 HD
ATOM     75  C   UNL     1     -14.452   0.113 -10.677  1.00  0.00     0.074 A 
ATOM     76  C   UNL     1     -13.630  -0.801 -11.449  1.00  0.00     0.031 C 
ATOM     77  C   UNL     1     -15.347  -0.083  -9.661  1.00  0.00     0.037 A 
BRANCH  64  78
ATOM     78  C   UNL     1     -15.876   3.171  -4.663  1.00  0.00     0.064 A 
ATOM     79  C   UNL     1     -17.276   3.053  -4.532  1.00  0.00     0.173 A 
ATOM     80  C   UNL     1     -15.251   3.738  -3.514  1.00  0.00     0.173 A 
ATOM     81  F   UNL     1     -18.013   2.538  -5.525  1.00  0.00    -0.203 F 
ATOM     82  C   UNL     1     -17.979   3.470  -3.389  1.00  0.00     0.198 A 
ATOM     83  C   UNL     1     -15.949   4.098  -2.349  1.00  0.00     0.198 A 
ATOM     84  F   UNL     1     -13.948   4.036  -3.458  1.00  0.00    -0.203 F 
ATOM     85  F   UNL     1     -19.315   3.384  -3.366  1.00  0.00    -0.200 F 
ATOM     86  C   UNL     1     -17.316   3.984  -2.294  1.00  0.00     0.200 A 
ATOM     87  F   UNL     1     -15.276   4.591  -1.297  1.00  0.00    -0.200 F 
ATOM     88  F   UNL     1     -17.988   4.385  -1.206  1.00  0.00    -0.200 F 
ENDBRANCH  64  78
BRANCH  65  89
ATOM     89  C   UNL     1     -10.938   2.466 -13.122  1.00  0.00     0.064 A 
ATOM     90  C   UNL     1     -10.672   3.522 -14.032  1.00  0.00     0.173 A 
ATOM     91  C   UNL     1      -9.835   1.891 -12.479  1.00  0.00     0.173 A 
ATOM     92  F   UNL     1     -11.690   4.122 -14.671  1.00  0.00    -0.203 F 
ATOM     93  C   UNL     1      -9.408   4.097 -14.137  1.00  0.00     0.198 A 
ATOM     94  C   UNL     1      -8.550   2.429 -12.646  1.00  0.00     0.198 A 
ATOM     95  F   UNL     1     -10.007   0.926 -11.563  1.00  0.00    -0.203 F 
ATOM     96  F   UNL     1      -9.248   5.241 -14.819  1.00  0.00    -0.200 F 
ATOM     97  C   UNL     1      -8.350   3.561 -13.429  1.00  0.00     0.200 A 
ATOM     98  F   UNL     1      -7.536   1.967 -11.898  1.00  0.00    -0.200 F 
ATOM     99  F   UNL     1      -7.167   4.192 -13.411  1.00  0.00    -0.200 F 
ENDBRANCH  65  89
BRANCH  77 100
ATOM    100  C   UNL     1     -15.677  -1.454  -9.095  1.00  0.00     0.064 A 
ATOM    101  C   UNL     1     -16.046  -2.507  -9.939  1.00  0.00     0.173 A 
ATOM    102  C   UNL     1     -15.746  -1.741  -7.705  1.00  0.00     0.173 A 
ATOM    103  F   UNL     1     -16.054  -2.340 -11.269  1.00  0.00    -0.203 F 
ATOM    104  C   UNL     1     -16.418  -3.758  -9.435  1.00  0.00     0.198 A 
ATOM    105  C   UNL     1     -16.198  -2.959  -7.205  1.00  0.00     0.198 A 
ATOM    106  F   UNL     1     -15.329  -0.875  -6.770  1.00  0.00    -0.203 F 
ATOM    107  F   UNL     1     -16.683  -4.759 -10.285  1.00  0.00    -0.200 F 
ATOM    108  C   UNL     1     -16.515  -3.978  -8.071  1.00  0.00     0.200 A 
ATOM    109  F   UNL     1     -16.297  -3.136  -5.878  1.00  0.00    -0.200 F 
ATOM    110  F   UNL     1     -16.890  -5.171  -7.594  1.00  0.00    -0.200 F 
ENDBRANCH  77 100
ENDBRANCH  51  52
ENDBRANCH  44  46
ENDBRANCH  43  44
ENDBRANCH  42  43
ENDBRANCH  41  42
ENDBRANCH  40  41
ENDBRANCH  39  40
ENDBRANCH   1  39
TORSDOF 20
