REMARK SMILES Cn1cc(/C=C/C(=O)Nc2ccc(C(=O)OCCOCCOCCOC(=O)c3ccc(-c4c5nc(c(-c6c(F)c(F)c(F)c(F)c6F)c6ccc([nH]6)c(-c6c(F)c(F)c(F)c(F)c6F)c6nc(c(-c7c(F)c(F)c(F)c(F)c7F)c7ccc4[nH]7)C=C6)C=C5)cc3)c(O)c2)cn1
REMARK SMILES IDX 20 1 19 2 18 3 17 4 16 5 14 6 15 7 13 8 10 9 11 10 93 11
REMARK SMILES IDX 12 12 91 13 9 14 7 15 8 16 6 18 5 19 4 20 1 21 2 22 3 23
REMARK SMILES IDX 95 24 94 25 92 26 21 28 22 29 23 30 24 31 25 32 26 33 27 34
REMARK SMILES IDX 28 35 29 36 90 37 30 38 89 39 31 40 32 41 33 42 83 43 34 44
REMARK SMILES IDX 88 45 82 46 84 47 35 48 87 49 81 50 80 51 36 53 68 54 48 55
REMARK SMILES IDX 67 56 49 57 52 58 66 59 85 60 50 61 51 62 65 64 86 65 53 66
REMARK SMILES IDX 37 67 38 68 46 69 39 70 40 71 44 72 47 73 41 74 42 75 45 76
REMARK SMILES IDX 43 77 69 78 70 79 78 80 71 81 72 82 76 83 79 84 73 85 74 86
REMARK SMILES IDX 77 87 75 88 54 89 55 90 63 91 56 92 57 93 61 94 64 95 58 96
REMARK SMILES IDX 59 97 62 98 60 99
REMARK H PARENT 9 17 92 27 84 52 52 63
REMARK Flexibility Score: inf
ROOT
ATOM      1  C   UNL     1      -1.718  -5.186   0.452  1.00  0.00     0.188 C 
ENDROOT
BRANCH   1   2
ATOM      2  O   UNL     1      -2.632  -6.266   0.375  1.00  0.00    -0.376 OA
BRANCH   2   3
ATOM      3  C   UNL     1      -2.220  -7.577   0.732  1.00  0.00     0.202 C 
BRANCH   3   4
ATOM      4  C   UNL     1      -1.010  -8.187   0.025  1.00  0.00     0.261 C 
BRANCH   4   5
ATOM      5  O   UNL     1       0.197  -7.430   0.223  1.00  0.00    -0.460 OA
BRANCH   5   6
ATOM      6  C   UNL     1       0.764  -6.952  -0.912  1.00  0.00     0.341 C 
ATOM      7  O   UNL     1       0.374  -7.141  -2.059  1.00  0.00    -0.246 OA
BRANCH   6   8
ATOM      8  C   UNL     1       1.855  -6.009  -0.593  1.00  0.00     0.101 A 
ATOM      9  C   UNL     1       3.946  -4.176  -0.202  1.00  0.00     0.045 A 
ATOM     10  C   UNL     1       3.021  -3.972  -1.227  1.00  0.00     0.027 A 
ATOM     11  C   UNL     1       3.817  -5.294   0.630  1.00  0.00     0.073 A 
ATOM     12  C   UNL     1       1.994  -4.896  -1.434  1.00  0.00     0.022 A 
ATOM     13  C   UNL     1       2.749  -6.180   0.466  1.00  0.00     0.132 A 
BRANCH   9  14
ATOM     14  N   UNL     1       5.059  -3.340  -0.014  1.00  0.00    -0.322 N 
ATOM     15  C   UNL     1       5.254  -2.033  -0.363  1.00  0.00     0.248 C 
ATOM     16  O   UNL     1       6.388  -1.592  -0.534  1.00  0.00    -0.270 OA
ATOM     17  H   UNL     1       5.822  -3.764   0.442  1.00  0.00     0.170 HD
BRANCH  15  18
ATOM     18  C   UNL     1       4.106  -1.091  -0.405  1.00  0.00     0.072 C 
ATOM     19  C   UNL     1       3.174  -1.121   0.561  1.00  0.00     0.017 C 
BRANCH  19  20
ATOM     20  C   UNL     1       2.121  -0.188   0.762  1.00  0.00     0.013 A 
ATOM     21  C   UNL     1      -0.738   1.119   2.509  1.00  0.00     0.173 C 
ATOM     22  N   UNL     1       0.380   0.790   1.660  1.00  0.00    -0.275 N 
ATOM     23  C   UNL     1       1.147  -0.336   1.723  1.00  0.00     0.116 A 
ATOM     24  N   UNL     1       0.746   1.629   0.674  1.00  0.00    -0.181 NA
ATOM     25  C   UNL     1       1.831   1.048   0.149  1.00  0.00     0.143 A 
ENDBRANCH  19  20
ENDBRANCH  15  18
ENDBRANCH   9  14
BRANCH  13  26
ATOM     26  O   UNL     1       2.647  -7.181   1.390  1.00  0.00    -0.507 OA
ATOM     27  H   UNL     1       1.951  -7.805   1.331  1.00  0.00     0.293 HD
ENDBRANCH  13  26
ENDBRANCH   6   8
ENDBRANCH   5   6
ENDBRANCH   4   5
ENDBRANCH   3   4
ENDBRANCH   2   3
ENDBRANCH   1   2
BRANCH   1  28
ATOM     28  C   UNL     1      -0.893  -4.936   1.733  1.00  0.00     0.188 C 
BRANCH  28  29
ATOM     29  O   UNL     1      -1.175  -5.683   2.905  1.00  0.00    -0.376 OA
BRANCH  29  30
ATOM     30  C   UNL     1      -2.480  -5.563   3.472  1.00  0.00     0.202 C 
BRANCH  30  31
ATOM     31  C   UNL     1      -2.975  -4.145   3.740  1.00  0.00     0.261 C 
BRANCH  31  32
ATOM     32  O   UNL     1      -3.226  -3.468   2.496  1.00  0.00    -0.460 OA
BRANCH  32  33
ATOM     33  C   UNL     1      -3.286  -2.129   2.601  1.00  0.00     0.338 C 
ATOM     34  O   UNL     1      -3.268  -1.462   3.630  1.00  0.00    -0.246 OA
BRANCH  33  35
ATOM     35  C   UNL     1      -3.272  -1.510   1.269  1.00  0.00     0.060 A 
ATOM     36  C   UNL     1      -2.067  -1.437   0.565  1.00  0.00     0.016 A 
ATOM     37  C   UNL     1      -4.393  -0.806   0.830  1.00  0.00     0.016 A 
ATOM     38  C   UNL     1      -1.955  -0.582  -0.530  1.00  0.00     0.010 A 
ATOM     39  C   UNL     1      -4.287   0.023  -0.291  1.00  0.00     0.010 A 
ATOM     40  C   UNL     1      -3.052   0.188  -0.940  1.00  0.00    -0.014 A 
BRANCH  40  41
ATOM     41  C   UNL     1      -2.866   1.249  -1.961  1.00  0.00     0.031 A 
ATOM     42  C   UNL     1      -2.864   2.699  -1.549  1.00  0.00     0.074 A 
ATOM     43  C   UNL     1      -2.628   0.922  -3.244  1.00  0.00     0.049 A 
ATOM     44  N   UNL     1      -2.723   3.773  -2.285  1.00  0.00    -0.248 NA
ATOM     45  C   UNL     1      -3.023   2.978  -0.114  1.00  0.00     0.031 C 
ATOM     46  C   UNL     1      -2.514  -0.440  -3.760  1.00  0.00     0.029 A 
ATOM     47  N   UNL     1      -2.444   1.718  -4.346  1.00  0.00    -0.354 N 
ATOM     48  C   UNL     1      -2.729   4.843  -1.399  1.00  0.00     0.074 A 
ATOM     49  C   UNL     1      -2.925   4.298  -0.074  1.00  0.00     0.031 C 
ATOM     50  C   UNL     1      -2.288  -0.386  -5.083  1.00  0.00     0.029 A 
ATOM     51  C   UNL     1      -2.305   1.010  -5.513  1.00  0.00     0.049 A 
ATOM     52  H   UNL     1      -2.414   2.701  -4.304  1.00  0.00     0.167 HD
ATOM     53  C   UNL     1      -2.591   6.163  -1.664  1.00  0.00     0.037 A 
ATOM     54  C   UNL     1      -2.251   1.437  -6.789  1.00  0.00     0.037 A 
ATOM     55  C   UNL     1      -2.470   6.717  -2.984  1.00  0.00     0.049 A 
ATOM     56  C   UNL     1      -2.321   2.912  -7.076  1.00  0.00     0.074 A 
ATOM     57  C   UNL     1      -2.368   8.044  -3.361  1.00  0.00     0.029 A 
ATOM     58  N   UNL     1      -2.467   5.967  -4.150  1.00  0.00    -0.354 N 
ATOM     59  N   UNL     1      -2.337   3.918  -6.237  1.00  0.00    -0.248 NA
ATOM     60  C   UNL     1      -2.390   3.309  -8.489  1.00  0.00     0.031 C 
ATOM     61  C   UNL     1      -2.376   8.101  -4.759  1.00  0.00     0.029 A 
ATOM     62  C   UNL     1      -2.428   6.807  -5.251  1.00  0.00     0.049 A 
ATOM     63  H   UNL     1      -2.489   4.984  -4.190  1.00  0.00     0.167 HD
ATOM     64  C   UNL     1      -2.406   5.065  -7.015  1.00  0.00     0.074 A 
ATOM     65  C   UNL     1      -2.414   4.632  -8.397  1.00  0.00     0.031 C 
ATOM     66  C   UNL     1      -2.457   6.361  -6.620  1.00  0.00     0.037 A 
BRANCH  53  67
ATOM     67  C   UNL     1      -2.626   7.108  -0.501  1.00  0.00     0.064 A 
ATOM     68  C   UNL     1      -1.519   7.278   0.342  1.00  0.00     0.173 A 
ATOM     69  C   UNL     1      -3.772   7.877  -0.250  1.00  0.00     0.173 A 
ATOM     70  F   UNL     1      -0.406   6.556   0.150  1.00  0.00    -0.203 F 
ATOM     71  C   UNL     1      -1.562   8.180   1.403  1.00  0.00     0.198 A 
ATOM     72  C   UNL     1      -3.804   8.790   0.800  1.00  0.00     0.198 A 
ATOM     73  F   UNL     1      -4.857   7.746  -1.028  1.00  0.00    -0.203 F 
ATOM     74  F   UNL     1      -0.503   8.311   2.215  1.00  0.00    -0.200 F 
ATOM     75  C   UNL     1      -2.701   8.939   1.627  1.00  0.00     0.200 A 
ATOM     76  F   UNL     1      -4.905   9.525   1.012  1.00  0.00    -0.200 F 
ATOM     77  F   UNL     1      -2.740   9.810   2.645  1.00  0.00    -0.200 F 
ENDBRANCH  53  67
BRANCH  54  78
ATOM     78  C   UNL     1      -2.203   0.444  -7.892  1.00  0.00     0.064 A 
ATOM     79  C   UNL     1      -1.071   0.313  -8.705  1.00  0.00     0.173 A 
ATOM     80  C   UNL     1      -3.294  -0.401  -8.148  1.00  0.00     0.173 A 
ATOM     81  F   UNL     1      -0.015   1.119  -8.520  1.00  0.00    -0.203 F 
ATOM     82  C   UNL     1      -1.032  -0.627  -9.734  1.00  0.00     0.198 A 
ATOM     83  C   UNL     1      -3.243  -1.359  -9.156  1.00  0.00     0.198 A 
ATOM     84  F   UNL     1      -4.406  -0.307  -7.404  1.00  0.00    -0.203 F 
ATOM     85  F   UNL     1       0.050  -0.712 -10.520  1.00  0.00    -0.200 F 
ATOM     86  C   UNL     1      -2.113  -1.469  -9.951  1.00  0.00     0.200 A 
ATOM     87  F   UNL     1      -4.286  -2.177  -9.354  1.00  0.00    -0.200 F 
ATOM     88  F   UNL     1      -2.069  -2.381 -10.932  1.00  0.00    -0.200 F 
ENDBRANCH  54  78
BRANCH  66  89
ATOM     89  C   UNL     1      -2.528   7.404  -7.694  1.00  0.00     0.064 A 
ATOM     90  C   UNL     1      -3.704   7.617  -8.428  1.00  0.00     0.173 A 
ATOM     91  C   UNL     1      -1.423   8.223  -7.969  1.00  0.00     0.173 A 
ATOM     92  F   UNL     1      -4.783   6.849  -8.213  1.00  0.00    -0.203 F 
ATOM     93  C   UNL     1      -3.763   8.598  -9.414  1.00  0.00     0.198 A 
ATOM     94  C   UNL     1      -1.494   9.221  -8.936  1.00  0.00     0.198 A 
ATOM     95  F   UNL     1      -0.278   8.063  -7.289  1.00  0.00    -0.203 F 
ATOM     96  F   UNL     1      -4.883   8.756 -10.133  1.00  0.00    -0.200 F 
ATOM     97  C   UNL     1      -2.661   9.403  -9.663  1.00  0.00     0.200 A 
ATOM     98  F   UNL     1      -0.433  10.005  -9.167  1.00  0.00    -0.200 F 
ATOM     99  F   UNL     1      -2.722  10.350 -10.609  1.00  0.00    -0.200 F 
ENDBRANCH  66  89
ENDBRANCH  40  41
ENDBRANCH  33  35
ENDBRANCH  32  33
ENDBRANCH  31  32
ENDBRANCH  30  31
ENDBRANCH  29  30
ENDBRANCH  28  29
ENDBRANCH   1  28
TORSDOF 21
