REMARK SMILES Cc1ccccc1C(=O)Nc1cc(NC(=O)c2ccccc2C)cc(C(=O)OCCOCCOCCOC(=O)c2ccc(-c3c4nc(c(-c5c(F)c(F)c(F)c(F)c5F)c5ccc([nH]5)c(-c5c(F)c(F)c(F)c(F)c5F)c5nc(c(-c6c(F)c(F)c(F)c(F)c6F)c6ccc3[nH]6)C=C5)C=C4)cc2)c1
REMARK SMILES IDX 32 1 31 2 30 3 29 4 28 5 26 6 27 7 25 8 11 9 12 10 103 11
REMARK SMILES IDX 13 12 24 13 10 14 8 15 9 16 7 18 1 19 2 20 3 21 4 22 6 23
REMARK SMILES IDX 5 24 14 25 15 26 16 28 17 29 18 30 22 31 19 32 21 33 23 34
REMARK SMILES IDX 20 35 33 36 34 37 35 38 36 39 37 40 38 41 39 42 40 43 41 44
REMARK SMILES IDX 102 45 42 46 101 47 43 48 44 49 45 50 95 51 46 52 100 53
REMARK SMILES IDX 94 54 96 55 47 56 99 57 93 58 92 59 48 61 80 62 60 63 79 64
REMARK SMILES IDX 61 65 64 66 78 67 97 68 62 69 63 70 77 72 98 73 65 74 49 75
REMARK SMILES IDX 50 76 58 77 51 78 52 79 56 80 59 81 53 82 54 83 57 84 55 85
REMARK SMILES IDX 81 86 82 87 90 88 83 89 84 90 88 91 91 92 85 93 86 94 89 95
REMARK SMILES IDX 87 96 66 97 67 98 75 99 68 100 69 101 73 102 76 103 70 104
REMARK SMILES IDX 71 105 74 106 72 107
REMARK H PARENT 10 17 14 27 96 60 64 71
REMARK Flexibility Score: inf
ROOT
ATOM      1  C   UNL     1      10.429   0.166   2.374  1.00  0.00     0.188 C 
ENDROOT
BRANCH   1   2
ATOM      2  O   UNL     1       9.791  -1.125   2.482  1.00  0.00    -0.376 OA
BRANCH   2   3
ATOM      3  C   UNL     1       9.861  -2.160   1.499  1.00  0.00     0.202 C 
BRANCH   3   4
ATOM      4  C   UNL     1       8.560  -2.899   0.721  1.00  0.00     0.261 C 
BRANCH   4   5
ATOM      5  O   UNL     1       7.187  -2.294  -0.163  1.00  0.00    -0.460 OA
BRANCH   5   6
ATOM      6  C   UNL     1       5.885  -1.748   0.079  1.00  0.00     0.338 C 
ATOM      7  O   UNL     1       5.221  -1.730   1.116  1.00  0.00    -0.246 OA
BRANCH   6   8
ATOM      8  C   UNL     1       4.975  -1.060  -0.843  1.00  0.00     0.064 A 
ATOM      9  C   UNL     1       3.003   0.472  -0.711  1.00  0.00     0.044 A 
ATOM     10  C   UNL     1       2.355  -0.352  -1.619  1.00  0.00     0.052 A 
ATOM     11  C   UNL     1       4.336   0.153  -0.388  1.00  0.00     0.042 A 
ATOM     12  C   UNL     1       2.990  -1.518  -2.086  1.00  0.00     0.044 A 
ATOM     13  C   UNL     1       4.247  -1.918  -1.637  1.00  0.00     0.042 A 
BRANCH   9  14
ATOM     14  N   UNL     1       2.386   1.581  -0.076  1.00  0.00    -0.322 N 
ATOM     15  C   UNL     1       1.055   1.880   0.178  1.00  0.00     0.255 C 
ATOM     16  O   UNL     1       0.735   3.025   0.504  1.00  0.00    -0.269 OA
ATOM     17  H   UNL     1       3.019   2.263   0.244  1.00  0.00     0.170 HD
BRANCH  15  18
ATOM     18  C   UNL     1      -0.008   0.839   0.162  1.00  0.00     0.043 A 
ATOM     19  C   UNL     1       1.223  -0.692   1.809  1.00  0.00     0.045 C 
ATOM     20  C   UNL     1       0.101  -0.380   0.857  1.00  0.00    -0.038 A 
ATOM     21  C   UNL     1      -0.902  -1.349   0.678  1.00  0.00     0.004 A 
ATOM     22  C   UNL     1      -2.046  -1.069  -0.070  1.00  0.00     0.000 A 
ATOM     23  C   UNL     1      -1.199   1.144  -0.521  1.00  0.00     0.014 A 
ATOM     24  C   UNL     1      -2.215   0.192  -0.633  1.00  0.00     0.001 A 
ENDBRANCH  15  18
ENDBRANCH   9  14
BRANCH  12  25
ATOM     25  N   UNL     1       2.445  -2.338  -3.068  1.00  0.00    -0.322 N 
ATOM     26  C   UNL     1       1.901  -1.961  -4.269  1.00  0.00     0.255 C 
ATOM     27  H   UNL     1       2.449  -3.304  -2.878  1.00  0.00     0.170 HD
ATOM     28  O   UNL     1       1.497  -2.829  -5.041  1.00  0.00    -0.269 OA
BRANCH  26  29
ATOM     29  C   UNL     1       1.817  -0.534  -4.670  1.00  0.00     0.043 A 
ATOM     30  C   UNL     1       0.528  -0.122  -5.039  1.00  0.00     0.014 A 
ATOM     31  C   UNL     1       2.897   0.376  -4.726  1.00  0.00    -0.038 A 
ATOM     32  C   UNL     1       0.289   1.192  -5.425  1.00  0.00     0.001 A 
ATOM     33  C   UNL     1       2.623   1.708  -5.087  1.00  0.00     0.004 A 
ATOM     34  C   UNL     1       4.330   0.049  -4.409  1.00  0.00     0.045 C 
ATOM     35  C   UNL     1       1.334   2.109  -5.438  1.00  0.00     0.000 A 
ENDBRANCH  26  29
ENDBRANCH  12  25
ENDBRANCH   6   8
ENDBRANCH   5   6
ENDBRANCH   4   5
ENDBRANCH   3   4
ENDBRANCH   2   3
ENDBRANCH   1   2
BRANCH   1  36
ATOM     36  C   UNL     1      11.407   0.510   1.253  1.00  0.00     0.188 C 
BRANCH  36  37
ATOM     37  O   UNL     1      10.932  -0.038   0.041  1.00  0.00    -0.376 OA
BRANCH  37  38
ATOM     38  C   UNL     1      11.764   0.137  -1.088  1.00  0.00     0.202 C 
BRANCH  38  39
ATOM     39  C   UNL     1      11.548   1.512  -1.740  1.00  0.00     0.261 C 
BRANCH  39  40
ATOM     40  O   UNL     1      10.135   1.739  -1.987  1.00  0.00    -0.460 OA
BRANCH  40  41
ATOM     41  C   UNL     1       9.472   2.632  -1.177  1.00  0.00     0.338 C 
ATOM     42  O   UNL     1       9.886   3.744  -0.887  1.00  0.00    -0.246 OA
BRANCH  41  43
ATOM     43  C   UNL     1       8.313   1.952  -0.490  1.00  0.00     0.060 A 
ATOM     44  C   UNL     1       7.672   2.373   0.688  1.00  0.00     0.016 A 
ATOM     45  C   UNL     1       8.176   0.642  -0.770  1.00  0.00     0.016 A 
ATOM     46  C   UNL     1       7.104   1.417   1.652  1.00  0.00     0.010 A 
ATOM     47  C   UNL     1       7.995  -0.159   0.355  1.00  0.00     0.010 A 
ATOM     48  C   UNL     1       7.324   0.036   1.579  1.00  0.00    -0.014 A 
BRANCH  48  49
ATOM     49  C   UNL     1       7.071  -1.113   2.789  1.00  0.00     0.031 A 
ATOM     50  C   UNL     1       6.298  -2.653   2.865  1.00  0.00     0.074 A 
ATOM     51  C   UNL     1       7.453  -0.725   4.027  1.00  0.00     0.049 A 
ATOM     52  N   UNL     1       5.447  -3.029   3.812  1.00  0.00    -0.248 NA
ATOM     53  C   UNL     1       6.270  -3.770   1.853  1.00  0.00     0.031 C 
ATOM     54  C   UNL     1       7.467  -1.520   5.252  1.00  0.00     0.029 A 
ATOM     55  N   UNL     1       7.824   0.560   4.453  1.00  0.00    -0.354 N 
ATOM     56  C   UNL     1       4.938  -4.314   3.508  1.00  0.00     0.074 A 
ATOM     57  C   UNL     1       5.329  -4.616   2.201  1.00  0.00     0.031 C 
ATOM     58  C   UNL     1       7.499  -0.683   6.301  1.00  0.00     0.029 A 
ATOM     59  C   UNL     1       7.386   0.668   5.780  1.00  0.00     0.049 A 
ATOM     60  H   UNL     1       8.297   1.245   3.928  1.00  0.00     0.167 HD
ATOM     61  C   UNL     1       4.369  -5.201   4.371  1.00  0.00     0.037 A 
ATOM     62  C   UNL     1       6.470   1.607   6.146  1.00  0.00     0.037 A 
ATOM     63  C   UNL     1       4.363  -4.618   5.674  1.00  0.00     0.049 A 
ATOM     64  C   UNL     1       5.249   1.004   6.795  1.00  0.00     0.074 A 
ATOM     65  C   UNL     1       5.324  -4.597   6.667  1.00  0.00     0.029 A 
ATOM     66  N   UNL     1       3.505  -3.565   5.902  1.00  0.00    -0.354 N 
ATOM     67  N   UNL     1       4.933  -0.261   6.717  1.00  0.00    -0.248 NA
ATOM     68  C   UNL     1       4.279   1.772   7.568  1.00  0.00     0.031 C 
ATOM     69  C   UNL     1       5.087  -3.444   7.454  1.00  0.00     0.029 A 
ATOM     70  C   UNL     1       3.945  -2.825   6.975  1.00  0.00     0.049 A 
ATOM     71  H   UNL     1       2.696  -3.371   5.375  1.00  0.00     0.167 HD
ATOM     72  C   UNL     1       3.754  -0.476   7.375  1.00  0.00     0.074 A 
ATOM     73  C   UNL     1       3.392   0.821   7.907  1.00  0.00     0.031 C 
ATOM     74  C   UNL     1       3.153  -1.698   7.412  1.00  0.00     0.037 A 
BRANCH  61  75
ATOM     75  C   UNL     1       4.239  -6.694   4.041  1.00  0.00     0.064 A 
ATOM     76  C   UNL     1       4.560  -7.666   5.006  1.00  0.00     0.173 A 
ATOM     77  C   UNL     1       3.930  -7.226   2.766  1.00  0.00     0.173 A 
ATOM     78  F   UNL     1       4.722  -7.332   6.292  1.00  0.00    -0.203 F 
ATOM     79  C   UNL     1       4.739  -9.018   4.681  1.00  0.00     0.198 A 
ATOM     80  C   UNL     1       4.202  -8.557   2.416  1.00  0.00     0.198 A 
ATOM     81  F   UNL     1       3.344  -6.471   1.823  1.00  0.00    -0.203 F 
ATOM     82  F   UNL     1       5.051  -9.897   5.643  1.00  0.00    -0.200 F 
ATOM     83  C   UNL     1       4.625  -9.452   3.375  1.00  0.00     0.200 A 
ATOM     84  F   UNL     1       4.071  -8.958   1.142  1.00  0.00    -0.200 F 
ATOM     85  F   UNL     1       4.889 -10.725   3.050  1.00  0.00    -0.200 F 
ENDBRANCH  61  75
BRANCH  62  86
ATOM     86  C   UNL     1       6.531   2.867   5.345  1.00  0.00     0.064 A 
ATOM     87  C   UNL     1       7.771   3.543   5.267  1.00  0.00     0.173 A 
ATOM     88  C   UNL     1       5.548   3.242   4.421  1.00  0.00     0.173 A 
ATOM     89  F   UNL     1       8.760   3.230   6.120  1.00  0.00    -0.203 F 
ATOM     90  C   UNL     1       8.054   4.452   4.248  1.00  0.00     0.198 A 
ATOM     91  C   UNL     1       5.827   4.176   3.411  1.00  0.00     0.198 A 
ATOM     92  F   UNL     1       4.367   2.608   4.392  1.00  0.00    -0.203 F 
ATOM     93  F   UNL     1       9.291   4.956   4.125  1.00  0.00    -0.200 F 
ATOM     94  C   UNL     1       7.085   4.756   3.312  1.00  0.00     0.200 A 
ATOM     95  F   UNL     1       4.925   4.404   2.445  1.00  0.00    -0.200 F 
ATOM     96  F   UNL     1       7.389   5.537   2.264  1.00  0.00    -0.200 F 
ENDBRANCH  62  86
BRANCH  74  97
ATOM     97  C   UNL     1       1.745  -1.980   7.859  1.00  0.00     0.064 A 
ATOM     98  C   UNL     1       0.684  -1.089   7.657  1.00  0.00     0.173 A 
ATOM     99  C   UNL     1       1.393  -3.278   8.307  1.00  0.00     0.173 A 
ATOM    100  F   UNL     1       0.889   0.129   7.137  1.00  0.00    -0.203 F 
ATOM    101  C   UNL     1      -0.636  -1.456   7.921  1.00  0.00     0.198 A 
ATOM    102  C   UNL     1       0.070  -3.661   8.501  1.00  0.00     0.198 A 
ATOM    103  F   UNL     1       2.324  -4.222   8.522  1.00  0.00    -0.203 F 
ATOM    104  F   UNL     1      -1.618  -0.562   7.745  1.00  0.00    -0.200 F 
ATOM    105  C   UNL     1      -0.944  -2.745   8.321  1.00  0.00     0.200 A 
ATOM    106  F   UNL     1      -0.216  -4.929   8.829  1.00  0.00    -0.200 F 
ATOM    107  F   UNL     1      -2.219  -3.108   8.512  1.00  0.00    -0.200 F 
ENDBRANCH  74  97
ENDBRANCH  48  49
ENDBRANCH  41  43
ENDBRANCH  40  41
ENDBRANCH  39  40
ENDBRANCH  38  39
ENDBRANCH  37  38
ENDBRANCH  36  37
ENDBRANCH   1  36
TORSDOF 21
