REMARK SMILES Cc1ccc(C#N)cc1Nc1cc(C)c(N)c(C(=O)OCCOCCOCCOC(=O)c2ccc(-c3c4nc(c(-c5c(F)c(F)c(F)c(F)c5F)c5ccc([nH]5)c(-c5c(F)c(F)c(F)c(F)c5F)c5nc(c(-c6c(F)c(F)c(F)c(F)c6F)c6ccc3[nH]6)C=C5)C=C4)cc2)c1
REMARK SMILES IDX 24 1 23 2 22 3 21 4 20 5 18 6 19 7 17 8 11 9 12 10 95 11
REMARK SMILES IDX 13 12 14 13 15 14 10 15 9 17 1 18 2 19 3 20 4 21 8 22 5 23
REMARK SMILES IDX 6 24 7 25 16 26 25 29 26 30 27 31 28 32 29 33 30 34 31 35
REMARK SMILES IDX 32 36 33 37 94 38 34 39 93 40 35 41 36 42 37 43 87 44 38 45
REMARK SMILES IDX 92 46 86 47 88 48 39 49 91 50 85 51 84 52 40 54 72 55 52 56
REMARK SMILES IDX 71 57 53 58 56 59 70 60 89 61 54 62 55 63 69 65 90 66 57 67
REMARK SMILES IDX 41 68 42 69 50 70 43 71 44 72 48 73 51 74 45 75 46 76 49 77
REMARK SMILES IDX 47 78 73 79 74 80 82 81 75 82 76 83 80 84 83 85 77 86 78 87
REMARK SMILES IDX 81 88 79 89 58 90 59 91 67 92 60 93 61 94 65 95 68 96 62 97
REMARK SMILES IDX 63 98 66 99 64 100
REMARK H PARENT 10 16 16 27 16 28 88 53 56 64
REMARK Flexibility Score: inf
ROOT
ATOM      1  C   UNL     1      -0.361   5.710   7.011  1.00  0.00     0.188 C 
ENDROOT
BRANCH   1   2
ATOM      2  O   UNL     1       0.478   5.710   8.141  1.00  0.00    -0.376 OA
BRANCH   2   3
ATOM      3  C   UNL     1       0.943   4.487   8.685  1.00  0.00     0.202 C 
BRANCH   3   4
ATOM      4  C   UNL     1       0.789   3.086   8.051  1.00  0.00     0.261 C 
BRANCH   4   5
ATOM      5  O   UNL     1       0.244   2.993   6.734  1.00  0.00    -0.460 OA
BRANCH   5   6
ATOM      6  C   UNL     1      -1.075   2.680   6.647  1.00  0.00     0.340 C 
ATOM      7  O   UNL     1      -1.828   2.459   7.582  1.00  0.00    -0.246 OA
BRANCH   6   8
ATOM      8  C   UNL     1      -1.535   2.857   5.244  1.00  0.00     0.085 A 
ATOM      9  C   UNL     1      -1.188   2.360   2.897  1.00  0.00     0.040 A 
ATOM     10  C   UNL     1      -2.385   3.014   2.603  1.00  0.00     0.031 A 
ATOM     11  C   UNL     1      -0.735   2.351   4.217  1.00  0.00     0.044 A 
ATOM     12  C   UNL     1      -3.170   3.605   3.615  1.00  0.00    -0.025 A 
ATOM     13  C   UNL     1      -4.489   4.195   3.189  1.00  0.00     0.047 C 
ATOM     14  C   UNL     1      -2.771   3.490   4.963  1.00  0.00     0.049 A 
BRANCH   9  15
ATOM     15  N   UNL     1      -0.604   1.505   1.940  1.00  0.00    -0.355 N 
ATOM     16  H   UNL     1      -0.352   1.905   1.076  1.00  0.00     0.167 HD
BRANCH  15  17
ATOM     17  C   UNL     1      -0.347   0.123   2.111  1.00  0.00     0.043 A 
ATOM     18  C   UNL     1       1.018  -0.044  -0.058  1.00  0.00     0.046 C 
ATOM     19  C   UNL     1       0.441  -0.613   1.210  1.00  0.00    -0.027 A 
ATOM     20  C   UNL     1       0.730  -1.965   1.496  1.00  0.00     0.007 A 
ATOM     21  C   UNL     1       0.261  -2.586   2.657  1.00  0.00     0.020 A 
ATOM     22  C   UNL     1      -0.832  -0.540   3.259  1.00  0.00     0.045 A 
ATOM     23  C   UNL     1      -0.525  -1.868   3.547  1.00  0.00     0.054 A 
BRANCH  23  24
ATOM     24  C   UNL     1      -1.018  -2.452   4.756  1.00  0.00     0.099 C 
ATOM     25  N   UNL     1      -1.425  -2.897   5.751  1.00  0.00    -0.192 NA
ENDBRANCH  23  24
ENDBRANCH  15  17
ENDBRANCH   9  15
BRANCH  14  26
ATOM     26  N   UNL     1      -3.479   4.148   5.977  1.00  0.00    -0.398 N 
ATOM     27  H   UNL     1      -4.337   4.585   5.773  1.00  0.00     0.156 HD
ATOM     28  H   UNL     1      -3.119   4.173   6.893  1.00  0.00     0.156 HD
ENDBRANCH  14  26
ENDBRANCH   6   8
ENDBRANCH   5   6
ENDBRANCH   4   5
ENDBRANCH   3   4
ENDBRANCH   2   3
ENDBRANCH   1   2
BRANCH   1  29
ATOM     29  C   UNL     1       0.352   5.676   5.642  1.00  0.00     0.188 C 
BRANCH  29  30
ATOM     30  O   UNL     1       1.741   5.426   5.588  1.00  0.00    -0.376 OA
BRANCH  30  31
ATOM     31  C   UNL     1       2.624   6.291   6.283  1.00  0.00     0.202 C 
BRANCH  31  32
ATOM     32  C   UNL     1       2.366   7.804   6.470  1.00  0.00     0.261 C 
BRANCH  32  33
ATOM     33  O   UNL     1       1.009   8.240   6.647  1.00  0.00    -0.460 OA
BRANCH  33  34
ATOM     34  C   UNL     1       0.423   8.854   5.586  1.00  0.00     0.338 C 
ATOM     35  O   UNL     1       0.922   9.087   4.499  1.00  0.00    -0.246 OA
BRANCH  34  36
ATOM     36  C   UNL     1      -1.017   9.038   5.881  1.00  0.00     0.060 A 
ATOM     37  C   UNL     1      -1.416   9.897   6.902  1.00  0.00     0.016 A 
ATOM     38  C   UNL     1      -1.978   8.333   5.137  1.00  0.00     0.016 A 
ATOM     39  C   UNL     1      -2.780  10.062   7.167  1.00  0.00     0.010 A 
ATOM     40  C   UNL     1      -3.341   8.486   5.417  1.00  0.00     0.010 A 
ATOM     41  C   UNL     1      -3.755   9.373   6.419  1.00  0.00    -0.014 A 
BRANCH  41  42
ATOM     42  C   UNL     1      -5.193   9.714   6.596  1.00  0.00     0.031 A 
ATOM     43  C   UNL     1      -6.151   8.805   7.310  1.00  0.00     0.074 A 
ATOM     44  C   UNL     1      -5.623  10.899   6.119  1.00  0.00     0.049 A 
ATOM     45  N   UNL     1      -7.405   9.021   7.625  1.00  0.00    -0.248 NA
ATOM     46  C   UNL     1      -5.648   7.486   7.722  1.00  0.00     0.031 C 
ATOM     47  C   UNL     1      -4.792  11.854   5.385  1.00  0.00     0.029 A 
ATOM     48  N   UNL     1      -6.848  11.516   6.197  1.00  0.00    -0.354 N 
ATOM     49  C   UNL     1      -7.832   7.888   8.305  1.00  0.00     0.074 A 
ATOM     50  C   UNL     1      -6.720   6.957   8.302  1.00  0.00     0.031 C 
ATOM     51  C   UNL     1      -5.513  12.955   5.125  1.00  0.00     0.029 A 
ATOM     52  C   UNL     1      -6.868  12.770   5.635  1.00  0.00     0.049 A 
ATOM     53  H   UNL     1      -7.636  11.099   6.614  1.00  0.00     0.167 HD
ATOM     54  C   UNL     1      -9.029   7.664   8.900  1.00  0.00     0.037 A 
ATOM     55  C   UNL     1      -7.862  13.675   5.545  1.00  0.00     0.037 A 
ATOM     56  C   UNL     1     -10.136   8.592   8.894  1.00  0.00     0.049 A 
ATOM     57  C   UNL     1      -9.203  13.358   6.152  1.00  0.00     0.074 A 
ATOM     58  C   UNL     1     -11.380   8.449   9.487  1.00  0.00     0.029 A 
ATOM     59  N   UNL     1     -10.137   9.828   8.266  1.00  0.00    -0.354 N 
ATOM     60  N   UNL     1      -9.568  12.313   6.853  1.00  0.00    -0.248 NA
ATOM     61  C   UNL     1     -10.271  14.350   5.958  1.00  0.00     0.031 C 
ATOM     62  C   UNL     1     -12.151   9.569   9.172  1.00  0.00     0.029 A 
ATOM     63  C   UNL     1     -11.370  10.443   8.436  1.00  0.00     0.049 A 
ATOM     64  H   UNL     1      -9.377  10.213   7.774  1.00  0.00     0.167 HD
ATOM     65  C   UNL     1     -10.890  12.539   7.213  1.00  0.00     0.074 A 
ATOM     66  C   UNL     1     -11.257  13.830   6.674  1.00  0.00     0.031 C 
ATOM     67  C   UNL     1     -11.726  11.740   7.920  1.00  0.00     0.037 A 
BRANCH  54  68
ATOM     68  C   UNL     1      -9.225   6.379   9.654  1.00  0.00     0.064 A 
ATOM     69  C   UNL     1      -8.600   6.167  10.892  1.00  0.00     0.173 A 
ATOM     70  C   UNL     1     -10.160   5.425   9.221  1.00  0.00     0.173 A 
ATOM     71  F   UNL     1      -7.701   7.050  11.353  1.00  0.00    -0.203 F 
ATOM     72  C   UNL     1      -8.904   5.051  11.668  1.00  0.00     0.198 A 
ATOM     73  C   UNL     1     -10.482   4.325  10.012  1.00  0.00     0.198 A 
ATOM     74  F   UNL     1     -10.800   5.588   8.053  1.00  0.00    -0.203 F 
ATOM     75  F   UNL     1      -8.288   4.867  12.844  1.00  0.00    -0.200 F 
ATOM     76  C   UNL     1      -9.855   4.140  11.235  1.00  0.00     0.200 A 
ATOM     77  F   UNL     1     -11.421   3.460   9.604  1.00  0.00    -0.200 F 
ATOM     78  F   UNL     1     -10.175   3.087  12.001  1.00  0.00    -0.200 F 
ENDBRANCH  54  68
BRANCH  55  79
ATOM     79  C   UNL     1      -7.627  14.984   4.875  1.00  0.00     0.064 A 
ATOM     80  C   UNL     1      -7.709  16.186   5.593  1.00  0.00     0.173 A 
ATOM     81  C   UNL     1      -7.351  15.065   3.502  1.00  0.00     0.173 A 
ATOM     82  F   UNL     1      -7.990  16.166   6.904  1.00  0.00    -0.203 F 
ATOM     83  C   UNL     1      -7.560  17.417   4.957  1.00  0.00     0.198 A 
ATOM     84  C   UNL     1      -7.162  16.294   2.876  1.00  0.00     0.198 A 
ATOM     85  F   UNL     1      -7.260  13.947   2.767  1.00  0.00    -0.203 F 
ATOM     86  F   UNL     1      -7.712  18.551   5.655  1.00  0.00    -0.200 F 
ATOM     87  C   UNL     1      -7.280  17.470   3.600  1.00  0.00     0.200 A 
ATOM     88  F   UNL     1      -6.874  16.340   1.568  1.00  0.00    -0.200 F 
ATOM     89  F   UNL     1      -7.138  18.654   2.989  1.00  0.00    -0.200 F 
ENDBRANCH  55  79
BRANCH  67  90
ATOM     90  C   UNL     1     -13.118  12.242   8.189  1.00  0.00     0.064 A 
ATOM     91  C   UNL     1     -14.068  12.362   7.164  1.00  0.00     0.173 A 
ATOM     92  C   UNL     1     -13.529  12.534   9.499  1.00  0.00     0.173 A 
ATOM     93  F   UNL     1     -13.726  12.108   5.892  1.00  0.00    -0.203 F 
ATOM     94  C   UNL     1     -15.371  12.772   7.438  1.00  0.00     0.198 A 
ATOM     95  C   UNL     1     -14.842  12.907   9.775  1.00  0.00     0.198 A 
ATOM     96  F   UNL     1     -12.664  12.428  10.520  1.00  0.00    -0.203 F 
ATOM     97  F   UNL     1     -16.248  12.920   6.436  1.00  0.00    -0.200 F 
ATOM     98  C   UNL     1     -15.760  13.031   8.744  1.00  0.00     0.200 A 
ATOM     99  F   UNL     1     -15.221  13.136  11.040  1.00  0.00    -0.200 F 
ATOM    100  F   UNL     1     -17.020  13.403   9.007  1.00  0.00    -0.200 F 
ENDBRANCH  67  90
ENDBRANCH  41  42
ENDBRANCH  34  36
ENDBRANCH  33  34
ENDBRANCH  32  33
ENDBRANCH  31  32
ENDBRANCH  30  31
ENDBRANCH  29  30
ENDBRANCH   1  29
TORSDOF 21
