REMARK SMILES [NH3+][C@H](Cc1cc(F)c(F)c(F)c1)C(=O)OCCOCCOCCOC(=O)c1ccc(-c2c3nc(c(-c4c(F)c(F)c(F)c(F)c4F)c4ccc([nH]4)c(-c4c(F)c(F)c(F)c(F)c4F)c4nc(c(-c5c(F)c(F)c(F)c(F)c5F)c5ccc2[nH]5)C=C4)C=C3)cc1
REMARK SMILES IDX 19 1 18 2 17 3 16 4 15 5 13 6 14 7 2 8 1 9 3 13 4 14 5 15
REMARK SMILES IDX 12 16 6 17 10 18 7 19 8 20 11 21 9 22 20 23 21 24 22 25
REMARK SMILES IDX 23 26 24 27 25 28 26 29 27 30 28 31 89 32 29 33 88 34 30 35
REMARK SMILES IDX 31 36 32 37 82 38 33 39 87 40 81 41 83 42 34 43 86 44 80 45
REMARK SMILES IDX 79 46 35 48 67 49 47 50 66 51 48 52 51 53 65 54 84 55 49 56
REMARK SMILES IDX 50 57 64 59 85 60 52 61 36 62 37 63 45 64 38 65 39 66 43 67
REMARK SMILES IDX 46 68 40 69 41 70 44 71 42 72 68 73 69 74 77 75 70 76 71 77
REMARK SMILES IDX 75 78 78 79 72 80 73 81 76 82 74 83 53 84 54 85 62 86 55 87
REMARK SMILES IDX 56 88 60 89 63 90 57 91 58 92 61 93 59 94
REMARK H PARENT 1 10 1 11 1 12 83 47 51 58
REMARK Flexibility Score: inf
ROOT
ATOM      1  C   UNL     1      -2.284   0.405   2.017  1.00  0.00     0.188 C 
ENDROOT
BRANCH   1   2
ATOM      2  O   UNL     1      -3.614   0.743   1.649  1.00  0.00    -0.376 OA
BRANCH   2   3
ATOM      3  C   UNL     1      -3.914   0.959   0.269  1.00  0.00     0.202 C 
BRANCH   3   4
ATOM      4  C   UNL     1      -3.005   1.895  -0.550  1.00  0.00     0.261 C 
BRANCH   4   5
ATOM      5  O   UNL     1      -1.611   1.530  -0.507  1.00  0.00    -0.459 OA
BRANCH   5   6
ATOM      6  C   UNL     1      -0.715   2.546  -0.366  1.00  0.00     0.365 C 
ATOM      7  O   UNL     1      -1.023   3.732  -0.402  1.00  0.00    -0.245 OA
BRANCH   6   8
ATOM      8  C   UNL     1       0.710   2.031  -0.013  1.00  0.00     0.296 C 
BRANCH   8   9
ATOM      9  N   UNL     1       1.712   3.090  -0.271  1.00  0.00    -0.346 N 
ATOM     10  H   UNL     1       1.388   3.970   0.129  1.00  0.00     0.345 HD
ATOM     11  H   UNL     1       1.838   3.200  -1.278  1.00  0.00     0.345 HD
ATOM     12  H   UNL     1       2.601   2.828   0.156  1.00  0.00     0.345 HD
ENDBRANCH   8   9
BRANCH   8  13
ATOM     13  C   UNL     1       1.109   0.647  -0.583  1.00  0.00     0.113 C 
BRANCH  13  14
ATOM     14  C   UNL     1       1.985   0.624  -1.808  1.00  0.00    -0.035 A 
ATOM     15  C   UNL     1       1.454   0.978  -3.053  1.00  0.00     0.046 A 
ATOM     16  C   UNL     1       3.326   0.217  -1.720  1.00  0.00     0.046 A 
ATOM     17  C   UNL     1       2.265   0.950  -4.184  1.00  0.00     0.162 A 
ATOM     18  C   UNL     1       4.120   0.195  -2.863  1.00  0.00     0.162 A 
ATOM     19  F   UNL     1       1.741   1.300  -5.366  1.00  0.00    -0.204 F 
ATOM     20  C   UNL     1       3.596   0.566  -4.093  1.00  0.00     0.194 A 
ATOM     21  F   UNL     1       5.399  -0.189  -2.760  1.00  0.00    -0.204 F 
ATOM     22  F   UNL     1       4.370   0.554  -5.187  1.00  0.00    -0.200 F 
ENDBRANCH  13  14
ENDBRANCH   8  13
ENDBRANCH   6   8
ENDBRANCH   5   6
ENDBRANCH   4   5
ENDBRANCH   3   4
ENDBRANCH   2   3
ENDBRANCH   1   2
BRANCH   1  23
ATOM     23  C   UNL     1      -1.560  -0.711   1.248  1.00  0.00     0.188 C 
BRANCH  23  24
ATOM     24  O   UNL     1      -2.237  -1.184   0.107  1.00  0.00    -0.376 OA
BRANCH  24  25
ATOM     25  C   UNL     1      -2.660  -2.540   0.095  1.00  0.00     0.202 C 
BRANCH  25  26
ATOM     26  C   UNL     1      -3.454  -3.109   1.290  1.00  0.00     0.261 C 
BRANCH  26  27
ATOM     27  O   UNL     1      -2.970  -2.792   2.607  1.00  0.00    -0.460 OA
BRANCH  27  28
ATOM     28  C   UNL     1      -1.842  -3.422   3.019  1.00  0.00     0.338 C 
ATOM     29  O   UNL     1      -1.207  -4.259   2.409  1.00  0.00    -0.246 OA
BRANCH  28  30
ATOM     30  C   UNL     1      -1.352  -2.712   4.228  1.00  0.00     0.060 A 
ATOM     31  C   UNL     1      -0.077  -2.125   4.193  1.00  0.00     0.016 A 
ATOM     32  C   UNL     1      -2.144  -2.604   5.372  1.00  0.00     0.016 A 
ATOM     33  C   UNL     1       0.421  -1.457   5.313  1.00  0.00     0.010 A 
ATOM     34  C   UNL     1      -1.632  -1.961   6.504  1.00  0.00     0.010 A 
ATOM     35  C   UNL     1      -0.335  -1.415   6.491  1.00  0.00    -0.014 A 
BRANCH  35  36
ATOM     36  C   UNL     1       0.309  -1.006   7.763  1.00  0.00     0.031 A 
ATOM     37  C   UNL     1       0.838  -2.086   8.667  1.00  0.00     0.074 A 
ATOM     38  C   UNL     1       0.458   0.286   8.102  1.00  0.00     0.049 A 
ATOM     39  N   UNL     1       1.386  -1.989   9.851  1.00  0.00    -0.248 NA
ATOM     40  C   UNL     1       0.736  -3.465   8.163  1.00  0.00     0.031 C 
ATOM     41  C   UNL     1       0.049   1.426   7.288  1.00  0.00     0.029 A 
ATOM     42  N   UNL     1       0.998   0.853   9.232  1.00  0.00    -0.354 N 
ATOM     43  C   UNL     1       1.690  -3.289  10.231  1.00  0.00     0.074 A 
ATOM     44  C   UNL     1       1.234  -4.162   9.172  1.00  0.00     0.031 C 
ATOM     45  C   UNL     1       0.348   2.560   7.946  1.00  0.00     0.029 A 
ATOM     46  C   UNL     1       0.935   2.224   9.244  1.00  0.00     0.049 A 
ATOM     47  H   UNL     1       1.391   0.325   9.964  1.00  0.00     0.167 HD
ATOM     48  C   UNL     1       2.309  -3.716  11.356  1.00  0.00     0.037 A 
ATOM     49  C   UNL     1       1.293   3.104  10.201  1.00  0.00     0.037 A 
ATOM     50  C   UNL     1       2.758  -2.849  12.412  1.00  0.00     0.049 A 
ATOM     51  C   UNL     1       1.891   2.600  11.491  1.00  0.00     0.074 A 
ATOM     52  C   UNL     1       3.384  -3.191  13.597  1.00  0.00     0.029 A 
ATOM     53  N   UNL     1       2.626  -1.468  12.411  1.00  0.00    -0.354 N 
ATOM     54  N   UNL     1       2.167   1.369  11.850  1.00  0.00    -0.248 NA
ATOM     55  C   UNL     1       2.227   3.607  12.510  1.00  0.00     0.031 C 
ATOM     56  C   UNL     1       3.582  -2.023  14.338  1.00  0.00     0.029 A 
ATOM     57  C   UNL     1       3.140  -0.946  13.586  1.00  0.00     0.049 A 
ATOM     58  H   UNL     1       2.226  -0.939  11.684  1.00  0.00     0.167 HD
ATOM     59  C   UNL     1       2.732   1.455  13.117  1.00  0.00     0.074 A 
ATOM     60  C   UNL     1       2.769   2.860  13.463  1.00  0.00     0.031 C 
ATOM     61  C   UNL     1       3.181   0.457  13.918  1.00  0.00     0.037 A 
BRANCH  48  62
ATOM     62  C   UNL     1       2.527  -5.193  11.512  1.00  0.00     0.064 A 
ATOM     63  C   UNL     1       1.834  -5.915  12.495  1.00  0.00     0.173 A 
ATOM     64  C   UNL     1       3.464  -5.884  10.729  1.00  0.00     0.173 A 
ATOM     65  F   UNL     1       0.927  -5.302  13.271  1.00  0.00    -0.203 F 
ATOM     66  C   UNL     1       2.083  -7.269  12.700  1.00  0.00     0.198 A 
ATOM     67  C   UNL     1       3.688  -7.245  10.915  1.00  0.00     0.198 A 
ATOM     68  F   UNL     1       4.140  -5.244   9.763  1.00  0.00    -0.203 F 
ATOM     69  F   UNL     1       1.434  -7.929  13.669  1.00  0.00    -0.200 F 
ATOM     70  C   UNL     1       3.007  -7.934  11.908  1.00  0.00     0.200 A 
ATOM     71  F   UNL     1       4.559  -7.893  10.129  1.00  0.00    -0.200 F 
ATOM     72  F   UNL     1       3.237  -9.240  12.098  1.00  0.00    -0.200 F 
ENDBRANCH  48  62
BRANCH  49  73
ATOM     73  C   UNL     1       1.105   4.561   9.966  1.00  0.00     0.064 A 
ATOM     74  C   UNL     1      -0.176   5.128   9.886  1.00  0.00     0.173 A 
ATOM     75  C   UNL     1       2.205   5.410   9.789  1.00  0.00     0.173 A 
ATOM     76  F   UNL     1      -1.262   4.360  10.056  1.00  0.00    -0.203 F 
ATOM     77  C   UNL     1      -0.349   6.482   9.608  1.00  0.00     0.198 A 
ATOM     78  C   UNL     1       2.032   6.770   9.538  1.00  0.00     0.198 A 
ATOM     79  F   UNL     1       3.450   4.922   9.887  1.00  0.00    -0.203 F 
ATOM     80  F   UNL     1      -1.584   6.990   9.500  1.00  0.00    -0.200 F 
ATOM     81  C   UNL     1       0.756   7.303   9.436  1.00  0.00     0.200 A 
ATOM     82  F   UNL     1       3.102   7.565   9.401  1.00  0.00    -0.200 F 
ATOM     83  F   UNL     1       0.590   8.607   9.176  1.00  0.00    -0.200 F 
ENDBRANCH  49  73
BRANCH  61  84
ATOM     84  C   UNL     1       3.786   0.831  15.243  1.00  0.00     0.064 A 
ATOM     85  C   UNL     1       5.155   0.627  15.480  1.00  0.00     0.173 A 
ATOM     86  C   UNL     1       3.000   1.296  16.307  1.00  0.00     0.173 A 
ATOM     87  F   UNL     1       5.951   0.172  14.500  1.00  0.00    -0.203 F 
ATOM     88  C   UNL     1       5.709   0.856  16.736  1.00  0.00     0.198 A 
ATOM     89  C   UNL     1       3.564   1.555  17.554  1.00  0.00     0.198 A 
ATOM     90  F   UNL     1       1.688   1.514  16.132  1.00  0.00    -0.203 F 
ATOM     91  F   UNL     1       7.010   0.611  16.948  1.00  0.00    -0.200 F 
ATOM     92  C   UNL     1       4.914   1.323  17.771  1.00  0.00     0.200 A 
ATOM     93  F   UNL     1       2.799   2.028  18.547  1.00  0.00    -0.200 F 
ATOM     94  F   UNL     1       5.449   1.551  18.978  1.00  0.00    -0.200 F 
ENDBRANCH  61  84
ENDBRANCH  35  36
ENDBRANCH  28  30
ENDBRANCH  27  28
ENDBRANCH  26  27
ENDBRANCH  25  26
ENDBRANCH  24  25
ENDBRANCH  23  24
ENDBRANCH   1  23
TORSDOF 20
