REMARK SMILES CC(C)(C)[NH2+]CC(=O)N[C@](C)(C(=O)OCCOCCOCCOC(=O)c1ccc(-c2c3nc(c(-c4c(F)c(F)c(F)c(F)c4F)c4ccc([nH]4)c(-c4c(F)c(F)c(F)c(F)c4F)c4nc(c(-c5c(F)c(F)c(F)c(F)c5F)c5ccc2[nH]5)C=C4)C=C3)cc1)C1CC1
REMARK SMILES IDX 18 1 17 2 16 3 15 4 14 5 12 6 13 7 10 8 11 9 9 10 7 11 8 12
REMARK SMILES IDX 6 14 5 15 2 18 1 19 3 20 4 21 89 22 90 23 91 24 19 25 20 26
REMARK SMILES IDX 21 27 22 28 23 29 24 30 25 31 26 32 27 33 88 34 28 35 87 36
REMARK SMILES IDX 29 37 30 38 31 39 81 40 32 41 86 42 80 43 82 44 33 45 85 46
REMARK SMILES IDX 79 47 78 48 34 50 66 51 46 52 65 53 47 54 50 55 64 56 83 57
REMARK SMILES IDX 48 58 49 59 63 61 84 62 51 63 35 64 36 65 44 66 37 67 38 68
REMARK SMILES IDX 42 69 45 70 39 71 40 72 43 73 41 74 67 75 68 76 76 77 69 78
REMARK SMILES IDX 70 79 74 80 77 81 71 82 72 83 75 84 73 85 52 86 53 87 61 88
REMARK SMILES IDX 54 89 55 90 59 91 62 92 56 93 57 94 60 95 58 96
REMARK H PARENT 9 13 5 16 5 17 82 49 50 60
REMARK Flexibility Score: inf
ROOT
ATOM      1  C   UNL     1       5.419   1.800   1.000  1.00  0.00     0.188 C 
ENDROOT
BRANCH   1   2
ATOM      2  O   UNL     1       5.427   2.953   1.823  1.00  0.00    -0.376 OA
BRANCH   2   3
ATOM      3  C   UNL     1       4.162   3.358   2.315  1.00  0.00     0.202 C 
BRANCH   3   4
ATOM      4  C   UNL     1       3.593   2.536   3.490  1.00  0.00     0.261 C 
BRANCH   4   5
ATOM      5  O   UNL     1       2.663   1.412   3.327  1.00  0.00    -0.461 OA
BRANCH   5   6
ATOM      6  C   UNL     1       2.305   0.806   2.164  1.00  0.00     0.331 C 
ATOM      7  O   UNL     1       2.766   1.122   1.074  1.00  0.00    -0.249 OA
BRANCH   6   8
ATOM      8  C   UNL     1       1.266  -0.351   2.339  1.00  0.00     0.138 C 
ATOM      9  C   UNL     1       1.881  -1.284   3.432  1.00  0.00     0.048 C 
BRANCH   8  10
ATOM     10  N   UNL     1      -0.031   0.217   2.852  1.00  0.00    -0.335 N 
ATOM     11  C   UNL     1      -1.070   0.987   2.407  1.00  0.00     0.276 C 
ATOM     12  O   UNL     1      -1.835   1.377   3.304  1.00  0.00    -0.268 OA
ATOM     13  H   UNL     1      -0.175  -0.046   3.790  1.00  0.00     0.164 HD
BRANCH  11  14
ATOM     14  C   UNL     1      -1.385   1.408   0.949  1.00  0.00     0.362 C 
BRANCH  14  15
ATOM     15  N   UNL     1      -1.137   2.844   0.582  1.00  0.00    -0.334 N 
ATOM     16  H   UNL     1      -1.558   3.010  -0.332  1.00  0.00     0.347 HD
ATOM     17  H   UNL     1      -1.546   3.396   1.335  1.00  0.00     0.347 HD
BRANCH  15  18
ATOM     18  C   UNL     1       0.276   3.255   0.509  1.00  0.00     0.088 C 
ATOM     19  C   UNL     1       0.964   2.319  -0.504  1.00  0.00     0.078 C 
ATOM     20  C   UNL     1       0.713   3.427   1.970  1.00  0.00     0.078 C 
ATOM     21  C   UNL     1       0.579   4.652  -0.083  1.00  0.00     0.078 C 
ENDBRANCH  15  18
ENDBRANCH  14  15
ENDBRANCH  11  14
ENDBRANCH   8  10
BRANCH   8  22
ATOM     22  C   UNL     1       1.005  -1.116   1.037  1.00  0.00     0.026 C 
ATOM     23  C   UNL     1       2.089  -1.893   0.322  1.00  0.00     0.007 C 
ATOM     24  C   UNL     1       0.891  -2.616   0.875  1.00  0.00     0.007 C 
ENDBRANCH   8  22
ENDBRANCH   6   8
ENDBRANCH   5   6
ENDBRANCH   4   5
ENDBRANCH   3   4
ENDBRANCH   2   3
ENDBRANCH   1   2
BRANCH   1  25
ATOM     25  C   UNL     1       5.522   0.500   1.822  1.00  0.00     0.188 C 
BRANCH  25  26
ATOM     26  O   UNL     1       6.344   0.506   2.979  1.00  0.00    -0.376 OA
BRANCH  26  27
ATOM     27  C   UNL     1       7.569   1.214   2.881  1.00  0.00     0.202 C 
BRANCH  27  28
ATOM     28  C   UNL     1       8.574   0.756   1.805  1.00  0.00     0.261 C 
BRANCH  28  29
ATOM     29  O   UNL     1       8.056   0.636   0.456  1.00  0.00    -0.460 OA
BRANCH  29  30
ATOM     30  C   UNL     1       7.862  -0.620  -0.024  1.00  0.00     0.338 C 
ATOM     31  O   UNL     1       8.162  -1.665   0.529  1.00  0.00    -0.246 OA
BRANCH  30  32
ATOM     32  C   UNL     1       7.040  -0.598  -1.267  1.00  0.00     0.060 A 
ATOM     33  C   UNL     1       5.749  -1.157  -1.254  1.00  0.00     0.016 A 
ATOM     34  C   UNL     1       7.583  -0.165  -2.475  1.00  0.00     0.016 A 
ATOM     35  C   UNL     1       5.008  -1.300  -2.432  1.00  0.00     0.010 A 
ATOM     36  C   UNL     1       6.856  -0.347  -3.663  1.00  0.00     0.010 A 
ATOM     37  C   UNL     1       5.578  -0.944  -3.655  1.00  0.00    -0.014 A 
BRANCH  37  38
ATOM     38  C   UNL     1       4.970  -1.402  -4.934  1.00  0.00     0.031 A 
ATOM     39  C   UNL     1       5.578  -2.599  -5.614  1.00  0.00     0.074 A 
ATOM     40  C   UNL     1       3.912  -0.792  -5.497  1.00  0.00     0.049 A 
ATOM     41  N   UNL     1       5.415  -3.044  -6.833  1.00  0.00    -0.248 NA
ATOM     42  C   UNL     1       6.505  -3.400  -4.799  1.00  0.00     0.031 C 
ATOM     43  C   UNL     1       3.138   0.292  -4.901  1.00  0.00     0.029 A 
ATOM     44  N   UNL     1       3.324  -0.990  -6.726  1.00  0.00    -0.354 N 
ATOM     45  C   UNL     1       6.253  -4.147  -6.946  1.00  0.00     0.074 A 
ATOM     46  C   UNL     1       6.921  -4.304  -5.673  1.00  0.00     0.031 C 
ATOM     47  C   UNL     1       2.203   0.694  -5.781  1.00  0.00     0.029 A 
ATOM     48  C   UNL     1       2.355  -0.062  -7.024  1.00  0.00     0.049 A 
ATOM     49  H   UNL     1       3.574  -1.725  -7.332  1.00  0.00     0.167 HD
ATOM     50  C   UNL     1       6.455  -4.946  -8.020  1.00  0.00     0.037 A 
ATOM     51  C   UNL     1       1.713   0.186  -8.185  1.00  0.00     0.037 A 
ATOM     52  C   UNL     1       5.776  -4.794  -9.280  1.00  0.00     0.049 A 
ATOM     53  C   UNL     1       2.035  -0.643  -9.408  1.00  0.00     0.074 A 
ATOM     54  C   UNL     1       5.913  -5.550 -10.431  1.00  0.00     0.029 A 
ATOM     55  N   UNL     1       4.830  -3.817  -9.552  1.00  0.00    -0.354 N 
ATOM     56  N   UNL     1       2.860  -1.654  -9.533  1.00  0.00    -0.248 NA
ATOM     57  C   UNL     1       1.343  -0.285 -10.657  1.00  0.00     0.031 C 
ATOM     58  C   UNL     1       5.097  -4.992 -11.419  1.00  0.00     0.029 A 
ATOM     59  C   UNL     1       4.397  -3.933 -10.863  1.00  0.00     0.049 A 
ATOM     60  H   UNL     1       4.514  -3.142  -8.910  1.00  0.00     0.167 HD
ATOM     61  C   UNL     1       2.759  -2.073 -10.855  1.00  0.00     0.074 A 
ATOM     62  C   UNL     1       1.789  -1.211 -11.494  1.00  0.00     0.031 C 
ATOM     63  C   UNL     1       3.411  -3.084 -11.482  1.00  0.00     0.037 A 
BRANCH  50  64
ATOM     64  C   UNL     1       7.498  -6.020  -7.901  1.00  0.00     0.064 A 
ATOM     65  C   UNL     1       7.316  -7.151  -7.093  1.00  0.00     0.173 A 
ATOM     66  C   UNL     1       8.693  -5.922  -8.632  1.00  0.00     0.173 A 
ATOM     67  F   UNL     1       6.200  -7.287  -6.362  1.00  0.00    -0.203 F 
ATOM     68  C   UNL     1       8.305  -8.129  -6.997  1.00  0.00     0.198 A 
ATOM     69  C   UNL     1       9.663  -6.918  -8.561  1.00  0.00     0.198 A 
ATOM     70  F   UNL     1       8.916  -4.863  -9.425  1.00  0.00    -0.203 F 
ATOM     71  F   UNL     1       8.133  -9.174  -6.176  1.00  0.00    -0.200 F 
ATOM     72  C   UNL     1       9.473  -8.015  -7.736  1.00  0.00     0.200 A 
ATOM     73  F   UNL     1      10.783  -6.812  -9.289  1.00  0.00    -0.200 F 
ATOM     74  F   UNL     1      10.419  -8.960  -7.648  1.00  0.00    -0.200 F 
ENDBRANCH  50  64
BRANCH  51  75
ATOM     75  C   UNL     1       0.739   1.309  -8.277  1.00  0.00     0.064 A 
ATOM     76  C   UNL     1      -0.621   1.071  -8.522  1.00  0.00     0.173 A 
ATOM     77  C   UNL     1       1.153   2.646  -8.165  1.00  0.00     0.173 A 
ATOM     78  F   UNL     1      -1.063  -0.186  -8.674  1.00  0.00    -0.203 F 
ATOM     79  C   UNL     1      -1.524   2.123  -8.669  1.00  0.00     0.198 A 
ATOM     80  C   UNL     1       0.244   3.696  -8.278  1.00  0.00     0.198 A 
ATOM     81  F   UNL     1       2.444   2.934  -7.945  1.00  0.00    -0.203 F 
ATOM     82  F   UNL     1      -2.806   1.867  -8.961  1.00  0.00    -0.200 F 
ATOM     83  C   UNL     1      -1.092   3.435  -8.540  1.00  0.00     0.200 A 
ATOM     84  F   UNL     1       0.665   4.961  -8.145  1.00  0.00    -0.200 F 
ATOM     85  F   UNL     1      -1.960   4.446  -8.681  1.00  0.00    -0.200 F 
ENDBRANCH  51  75
BRANCH  63  86
ATOM     86  C   UNL     1       3.060  -3.366 -12.916  1.00  0.00     0.064 A 
ATOM     87  C   UNL     1       3.448  -2.513 -13.959  1.00  0.00     0.173 A 
ATOM     88  C   UNL     1       2.389  -4.553 -13.257  1.00  0.00     0.173 A 
ATOM     89  F   UNL     1       4.080  -1.361 -13.689  1.00  0.00    -0.203 F 
ATOM     90  C   UNL     1       3.165  -2.829 -15.286  1.00  0.00     0.198 A 
ATOM     91  C   UNL     1       2.137  -4.881 -14.586  1.00  0.00     0.198 A 
ATOM     92  F   UNL     1       2.003  -5.410 -12.299  1.00  0.00    -0.203 F 
ATOM     93  F   UNL     1       3.513  -1.980 -16.264  1.00  0.00    -0.200 F 
ATOM     94  C   UNL     1       2.520  -4.016 -15.599  1.00  0.00     0.200 A 
ATOM     95  F   UNL     1       1.530  -6.038 -14.886  1.00  0.00    -0.200 F 
ATOM     96  F   UNL     1       2.266  -4.327 -16.878  1.00  0.00    -0.200 F 
ENDBRANCH  63  86
ENDBRANCH  37  38
ENDBRANCH  30  32
ENDBRANCH  29  30
ENDBRANCH  28  29
ENDBRANCH  27  28
ENDBRANCH  26  27
ENDBRANCH  25  26
ENDBRANCH   1  25
TORSDOF 22
