REMARK SMILES C[C@@H]1CN(C(=O)N[C@@H]2CCCCC[C@@H]2C(=O)OCCOCCOCCOC(=O)c2ccc(-c3c4nc(c(-c5c(F)c(F)c(F)c(F)c5F)c5ccc([nH]5)c(-c5c(F)c(F)c(F)c(F)c5F)c5nc(c(-c6c(F)c(F)c(F)c(F)c6F)c6ccc3[nH]6)C=C5)C=C4)cc2)C[C@H]1C
REMARK SMILES IDX 21 1 20 2 19 3 18 4 17 5 15 6 16 7 14 8 8 9 7 10 1 11 2 12
REMARK SMILES IDX 3 13 93 14 4 15 92 16 94 17 5 18 6 19 9 21 10 22 13 24 12 25
REMARK SMILES IDX 11 26 22 28 23 29 24 30 25 31 26 32 27 33 28 34 29 35 30 36
REMARK SMILES IDX 91 37 31 38 90 39 32 40 33 41 34 42 84 43 35 44 89 45 83 46
REMARK SMILES IDX 85 47 36 48 88 49 82 50 81 51 37 53 69 54 49 55 68 56 50 57
REMARK SMILES IDX 53 58 67 59 86 60 51 61 52 62 66 64 87 65 54 66 38 67 39 68
REMARK SMILES IDX 47 69 40 70 41 71 45 72 48 73 42 74 43 75 46 76 44 77 70 78
REMARK SMILES IDX 71 79 79 80 72 81 73 82 77 83 80 84 74 85 75 86 78 87 76 88
REMARK SMILES IDX 55 89 56 90 64 91 57 92 58 93 62 94 65 95 59 96 60 97 63 98
REMARK SMILES IDX 61 99
REMARK H PARENT 7 20 85 52 53 63
REMARK Flexibility Score: 90.00
ROOT
ATOM      1  C   UNL     1      -5.023  -2.582   1.152  1.00  0.00     0.188 C 
ENDROOT
BRANCH   1   2
ATOM      2  O   UNL     1      -5.987  -3.594   0.960  1.00  0.00    -0.376 OA
BRANCH   2   3
ATOM      3  C   UNL     1      -6.112  -4.650   1.906  1.00  0.00     0.202 C 
BRANCH   3   4
ATOM      4  C   UNL     1      -5.761  -4.518   3.405  1.00  0.00     0.261 C 
BRANCH   4   5
ATOM      5  O   UNL     1      -5.228  -3.251   3.783  1.00  0.00    -0.463 OA
BRANCH   5   6
ATOM      6  C   UNL     1      -4.074  -3.249   4.504  1.00  0.00     0.311 C 
ATOM      7  O   UNL     1      -3.565  -4.219   5.048  1.00  0.00    -0.252 OA
BRANCH   6   8
ATOM      8  C   UNL     1      -3.472  -1.854   4.497  1.00  0.00     0.121 C 
BRANCH   8   9
ATOM      9  C   UNL     1      -2.059  -1.774   3.848  1.00  0.00     0.098 C 
BRANCH   9  10
ATOM     10  N   UNL     1      -1.500  -3.086   3.515  1.00  0.00    -0.334 N 
ATOM     11  C   UNL     1       1.298   0.156   0.013  1.00  0.00     0.010 C 
ATOM     12  C   UNL     1       0.665  -1.228   0.033  1.00  0.00     0.010 C 
ATOM     13  C   UNL     1      -0.330  -1.449   1.188  1.00  0.00     0.125 C 
ATOM     14  C   UNL     1       1.663  -2.376   0.251  1.00  0.00     0.010 C 
ATOM     15  N   UNL     1      -0.245  -2.873   1.503  1.00  0.00    -0.324 N 
ATOM     16  C   UNL     1       0.708  -3.511   0.600  1.00  0.00     0.125 C 
ATOM     17  C   UNL     1       2.569  -2.676  -0.927  1.00  0.00     0.010 C 
ATOM     18  C   UNL     1      -0.755  -3.609   2.525  1.00  0.00     0.317 C 
ATOM     19  O   UNL     1      -0.539  -4.822   2.605  1.00  0.00    -0.249 OA
ATOM     20  H   UNL     1      -1.729  -3.762   4.194  1.00  0.00     0.165 HD
ENDBRANCH   9  10
BRANCH   9  21
ATOM     21  C   UNL     1      -1.040  -0.957   4.658  1.00  0.00     0.026 C 
BRANCH  21  22
ATOM     22  C   UNL     1      -1.373   0.537   4.698  1.00  0.00     0.002 CG0
ATOM     23  G   UNL     1      -2.307   0.940   5.834  1.00  0.00     0.000 G0
ENDBRANCH  21  22
ENDBRANCH   9  21
ENDBRANCH   8   9
BRANCH   8  24
ATOM     24  C   UNL     1      -3.706  -1.201   5.861  1.00  0.00     0.017 C 
BRANCH  24  25
ATOM     25  C   UNL     1      -3.698   0.326   5.777  1.00  0.00     0.001 C 
BRANCH  25  26
ATOM     26  C   UNL     1      -2.307   0.940   5.834  1.00  0.00     0.000 CG0
ATOM     27  G   UNL     1      -1.373   0.537   4.698  1.00  0.00     0.000 G0
ENDBRANCH  25  26
ENDBRANCH  24  25
ENDBRANCH   8  24
ENDBRANCH   6   8
ENDBRANCH   5   6
ENDBRANCH   4   5
ENDBRANCH   3   4
ENDBRANCH   2   3
ENDBRANCH   1   2
BRANCH   1  28
ATOM     28  C   UNL     1      -5.633  -1.224   1.566  1.00  0.00     0.188 C 
BRANCH  28  29
ATOM     29  O   UNL     1      -6.912  -1.180   2.180  1.00  0.00    -0.376 OA
BRANCH  29  30
ATOM     30  C   UNL     1      -8.019  -1.700   1.443  1.00  0.00     0.202 C 
BRANCH  30  31
ATOM     31  C   UNL     1      -8.263  -1.241  -0.008  1.00  0.00     0.261 C 
BRANCH  31  32
ATOM     32  O   UNL     1      -7.133  -1.373  -0.893  1.00  0.00    -0.460 OA
BRANCH  32  33
ATOM     33  C   UNL     1      -6.630  -0.212  -1.374  1.00  0.00     0.338 C 
ATOM     34  O   UNL     1      -7.050   0.923  -1.180  1.00  0.00    -0.246 OA
BRANCH  33  35
ATOM     35  C   UNL     1      -5.337  -0.461  -2.036  1.00  0.00     0.060 A 
ATOM     36  C   UNL     1      -4.171   0.089  -1.478  1.00  0.00     0.016 A 
ATOM     37  C   UNL     1      -5.289  -1.145  -3.249  1.00  0.00     0.016 A 
ATOM     38  C   UNL     1      -2.952  -0.029  -2.144  1.00  0.00     0.010 A 
ATOM     39  C   UNL     1      -4.076  -1.227  -3.934  1.00  0.00     0.010 A 
ATOM     40  C   UNL     1      -2.912  -0.645  -3.400  1.00  0.00    -0.014 A 
BRANCH  40  41
ATOM     41  C   UNL     1      -1.714  -0.506  -4.258  1.00  0.00     0.031 A 
ATOM     42  C   UNL     1      -1.621   0.692  -5.159  1.00  0.00     0.074 A 
ATOM     43  C   UNL     1      -0.761  -1.452  -4.278  1.00  0.00     0.049 A 
ATOM     44  N   UNL     1      -0.730   0.978  -6.072  1.00  0.00    -0.248 NA
ATOM     45  C   UNL     1      -2.699   1.686  -5.035  1.00  0.00     0.031 C 
ATOM     46  C   UNL     1      -0.761  -2.659  -3.458  1.00  0.00     0.029 A 
ATOM     47  N   UNL     1       0.391  -1.543  -5.018  1.00  0.00    -0.354 N 
ATOM     48  C   UNL     1      -1.176   2.146  -6.676  1.00  0.00     0.074 A 
ATOM     49  C   UNL     1      -2.396   2.536  -6.004  1.00  0.00     0.031 C 
ATOM     50  C   UNL     1       0.358  -3.356  -3.716  1.00  0.00     0.029 A 
ATOM     51  C   UNL     1       1.149  -2.650  -4.723  1.00  0.00     0.049 A 
ATOM     52  H   UNL     1       0.650  -0.878  -5.696  1.00  0.00     0.167 HD
ATOM     53  C   UNL     1      -0.634   2.807  -7.726  1.00  0.00     0.037 A 
ATOM     54  C   UNL     1       2.353  -3.024  -5.202  1.00  0.00     0.037 A 
ATOM     55  C   UNL     1       0.577   2.409  -8.390  1.00  0.00     0.049 A 
ATOM     56  C   UNL     1       2.982  -2.214  -6.310  1.00  0.00     0.074 A 
ATOM     57  C   UNL     1       1.197   2.993  -9.480  1.00  0.00     0.029 A 
ATOM     58  N   UNL     1       1.354   1.320  -8.022  1.00  0.00    -0.354 N 
ATOM     59  N   UNL     1       2.557  -1.110  -6.877  1.00  0.00    -0.248 NA
ATOM     60  C   UNL     1       4.245  -2.722  -6.869  1.00  0.00     0.031 C 
ATOM     61  C   UNL     1       2.328   2.234  -9.797  1.00  0.00     0.029 A 
ATOM     62  C   UNL     1       2.444   1.212  -8.868  1.00  0.00     0.049 A 
ATOM     63  H   UNL     1       1.159   0.714  -7.270  1.00  0.00     0.167 HD
ATOM     64  C   UNL     1       3.493  -0.795  -7.854  1.00  0.00     0.074 A 
ATOM     65  C   UNL     1       4.534  -1.798  -7.775  1.00  0.00     0.031 C 
ATOM     66  C   UNL     1       3.479   0.216  -8.757  1.00  0.00     0.037 A 
BRANCH  53  67
ATOM     67  C   UNL     1      -1.391   3.985  -8.264  1.00  0.00     0.064 A 
ATOM     68  C   UNL     1      -1.475   5.198  -7.567  1.00  0.00     0.173 A 
ATOM     69  C   UNL     1      -2.033   3.896  -9.510  1.00  0.00     0.173 A 
ATOM     70  F   UNL     1      -0.897   5.326  -6.363  1.00  0.00    -0.203 F 
ATOM     71  C   UNL     1      -2.194   6.272  -8.086  1.00  0.00     0.198 A 
ATOM     72  C   UNL     1      -2.725   4.981 -10.040  1.00  0.00     0.198 A 
ATOM     73  F   UNL     1      -1.985   2.757 -10.216  1.00  0.00    -0.203 F 
ATOM     74  F   UNL     1      -2.304   7.405  -7.380  1.00  0.00    -0.200 F 
ATOM     75  C   UNL     1      -2.812   6.165  -9.324  1.00  0.00     0.200 A 
ATOM     76  F   UNL     1      -3.311   4.878 -11.240  1.00  0.00    -0.200 F 
ATOM     77  F   UNL     1      -3.498   7.202  -9.824  1.00  0.00    -0.200 F 
ENDBRANCH  53  67
BRANCH  54  78
ATOM     78  C   UNL     1       3.080  -4.182  -4.612  1.00  0.00     0.064 A 
ATOM     79  C   UNL     1       4.293  -3.979  -3.934  1.00  0.00     0.173 A 
ATOM     80  C   UNL     1       2.611  -5.498  -4.715  1.00  0.00     0.173 A 
ATOM     81  F   UNL     1       4.797  -2.741  -3.820  1.00  0.00    -0.203 F 
ATOM     82  C   UNL     1       5.016  -5.046  -3.403  1.00  0.00     0.198 A 
ATOM     83  C   UNL     1       3.317  -6.562  -4.153  1.00  0.00     0.198 A 
ATOM     84  F   UNL     1       1.459  -5.753  -5.353  1.00  0.00    -0.203 F 
ATOM     85  F   UNL     1       6.195  -4.823  -2.807  1.00  0.00    -0.200 F 
ATOM     86  C   UNL     1       4.523  -6.337  -3.507  1.00  0.00     0.200 A 
ATOM     87  F   UNL     1       2.830  -7.807  -4.243  1.00  0.00    -0.200 F 
ATOM     88  F   UNL     1       5.215  -7.363  -2.993  1.00  0.00    -0.200 F 
ENDBRANCH  54  78
BRANCH  66  89
ATOM     89  C   UNL     1       4.623   0.307  -9.725  1.00  0.00     0.064 A 
ATOM     90  C   UNL     1       4.757  -0.599 -10.787  1.00  0.00     0.173 A 
ATOM     91  C   UNL     1       5.542   1.364  -9.640  1.00  0.00     0.173 A 
ATOM     92  F   UNL     1       3.909  -1.631 -10.906  1.00  0.00    -0.203 F 
ATOM     93  C   UNL     1       5.778  -0.456 -11.723  1.00  0.00     0.198 A 
ATOM     94  C   UNL     1       6.544   1.519 -10.594  1.00  0.00     0.198 A 
ATOM     95  F   UNL     1       5.449   2.263  -8.649  1.00  0.00    -0.203 F 
ATOM     96  F   UNL     1       5.906  -1.350 -12.714  1.00  0.00    -0.200 F 
ATOM     97  C   UNL     1       6.664   0.608 -11.632  1.00  0.00     0.200 A 
ATOM     98  F   UNL     1       7.389   2.557 -10.513  1.00  0.00    -0.200 F 
ATOM     99  F   UNL     1       7.634   0.754 -12.545  1.00  0.00    -0.200 F 
ENDBRANCH  66  89
ENDBRANCH  40  41
ENDBRANCH  33  35
ENDBRANCH  32  33
ENDBRANCH  31  32
ENDBRANCH  30  31
ENDBRANCH  29  30
ENDBRANCH  28  29
ENDBRANCH   1  28
TORSDOF 18
