REMARK SMILES C[C@H]1[C@H](C(=O)OCCOCCOCCOC(=O)c2ccc(-c3c4nc(c(-c5c(F)c(F)c(F)c(F)c5F)c5ccc([nH]5)c(-c5c(F)c(F)c(F)c(F)c5F)c5nc(c(-c6c(F)c(F)c(F)c(F)c6F)c6ccc3[nH]6)C=C5)C=C4)cc2)CCN1C(=O)Nc1ccc(F)cc1
REMARK SMILES IDX 10 1 9 2 8 3 7 4 6 5 4 6 5 7 3 8 1 9 2 10 83 11 81 12 82 13
REMARK SMILES IDX 84 14 85 15 86 16 87 18 88 19 93 20 89 21 92 22 90 23 91 24
REMARK SMILES IDX 11 25 12 26 13 27 14 28 15 29 16 30 17 31 18 32 19 33 80 34
REMARK SMILES IDX 20 35 79 36 21 37 22 38 23 39 73 40 24 41 78 42 72 43 74 44
REMARK SMILES IDX 25 45 77 46 71 47 70 48 26 50 58 51 38 52 57 53 39 54 42 55
REMARK SMILES IDX 56 56 75 57 40 58 41 59 55 61 76 62 43 63 27 64 28 65 36 66
REMARK SMILES IDX 29 67 30 68 34 69 37 70 31 71 32 72 35 73 33 74 59 75 60 76
REMARK SMILES IDX 68 77 61 78 62 79 66 80 69 81 63 82 64 83 67 84 65 85 44 86
REMARK SMILES IDX 45 87 53 88 46 89 47 90 51 91 54 92 48 93 49 94 52 95 50 96
REMARK H PARENT 86 17 74 49 42 60
REMARK Flexibility Score: inf
ROOT
ATOM      1  C   UNL     1       1.540   3.908   1.993  1.00  0.00     0.188 C 
ENDROOT
BRANCH   1   2
ATOM      2  O   UNL     1       0.591   4.623   2.766  1.00  0.00    -0.376 OA
BRANCH   2   3
ATOM      3  C   UNL     1      -0.355   3.932   3.563  1.00  0.00     0.202 C 
BRANCH   3   4
ATOM      4  C   UNL     1      -1.463   3.157   2.848  1.00  0.00     0.261 C 
BRANCH   4   5
ATOM      5  O   UNL     1      -1.009   2.054   2.037  1.00  0.00    -0.463 OA
BRANCH   5   6
ATOM      6  C   UNL     1      -1.163   2.203   0.697  1.00  0.00     0.311 C 
ATOM      7  O   UNL     1      -1.564   3.229   0.157  1.00  0.00    -0.252 OA
BRANCH   6   8
ATOM      8  C   UNL     1      -0.908   0.943  -0.107  1.00  0.00     0.123 C 
ATOM      9  C   UNL     1       1.406   0.152  -0.639  1.00  0.00     0.032 C 
ATOM     10  C   UNL     1       0.222  -0.031   0.319  1.00  0.00     0.098 C 
ATOM     11  N   UNL     1      -0.365  -1.374   0.237  1.00  0.00    -0.321 N 
ATOM     12  C   UNL     1      -2.176   0.101  -0.132  1.00  0.00     0.039 C 
ATOM     13  C   UNL     1      -1.678  -1.302  -0.381  1.00  0.00     0.122 C 
BRANCH  11  14
ATOM     14  C   UNL     1       0.147  -2.618   0.473  1.00  0.00     0.322 C 
ATOM     15  O   UNL     1      -0.527  -3.628   0.230  1.00  0.00    -0.248 OA
ATOM     16  N   UNL     1       1.439  -2.852   0.778  1.00  0.00    -0.308 N 
ATOM     17  H   UNL     1       1.744  -3.707   0.396  1.00  0.00     0.171 HD
BRANCH  16  18
ATOM     18  C   UNL     1       2.468  -2.222   1.484  1.00  0.00     0.043 A 
ATOM     19  C   UNL     1       3.778  -2.562   1.102  1.00  0.00     0.029 A 
ATOM     20  C   UNL     1       2.271  -1.395   2.586  1.00  0.00     0.029 A 
ATOM     21  C   UNL     1       4.880  -2.043   1.780  1.00  0.00     0.041 A 
ATOM     22  C   UNL     1       3.380  -0.904   3.288  1.00  0.00     0.041 A 
ATOM     23  C   UNL     1       4.670  -1.227   2.879  1.00  0.00     0.123 A 
ATOM     24  F   UNL     1       5.722  -0.773   3.573  1.00  0.00    -0.207 F 
ENDBRANCH  16  18
ENDBRANCH  11  14
ENDBRANCH   6   8
ENDBRANCH   5   6
ENDBRANCH   4   5
ENDBRANCH   3   4
ENDBRANCH   2   3
ENDBRANCH   1   2
BRANCH   1  25
ATOM     25  C   UNL     1       1.972   2.486   2.376  1.00  0.00     0.188 C 
BRANCH  25  26
ATOM     26  O   UNL     1       2.011   2.072   3.728  1.00  0.00    -0.376 OA
BRANCH  26  27
ATOM     27  C   UNL     1       2.783   2.840   4.641  1.00  0.00     0.202 C 
BRANCH  27  28
ATOM     28  C   UNL     1       4.287   2.882   4.375  1.00  0.00     0.261 C 
BRANCH  28  29
ATOM     29  O   UNL     1       4.580   3.609   3.170  1.00  0.00    -0.460 OA
BRANCH  29  30
ATOM     30  C   UNL     1       5.273   2.927   2.233  1.00  0.00     0.338 C 
ATOM     31  O   UNL     1       5.736   1.796   2.307  1.00  0.00    -0.246 OA
BRANCH  30  32
ATOM     32  C   UNL     1       5.269   3.685   0.980  1.00  0.00     0.060 A 
ATOM     33  C   UNL     1       4.644   3.129  -0.147  1.00  0.00     0.016 A 
ATOM     34  C   UNL     1       5.959   4.891   0.901  1.00  0.00     0.016 A 
ATOM     35  C   UNL     1       4.727   3.775  -1.376  1.00  0.00     0.010 A 
ATOM     36  C   UNL     1       6.064   5.522  -0.334  1.00  0.00     0.010 A 
ATOM     37  C   UNL     1       5.473   4.954  -1.478  1.00  0.00    -0.014 A 
BRANCH  37  38
ATOM     38  C   UNL     1       5.793   5.546  -2.792  1.00  0.00     0.031 A 
ATOM     39  C   UNL     1       7.146   5.278  -3.377  1.00  0.00     0.074 A 
ATOM     40  C   UNL     1       4.928   6.380  -3.390  1.00  0.00     0.049 A 
ATOM     41  N   UNL     1       7.771   5.896  -4.343  1.00  0.00    -0.248 NA
ATOM     42  C   UNL     1       7.904   4.168  -2.776  1.00  0.00     0.031 C 
ATOM     43  C   UNL     1       3.567   6.652  -2.937  1.00  0.00     0.029 A 
ATOM     44  N   UNL     1       5.092   7.188  -4.486  1.00  0.00    -0.354 N 
ATOM     45  C   UNL     1       9.010   5.277  -4.442  1.00  0.00     0.074 A 
ATOM     46  C   UNL     1       9.049   4.234  -3.440  1.00  0.00     0.031 C 
ATOM     47  C   UNL     1       3.030   7.601  -3.722  1.00  0.00     0.029 A 
ATOM     48  C   UNL     1       4.035   8.040  -4.689  1.00  0.00     0.049 A 
ATOM     49  H   UNL     1       5.887   7.161  -5.066  1.00  0.00     0.167 HD
ATOM     50  C   UNL     1      10.023   5.570  -5.290  1.00  0.00     0.037 A 
ATOM     51  C   UNL     1       3.924   9.093  -5.521  1.00  0.00     0.037 A 
ATOM     52  C   UNL     1       9.958   6.616  -6.275  1.00  0.00     0.049 A 
ATOM     53  C   UNL     1       5.093   9.453  -6.402  1.00  0.00     0.074 A 
ATOM     54  C   UNL     1      10.919   7.002  -7.191  1.00  0.00     0.029 A 
ATOM     55  N   UNL     1       8.864   7.449  -6.463  1.00  0.00    -0.354 N 
ATOM     56  N   UNL     1       6.269   8.879  -6.491  1.00  0.00    -0.248 NA
ATOM     57  C   UNL     1       4.924  10.611  -7.290  1.00  0.00     0.031 C 
ATOM     58  C   UNL     1      10.425   8.101  -7.901  1.00  0.00     0.029 A 
ATOM     59  C   UNL     1       9.133   8.361  -7.469  1.00  0.00     0.049 A 
ATOM     60  H   UNL     1       8.021   7.399  -5.956  1.00  0.00     0.167 HD
ATOM     61  C   UNL     1       6.964   9.578  -7.469  1.00  0.00     0.074 A 
ATOM     62  C   UNL     1       6.079  10.623  -7.941  1.00  0.00     0.031 C 
ATOM     63  C   UNL     1       8.219   9.371  -7.939  1.00  0.00     0.037 A 
BRANCH  50  64
ATOM     64  C   UNL     1      11.293   4.784  -5.157  1.00  0.00     0.064 A 
ATOM     65  C   UNL     1      11.372   3.433  -5.528  1.00  0.00     0.173 A 
ATOM     66  C   UNL     1      12.459   5.400  -4.676  1.00  0.00     0.173 A 
ATOM     67  F   UNL     1      10.284   2.792  -5.979  1.00  0.00    -0.203 F 
ATOM     68  C   UNL     1      12.564   2.723  -5.399  1.00  0.00     0.198 A 
ATOM     69  C   UNL     1      13.656   4.696  -4.576  1.00  0.00     0.198 A 
ATOM     70  F   UNL     1      12.439   6.690  -4.307  1.00  0.00    -0.203 F 
ATOM     71  F   UNL     1      12.604   1.421  -5.715  1.00  0.00    -0.200 F 
ATOM     72  C   UNL     1      13.706   3.357  -4.931  1.00  0.00     0.200 A 
ATOM     73  F   UNL     1      14.760   5.313  -4.134  1.00  0.00    -0.200 F 
ATOM     74  F   UNL     1      14.853   2.674  -4.814  1.00  0.00    -0.200 F 
ENDBRANCH  50  64
BRANCH  51  75
ATOM     75  C   UNL     1       2.675   9.899  -5.532  1.00  0.00     0.064 A 
ATOM     76  C   UNL     1       1.822   9.886  -6.644  1.00  0.00     0.173 A 
ATOM     77  C   UNL     1       2.307  10.695  -4.437  1.00  0.00     0.173 A 
ATOM     78  F   UNL     1       2.143   9.159  -7.724  1.00  0.00    -0.203 F 
ATOM     79  C   UNL     1       0.656  10.648  -6.665  1.00  0.00     0.198 A 
ATOM     80  C   UNL     1       1.126  11.434  -4.448  1.00  0.00     0.198 A 
ATOM     81  F   UNL     1       3.090  10.745  -3.349  1.00  0.00    -0.203 F 
ATOM     82  F   UNL     1      -0.120  10.649  -7.758  1.00  0.00    -0.200 F 
ATOM     83  C   UNL     1       0.305  11.415  -5.565  1.00  0.00     0.200 A 
ATOM     84  F   UNL     1       0.785  12.165  -3.378  1.00  0.00    -0.200 F 
ATOM     85  F   UNL     1      -0.820  12.143  -5.584  1.00  0.00    -0.200 F 
ENDBRANCH  51  75
BRANCH  63  86
ATOM     86  C   UNL     1       8.690  10.240  -9.067  1.00  0.00     0.064 A 
ATOM     87  C   UNL     1       9.070  11.573  -8.866  1.00  0.00     0.173 A 
ATOM     88  C   UNL     1       8.848   9.694 -10.351  1.00  0.00     0.173 A 
ATOM     89  F   UNL     1       8.925  12.142  -7.660  1.00  0.00    -0.203 F 
ATOM     90  C   UNL     1       9.584  12.334  -9.913  1.00  0.00     0.198 A 
ATOM     91  C   UNL     1       9.388  10.448 -11.388  1.00  0.00     0.198 A 
ATOM     92  F   UNL     1       8.505   8.419 -10.590  1.00  0.00    -0.203 F 
ATOM     93  F   UNL     1       9.916  13.616  -9.708  1.00  0.00    -0.200 F 
ATOM     94  C   UNL     1       9.753  11.768 -11.169  1.00  0.00     0.200 A 
ATOM     95  F   UNL     1       9.565   9.894 -12.595  1.00  0.00    -0.200 F 
ATOM     96  F   UNL     1      10.268  12.495 -12.169  1.00  0.00    -0.200 F 
ENDBRANCH  63  86
ENDBRANCH  37  38
ENDBRANCH  30  32
ENDBRANCH  29  30
ENDBRANCH  28  29
ENDBRANCH  27  28
ENDBRANCH  26  27
ENDBRANCH  25  26
ENDBRANCH   1  25
TORSDOF 19
