REMARK SMILES CC1(C)S[C@@H]2[C@H]([NH2+]Cn3nnc4ccccc43)C(=O)N2[C@@H]1C(=O)OCCOCCOCCOC(=O)c1ccc(-c2c3nc(c(-c4c(F)c(F)c(F)c(F)c4F)c4ccc([nH]4)c(-c4c(F)c(F)c(F)c(F)c4F)c4nc(c(-c5c(F)c(F)c(F)c(F)c5F)c5ccc2[nH]5)C=C4)C=C3)cc1
REMARK SMILES IDX 28 1 27 2 26 3 25 4 24 5 22 6 23 7 21 8 1 9 2 10 3 11 4 12
REMARK SMILES IDX 5 13 20 14 6 15 18 16 19 17 7 18 8 21 9 22 10 23 17 24 11 25
REMARK SMILES IDX 12 26 16 27 13 28 15 29 14 30 29 31 30 32 31 33 32 34 33 35
REMARK SMILES IDX 34 36 35 37 36 38 37 39 98 40 38 41 97 42 39 43 40 44 41 45
REMARK SMILES IDX 91 46 42 47 96 48 90 49 92 50 43 51 95 52 89 53 88 54 44 56
REMARK SMILES IDX 76 57 56 58 75 59 57 60 60 61 74 62 93 63 58 64 59 65 73 67
REMARK SMILES IDX 94 68 61 69 45 70 46 71 54 72 47 73 48 74 52 75 55 76 49 77
REMARK SMILES IDX 50 78 53 79 51 80 77 81 78 82 86 83 79 84 80 85 84 86 87 87
REMARK SMILES IDX 81 88 82 89 85 90 83 91 62 92 63 93 71 94 64 95 65 96 69 97
REMARK SMILES IDX 72 98 66 99 67 100 70 101 68 102
REMARK H PARENT 7 19 7 20 92 55 60 66
REMARK Flexibility Score: inf
ROOT
ATOM      1  C   UNL     1      -1.772   3.456  -2.081  1.00  0.00     0.188 C 
ENDROOT
BRANCH   1   2
ATOM      2  O   UNL     1      -1.619   3.569  -3.482  1.00  0.00    -0.376 OA
BRANCH   2   3
ATOM      3  C   UNL     1      -1.254   2.419  -4.229  1.00  0.00     0.202 C 
BRANCH   3   4
ATOM      4  C   UNL     1      -0.016   1.617  -3.778  1.00  0.00     0.261 C 
BRANCH   4   5
ATOM      5  O   UNL     1      -0.160   0.796  -2.575  1.00  0.00    -0.462 OA
BRANCH   5   6
ATOM      6  C   UNL     1       0.598   1.168  -1.502  1.00  0.00     0.330 C 
ATOM      7  O   UNL     1       1.383   2.111  -1.562  1.00  0.00    -0.250 OA
BRANCH   6   8
ATOM      8  C   UNL     1       0.402   0.341  -0.162  1.00  0.00     0.212 C 
ATOM      9  C   UNL     1       2.880  -0.251  -0.722  1.00  0.00     0.026 C 
ATOM     10  C   UNL     1       1.662  -0.532   0.170  1.00  0.00     0.044 C 
ATOM     11  C   UNL     1       1.982  -0.569   1.682  1.00  0.00     0.026 C 
ATOM     12  S   UNL     1       1.168  -2.307  -0.119  1.00  0.00    -0.121 SA
ATOM     13  C   UNL     1      -0.495  -1.943   0.491  1.00  0.00     0.213 C 
ATOM     14  N   UNL     1      -0.712  -0.586  -0.021  1.00  0.00    -0.304 N 
ATOM     15  C   UNL     1      -1.912  -2.246  -0.098  1.00  0.00     0.307 C 
ATOM     16  C   UNL     1      -2.040  -0.661   0.208  1.00  0.00     0.285 C 
ATOM     17  O   UNL     1      -2.882   0.130   0.505  1.00  0.00    -0.268 OA
BRANCH  15  18
ATOM     18  N   UNL     1      -2.120  -2.533  -1.556  1.00  0.00    -0.315 N 
ATOM     19  H   UNL     1      -2.596  -1.742  -1.990  1.00  0.00     0.348 HD
ATOM     20  H   UNL     1      -2.686  -3.376  -1.651  1.00  0.00     0.348 HD
BRANCH  18  21
ATOM     21  C   UNL     1      -0.848  -2.744  -2.213  1.00  0.00     0.415 C 
BRANCH  21  22
ATOM     22  N   UNL     1      -0.859  -3.162  -3.600  1.00  0.00    -0.194 N 
ATOM     23  N   UNL     1      -1.915  -3.660  -4.257  1.00  0.00    -0.061 NA
ATOM     24  C   UNL     1       0.322  -3.346  -4.282  1.00  0.00     0.095 A 
ATOM     25  N   UNL     1      -1.451  -4.184  -5.389  1.00  0.00    -0.130 NA
ATOM     26  C   UNL     1      -0.086  -4.027  -5.414  1.00  0.00     0.113 A 
ATOM     27  C   UNL     1       1.659  -3.042  -3.985  1.00  0.00     0.030 A 
ATOM     28  C   UNL     1       0.890  -4.439  -6.331  1.00  0.00     0.032 A 
ATOM     29  C   UNL     1       2.616  -3.460  -4.907  1.00  0.00     0.002 A 
ATOM     30  C   UNL     1       2.240  -4.148  -6.061  1.00  0.00     0.002 A 
ENDBRANCH  21  22
ENDBRANCH  18  21
ENDBRANCH  15  18
ENDBRANCH   6   8
ENDBRANCH   5   6
ENDBRANCH   4   5
ENDBRANCH   3   4
ENDBRANCH   2   3
ENDBRANCH   1   2
BRANCH   1  31
ATOM     31  C   UNL     1      -2.361   2.170  -1.506  1.00  0.00     0.188 C 
BRANCH  31  32
ATOM     32  O   UNL     1      -3.027   1.330  -2.405  1.00  0.00    -0.376 OA
BRANCH  32  33
ATOM     33  C   UNL     1      -4.435   1.464  -2.480  1.00  0.00     0.202 C 
BRANCH  33  34
ATOM     34  C   UNL     1      -5.222   2.704  -1.950  1.00  0.00     0.261 C 
BRANCH  34  35
ATOM     35  O   UNL     1      -4.544   3.610  -1.041  1.00  0.00    -0.460 OA
BRANCH  35  36
ATOM     36  C   UNL     1      -4.768   3.511   0.302  1.00  0.00     0.338 C 
ATOM     37  O   UNL     1      -5.734   2.985   0.826  1.00  0.00    -0.246 OA
BRANCH  36  38
ATOM     38  C   UNL     1      -3.473   3.814   1.029  1.00  0.00     0.060 A 
ATOM     39  C   UNL     1      -2.617   4.871   0.699  1.00  0.00     0.016 A 
ATOM     40  C   UNL     1      -2.976   2.798   1.859  1.00  0.00     0.016 A 
ATOM     41  C   UNL     1      -1.260   4.846   1.111  1.00  0.00     0.010 A 
ATOM     42  C   UNL     1      -1.620   2.758   2.236  1.00  0.00     0.010 A 
ATOM     43  C   UNL     1      -0.726   3.765   1.848  1.00  0.00    -0.014 A 
BRANCH  43  44
ATOM     44  C   UNL     1       0.547   3.890   2.622  1.00  0.00     0.031 A 
ATOM     45  C   UNL     1       0.433   4.998   3.575  1.00  0.00     0.074 A 
ATOM     46  C   UNL     1       1.760   3.271   2.587  1.00  0.00     0.049 A 
ATOM     47  N   UNL     1       1.047   6.115   3.378  1.00  0.00    -0.248 NA
ATOM     48  C   UNL     1      -0.556   5.020   4.648  1.00  0.00     0.031 C 
ATOM     49  C   UNL     1       2.322   2.523   1.488  1.00  0.00     0.029 A 
ATOM     50  N   UNL     1       2.805   3.215   3.523  1.00  0.00    -0.354 N 
ATOM     51  C   UNL     1       0.721   6.910   4.451  1.00  0.00     0.074 A 
ATOM     52  C   UNL     1      -0.395   6.268   5.102  1.00  0.00     0.031 C 
ATOM     53  C   UNL     1       3.483   1.936   1.856  1.00  0.00     0.029 A 
ATOM     54  C   UNL     1       3.754   2.196   3.267  1.00  0.00     0.049 A 
ATOM     55  H   UNL     1       2.872   3.830   4.289  1.00  0.00     0.167 HD
ATOM     56  C   UNL     1       1.628   7.834   4.857  1.00  0.00     0.037 A 
ATOM     57  C   UNL     1       5.043   2.001   3.680  1.00  0.00     0.037 A 
ATOM     58  C   UNL     1       2.607   8.104   3.827  1.00  0.00     0.049 A 
ATOM     59  C   UNL     1       5.660   3.334   3.769  1.00  0.00     0.074 A 
ATOM     60  C   UNL     1       2.678   8.863   2.677  1.00  0.00     0.029 A 
ATOM     61  N   UNL     1       3.599   7.166   3.740  1.00  0.00    -0.354 N 
ATOM     62  N   UNL     1       5.998   4.031   2.725  1.00  0.00    -0.248 NA
ATOM     63  C   UNL     1       5.571   4.058   5.034  1.00  0.00     0.031 C 
ATOM     64  C   UNL     1       3.724   8.310   1.875  1.00  0.00     0.029 A 
ATOM     65  C   UNL     1       4.303   7.258   2.569  1.00  0.00     0.049 A 
ATOM     66  H   UNL     1       3.786   6.500   4.440  1.00  0.00     0.167 HD
ATOM     67  C   UNL     1       5.709   5.321   3.108  1.00  0.00     0.074 A 
ATOM     68  C   UNL     1       5.607   5.303   4.562  1.00  0.00     0.031 C 
ATOM     69  C   UNL     1       5.227   6.217   2.207  1.00  0.00     0.037 A 
BRANCH  56  70
ATOM     70  C   UNL     1       1.930   8.081   6.310  1.00  0.00     0.064 A 
ATOM     71  C   UNL     1       2.766   9.153   6.668  1.00  0.00     0.173 A 
ATOM     72  C   UNL     1       1.674   7.137   7.330  1.00  0.00     0.173 A 
ATOM     73  F   UNL     1       3.125  10.072   5.758  1.00  0.00    -0.203 F 
ATOM     74  C   UNL     1       3.318   9.258   7.948  1.00  0.00     0.198 A 
ATOM     75  C   UNL     1       2.182   7.273   8.618  1.00  0.00     0.198 A 
ATOM     76  F   UNL     1       1.031   5.987   7.093  1.00  0.00    -0.203 F 
ATOM     77  F   UNL     1       4.189  10.240   8.218  1.00  0.00    -0.200 F 
ATOM     78  C   UNL     1       3.020   8.323   8.923  1.00  0.00     0.200 A 
ATOM     79  F   UNL     1       1.914   6.331   9.534  1.00  0.00    -0.200 F 
ATOM     80  F   UNL     1       3.580   8.400  10.137  1.00  0.00    -0.200 F 
ENDBRANCH  56  70
BRANCH  57  81
ATOM     81  C   UNL     1       5.534   0.888   4.557  1.00  0.00     0.064 A 
ATOM     82  C   UNL     1       6.901   0.785   4.898  1.00  0.00     0.173 A 
ATOM     83  C   UNL     1       4.678  -0.038   5.173  1.00  0.00     0.173 A 
ATOM     84  F   UNL     1       7.803   1.592   4.318  1.00  0.00    -0.203 F 
ATOM     85  C   UNL     1       7.365  -0.122   5.860  1.00  0.00     0.198 A 
ATOM     86  C   UNL     1       5.140  -0.940   6.141  1.00  0.00     0.198 A 
ATOM     87  F   UNL     1       3.370  -0.055   4.876  1.00  0.00    -0.203 F 
ATOM     88  F   UNL     1       8.664  -0.147   6.191  1.00  0.00    -0.200 F 
ATOM     89  C   UNL     1       6.478  -0.967   6.500  1.00  0.00     0.200 A 
ATOM     90  F   UNL     1       4.274  -1.761   6.752  1.00  0.00    -0.200 F 
ATOM     91  F   UNL     1       6.904  -1.790   7.469  1.00  0.00    -0.200 F 
ENDBRANCH  57  81
BRANCH  69  92
ATOM     92  C   UNL     1       5.592   6.021   0.774  1.00  0.00     0.064 A 
ATOM     93  C   UNL     1       5.016   5.066  -0.071  1.00  0.00     0.173 A 
ATOM     94  C   UNL     1       6.523   6.900   0.214  1.00  0.00     0.173 A 
ATOM     95  F   UNL     1       4.064   4.248   0.379  1.00  0.00    -0.203 F 
ATOM     96  C   UNL     1       5.377   4.972  -1.415  1.00  0.00     0.198 A 
ATOM     97  C   UNL     1       6.856   6.835  -1.135  1.00  0.00     0.198 A 
ATOM     98  F   UNL     1       7.083   7.854   0.975  1.00  0.00    -0.203 F 
ATOM     99  F   UNL     1       4.821   4.035  -2.198  1.00  0.00    -0.200 F 
ATOM    100  C   UNL     1       6.290   5.865  -1.948  1.00  0.00     0.200 A 
ATOM    101  F   UNL     1       7.707   7.730  -1.653  1.00  0.00    -0.200 F 
ATOM    102  F   UNL     1       6.607   5.809  -3.249  1.00  0.00    -0.200 F 
ENDBRANCH  69  92
ENDBRANCH  43  44
ENDBRANCH  36  38
ENDBRANCH  35  36
ENDBRANCH  34  35
ENDBRANCH  33  34
ENDBRANCH  32  33
ENDBRANCH  31  32
ENDBRANCH   1  31
TORSDOF 20
