REMARK SMILES Cn1c(=O)c(=O)n(C)c2cc(S(=O)(=O)N3CCC[C@H]3C(=O)OCCOCCOCCOC(=O)c3ccc(-c4c5nc(c(-c6c(F)c(F)c(F)c(F)c6F)c6ccc([nH]6)c(-c6c(F)c(F)c(F)c(F)c6F)c6nc(c(-c7c(F)c(F)c(F)c(F)c7F)c7ccc4[nH]7)C=C6)C=C5)cc3)ccc21
REMARK SMILES IDX 26 1 25 2 24 3 23 4 22 5 20 6 21 7 19 8 15 9 16 10 17 11
REMARK SMILES IDX 18 12 12 13 13 14 14 15 11 16 1 17 2 18 3 19 99 20 4 21 5 22
REMARK SMILES IDX 9 23 98 24 6 25 7 26 10 27 97 28 8 29 27 30 28 31 29 32
REMARK SMILES IDX 30 33 31 34 32 35 33 36 34 37 35 38 96 39 36 40 95 41 37 42
REMARK SMILES IDX 38 43 39 44 89 45 40 46 94 47 88 48 90 49 41 50 93 51 87 52
REMARK SMILES IDX 86 53 42 55 74 56 54 57 73 58 55 59 58 60 72 61 91 62 56 63
REMARK SMILES IDX 57 64 71 66 92 67 59 68 43 69 44 70 52 71 45 72 46 73 50 74
REMARK SMILES IDX 53 75 47 76 48 77 51 78 49 79 75 80 76 81 84 82 77 83 78 84
REMARK SMILES IDX 82 85 85 86 79 87 80 88 83 89 81 90 60 91 61 92 69 93 62 94
REMARK SMILES IDX 63 95 67 96 70 97 64 98 65 99 68 100 66 101
REMARK H PARENT 90 54 58 65
REMARK Flexibility Score: inf
ROOT
ATOM      1  C   UNL     1      -4.438   6.594  -2.467  1.00  0.00     0.188 C 
ENDROOT
BRANCH   1   2
ATOM      2  O   UNL     1      -5.600   7.293  -2.834  1.00  0.00    -0.376 OA
BRANCH   2   3
ATOM      3  C   UNL     1      -6.082   7.256  -4.168  1.00  0.00     0.202 C 
BRANCH   3   4
ATOM      4  C   UNL     1      -5.523   6.373  -5.305  1.00  0.00     0.261 C 
BRANCH   4   5
ATOM      5  O   UNL     1      -4.545   5.400  -4.935  1.00  0.00    -0.462 OA
BRANCH   5   6
ATOM      6  C   UNL     1      -3.300   5.511  -5.487  1.00  0.00     0.324 C 
ATOM      7  O   UNL     1      -2.965   6.356  -6.308  1.00  0.00    -0.250 OA
BRANCH   6   8
ATOM      8  C   UNL     1      -2.340   4.565  -4.777  1.00  0.00     0.183 C 
ATOM      9  N   UNL     1      -1.460   3.812  -5.681  1.00  0.00    -0.184 NA
ATOM     10  C   UNL     1      -0.119   4.397  -5.677  1.00  0.00     0.103 C 
ATOM     11  C   UNL     1       0.029   4.970  -4.280  1.00  0.00     0.019 C 
ATOM     12  C   UNL     1      -1.383   5.378  -3.881  1.00  0.00     0.034 C 
BRANCH   9  13
ATOM     13  S   UNL     1      -1.731   2.176  -5.922  1.00  0.00     0.243 S 
ATOM     14  O   UNL     1      -0.861   1.760  -7.004  1.00  0.00    -0.207 OA
ATOM     15  O   UNL     1      -3.159   1.972  -5.976  1.00  0.00    -0.207 OA
BRANCH  13  16
ATOM     16  C   UNL     1      -1.163   1.294  -4.470  1.00  0.00     0.084 A 
ATOM     17  C   UNL     1       0.884  -0.279   0.025  1.00  0.00     0.154 C 
ATOM     18  N   UNL     1       0.478  -0.906  -1.222  1.00  0.00    -0.305 N 
ATOM     19  C   UNL     1       0.839  -2.248  -1.357  1.00  0.00     0.316 A 
ATOM     20  C   UNL     1      -0.118  -0.187  -2.293  1.00  0.00     0.068 A 
ATOM     21  O   UNL     1       1.438  -2.873  -0.484  1.00  0.00    -0.263 OA
ATOM     22  C   UNL     1       0.471  -2.966  -2.658  1.00  0.00     0.316 A 
ATOM     23  C   UNL     1      -0.321  -0.810  -3.541  1.00  0.00     0.069 A 
ATOM     24  C   UNL     1      -0.521   1.148  -2.146  1.00  0.00     0.030 A 
ATOM     25  O   UNL     1       0.658  -4.177  -2.732  1.00  0.00    -0.263 OA
ATOM     26  N   UNL     1      -0.048  -2.197  -3.697  1.00  0.00    -0.305 N 
ATOM     27  C   UNL     1      -0.812  -0.051  -4.625  1.00  0.00     0.050 A 
ATOM     28  C   UNL     1      -1.063   1.870  -3.214  1.00  0.00     0.024 A 
ATOM     29  C   UNL     1      -0.378  -2.876  -4.941  1.00  0.00     0.154 C 
ENDBRANCH  13  16
ENDBRANCH   9  13
ENDBRANCH   6   8
ENDBRANCH   5   6
ENDBRANCH   4   5
ENDBRANCH   3   4
ENDBRANCH   2   3
ENDBRANCH   1   2
BRANCH   1  30
ATOM     30  C   UNL     1      -4.626   5.122  -2.041  1.00  0.00     0.188 C 
BRANCH  30  31
ATOM     31  O   UNL     1      -5.892   4.503  -2.124  1.00  0.00    -0.376 OA
BRANCH  31  32
ATOM     32  C   UNL     1      -7.004   5.132  -1.505  1.00  0.00     0.202 C 
BRANCH  32  33
ATOM     33  C   UNL     1      -6.906   5.672  -0.067  1.00  0.00     0.261 C 
BRANCH  33  34
ATOM     34  O   UNL     1      -5.738   6.455   0.236  1.00  0.00    -0.460 OA
BRANCH  34  35
ATOM     35  C   UNL     1      -4.838   5.880   1.077  1.00  0.00     0.338 C 
ATOM     36  O   UNL     1      -4.911   4.783   1.602  1.00  0.00    -0.246 OA
BRANCH  35  37
ATOM     37  C   UNL     1      -3.604   6.696   1.093  1.00  0.00     0.060 A 
ATOM     38  C   UNL     1      -3.631   8.024   1.514  1.00  0.00     0.016 A 
ATOM     39  C   UNL     1      -2.397   6.107   0.683  1.00  0.00     0.016 A 
ATOM     40  C   UNL     1      -2.440   8.756   1.548  1.00  0.00     0.010 A 
ATOM     41  C   UNL     1      -1.212   6.846   0.697  1.00  0.00     0.010 A 
ATOM     42  C   UNL     1      -1.221   8.170   1.154  1.00  0.00    -0.014 A 
BRANCH  42  43
ATOM     43  C   UNL     1       0.054   8.889   1.402  1.00  0.00     0.031 A 
ATOM     44  C   UNL     1       0.809   9.585   0.313  1.00  0.00     0.074 A 
ATOM     45  C   UNL     1       0.530   8.906   2.661  1.00  0.00     0.049 A 
ATOM     46  N   UNL     1       1.865  10.354   0.408  1.00  0.00    -0.248 NA
ATOM     47  C   UNL     1       0.330   9.384  -1.060  1.00  0.00     0.031 C 
ATOM     48  C   UNL     1      -0.095   8.226   3.796  1.00  0.00     0.029 A 
ATOM     49  N   UNL     1       1.627   9.526   3.202  1.00  0.00    -0.354 N 
ATOM     50  C   UNL     1       2.158  10.762  -0.884  1.00  0.00     0.074 A 
ATOM     51  C   UNL     1       1.207  10.099  -1.755  1.00  0.00     0.031 C 
ATOM     52  C   UNL     1       0.602   8.502   4.907  1.00  0.00     0.029 A 
ATOM     53  C   UNL     1       1.734   9.358   4.560  1.00  0.00     0.049 A 
ATOM     54  H   UNL     1       2.275  10.042   2.668  1.00  0.00     0.167 HD
ATOM     55  C   UNL     1       3.117  11.629  -1.297  1.00  0.00     0.037 A 
ATOM     56  C   UNL     1       2.631   9.851   5.435  1.00  0.00     0.037 A 
ATOM     57  C   UNL     1       4.077  12.262  -0.424  1.00  0.00     0.049 A 
ATOM     58  C   UNL     1       3.713  10.770   4.947  1.00  0.00     0.074 A 
ATOM     59  C   UNL     1       5.060  13.183  -0.748  1.00  0.00     0.029 A 
ATOM     60  N   UNL     1       4.190  12.029   0.940  1.00  0.00    -0.354 N 
ATOM     61  N   UNL     1       3.928  11.222   3.736  1.00  0.00    -0.248 NA
ATOM     62  C   UNL     1       4.672  11.255   5.949  1.00  0.00     0.031 C 
ATOM     63  C   UNL     1       5.805  13.457   0.404  1.00  0.00     0.029 A 
ATOM     64  C   UNL     1       5.249  12.759   1.462  1.00  0.00     0.049 A 
ATOM     65  H   UNL     1       3.604  11.433   1.460  1.00  0.00     0.167 HD
ATOM     66  C   UNL     1       5.032  12.058   3.831  1.00  0.00     0.074 A 
ATOM     67  C   UNL     1       5.432  12.065   5.223  1.00  0.00     0.031 C 
ATOM     68  C   UNL     1       5.654  12.755   2.848  1.00  0.00     0.037 A 
BRANCH  55  69
ATOM     69  C   UNL     1       3.176  11.958  -2.764  1.00  0.00     0.064 A 
ATOM     70  C   UNL     1       2.166  12.709  -3.385  1.00  0.00     0.173 A 
ATOM     71  C   UNL     1       4.282  11.582  -3.542  1.00  0.00     0.173 A 
ATOM     72  F   UNL     1       1.086  13.093  -2.688  1.00  0.00    -0.203 F 
ATOM     73  C   UNL     1       2.247  13.046  -4.734  1.00  0.00     0.198 A 
ATOM     74  C   UNL     1       4.375  11.948  -4.883  1.00  0.00     0.198 A 
ATOM     75  F   UNL     1       5.283  10.873  -2.998  1.00  0.00    -0.203 F 
ATOM     76  F   UNL     1       1.247  13.725  -5.314  1.00  0.00    -0.200 F 
ATOM     77  C   UNL     1       3.354  12.672  -5.480  1.00  0.00     0.200 A 
ATOM     78  F   UNL     1       5.454  11.601  -5.598  1.00  0.00    -0.200 F 
ATOM     79  F   UNL     1       3.435  13.006  -6.775  1.00  0.00    -0.200 F 
ENDBRANCH  55  69
BRANCH  56  80
ATOM     80  C   UNL     1       2.483   9.523   6.876  1.00  0.00     0.064 A 
ATOM     81  C   UNL     1       2.054  10.493   7.791  1.00  0.00     0.173 A 
ATOM     82  C   UNL     1       2.699   8.221   7.352  1.00  0.00     0.173 A 
ATOM     83  F   UNL     1       1.850  11.754   7.383  1.00  0.00    -0.203 F 
ATOM     84  C   UNL     1       1.842  10.173   9.130  1.00  0.00     0.198 A 
ATOM     85  C   UNL     1       2.460   7.896   8.685  1.00  0.00     0.198 A 
ATOM     86  F   UNL     1       3.101   7.257   6.512  1.00  0.00    -0.203 F 
ATOM     87  F   UNL     1       1.448  11.123   9.989  1.00  0.00    -0.200 F 
ATOM     88  C   UNL     1       2.034   8.872   9.573  1.00  0.00     0.200 A 
ATOM     89  F   UNL     1       2.625   6.634   9.104  1.00  0.00    -0.200 F 
ATOM     90  F   UNL     1       1.804   8.559  10.855  1.00  0.00    -0.200 F 
ENDBRANCH  56  80
BRANCH  68  91
ATOM     91  C   UNL     1       6.840  13.595   3.233  1.00  0.00     0.064 A 
ATOM     92  C   UNL     1       8.063  13.015   3.601  1.00  0.00     0.173 A 
ATOM     93  C   UNL     1       6.775  14.996   3.168  1.00  0.00     0.173 A 
ATOM     94  F   UNL     1       8.177  11.681   3.694  1.00  0.00    -0.203 F 
ATOM     95  C   UNL     1       9.170  13.804   3.905  1.00  0.00     0.198 A 
ATOM     96  C   UNL     1       7.893  15.782   3.441  1.00  0.00     0.198 A 
ATOM     97  F   UNL     1       5.633  15.605   2.817  1.00  0.00    -0.203 F 
ATOM     98  F   UNL     1      10.317  13.227   4.291  1.00  0.00    -0.200 F 
ATOM     99  C   UNL     1       9.088  15.186   3.813  1.00  0.00     0.200 A 
ATOM    100  F   UNL     1       7.815  17.116   3.336  1.00  0.00    -0.200 F 
ATOM    101  F   UNL     1      10.159  15.943   4.087  1.00  0.00    -0.200 F 
ENDBRANCH  68  91
ENDBRANCH  42  43
ENDBRANCH  35  37
ENDBRANCH  34  35
ENDBRANCH  33  34
ENDBRANCH  32  33
ENDBRANCH  31  32
ENDBRANCH  30  31
ENDBRANCH   1  30
TORSDOF 19
