REMARK SMILES CCC[NH2+][C@]1(C(=O)OCCOCCOCCOC(=O)c2ccc(-c3c4nc(c(-c5c(F)c(F)c(F)c(F)c5F)c5ccc([nH]5)c(-c5c(F)c(F)c(F)c(F)c5F)c5nc(c(-c6c(F)c(F)c(F)c(F)c6F)c6ccc3[nH]6)C=C5)C=C4)cc2)CCC[C@H](OC(C)(C)C)C1
REMARK SMILES IDX 12 1 11 2 10 3 9 4 8 5 6 6 7 7 5 8 83 9 92 10 84 11 86 12
REMARK SMILES IDX 85 13 4 14 3 17 2 18 1 19 87 20 88 21 89 22 90 23 91 24
REMARK SMILES IDX 13 25 14 26 15 27 16 28 17 29 18 30 19 31 20 32 21 33 82 34
REMARK SMILES IDX 22 35 81 36 23 37 24 38 25 39 75 40 26 41 80 42 74 43 76 44
REMARK SMILES IDX 27 45 79 46 73 47 72 48 28 50 60 51 40 52 59 53 41 54 44 55
REMARK SMILES IDX 58 56 77 57 42 58 43 59 57 61 78 62 45 63 29 64 30 65 38 66
REMARK SMILES IDX 31 67 32 68 36 69 39 70 33 71 34 72 37 73 35 74 61 75 62 76
REMARK SMILES IDX 70 77 63 78 64 79 68 80 71 81 65 82 66 83 69 84 67 85 46 86
REMARK SMILES IDX 47 87 55 88 48 89 49 90 53 91 56 92 50 93 51 94 54 95 52 96
REMARK H PARENT 4 15 4 16 76 49 44 60
REMARK Flexibility Score: inf
ROOT
ATOM      1  C   UNL     1      -0.979  -1.775  -1.578  1.00  0.00     0.188 C 
ENDROOT
BRANCH   1   2
ATOM      2  O   UNL     1      -1.294  -0.600  -0.840  1.00  0.00    -0.376 OA
BRANCH   2   3
ATOM      3  C   UNL     1      -0.280   0.108  -0.139  1.00  0.00     0.202 C 
BRANCH   3   4
ATOM      4  C   UNL     1       0.310  -0.541   1.127  1.00  0.00     0.261 C 
BRANCH   4   5
ATOM      5  O   UNL     1       1.056  -1.772   0.984  1.00  0.00    -0.459 OA
BRANCH   5   6
ATOM      6  C   UNL     1       0.360  -2.920   1.215  1.00  0.00     0.368 C 
ATOM      7  O   UNL     1      -0.859  -2.930   1.397  1.00  0.00    -0.245 OA
BRANCH   6   8
ATOM      8  C   UNL     1       1.203  -4.247   1.282  1.00  0.00     0.196 C 
ATOM      9  C   UNL     1       1.016  -4.626   2.792  1.00  0.00     0.081 C 
ATOM     10  C   UNL     1       0.531  -5.329   0.373  1.00  0.00     0.113 C 
ATOM     11  C   UNL     1       1.136  -6.103   3.143  1.00  0.00     0.010 C 
ATOM     12  C   UNL     1       0.847  -6.795   0.765  1.00  0.00     0.125 C 
ATOM     13  C   UNL     1       0.330  -6.974   2.186  1.00  0.00     0.032 C 
BRANCH   8  14
ATOM     14  N   UNL     1       2.676  -4.078   1.003  1.00  0.00    -0.332 N 
ATOM     15  H   UNL     1       2.949  -3.150   1.326  1.00  0.00     0.347 HD
ATOM     16  H   UNL     1       3.134  -4.848   1.492  1.00  0.00     0.347 HD
BRANCH  14  17
ATOM     17  C   UNL     1       3.097  -4.204  -0.406  1.00  0.00     0.261 C 
BRANCH  17  18
ATOM     18  C   UNL     1       4.582  -3.938  -0.675  1.00  0.00     0.058 C 
ATOM     19  C   UNL     1       5.529  -4.897   0.019  1.00  0.00     0.010 C 
ENDBRANCH  17  18
ENDBRANCH  14  17
ENDBRANCH   8  14
BRANCH  12  20
ATOM     20  O   UNL     1       2.251  -7.066   0.644  1.00  0.00    -0.372 OA
BRANCH  20  21
ATOM     21  C   UNL     1       2.770  -8.404   0.800  1.00  0.00     0.060 C 
ATOM     22  C   UNL     1       3.014  -8.780   2.271  1.00  0.00     0.042 C 
ATOM     23  C   UNL     1       1.934  -9.471   0.091  1.00  0.00     0.042 C 
ATOM     24  C   UNL     1       4.164  -8.385   0.147  1.00  0.00     0.042 C 
ENDBRANCH  20  21
ENDBRANCH  12  20
ENDBRANCH   6   8
ENDBRANCH   5   6
ENDBRANCH   4   5
ENDBRANCH   3   4
ENDBRANCH   2   3
ENDBRANCH   1   2
BRANCH   1  25
ATOM     25  C   UNL     1       0.475  -2.123  -1.881  1.00  0.00     0.188 C 
BRANCH  25  26
ATOM     26  O   UNL     1       1.316  -1.003  -2.050  1.00  0.00    -0.376 OA
BRANCH  26  27
ATOM     27  C   UNL     1       2.084  -0.940  -3.236  1.00  0.00     0.202 C 
BRANCH  27  28
ATOM     28  C   UNL     1       1.236  -0.671  -4.485  1.00  0.00     0.261 C 
BRANCH  28  29
ATOM     29  O   UNL     1       0.210  -1.651  -4.747  1.00  0.00    -0.460 OA
BRANCH  29  30
ATOM     30  C   UNL     1       0.620  -2.907  -5.042  1.00  0.00     0.338 C 
ATOM     31  O   UNL     1       1.771  -3.288  -5.186  1.00  0.00    -0.246 OA
BRANCH  30  32
ATOM     32  C   UNL     1      -0.547  -3.812  -4.908  1.00  0.00     0.060 A 
ATOM     33  C   UNL     1      -0.453  -4.923  -4.055  1.00  0.00     0.016 A 
ATOM     34  C   UNL     1      -1.737  -3.553  -5.590  1.00  0.00     0.016 A 
ATOM     35  C   UNL     1      -1.539  -5.790  -3.904  1.00  0.00     0.010 A 
ATOM     36  C   UNL     1      -2.816  -4.434  -5.455  1.00  0.00     0.010 A 
ATOM     37  C   UNL     1      -2.715  -5.572  -4.632  1.00  0.00    -0.014 A 
BRANCH  37  38
ATOM     38  C   UNL     1      -3.776  -6.613  -4.679  1.00  0.00     0.031 A 
ATOM     39  C   UNL     1      -3.836  -7.521  -5.878  1.00  0.00     0.074 A 
ATOM     40  C   UNL     1      -4.673  -6.758  -3.687  1.00  0.00     0.049 A 
ATOM     41  N   UNL     1      -4.724  -8.429  -6.195  1.00  0.00    -0.248 NA
ATOM     42  C   UNL     1      -2.743  -7.383  -6.854  1.00  0.00     0.031 C 
ATOM     43  C   UNL     1      -4.701  -5.982  -2.450  1.00  0.00     0.029 A 
ATOM     44  N   UNL     1      -5.750  -7.606  -3.577  1.00  0.00    -0.354 N 
ATOM     45  C   UNL     1      -4.307  -8.957  -7.410  1.00  0.00     0.074 A 
ATOM     46  C   UNL     1      -3.098  -8.256  -7.785  1.00  0.00     0.031 C 
ATOM     47  C   UNL     1      -5.756  -6.375  -1.713  1.00  0.00     0.029 A 
ATOM     48  C   UNL     1      -6.502  -7.399  -2.445  1.00  0.00     0.049 A 
ATOM     49  H   UNL     1      -5.963  -8.296  -4.247  1.00  0.00     0.167 HD
ATOM     50  C   UNL     1      -4.878  -9.940  -8.146  1.00  0.00     0.037 A 
ATOM     51  C   UNL     1      -7.673  -7.947  -2.064  1.00  0.00     0.037 A 
ATOM     52  C   UNL     1      -6.077 -10.643  -7.773  1.00  0.00     0.049 A 
ATOM     53  C   UNL     1      -8.333  -8.983  -2.945  1.00  0.00     0.074 A 
ATOM     54  C   UNL     1      -6.718 -11.669  -8.445  1.00  0.00     0.029 A 
ATOM     55  N   UNL     1      -6.823 -10.386  -6.633  1.00  0.00    -0.354 N 
ATOM     56  N   UNL     1      -7.922  -9.494  -4.080  1.00  0.00    -0.248 NA
ATOM     57  C   UNL     1      -9.625  -9.519  -2.487  1.00  0.00     0.031 C 
ATOM     58  C   UNL     1      -7.885 -11.990  -7.746  1.00  0.00     0.029 A 
ATOM     59  C   UNL     1      -7.934 -11.214  -6.600  1.00  0.00     0.049 A 
ATOM     60  H   UNL     1      -6.596  -9.716  -5.948  1.00  0.00     0.167 HD
ATOM     61  C   UNL     1      -8.881 -10.430  -4.451  1.00  0.00     0.074 A 
ATOM     62  C   UNL     1      -9.888 -10.430  -3.413  1.00  0.00     0.031 C 
ATOM     63  C   UNL     1      -8.924 -11.219  -5.553  1.00  0.00     0.037 A 
BRANCH  50  64
ATOM     64  C   UNL     1      -4.232 -10.300  -9.452  1.00  0.00     0.064 A 
ATOM     65  C   UNL     1      -3.008 -10.983  -9.510  1.00  0.00     0.173 A 
ATOM     66  C   UNL     1      -4.880 -10.009 -10.663  1.00  0.00     0.173 A 
ATOM     67  F   UNL     1      -2.342 -11.272  -8.383  1.00  0.00    -0.203 F 
ATOM     68  C   UNL     1      -2.448 -11.345 -10.733  1.00  0.00     0.198 A 
ATOM     69  C   UNL     1      -4.333 -10.401 -11.881  1.00  0.00     0.198 A 
ATOM     70  F   UNL     1      -6.054  -9.361 -10.663  1.00  0.00    -0.203 F 
ATOM     71  F   UNL     1      -1.259 -11.961 -10.767  1.00  0.00    -0.200 F 
ATOM     72  C   UNL     1      -3.116 -11.063 -11.916  1.00  0.00     0.200 A 
ATOM     73  F   UNL     1      -4.987 -10.142 -13.022  1.00  0.00    -0.200 F 
ATOM     74  F   UNL     1      -2.583 -11.428 -13.091  1.00  0.00    -0.200 F 
ENDBRANCH  50  64
BRANCH  51  75
ATOM     75  C   UNL     1      -8.335  -7.510  -0.803  1.00  0.00     0.064 A 
ATOM     76  C   UNL     1      -8.518  -8.398   0.268  1.00  0.00     0.173 A 
ATOM     77  C   UNL     1      -8.854  -6.214  -0.666  1.00  0.00     0.173 A 
ATOM     78  F   UNL     1      -8.070  -9.659   0.176  1.00  0.00    -0.203 F 
ATOM     79  C   UNL     1      -9.219  -8.016   1.410  1.00  0.00     0.198 A 
ATOM     80  C   UNL     1      -9.524  -5.822   0.491  1.00  0.00     0.198 A 
ATOM     81  F   UNL     1      -8.717  -5.327  -1.663  1.00  0.00    -0.203 F 
ATOM     82  F   UNL     1      -9.440  -8.906   2.387  1.00  0.00    -0.200 F 
ATOM     83  C   UNL     1      -9.717  -6.727   1.523  1.00  0.00     0.200 A 
ATOM     84  F   UNL     1      -9.996  -4.572   0.599  1.00  0.00    -0.200 F 
ATOM     85  F   UNL     1     -10.398  -6.362   2.619  1.00  0.00    -0.200 F 
ENDBRANCH  51  75
BRANCH  63  86
ATOM     86  C   UNL     1     -10.066 -12.189  -5.675  1.00  0.00     0.064 A 
ATOM     87  C   UNL     1     -11.381 -11.763  -5.918  1.00  0.00     0.173 A 
ATOM     88  C   UNL     1      -9.833 -13.572  -5.592  1.00  0.00     0.173 A 
ATOM     89  F   UNL     1     -11.662 -10.454  -5.996  1.00  0.00    -0.203 F 
ATOM     90  C   UNL     1     -12.421 -12.681  -6.043  1.00  0.00     0.198 A 
ATOM     91  C   UNL     1     -10.869 -14.488  -5.753  1.00  0.00     0.198 A 
ATOM     92  F   UNL     1      -8.594 -14.037  -5.371  1.00  0.00    -0.203 F 
ATOM     93  F   UNL     1     -13.677 -12.248  -6.222  1.00  0.00    -0.200 F 
ATOM     94  C   UNL     1     -12.163 -14.042  -5.969  1.00  0.00     0.200 A 
ATOM     95  F   UNL     1     -10.613 -15.802  -5.700  1.00  0.00    -0.200 F 
ATOM     96  F   UNL     1     -13.164 -14.924  -6.099  1.00  0.00    -0.200 F 
ENDBRANCH  63  86
ENDBRANCH  37  38
ENDBRANCH  30  32
ENDBRANCH  29  30
ENDBRANCH  28  29
ENDBRANCH  27  28
ENDBRANCH  26  27
ENDBRANCH  25  26
ENDBRANCH   1  25
TORSDOF 22
