REMARK SMILES COc1cc(NC(=O)[C@@H]2CC=CC[C@H]2C(=O)OCCOCCOCCOC(=O)c2ccc(-c3c4nc(c(-c5c(F)c(F)c(F)c(F)c5F)c5ccc([nH]5)c(-c5c(F)c(F)c(F)c(F)c5F)c5nc(c(-c6c(F)c(F)c(F)c(F)c6F)c6ccc3[nH]6)C=C5)C=C4)cc2)c(OC)cc1Cl
REMARK SMILES IDX 21 1 20 2 19 3 18 4 17 5 15 6 16 7 14 8 9 9 10 10 11 11
REMARK SMILES IDX 13 12 12 13 7 14 6 15 8 17 5 18 3 19 4 20 96 21 95 22 97 23
REMARK SMILES IDX 92 24 2 25 1 26 93 27 94 28 22 29 23 30 24 31 25 32 26 33
REMARK SMILES IDX 27 34 28 35 29 36 30 37 91 38 31 39 90 40 32 41 33 42 34 43
REMARK SMILES IDX 84 44 35 45 89 46 83 47 85 48 36 49 88 50 82 51 81 52 37 54
REMARK SMILES IDX 69 55 49 56 68 57 50 58 53 59 67 60 86 61 51 62 52 63 66 65
REMARK SMILES IDX 87 66 54 67 38 68 39 69 47 70 40 71 41 72 45 73 48 74 42 75
REMARK SMILES IDX 43 76 46 77 44 78 70 79 71 80 79 81 72 82 73 83 77 84 80 85
REMARK SMILES IDX 74 86 75 87 78 88 76 89 55 90 56 91 64 92 57 93 58 94 62 95
REMARK SMILES IDX 65 96 59 97 60 98 63 99 61 100
REMARK H PARENT 6 16 85 53 53 64
REMARK Flexibility Score: inf
ROOT
ATOM      1  C   UNL     1      -0.221  -1.962   4.166  1.00  0.00     0.188 C 
ENDROOT
BRANCH   1   2
ATOM      2  O   UNL     1       0.074  -2.848   5.243  1.00  0.00    -0.376 OA
BRANCH   2   3
ATOM      3  C   UNL     1       0.524  -4.163   4.952  1.00  0.00     0.202 C 
BRANCH   3   4
ATOM      4  C   UNL     1      -0.591  -5.190   4.726  1.00  0.00     0.261 C 
BRANCH   4   5
ATOM      5  O   UNL     1      -1.325  -5.054   3.486  1.00  0.00    -0.463 OA
BRANCH   5   6
ATOM      6  C   UNL     1      -2.488  -4.358   3.553  1.00  0.00     0.310 C 
ATOM      7  O   UNL     1      -2.874  -3.751   4.547  1.00  0.00    -0.252 OA
BRANCH   6   8
ATOM      8  C   UNL     1      -3.395  -4.528   2.337  1.00  0.00     0.116 C 
ATOM      9  C   UNL     1      -2.740  -4.673   0.947  1.00  0.00     0.097 C 
ATOM     10  C   UNL     1      -3.578  -5.368  -0.151  1.00  0.00     0.041 C 
ATOM     11  C   UNL     1      -4.787  -6.116   0.314  1.00  0.00    -0.030 C 
ATOM     12  C   UNL     1      -4.266  -5.740   2.713  1.00  0.00     0.043 C 
ATOM     13  C   UNL     1      -5.102  -6.280   1.602  1.00  0.00    -0.030 C 
BRANCH   9  14
ATOM     14  C   UNL     1      -2.164  -3.392   0.342  1.00  0.00     0.228 C 
ATOM     15  N   UNL     1      -2.825  -2.272  -0.045  1.00  0.00    -0.323 N 
ATOM     16  H   UNL     1      -2.188  -1.586  -0.351  1.00  0.00     0.170 HD
ATOM     17  O   UNL     1      -0.945  -3.373   0.115  1.00  0.00    -0.274 OA
BRANCH  15  18
ATOM     18  C   UNL     1      -4.149  -1.794  -0.143  1.00  0.00     0.087 A 
ATOM     19  C   UNL     1      -6.557  -1.996  -0.028  1.00  0.00     0.139 A 
ATOM     20  C   UNL     1      -5.279  -2.508   0.221  1.00  0.00     0.078 A 
ATOM     21  C   UNL     1      -6.726  -0.720  -0.559  1.00  0.00     0.086 A 
ATOM     22  C   UNL     1      -5.606   0.033  -0.897  1.00  0.00     0.073 A 
ATOM     23  Cl  UNL     1      -8.292  -0.057  -0.842  1.00  0.00    -0.080 Cl
ATOM     24  C   UNL     1      -4.324  -0.499  -0.706  1.00  0.00     0.144 A 
BRANCH  19  25
ATOM     25  O   UNL     1      -7.624  -2.803   0.269  1.00  0.00    -0.495 OA
ATOM     26  C   UNL     1      -7.929  -3.630  -0.859  1.00  0.00     0.278 C 
ENDBRANCH  19  25
BRANCH  24  27
ATOM     27  O   UNL     1      -3.168   0.162  -1.059  1.00  0.00    -0.495 OA
ATOM     28  C   UNL     1      -3.286   1.536  -1.427  1.00  0.00     0.278 C 
ENDBRANCH  24  27
ENDBRANCH  15  18
ENDBRANCH   9  14
ENDBRANCH   6   8
ENDBRANCH   5   6
ENDBRANCH   4   5
ENDBRANCH   3   4
ENDBRANCH   2   3
ENDBRANCH   1   2
BRANCH   1  29
ATOM     29  C   UNL     1       0.177  -2.358   2.747  1.00  0.00     0.188 C 
BRANCH  29  30
ATOM     30  O   UNL     1       1.589  -2.504   2.630  1.00  0.00    -0.376 OA
BRANCH  30  31
ATOM     31  C   UNL     1       2.075  -2.143   1.338  1.00  0.00     0.202 C 
BRANCH  31  32
ATOM     32  C   UNL     1       2.692  -0.748   1.444  1.00  0.00     0.261 C 
BRANCH  32  33
ATOM     33  O   UNL     1       1.738   0.244   1.879  1.00  0.00    -0.460 OA
BRANCH  33  34
ATOM     34  C   UNL     1       0.791   0.566   0.972  1.00  0.00     0.338 C 
ATOM     35  O   UNL     1       0.709   0.184  -0.181  1.00  0.00    -0.246 OA
BRANCH  34  36
ATOM     36  C   UNL     1      -0.269   1.342   1.640  1.00  0.00     0.060 A 
ATOM     37  C   UNL     1      -1.572   0.841   1.594  1.00  0.00     0.016 A 
ATOM     38  C   UNL     1      -0.013   2.580   2.224  1.00  0.00     0.016 A 
ATOM     39  C   UNL     1      -2.640   1.606   2.052  1.00  0.00     0.010 A 
ATOM     40  C   UNL     1      -1.085   3.348   2.692  1.00  0.00     0.010 A 
ATOM     41  C   UNL     1      -2.408   2.886   2.562  1.00  0.00    -0.014 A 
BRANCH  41  42
ATOM     42  C   UNL     1      -3.554   3.794   2.819  1.00  0.00     0.031 A 
ATOM     43  C   UNL     1      -3.808   4.935   1.871  1.00  0.00     0.074 A 
ATOM     44  C   UNL     1      -4.385   3.582   3.854  1.00  0.00     0.049 A 
ATOM     45  N   UNL     1      -4.685   5.903   1.951  1.00  0.00    -0.248 NA
ATOM     46  C   UNL     1      -2.969   4.986   0.661  1.00  0.00     0.031 C 
ATOM     47  C   UNL     1      -4.299   2.467   4.795  1.00  0.00     0.029 A 
ATOM     48  N   UNL     1      -5.465   4.309   4.292  1.00  0.00    -0.354 N 
ATOM     49  C   UNL     1      -4.487   6.688   0.823  1.00  0.00     0.074 A 
ATOM     50  C   UNL     1      -3.406   6.089   0.071  1.00  0.00     0.031 C 
ATOM     51  C   UNL     1      -5.274   2.594   5.712  1.00  0.00     0.029 A 
ATOM     52  C   UNL     1      -6.016   3.825   5.453  1.00  0.00     0.049 A 
ATOM     53  H   UNL     1      -5.810   5.101   3.820  1.00  0.00     0.167 HD
ATOM     54  C   UNL     1      -5.148   7.809   0.451  1.00  0.00     0.037 A 
ATOM     55  C   UNL     1      -6.977   4.344   6.242  1.00  0.00     0.037 A 
ATOM     56  C   UNL     1      -6.229   8.399   1.192  1.00  0.00     0.049 A 
ATOM     57  C   UNL     1      -7.624   5.649   5.855  1.00  0.00     0.074 A 
ATOM     58  C   UNL     1      -6.968   9.530   0.887  1.00  0.00     0.029 A 
ATOM     59  N   UNL     1      -6.724   7.908   2.390  1.00  0.00    -0.354 N 
ATOM     60  N   UNL     1      -7.429   6.389   4.791  1.00  0.00    -0.248 NA
ATOM     61  C   UNL     1      -8.617   6.199   6.790  1.00  0.00     0.031 C 
ATOM     62  C   UNL     1      -7.877   9.751   1.927  1.00  0.00     0.029 A 
ATOM     63  C   UNL     1      -7.736   8.732   2.854  1.00  0.00     0.049 A 
ATOM     64  H   UNL     1      -6.403   7.095   2.843  1.00  0.00     0.167 HD
ATOM     65  C   UNL     1      -8.289   7.472   4.915  1.00  0.00     0.074 A 
ATOM     66  C   UNL     1      -9.018   7.288   6.152  1.00  0.00     0.031 C 
ATOM     67  C   UNL     1      -8.459   8.528   4.082  1.00  0.00     0.037 A 
BRANCH  54  68
ATOM     68  C   UNL     1      -4.699   8.499  -0.801  1.00  0.00     0.064 A 
ATOM     69  C   UNL     1      -5.019   8.003  -2.072  1.00  0.00     0.173 A 
ATOM     70  C   UNL     1      -3.990   9.707  -0.722  1.00  0.00     0.173 A 
ATOM     71  F   UNL     1      -5.677   6.841  -2.197  1.00  0.00    -0.203 F 
ATOM     72  C   UNL     1      -4.639   8.691  -3.222  1.00  0.00     0.198 A 
ATOM     73  C   UNL     1      -3.630  10.402  -1.873  1.00  0.00     0.198 A 
ATOM     74  F   UNL     1      -3.659  10.220   0.473  1.00  0.00    -0.203 F 
ATOM     75  F   UNL     1      -4.932   8.187  -4.429  1.00  0.00    -0.200 F 
ATOM     76  C   UNL     1      -3.953   9.893  -3.121  1.00  0.00     0.200 A 
ATOM     77  F   UNL     1      -2.973  11.566  -1.773  1.00  0.00    -0.200 F 
ATOM     78  F   UNL     1      -3.599  10.559  -4.229  1.00  0.00    -0.200 F 
ENDBRANCH  54  68
BRANCH  55  79
ATOM     79  C   UNL     1      -7.348   3.667   7.512  1.00  0.00     0.064 A 
ATOM     80  C   UNL     1      -8.622   3.114   7.696  1.00  0.00     0.173 A 
ATOM     81  C   UNL     1      -6.450   3.608   8.589  1.00  0.00     0.173 A 
ATOM     82  F   UNL     1      -9.528   3.177   6.709  1.00  0.00    -0.203 F 
ATOM     83  C   UNL     1      -8.992   2.548   8.915  1.00  0.00     0.198 A 
ATOM     84  C   UNL     1      -6.810   3.015   9.796  1.00  0.00     0.198 A 
ATOM     85  F   UNL     1      -5.222   4.134   8.469  1.00  0.00    -0.203 F 
ATOM     86  F   UNL     1     -10.236   2.081   9.084  1.00  0.00    -0.200 F 
ATOM     87  C   UNL     1      -8.084   2.495   9.962  1.00  0.00     0.200 A 
ATOM     88  F   UNL     1      -5.928   2.962  10.803  1.00  0.00    -0.200 F 
ATOM     89  F   UNL     1      -8.443   1.958  11.136  1.00  0.00    -0.200 F 
ENDBRANCH  55  79
BRANCH  67  90
ATOM     90  C   UNL     1      -9.493   9.546   4.460  1.00  0.00     0.064 A 
ATOM     91  C   UNL     1      -9.278  10.455   5.506  1.00  0.00     0.173 A 
ATOM     92  C   UNL     1     -10.694   9.640   3.741  1.00  0.00     0.173 A 
ATOM     93  F   UNL     1      -8.152  10.395   6.232  1.00  0.00    -0.203 F 
ATOM     94  C   UNL     1     -10.239  11.408   5.833  1.00  0.00     0.198 A 
ATOM     95  C   UNL     1     -11.640  10.612   4.053  1.00  0.00     0.198 A 
ATOM     96  F   UNL     1     -10.942   8.799   2.726  1.00  0.00    -0.203 F 
ATOM     97  F   UNL     1     -10.032  12.240   6.863  1.00  0.00    -0.200 F 
ATOM     98  C   UNL     1     -11.415  11.490   5.102  1.00  0.00     0.200 A 
ATOM     99  F   UNL     1     -12.770  10.698   3.337  1.00  0.00    -0.200 F 
ATOM    100  F   UNL     1     -12.336  12.413   5.413  1.00  0.00    -0.200 F 
ENDBRANCH  67  90
ENDBRANCH  41  42
ENDBRANCH  34  36
ENDBRANCH  33  34
ENDBRANCH  32  33
ENDBRANCH  31  32
ENDBRANCH  30  31
ENDBRANCH  29  30
ENDBRANCH   1  29
TORSDOF 21
