REMARK SMILES COc1ccc2cc([C@H](C)C(=O)OCCOCCOCCOC(=O)c3ccc(-c4c5nc(c(-c6c(F)c(F)c(F)c(F)c6F)c6ccc([nH]6)c(-c6c(F)c(F)c(F)c(F)c6F)c6nc(c(-c7c(F)c(F)c(F)c(F)c7F)c7ccc4[nH]7)C=C6)C=C5)cc3)ccc2c1
REMARK SMILES IDX 17 1 16 2 15 3 14 4 13 5 11 6 12 7 9 8 10 9 8 10 3 11 4 12
REMARK SMILES IDX 91 13 5 14 90 15 6 16 89 17 7 18 88 19 2 20 1 21 18 22 19 23
REMARK SMILES IDX 20 24 21 25 22 26 23 27 24 28 25 29 26 30 87 31 27 32 86 33
REMARK SMILES IDX 28 34 29 35 30 36 80 37 31 38 85 39 79 40 81 41 32 42 84 43
REMARK SMILES IDX 78 44 77 45 33 47 65 48 45 49 64 50 46 51 49 52 63 53 82 54
REMARK SMILES IDX 47 55 48 56 62 58 83 59 50 60 34 61 35 62 43 63 36 64 37 65
REMARK SMILES IDX 41 66 44 67 38 68 39 69 42 70 40 71 66 72 67 73 75 74 68 75
REMARK SMILES IDX 69 76 73 77 76 78 70 79 71 80 74 81 72 82 51 83 52 84 60 85
REMARK SMILES IDX 53 86 54 87 58 88 61 89 55 90 56 91 59 92 57 93
REMARK H PARENT 81 46 49 57
REMARK Flexibility Score: inf
ROOT
ATOM      1  C   UNL     1       1.665   7.796   6.678  1.00  0.00     0.188 C 
ENDROOT
BRANCH   1   2
ATOM      2  O   UNL     1       2.903   8.404   7.018  1.00  0.00    -0.376 OA
BRANCH   2   3
ATOM      3  C   UNL     1       4.108   7.651   6.969  1.00  0.00     0.202 C 
BRANCH   3   4
ATOM      4  C   UNL     1       4.221   6.331   7.754  1.00  0.00     0.261 C 
BRANCH   4   5
ATOM      5  O   UNL     1       3.265   5.297   7.435  1.00  0.00    -0.463 OA
BRANCH   5   6
ATOM      6  C   UNL     1       2.265   5.110   8.339  1.00  0.00     0.313 C 
ATOM      7  O   UNL     1       2.113   5.798   9.346  1.00  0.00    -0.252 OA
BRANCH   6   8
ATOM      8  C   UNL     1       1.365   3.891   8.054  1.00  0.00     0.126 C 
ATOM      9  C   UNL     1       1.003   3.525   6.613  1.00  0.00     0.025 C 
BRANCH   8  10
ATOM     10  C   UNL     1       1.957   2.725   8.806  1.00  0.00    -0.033 A 
ATOM     11  C   UNL     1       3.894   0.026  12.563  1.00  0.00     0.119 A 
ATOM     12  C   UNL     1       3.011   0.923  13.161  1.00  0.00     0.047 A 
ATOM     13  C   UNL     1       4.071   0.004  11.182  1.00  0.00     0.055 A 
ATOM     14  C   UNL     1       2.260   1.780  12.366  1.00  0.00     0.012 A 
ATOM     15  C   UNL     1       3.335   0.869  10.372  1.00  0.00    -0.015 A 
ATOM     16  C   UNL     1       2.419   1.760  10.977  1.00  0.00    -0.018 A 
ATOM     17  C   UNL     1       3.518   0.892   8.983  1.00  0.00     0.009 A 
ATOM     18  C   UNL     1       1.719   2.660  10.184  1.00  0.00     0.013 A 
ATOM     19  C   UNL     1       2.847   1.828   8.206  1.00  0.00     0.005 A 
BRANCH  11  20
ATOM     20  O   UNL     1       4.664  -0.833  13.298  1.00  0.00    -0.497 OA
ATOM     21  C   UNL     1       3.845  -1.706  14.073  1.00  0.00     0.278 C 
ENDBRANCH  11  20
ENDBRANCH   8  10
ENDBRANCH   6   8
ENDBRANCH   5   6
ENDBRANCH   4   5
ENDBRANCH   3   4
ENDBRANCH   2   3
ENDBRANCH   1   2
BRANCH   1  22
ATOM     22  C   UNL     1       1.619   6.732   5.573  1.00  0.00     0.188 C 
BRANCH  22  23
ATOM     23  O   UNL     1       2.813   6.557   4.857  1.00  0.00    -0.376 OA
BRANCH  23  24
ATOM     24  C   UNL     1       2.890   7.027   3.528  1.00  0.00     0.202 C 
BRANCH  24  25
ATOM     25  C   UNL     1       2.282   8.383   3.123  1.00  0.00     0.261 C 
BRANCH  25  26
ATOM     26  O   UNL     1       1.084   8.807   3.795  1.00  0.00    -0.460 OA
BRANCH  26  27
ATOM     27  C   UNL     1      -0.092   8.282   3.368  1.00  0.00     0.338 C 
ATOM     28  O   UNL     1      -0.254   7.488   2.465  1.00  0.00    -0.246 OA
BRANCH  27  29
ATOM     29  C   UNL     1      -1.136   8.656   4.356  1.00  0.00     0.060 A 
ATOM     30  C   UNL     1      -1.806   7.641   5.056  1.00  0.00     0.016 A 
ATOM     31  C   UNL     1      -1.441   9.995   4.605  1.00  0.00     0.016 A 
ATOM     32  C   UNL     1      -2.800   7.961   5.985  1.00  0.00     0.010 A 
ATOM     33  C   UNL     1      -2.456  10.314   5.514  1.00  0.00     0.010 A 
ATOM     34  C   UNL     1      -3.162   9.298   6.187  1.00  0.00    -0.014 A 
BRANCH  34  35
ATOM     35  C   UNL     1      -4.398   9.630   6.942  1.00  0.00     0.031 A 
ATOM     36  C   UNL     1      -5.652   9.922   6.164  1.00  0.00     0.074 A 
ATOM     37  C   UNL     1      -4.420   9.666   8.286  1.00  0.00     0.049 A 
ATOM     38  N   UNL     1      -6.828  10.311   6.588  1.00  0.00    -0.248 NA
ATOM     39  C   UNL     1      -5.564   9.755   4.705  1.00  0.00     0.031 C 
ATOM     40  C   UNL     1      -3.292   9.358   9.161  1.00  0.00     0.029 A 
ATOM     41  N   UNL     1      -5.438   9.995   9.150  1.00  0.00    -0.354 N 
ATOM     42  C   UNL     1      -7.612  10.446   5.449  1.00  0.00     0.074 A 
ATOM     43  C   UNL     1      -6.773  10.127   4.315  1.00  0.00     0.031 C 
ATOM     44  C   UNL     1      -3.674   9.530  10.439  1.00  0.00     0.029 A 
ATOM     45  C   UNL     1      -5.060   9.996  10.471  1.00  0.00     0.049 A 
ATOM     46  H   UNL     1      -6.351  10.210   8.851  1.00  0.00     0.167 HD
ATOM     47  C   UNL     1      -8.917  10.798   5.357  1.00  0.00     0.037 A 
ATOM     48  C   UNL     1      -5.747  10.360  11.572  1.00  0.00     0.037 A 
ATOM     49  C   UNL     1      -9.752  11.120   6.485  1.00  0.00     0.049 A 
ATOM     50  C   UNL     1      -7.175  10.831  11.437  1.00  0.00     0.074 A 
ATOM     51  C   UNL     1     -11.090  11.471   6.495  1.00  0.00     0.029 A 
ATOM     52  N   UNL     1      -9.324  11.140   7.804  1.00  0.00    -0.354 N 
ATOM     53  N   UNL     1      -7.918  10.934  10.361  1.00  0.00    -0.248 NA
ATOM     54  C   UNL     1      -7.860  11.236  12.674  1.00  0.00     0.031 C 
ATOM     55  C   UNL     1     -11.455  11.766   7.812  1.00  0.00     0.029 A 
ATOM     56  C   UNL     1     -10.365  11.529   8.633  1.00  0.00     0.049 A 
ATOM     57  H   UNL     1      -8.415  10.912   8.107  1.00  0.00     0.167 HD
ATOM     58  C   UNL     1      -9.163  11.379  10.794  1.00  0.00     0.074 A 
ATOM     59  C   UNL     1      -9.079  11.512  12.233  1.00  0.00     0.031 C 
ATOM     60  C   UNL     1     -10.274  11.650  10.066  1.00  0.00     0.037 A 
BRANCH  47  61
ATOM     61  C   UNL     1      -9.515  10.888   3.983  1.00  0.00     0.064 A 
ATOM     62  C   UNL     1      -9.746   9.747   3.199  1.00  0.00     0.173 A 
ATOM     63  C   UNL     1      -9.893  12.132   3.455  1.00  0.00     0.173 A 
ATOM     64  F   UNL     1      -9.389   8.535   3.649  1.00  0.00    -0.203 F 
ATOM     65  C   UNL     1     -10.305   9.852   1.928  1.00  0.00     0.198 A 
ATOM     66  C   UNL     1     -10.484  12.230   2.199  1.00  0.00     0.198 A 
ATOM     67  F   UNL     1      -9.699  13.255   4.164  1.00  0.00    -0.203 F 
ATOM     68  F   UNL     1     -10.467   8.755   1.176  1.00  0.00    -0.200 F 
ATOM     69  C   UNL     1     -10.682  11.092   1.432  1.00  0.00     0.200 A 
ATOM     70  F   UNL     1     -10.861  13.427   1.728  1.00  0.00    -0.200 F 
ATOM     71  F   UNL     1     -11.229  11.190   0.213  1.00  0.00    -0.200 F 
ENDBRANCH  47  61
BRANCH  48  72
ATOM     72  C   UNL     1      -5.094  10.316  12.909  1.00  0.00     0.064 A 
ATOM     73  C   UNL     1      -5.530   9.424  13.900  1.00  0.00     0.173 A 
ATOM     74  C   UNL     1      -4.047  11.190  13.238  1.00  0.00     0.173 A 
ATOM     75  F   UNL     1      -6.549   8.590  13.647  1.00  0.00    -0.203 F 
ATOM     76  C   UNL     1      -4.960   9.424  15.172  1.00  0.00     0.198 A 
ATOM     77  C   UNL     1      -3.456  11.167  14.499  1.00  0.00     0.198 A 
ATOM     78  F   UNL     1      -3.597  12.070  12.331  1.00  0.00    -0.203 F 
ATOM     79  F   UNL     1      -5.437   8.602  16.116  1.00  0.00    -0.200 F 
ATOM     80  C   UNL     1      -3.919  10.291  15.469  1.00  0.00     0.200 A 
ATOM     81  F   UNL     1      -2.444  12.000  14.779  1.00  0.00    -0.200 F 
ATOM     82  F   UNL     1      -3.373  10.291  16.692  1.00  0.00    -0.200 F 
ENDBRANCH  48  72
BRANCH  60  83
ATOM     83  C   UNL     1     -11.510  12.073  10.813  1.00  0.00     0.064 A 
ATOM     84  C   UNL     1     -11.603  13.319  11.450  1.00  0.00     0.173 A 
ATOM     85  C   UNL     1     -12.634  11.232  10.857  1.00  0.00     0.173 A 
ATOM     86  F   UNL     1     -10.556  14.158  11.449  1.00  0.00    -0.203 F 
ATOM     87  C   UNL     1     -12.760  13.693  12.131  1.00  0.00     0.198 A 
ATOM     88  C   UNL     1     -13.801  11.623  11.507  1.00  0.00     0.198 A 
ATOM     89  F   UNL     1     -12.605  10.033  10.256  1.00  0.00    -0.203 F 
ATOM     90  F   UNL     1     -12.804  14.864  12.780  1.00  0.00    -0.200 F 
ATOM     91  C   UNL     1     -13.860  12.848  12.152  1.00  0.00     0.200 A 
ATOM     92  F   UNL     1     -14.869  10.813  11.509  1.00  0.00    -0.200 F 
ATOM     93  F   UNL     1     -14.975  13.213  12.800  1.00  0.00    -0.200 F 
ENDBRANCH  60  83
ENDBRANCH  34  35
ENDBRANCH  27  29
ENDBRANCH  26  27
ENDBRANCH  25  26
ENDBRANCH  24  25
ENDBRANCH  23  24
ENDBRANCH  22  23
ENDBRANCH   1  22
TORSDOF 19
