REMARK SMILES O=C(OCCOCCOCCOC(=O)c1ccc(NS(=O)(=O)c2ccc3c(c2)CCC3)cc1Cl)c1ccc(-c2c3nc(c(-c4c(F)c(F)c(F)c(F)c4F)c4ccc([nH]4)c(-c4c(F)c(F)c(F)c(F)c4F)c4nc(c(-c5c(F)c(F)c(F)c(F)c5F)c5ccc2[nH]5)C=C4)C=C3)cc1
REMARK SMILES IDX 8 1 7 2 6 3 5 4 4 5 3 6 2 7 1 8 35 9 36 10 97 11 37 12 96 13
REMARK SMILES IDX 38 14 39 15 40 16 90 17 41 18 95 19 89 20 91 21 42 22 94 23
REMARK SMILES IDX 88 24 87 25 43 27 75 28 55 29 74 30 56 31 59 32 73 33 92 34
REMARK SMILES IDX 57 35 58 36 72 38 93 39 60 40 44 41 45 42 53 43 46 44 47 45
REMARK SMILES IDX 51 46 54 47 48 48 49 49 52 50 50 51 76 52 77 53 85 54 78 55
REMARK SMILES IDX 79 56 83 57 86 58 80 59 81 60 84 61 82 62 61 63 62 64 70 65
REMARK SMILES IDX 63 66 64 67 68 68 71 69 65 70 66 71 69 72 67 73 9 74 10 75
REMARK SMILES IDX 11 76 12 77 13 78 14 79 15 80 16 81 33 82 17 83 32 84 34 85
REMARK SMILES IDX 18 86 19 87 20 89 21 90 22 91 23 92 24 93 28 94 25 95 27 96
REMARK SMILES IDX 26 97 29 98 31 99 30 100
REMARK H PARENT 91 26 59 37 19 88
REMARK Flexibility Score: inf
ROOT
ATOM      1  C   UNL     1       1.970  -2.986  -1.097  1.00  0.00     0.188 C 
ENDROOT
BRANCH   1   2
ATOM      2  C   UNL     1       2.517  -2.030  -0.032  1.00  0.00     0.188 C 
BRANCH   2   3
ATOM      3  O   UNL     1       3.806  -1.516  -0.402  1.00  0.00    -0.376 OA
BRANCH   3   4
ATOM      4  C   UNL     1       4.720  -1.414   0.699  1.00  0.00     0.202 C 
BRANCH   4   5
ATOM      5  C   UNL     1       4.604  -0.117   1.508  1.00  0.00     0.261 C 
BRANCH   5   6
ATOM      6  O   UNL     1       3.252   0.351   1.600  1.00  0.00    -0.460 OA
BRANCH   6   7
ATOM      7  C   UNL     1       2.597   1.206   0.777  1.00  0.00     0.338 C 
ATOM      8  O   UNL     1       1.448   1.522   1.083  1.00  0.00    -0.246 OA
BRANCH   7   9
ATOM      9  C   UNL     1       3.169   1.799  -0.480  1.00  0.00     0.060 A 
ATOM     10  C   UNL     1       4.328   1.383  -1.143  1.00  0.00     0.016 A 
ATOM     11  C   UNL     1       2.449   2.864  -1.053  1.00  0.00     0.016 A 
ATOM     12  C   UNL     1       4.822   2.057  -2.258  1.00  0.00     0.010 A 
ATOM     13  C   UNL     1       2.913   3.522  -2.196  1.00  0.00     0.010 A 
ATOM     14  C   UNL     1       4.134   3.149  -2.770  1.00  0.00    -0.014 A 
BRANCH  14  15
ATOM     15  C   UNL     1       4.789   4.021  -3.763  1.00  0.00     0.031 A 
ATOM     16  C   UNL     1       5.341   5.325  -3.284  1.00  0.00     0.074 A 
ATOM     17  C   UNL     1       4.954   3.640  -5.040  1.00  0.00     0.049 A 
ATOM     18  N   UNL     1       5.845   6.316  -3.965  1.00  0.00    -0.248 NA
ATOM     19  C   UNL     1       5.375   5.515  -1.823  1.00  0.00     0.031 C 
ATOM     20  C   UNL     1       4.655   2.316  -5.566  1.00  0.00     0.029 A 
ATOM     21  N   UNL     1       5.375   4.346  -6.136  1.00  0.00    -0.354 N 
ATOM     22  C   UNL     1       6.268   7.237  -3.021  1.00  0.00     0.074 A 
ATOM     23  C   UNL     1       5.927   6.712  -1.719  1.00  0.00     0.031 C 
ATOM     24  C   UNL     1       4.756   2.338  -6.904  1.00  0.00     0.029 A 
ATOM     25  C   UNL     1       5.124   3.685  -7.314  1.00  0.00     0.049 A 
ATOM     26  H   UNL     1       5.808   5.229  -6.085  1.00  0.00     0.167 HD
ATOM     27  C   UNL     1       6.906   8.410  -3.235  1.00  0.00     0.037 A 
ATOM     28  C   UNL     1       5.133   4.144  -8.578  1.00  0.00     0.037 A 
ATOM     29  C   UNL     1       7.199   8.915  -4.547  1.00  0.00     0.049 A 
ATOM     30  C   UNL     1       5.630   5.539  -8.813  1.00  0.00     0.074 A 
ATOM     31  C   UNL     1       7.811  10.100  -4.904  1.00  0.00     0.029 A 
ATOM     32  N   UNL     1       6.870   8.257  -5.727  1.00  0.00    -0.354 N 
ATOM     33  N   UNL     1       6.026   6.425  -7.929  1.00  0.00    -0.248 NA
ATOM     34  C   UNL     1       5.730   5.989 -10.205  1.00  0.00     0.031 C 
ATOM     35  C   UNL     1       7.803  10.184  -6.302  1.00  0.00     0.029 A 
ATOM     36  C   UNL     1       7.236   9.026  -6.817  1.00  0.00     0.049 A 
ATOM     37  H   UNL     1       6.439   7.373  -5.779  1.00  0.00     0.167 HD
ATOM     38  C   UNL     1       6.480   7.513  -8.654  1.00  0.00     0.074 A 
ATOM     39  C   UNL     1       6.282   7.188 -10.054  1.00  0.00     0.031 C 
ATOM     40  C   UNL     1       7.040   8.662  -8.200  1.00  0.00     0.037 A 
BRANCH  27  41
ATOM     41  C   UNL     1       7.249   9.217  -2.020  1.00  0.00     0.064 A 
ATOM     42  C   UNL     1       8.234   8.801  -1.109  1.00  0.00     0.173 A 
ATOM     43  C   UNL     1       6.527  10.380  -1.720  1.00  0.00     0.173 A 
ATOM     44  F   UNL     1       8.931   7.677  -1.334  1.00  0.00    -0.203 F 
ATOM     45  C   UNL     1       8.449   9.495   0.080  1.00  0.00     0.198 A 
ATOM     46  C   UNL     1       6.764  11.088  -0.544  1.00  0.00     0.198 A 
ATOM     47  F   UNL     1       5.569  10.816  -2.552  1.00  0.00    -0.203 F 
ATOM     48  F   UNL     1       9.337   9.035   0.972  1.00  0.00    -0.200 F 
ATOM     49  C   UNL     1       7.714  10.637   0.361  1.00  0.00     0.200 A 
ATOM     50  F   UNL     1       6.053  12.191  -0.273  1.00  0.00    -0.200 F 
ATOM     51  F   UNL     1       7.904  11.290   1.515  1.00  0.00    -0.200 F 
ENDBRANCH  27  41
BRANCH  28  52
ATOM     52  C   UNL     1       4.637   3.272  -9.673  1.00  0.00     0.064 A 
ATOM     53  C   UNL     1       5.508   2.684 -10.597  1.00  0.00     0.173 A 
ATOM     54  C   UNL     1       3.271   2.957  -9.774  1.00  0.00     0.173 A 
ATOM     55  F   UNL     1       6.821   2.951 -10.541  1.00  0.00    -0.203 F 
ATOM     56  C   UNL     1       5.034   1.822 -11.586  1.00  0.00     0.198 A 
ATOM     57  C   UNL     1       2.801   2.080 -10.748  1.00  0.00     0.198 A 
ATOM     58  F   UNL     1       2.392   3.471  -8.902  1.00  0.00    -0.203 F 
ATOM     59  F   UNL     1       5.887   1.281 -12.465  1.00  0.00    -0.200 F 
ATOM     60  C   UNL     1       3.682   1.517 -11.658  1.00  0.00     0.200 A 
ATOM     61  F   UNL     1       1.500   1.761 -10.786  1.00  0.00    -0.200 F 
ATOM     62  F   UNL     1       3.230   0.673 -12.595  1.00  0.00    -0.200 F 
ENDBRANCH  28  52
BRANCH  40  63
ATOM     63  C   UNL     1       7.548   9.623  -9.228  1.00  0.00     0.064 A 
ATOM     64  C   UNL     1       6.684  10.442  -9.964  1.00  0.00     0.173 A 
ATOM     65  C   UNL     1       8.931   9.780  -9.410  1.00  0.00     0.173 A 
ATOM     66  F   UNL     1       5.355  10.312  -9.833  1.00  0.00    -0.203 F 
ATOM     67  C   UNL     1       7.187  11.386 -10.853  1.00  0.00     0.198 A 
ATOM     68  C   UNL     1       9.430  10.742 -10.279  1.00  0.00     0.198 A 
ATOM     69  F   UNL     1       9.795   9.018  -8.722  1.00  0.00    -0.203 F 
ATOM     70  F   UNL     1       6.346  12.144 -11.569  1.00  0.00    -0.200 F 
ATOM     71  C   UNL     1       8.558  11.543 -11.001  1.00  0.00     0.200 A 
ATOM     72  F   UNL     1      10.754  10.902 -10.409  1.00  0.00    -0.200 F 
ATOM     73  F   UNL     1       9.040  12.469 -11.841  1.00  0.00    -0.200 F 
ENDBRANCH  40  63
ENDBRANCH  14  15
ENDBRANCH   7   9
ENDBRANCH   6   7
ENDBRANCH   5   6
ENDBRANCH   4   5
ENDBRANCH   3   4
ENDBRANCH   2   3
ENDBRANCH   1   2
BRANCH   1  74
ATOM     74  O   UNL     1       2.592  -4.269  -1.149  1.00  0.00    -0.376 OA
BRANCH  74  75
ATOM     75  C   UNL     1       3.998  -4.302  -1.363  1.00  0.00     0.202 C 
BRANCH  75  76
ATOM     76  C   UNL     1       4.497  -3.994  -2.781  1.00  0.00     0.261 C 
BRANCH  76  77
ATOM     77  O   UNL     1       4.062  -2.732  -3.324  1.00  0.00    -0.460 OA
BRANCH  77  78
ATOM     78  C   UNL     1       3.257  -2.846  -4.413  1.00  0.00     0.339 C 
ATOM     79  O   UNL     1       2.820  -3.886  -4.879  1.00  0.00    -0.246 OA
BRANCH  78  80
ATOM     80  C   UNL     1       2.903  -1.531  -4.995  1.00  0.00     0.078 A 
ATOM     81  C   UNL     1       2.487  -0.479  -4.171  1.00  0.00     0.019 A 
ATOM     82  C   UNL     1       2.795  -1.386  -6.382  1.00  0.00     0.057 A 
ATOM     83  C   UNL     1       1.880   0.657  -4.732  1.00  0.00     0.028 A 
ATOM     84  C   UNL     1       2.141  -0.274  -6.927  1.00  0.00     0.048 A 
ATOM     85  Cl  UNL     1       3.468  -2.519  -7.502  1.00  0.00    -0.083 Cl
ATOM     86  C   UNL     1       1.639   0.738  -6.106  1.00  0.00     0.050 A 
BRANCH  86  87
ATOM     87  N   UNL     1       0.751   1.668  -6.718  1.00  0.00    -0.280 N 
ATOM     88  H   UNL     1       0.364   1.394  -7.581  1.00  0.00     0.180 HD
BRANCH  87  89
ATOM     89  S   UNL     1       0.285   3.170  -6.146  1.00  0.00     0.261 S 
ATOM     90  O   UNL     1       1.486   3.882  -5.728  1.00  0.00    -0.201 OA
ATOM     91  O   UNL     1      -0.606   3.709  -7.134  1.00  0.00    -0.201 OA
BRANCH  89  92
ATOM     92  C   UNL     1      -0.680   2.901  -4.675  1.00  0.00     0.088 A 
ATOM     93  C   UNL     1      -0.821   4.000  -3.804  1.00  0.00     0.022 A 
ATOM     94  C   UNL     1      -1.040   1.611  -4.275  1.00  0.00     0.026 A 
ATOM     95  C   UNL     1      -1.239   3.806  -2.488  1.00  0.00     0.005 A 
ATOM     96  C   UNL     1      -1.350   1.425  -2.939  1.00  0.00    -0.043 A 
ATOM     97  C   UNL     1      -1.455   2.507  -2.060  1.00  0.00    -0.045 A 
ATOM     98  C   UNL     1      -1.403   0.127  -2.196  1.00  0.00     0.036 C 
ATOM     99  C   UNL     1      -1.678   2.040  -0.656  1.00  0.00     0.036 C 
ATOM    100  C   UNL     1      -2.022   0.557  -0.862  1.00  0.00     0.010 C 
ENDBRANCH  89  92
ENDBRANCH  87  89
ENDBRANCH  86  87
ENDBRANCH  78  80
ENDBRANCH  77  78
ENDBRANCH  76  77
ENDBRANCH  75  76
ENDBRANCH  74  75
ENDBRANCH   1  74
TORSDOF 20
