REMARK SMILES C=C1c2ccccc2C(=O)N1[C@](C)(C(=O)OCCOCCOCCOC(=O)c1ccc(-c2c3nc(c(-c4c(F)c(F)c(F)c(F)c4F)c4ccc([nH]4)c(-c4c(F)c(F)c(F)c(F)c4F)c4nc(c(-c5c(F)c(F)c(F)c(F)c5F)c5ccc2[nH]5)C=C4)C=C3)cc1)C(F)(F)F
REMARK SMILES IDX 21 1 20 2 19 3 18 4 17 5 16 6 14 7 15 8 12 9 13 10 11 11
REMARK SMILES IDX 1 12 2 13 3 14 4 15 8 16 9 17 5 18 7 19 10 20 6 21 91 22
REMARK SMILES IDX 92 23 93 24 94 25 22 26 23 27 24 28 25 29 26 30 27 31 28 32
REMARK SMILES IDX 29 33 90 34 30 35 89 36 31 37 32 38 33 39 83 40 34 41 88 42
REMARK SMILES IDX 82 43 84 44 35 45 87 46 81 47 80 48 36 50 68 51 48 52 67 53
REMARK SMILES IDX 49 54 52 55 66 56 85 57 50 58 51 59 65 61 86 62 53 63 37 64
REMARK SMILES IDX 38 65 46 66 39 67 40 68 44 69 47 70 41 71 42 72 45 73 43 74
REMARK SMILES IDX 69 75 70 76 78 77 71 78 72 79 76 80 79 81 73 82 74 83 77 84
REMARK SMILES IDX 75 85 54 86 55 87 63 88 56 89 57 90 61 91 64 92 58 93 59 94
REMARK SMILES IDX 62 95 60 96
REMARK H PARENT 84 49 52 60
REMARK Flexibility Score: inf
ROOT
ATOM      1  C   UNL     1       1.895  -0.454  -3.187  1.00  0.00     0.188 C 
ENDROOT
BRANCH   1   2
ATOM      2  C   UNL     1       3.231  -0.229  -3.914  1.00  0.00     0.188 C 
BRANCH   2   3
ATOM      3  O   UNL     1       3.781  -1.290  -4.681  1.00  0.00    -0.376 OA
BRANCH   3   4
ATOM      4  C   UNL     1       3.801  -2.602  -4.127  1.00  0.00     0.202 C 
BRANCH   4   5
ATOM      5  C   UNL     1       4.293  -2.812  -2.683  1.00  0.00     0.261 C 
BRANCH   5   6
ATOM      6  O   UNL     1       3.633  -2.001  -1.687  1.00  0.00    -0.461 OA
BRANCH   6   7
ATOM      7  C   UNL     1       4.422  -1.237  -0.885  1.00  0.00     0.341 C 
ATOM      8  O   UNL     1       5.646  -1.213  -0.988  1.00  0.00    -0.249 OA
BRANCH   7   9
ATOM      9  C   UNL     1       3.665  -0.466   0.223  1.00  0.00     0.238 C 
ATOM     10  C   UNL     1       2.119  -0.539   0.281  1.00  0.00     0.058 C 
BRANCH   9  11
ATOM     11  N   UNL     1       4.189  -1.101   1.450  1.00  0.00    -0.283 N 
ATOM     12  C   UNL     1       5.462   0.618   2.682  1.00  0.00     0.038 C 
ATOM     13  C   UNL     1       4.998  -0.613   2.464  1.00  0.00     0.046 C 
ATOM     14  C   UNL     1       5.274  -1.746   3.356  1.00  0.00     0.010 A 
ATOM     15  C   UNL     1       6.068  -1.890   4.479  1.00  0.00     0.011 A 
ATOM     16  C   UNL     1       4.577  -2.851   2.875  1.00  0.00     0.049 A 
ATOM     17  C   UNL     1       3.870  -2.449   1.668  1.00  0.00     0.260 C 
ATOM     18  C   UNL     1       6.136  -3.151   5.089  1.00  0.00     0.001 A 
ATOM     19  C   UNL     1       4.617  -4.104   3.454  1.00  0.00     0.014 A 
ATOM     20  O   UNL     1       3.175  -3.189   1.006  1.00  0.00    -0.269 OA
ATOM     21  C   UNL     1       5.415  -4.248   4.582  1.00  0.00     0.001 A 
ENDBRANCH   9  11
BRANCH   9  22
ATOM     22  C   UNL     1       4.023   0.990  -0.111  1.00  0.00     0.422 C 
ATOM     23  F   UNL     1       3.513   1.360  -1.318  1.00  0.00    -0.168 F 
ATOM     24  F   UNL     1       3.470   1.852   0.783  1.00  0.00    -0.168 F 
ATOM     25  F   UNL     1       5.342   1.263  -0.162  1.00  0.00    -0.168 F 
ENDBRANCH   9  22
ENDBRANCH   7   9
ENDBRANCH   6   7
ENDBRANCH   5   6
ENDBRANCH   4   5
ENDBRANCH   3   4
ENDBRANCH   2   3
ENDBRANCH   1   2
BRANCH   1  26
ATOM     26  O   UNL     1       1.300  -1.707  -3.388  1.00  0.00    -0.376 OA
BRANCH  26  27
ATOM     27  C   UNL     1       0.246  -1.833  -4.319  1.00  0.00     0.202 C 
BRANCH  27  28
ATOM     28  C   UNL     1       0.082  -0.918  -5.551  1.00  0.00     0.261 C 
BRANCH  28  29
ATOM     29  O   UNL     1       0.702   0.377  -5.532  1.00  0.00    -0.460 OA
BRANCH  29  30
ATOM     30  C   UNL     1       0.013   1.394  -4.958  1.00  0.00     0.338 C 
ATOM     31  O   UNL     1      -1.091   1.336  -4.449  1.00  0.00    -0.246 OA
BRANCH  30  32
ATOM     32  C   UNL     1       0.934   2.552  -4.829  1.00  0.00     0.060 A 
ATOM     33  C   UNL     1       1.260   3.029  -3.549  1.00  0.00     0.016 A 
ATOM     34  C   UNL     1       1.487   3.154  -5.960  1.00  0.00     0.016 A 
ATOM     35  C   UNL     1       2.118   4.122  -3.399  1.00  0.00     0.010 A 
ATOM     36  C   UNL     1       2.322   4.267  -5.809  1.00  0.00     0.010 A 
ATOM     37  C   UNL     1       2.620   4.776  -4.530  1.00  0.00    -0.014 A 
BRANCH  37  38
ATOM     38  C   UNL     1       3.282   6.100  -4.400  1.00  0.00     0.031 A 
ATOM     39  C   UNL     1       2.457   7.335  -4.639  1.00  0.00     0.074 A 
ATOM     40  C   UNL     1       4.583   6.219  -4.079  1.00  0.00     0.049 A 
ATOM     41  N   UNL     1       2.823   8.591  -4.686  1.00  0.00    -0.248 NA
ATOM     42  C   UNL     1       1.018   7.119  -4.861  1.00  0.00     0.031 C 
ATOM     43  C   UNL     1       5.484   5.114  -3.765  1.00  0.00     0.029 A 
ATOM     44  N   UNL     1       5.375   7.340  -3.983  1.00  0.00    -0.354 N 
ATOM     45  C   UNL     1       1.665   9.311  -4.952  1.00  0.00     0.074 A 
ATOM     46  C   UNL     1       0.591   8.351  -5.086  1.00  0.00     0.031 C 
ATOM     47  C   UNL     1       6.713   5.609  -3.532  1.00  0.00     0.029 A 
ATOM     48  C   UNL     1       6.694   7.060  -3.719  1.00  0.00     0.049 A 
ATOM     49  H   UNL     1       5.030   8.255  -4.093  1.00  0.00     0.167 HD
ATOM     50  C   UNL     1       1.510  10.651  -5.070  1.00  0.00     0.037 A 
ATOM     51  C   UNL     1       7.764   7.879  -3.668  1.00  0.00     0.037 A 
ATOM     52  C   UNL     1       2.578  11.607  -4.945  1.00  0.00     0.049 A 
ATOM     53  C   UNL     1       7.583   9.361  -3.901  1.00  0.00     0.074 A 
ATOM     54  C   UNL     1       2.516  12.986  -5.036  1.00  0.00     0.029 A 
ATOM     55  N   UNL     1       3.907  11.282  -4.714  1.00  0.00    -0.354 N 
ATOM     56  N   UNL     1       6.484  10.039  -4.132  1.00  0.00    -0.248 NA
ATOM     57  C   UNL     1       8.796  10.192  -3.865  1.00  0.00     0.031 C 
ATOM     58  C   UNL     1       3.815  13.491  -4.927  1.00  0.00     0.029 A 
ATOM     59  C   UNL     1       4.678  12.433  -4.694  1.00  0.00     0.049 A 
ATOM     60  H   UNL     1       4.251  10.368  -4.584  1.00  0.00     0.167 HD
ATOM     61  C   UNL     1       6.868  11.372  -4.231  1.00  0.00     0.074 A 
ATOM     62  C   UNL     1       8.299  11.410  -4.022  1.00  0.00     0.031 C 
ATOM     63  C   UNL     1       6.102  12.465  -4.473  1.00  0.00     0.037 A 
BRANCH  50  64
ATOM     64  C   UNL     1       0.134  11.163  -5.387  1.00  0.00     0.064 A 
ATOM     65  C   UNL     1      -0.914  11.099  -4.455  1.00  0.00     0.173 A 
ATOM     66  C   UNL     1      -0.132  11.753  -6.632  1.00  0.00     0.173 A 
ATOM     67  F   UNL     1      -0.717  10.532  -3.255  1.00  0.00    -0.203 F 
ATOM     68  C   UNL     1      -2.182  11.579  -4.769  1.00  0.00     0.198 A 
ATOM     69  C   UNL     1      -1.392  12.264  -6.930  1.00  0.00     0.198 A 
ATOM     70  F   UNL     1       0.834  11.844  -7.558  1.00  0.00    -0.203 F 
ATOM     71  F   UNL     1      -3.181  11.459  -3.884  1.00  0.00    -0.200 F 
ATOM     72  C   UNL     1      -2.418  12.169  -6.002  1.00  0.00     0.200 A 
ATOM     73  F   UNL     1      -1.614  12.847  -8.116  1.00  0.00    -0.200 F 
ATOM     74  F   UNL     1      -3.638  12.639  -6.300  1.00  0.00    -0.200 F 
ENDBRANCH  50  64
BRANCH  51  75
ATOM     75  C   UNL     1       9.121   7.323  -3.407  1.00  0.00     0.064 A 
ATOM     76  C   UNL     1       9.824   7.648  -2.239  1.00  0.00     0.173 A 
ATOM     77  C   UNL     1       9.761   6.495  -4.342  1.00  0.00     0.173 A 
ATOM     78  F   UNL     1       9.271   8.464  -1.329  1.00  0.00    -0.203 F 
ATOM     79  C   UNL     1      11.122   7.186  -2.026  1.00  0.00     0.198 A 
ATOM     80  C   UNL     1      11.046   6.006  -4.112  1.00  0.00     0.198 A 
ATOM     81  F   UNL     1       9.139   6.162  -5.482  1.00  0.00    -0.203 F 
ATOM     82  F   UNL     1      11.793   7.563  -0.929  1.00  0.00    -0.200 F 
ATOM     83  C   UNL     1      11.729   6.360  -2.960  1.00  0.00     0.200 A 
ATOM     84  F   UNL     1      11.625   5.203  -5.014  1.00  0.00    -0.200 F 
ATOM     85  F   UNL     1      12.978   5.919  -2.756  1.00  0.00    -0.200 F 
ENDBRANCH  51  75
BRANCH  63  86
ATOM     86  C   UNL     1       6.781  13.808  -4.476  1.00  0.00     0.064 A 
ATOM     87  C   UNL     1       7.670  14.190  -5.491  1.00  0.00     0.173 A 
ATOM     88  C   UNL     1       6.500  14.746  -3.468  1.00  0.00     0.173 A 
ATOM     89  F   UNL     1       7.984  13.331  -6.472  1.00  0.00    -0.203 F 
ATOM     90  C   UNL     1       8.274  15.446  -5.482  1.00  0.00     0.198 A 
ATOM     91  C   UNL     1       7.077  16.013  -3.482  1.00  0.00     0.198 A 
ATOM     92  F   UNL     1       5.649  14.440  -2.477  1.00  0.00    -0.203 F 
ATOM     93  F   UNL     1       9.161  15.768  -6.434  1.00  0.00    -0.200 F 
ATOM     94  C   UNL     1       7.970  16.359  -4.483  1.00  0.00     0.200 A 
ATOM     95  F   UNL     1       6.766  16.900  -2.526  1.00  0.00    -0.200 F 
ATOM     96  F   UNL     1       8.544  17.570  -4.482  1.00  0.00    -0.200 F 
ENDBRANCH  63  86
ENDBRANCH  37  38
ENDBRANCH  30  32
ENDBRANCH  29  30
ENDBRANCH  28  29
ENDBRANCH  27  28
ENDBRANCH  26  27
ENDBRANCH   1  26
TORSDOF 19
