REMARK SMILES Cc1nc(Nc2ccc(F)cc2)nc(OCC(=O)OCCOCCOCCOC(=O)c2ccc(-c3c4nc(c(-c5c(F)c(F)c(F)c(F)c5F)c5ccc([nH]5)c(-c5c(F)c(F)c(F)c(F)c5F)c5nc(c(-c6c(F)c(F)c(F)c(F)c6F)c6ccc3[nH]6)C=C5)C=C4)cc2)c1CCO
REMARK SMILES IDX 22 1 21 2 20 3 19 4 17 5 18 6 16 7 15 8 14 9 1 10 2 11 3 12
REMARK SMILES IDX 94 13 4 14 13 15 95 16 96 17 97 18 5 20 6 22 7 23 12 24 8 25
REMARK SMILES IDX 11 26 9 27 10 28 23 29 24 30 25 31 26 32 27 33 28 34 29 35
REMARK SMILES IDX 30 36 31 37 32 38 93 39 33 40 92 41 34 42 35 43 36 44 86 45
REMARK SMILES IDX 37 46 91 47 85 48 87 49 38 50 90 51 84 52 83 53 39 55 71 56
REMARK SMILES IDX 51 57 70 58 52 59 55 60 69 61 88 62 53 63 54 64 68 66 89 67
REMARK SMILES IDX 56 68 40 69 41 70 49 71 42 72 43 73 47 74 50 75 44 76 45 77
REMARK SMILES IDX 48 78 46 79 72 80 73 81 81 82 74 83 75 84 79 85 82 86 76 87
REMARK SMILES IDX 77 88 80 89 78 90 57 91 58 92 66 93 59 94 60 95 64 96 67 97
REMARK SMILES IDX 61 98 62 99 65 100 63 101
REMARK H PARENT 97 19 5 21 87 54 55 65
REMARK Flexibility Score: inf
ROOT
ATOM      1  O   UNL     1      -1.354  -3.508   3.815  1.00  0.00    -0.376 OA
ENDROOT
BRANCH   1   2
ATOM      2  C   UNL     1      -0.087  -3.893   4.345  1.00  0.00     0.202 C 
BRANCH   2   3
ATOM      3  C   UNL     1       0.746  -4.789   3.425  1.00  0.00     0.261 C 
BRANCH   3   4
ATOM      4  O   UNL     1       1.549  -3.991   2.529  1.00  0.00    -0.461 OA
BRANCH   4   5
ATOM      5  C   UNL     1       1.583  -4.356   1.218  1.00  0.00     0.344 C 
ATOM      6  O   UNL     1       0.984  -5.316   0.748  1.00  0.00    -0.248 OA
BRANCH   5   7
ATOM      7  C   UNL     1       2.473  -3.422   0.389  1.00  0.00     0.353 C 
BRANCH   7   8
ATOM      8  O   UNL     1       2.314  -2.051   0.689  1.00  0.00    -0.465 OA
BRANCH   8   9
ATOM      9  C   UNL     1       1.798  -1.115  -0.150  1.00  0.00     0.222 A 
ATOM     10  C   UNL     1      -0.858   0.134  -2.538  1.00  0.00     0.067 C 
ATOM     11  C   UNL     1       0.321  -0.037  -1.627  1.00  0.00     0.050 A 
ATOM     12  N   UNL     1       0.870   1.146  -1.312  1.00  0.00    -0.218 NA
ATOM     13  C   UNL     1       0.736  -1.241  -1.046  1.00  0.00     0.038 A 
ATOM     14  C   UNL     1       1.836   1.185  -0.399  1.00  0.00     0.230 A 
ATOM     15  N   UNL     1       2.335   0.086   0.166  1.00  0.00    -0.177 NA
BRANCH  13  16
ATOM     16  C   UNL     1      -0.010  -2.511  -1.348  1.00  0.00     0.071 C 
BRANCH  16  17
ATOM     17  C   UNL     1       0.280  -3.107  -2.728  1.00  0.00     0.161 C 
BRANCH  17  18
ATOM     18  O   UNL     1       1.654  -3.420  -2.887  1.00  0.00    -0.396 OA
ATOM     19  H   UNL     1       2.183  -2.611  -2.802  1.00  0.00     0.210 HD
ENDBRANCH  17  18
ENDBRANCH  16  17
ENDBRANCH  13  16
BRANCH  14  20
ATOM     20  N   UNL     1       2.249   2.428   0.096  1.00  0.00    -0.324 N 
ATOM     21  H   UNL     1       3.153   2.504   0.478  1.00  0.00     0.170 HD
BRANCH  20  22
ATOM     22  C   UNL     1       1.431   3.571   0.071  1.00  0.00     0.041 A 
ATOM     23  C   UNL     1       0.439   3.751   1.047  1.00  0.00     0.029 A 
ATOM     24  C   UNL     1       1.521   4.487  -0.985  1.00  0.00     0.029 A 
ATOM     25  C   UNL     1      -0.460   4.816   0.958  1.00  0.00     0.041 A 
ATOM     26  C   UNL     1       0.632   5.562  -1.067  1.00  0.00     0.041 A 
ATOM     27  C   UNL     1      -0.355   5.711  -0.100  1.00  0.00     0.123 A 
ATOM     28  F   UNL     1      -1.227   6.724  -0.197  1.00  0.00    -0.207 F 
ENDBRANCH  20  22
ENDBRANCH  14  20
ENDBRANCH   8   9
ENDBRANCH   7   8
ENDBRANCH   5   7
ENDBRANCH   4   5
ENDBRANCH   3   4
ENDBRANCH   2   3
ENDBRANCH   1   2
BRANCH   1  29
ATOM     29  C   UNL     1      -1.367  -2.725   2.628  1.00  0.00     0.188 C 
BRANCH  29  30
ATOM     30  C   UNL     1      -0.412  -1.523   2.558  1.00  0.00     0.188 C 
BRANCH  30  31
ATOM     31  O   UNL     1      -0.124  -0.817   3.756  1.00  0.00    -0.376 OA
BRANCH  31  32
ATOM     32  C   UNL     1      -1.234  -0.359   4.514  1.00  0.00     0.202 C 
BRANCH  32  33
ATOM     33  C   UNL     1      -2.064   0.703   3.803  1.00  0.00     0.261 C 
BRANCH  33  34
ATOM     34  O   UNL     1      -2.789   0.119   2.706  1.00  0.00    -0.460 OA
BRANCH  34  35
ATOM     35  C   UNL     1      -3.522   1.004   2.003  1.00  0.00     0.338 C 
ATOM     36  O   UNL     1      -3.698   2.188   2.288  1.00  0.00    -0.246 OA
BRANCH  35  37
ATOM     37  C   UNL     1      -4.094   0.375   0.793  1.00  0.00     0.060 A 
ATOM     38  C   UNL     1      -3.375  -0.561   0.046  1.00  0.00     0.016 A 
ATOM     39  C   UNL     1      -5.326   0.830   0.320  1.00  0.00     0.016 A 
ATOM     40  C   UNL     1      -3.844  -0.969  -1.207  1.00  0.00     0.010 A 
ATOM     41  C   UNL     1      -5.811   0.388  -0.915  1.00  0.00     0.010 A 
ATOM     42  C   UNL     1      -5.049  -0.474  -1.721  1.00  0.00    -0.014 A 
BRANCH  42  43
ATOM     43  C   UNL     1      -5.457  -0.734  -3.131  1.00  0.00     0.031 A 
ATOM     44  C   UNL     1      -5.645   0.432  -4.070  1.00  0.00     0.074 A 
ATOM     45  C   UNL     1      -5.616  -1.979  -3.620  1.00  0.00     0.049 A 
ATOM     46  N   UNL     1      -6.274   0.484  -5.216  1.00  0.00    -0.248 NA
ATOM     47  C   UNL     1      -5.029   1.707  -3.666  1.00  0.00     0.031 C 
ATOM     48  C   UNL     1      -5.325  -3.220  -2.907  1.00  0.00     0.029 A 
ATOM     49  N   UNL     1      -6.069  -2.400  -4.850  1.00  0.00    -0.354 N 
ATOM     50  C   UNL     1      -6.184   1.804  -5.638  1.00  0.00     0.074 A 
ATOM     51  C   UNL     1      -5.420   2.519  -4.639  1.00  0.00     0.031 C 
ATOM     52  C   UNL     1      -5.585  -4.260  -3.714  1.00  0.00     0.029 A 
ATOM     53  C   UNL     1      -6.180  -3.765  -4.953  1.00  0.00     0.049 A 
ATOM     54  H   UNL     1      -6.292  -1.782  -5.584  1.00  0.00     0.167 HD
ATOM     55  C   UNL     1      -6.706   2.367  -6.753  1.00  0.00     0.037 A 
ATOM     56  C   UNL     1      -6.767  -4.533  -5.893  1.00  0.00     0.037 A 
ATOM     57  C   UNL     1      -7.425   1.645  -7.770  1.00  0.00     0.049 A 
ATOM     58  C   UNL     1      -7.468  -3.882  -7.054  1.00  0.00     0.074 A 
ATOM     59  C   UNL     1      -8.032   2.135  -8.913  1.00  0.00     0.029 A 
ATOM     60  N   UNL     1      -7.613   0.272  -7.775  1.00  0.00    -0.354 N 
ATOM     61  N   UNL     1      -7.535  -2.613  -7.372  1.00  0.00    -0.248 NA
ATOM     62  C   UNL     1      -8.214  -4.767  -7.962  1.00  0.00     0.031 C 
ATOM     63  C   UNL     1      -8.616   1.062  -9.594  1.00  0.00     0.029 A 
ATOM     64  C   UNL     1      -8.338  -0.100  -8.895  1.00  0.00     0.049 A 
ATOM     65  H   UNL     1      -7.281  -0.346  -7.085  1.00  0.00     0.167 HD
ATOM     66  C   UNL     1      -8.327  -2.546  -8.511  1.00  0.00     0.074 A 
ATOM     67  C   UNL     1      -8.703  -3.904  -8.843  1.00  0.00     0.031 C 
ATOM     68  C   UNL     1      -8.712  -1.453  -9.213  1.00  0.00     0.037 A 
BRANCH  55  69
ATOM     69  C   UNL     1      -6.569   3.849  -6.925  1.00  0.00     0.064 A 
ATOM     70  C   UNL     1      -7.687   4.679  -6.746  1.00  0.00     0.173 A 
ATOM     71  C   UNL     1      -5.372   4.439  -7.352  1.00  0.00     0.173 A 
ATOM     72  F   UNL     1      -8.856   4.159  -6.343  1.00  0.00    -0.203 F 
ATOM     73  C   UNL     1      -7.617   6.044  -7.010  1.00  0.00     0.198 A 
ATOM     74  C   UNL     1      -5.299   5.809  -7.595  1.00  0.00     0.198 A 
ATOM     75  F   UNL     1      -4.274   3.688  -7.523  1.00  0.00    -0.203 F 
ATOM     76  F   UNL     1      -8.707   6.809  -6.869  1.00  0.00    -0.200 F 
ATOM     77  C   UNL     1      -6.423   6.607  -7.435  1.00  0.00     0.200 A 
ATOM     78  F   UNL     1      -4.142   6.357  -7.989  1.00  0.00    -0.200 F 
ATOM     79  F   UNL     1      -6.357   7.921  -7.692  1.00  0.00    -0.200 F 
ENDBRANCH  55  69
BRANCH  56  80
ATOM     80  C   UNL     1      -6.799  -6.008  -5.714  1.00  0.00     0.064 A 
ATOM     81  C   UNL     1      -7.535  -6.596  -4.673  1.00  0.00     0.173 A 
ATOM     82  C   UNL     1      -6.076  -6.856  -6.561  1.00  0.00     0.173 A 
ATOM     83  F   UNL     1      -8.255  -5.828  -3.842  1.00  0.00    -0.203 F 
ATOM     84  C   UNL     1      -7.508  -7.971  -4.458  1.00  0.00     0.198 A 
ATOM     85  C   UNL     1      -6.075  -8.236  -6.365  1.00  0.00     0.198 A 
ATOM     86  F   UNL     1      -5.388  -6.345  -7.592  1.00  0.00    -0.203 F 
ATOM     87  F   UNL     1      -8.178  -8.498  -3.425  1.00  0.00    -0.200 F 
ATOM     88  C   UNL     1      -6.779  -8.791  -5.306  1.00  0.00     0.200 A 
ATOM     89  F   UNL     1      -5.395  -9.030  -7.204  1.00  0.00    -0.200 F 
ATOM     90  F   UNL     1      -6.758 -10.115  -5.104  1.00  0.00    -0.200 F 
ENDBRANCH  56  80
BRANCH  68  91
ATOM     91  C   UNL     1      -9.575  -1.667 -10.420  1.00  0.00     0.064 A 
ATOM     92  C   UNL     1      -9.049  -1.509 -11.710  1.00  0.00     0.173 A 
ATOM     93  C   UNL     1     -10.941  -1.959 -10.296  1.00  0.00     0.173 A 
ATOM     94  F   UNL     1      -7.749  -1.222 -11.879  1.00  0.00    -0.203 F 
ATOM     95  C   UNL     1      -9.862  -1.622 -12.834  1.00  0.00     0.198 A 
ATOM     96  C   UNL     1     -11.747  -2.094 -11.423  1.00  0.00     0.198 A 
ATOM     97  F   UNL     1     -11.486  -2.132  -9.083  1.00  0.00    -0.203 F 
ATOM     98  F   UNL     1      -9.344  -1.440 -14.056  1.00  0.00    -0.200 F 
ATOM     99  C   UNL     1     -11.210  -1.917 -12.690  1.00  0.00     0.200 A 
ATOM    100  F   UNL     1     -13.045  -2.398 -11.284  1.00  0.00    -0.200 F 
ATOM    101  F   UNL     1     -11.990  -2.034 -13.773  1.00  0.00    -0.200 F 
ENDBRANCH  68  91
ENDBRANCH  42  43
ENDBRANCH  35  37
ENDBRANCH  34  35
ENDBRANCH  33  34
ENDBRANCH  32  33
ENDBRANCH  31  32
ENDBRANCH  30  31
ENDBRANCH  29  30
ENDBRANCH   1  29
TORSDOF 24
