REMARK SMILES O=C(OCCOCCOCCOC(=O)[C@]1([NH2+]C2CC2)CCC[C@H](SC[C@H](O)CO)C1)c1ccc(-c2c3nc(c(-c4c(F)c(F)c(F)c(F)c4F)c4ccc([nH]4)c(-c4c(F)c(F)c(F)c(F)c4F)c4nc(c(-c5c(F)c(F)c(F)c(F)c5F)c5ccc2[nH]5)C=C4)C=C3)cc1
REMARK SMILES IDX 9 1 8 2 7 3 6 4 5 5 4 6 3 7 2 8 1 9 31 10 32 11 93 12 33 13
REMARK SMILES IDX 92 14 34 15 35 16 36 17 86 18 37 19 91 20 85 21 87 22 38 23
REMARK SMILES IDX 90 24 84 25 83 26 39 28 71 29 51 30 70 31 52 32 55 33 69 34
REMARK SMILES IDX 88 35 53 36 54 37 68 39 89 40 56 41 40 42 41 43 49 44 42 45
REMARK SMILES IDX 43 46 47 47 50 48 44 49 45 50 48 51 46 52 72 53 73 54 81 55
REMARK SMILES IDX 74 56 75 57 79 58 82 59 76 60 77 61 80 62 78 63 57 64 58 65
REMARK SMILES IDX 66 66 59 67 60 68 64 69 67 70 61 71 62 72 65 73 63 74 10 75
REMARK SMILES IDX 11 76 12 77 13 78 14 79 15 80 20 81 30 82 21 83 23 84 22 85
REMARK SMILES IDX 16 86 17 89 18 90 19 91 24 92 25 93 26 94 28 95 29 96 27 98
REMARK H PARENT 87 27 55 38 16 87 16 88 29 97 27 99
REMARK Flexibility Score: inf
ROOT
ATOM      1  O   UNL     1       1.708  -5.829  -2.184  1.00  0.00    -0.376 OA
ENDROOT
BRANCH   1   2
ATOM      2  C   UNL     1       2.598  -4.883  -2.784  1.00  0.00     0.188 C 
BRANCH   2   3
ATOM      3  C   UNL     1       2.155  -4.365  -4.176  1.00  0.00     0.188 C 
BRANCH   3   4
ATOM      4  O   UNL     1       1.498  -3.104  -4.051  1.00  0.00    -0.376 OA
BRANCH   4   5
ATOM      5  C   UNL     1       0.295  -2.885  -4.782  1.00  0.00     0.202 C 
BRANCH   5   6
ATOM      6  C   UNL     1       0.461  -2.088  -6.080  1.00  0.00     0.261 C 
BRANCH   6   7
ATOM      7  O   UNL     1       1.056  -0.810  -5.797  1.00  0.00    -0.460 OA
BRANCH   7   8
ATOM      8  C   UNL     1       2.407  -0.736  -5.837  1.00  0.00     0.338 C 
ATOM      9  O   UNL     1       3.158  -1.466  -6.475  1.00  0.00    -0.246 OA
BRANCH   8  10
ATOM     10  C   UNL     1       2.862   0.313  -4.880  1.00  0.00     0.060 A 
ATOM     11  C   UNL     1       1.950   0.882  -3.979  1.00  0.00     0.016 A 
ATOM     12  C   UNL     1       4.232   0.590  -4.734  1.00  0.00     0.016 A 
ATOM     13  C   UNL     1       2.401   1.651  -2.909  1.00  0.00     0.010 A 
ATOM     14  C   UNL     1       4.684   1.404  -3.681  1.00  0.00     0.010 A 
ATOM     15  C   UNL     1       3.769   1.927  -2.756  1.00  0.00    -0.014 A 
BRANCH  15  16
ATOM     16  C   UNL     1       4.136   2.980  -1.777  1.00  0.00     0.031 A 
ATOM     17  C   UNL     1       3.770   4.378  -2.165  1.00  0.00     0.074 A 
ATOM     18  C   UNL     1       4.716   2.732  -0.588  1.00  0.00     0.049 A 
ATOM     19  N   UNL     1       3.884   5.485  -1.486  1.00  0.00    -0.248 NA
ATOM     20  C   UNL     1       3.222   4.551  -3.524  1.00  0.00     0.031 C 
ATOM     21  C   UNL     1       5.183   1.427  -0.147  1.00  0.00     0.029 A 
ATOM     22  N   UNL     1       4.998   3.557   0.480  1.00  0.00    -0.354 N 
ATOM     23  C   UNL     1       3.471   6.484  -2.352  1.00  0.00     0.074 A 
ATOM     24  C   UNL     1       3.044   5.857  -3.579  1.00  0.00     0.031 C 
ATOM     25  C   UNL     1       5.621   1.522   1.120  1.00  0.00     0.029 A 
ATOM     26  C   UNL     1       5.493   2.895   1.585  1.00  0.00     0.049 A 
ATOM     27  H   UNL     1       4.859   4.531   0.456  1.00  0.00     0.167 HD
ATOM     28  C   UNL     1       3.520   7.819  -2.163  1.00  0.00     0.037 A 
ATOM     29  C   UNL     1       5.807   3.349   2.819  1.00  0.00     0.037 A 
ATOM     30  C   UNL     1       4.025   8.432  -0.971  1.00  0.00     0.049 A 
ATOM     31  C   UNL     1       5.780   4.847   3.026  1.00  0.00     0.074 A 
ATOM     32  C   UNL     1       4.176   9.775  -0.697  1.00  0.00     0.029 A 
ATOM     33  N   UNL     1       4.491   7.732   0.133  1.00  0.00    -0.354 N 
ATOM     34  N   UNL     1       5.361   5.785   2.211  1.00  0.00    -0.248 NA
ATOM     35  C   UNL     1       6.346   5.359   4.284  1.00  0.00     0.031 C 
ATOM     36  C   UNL     1       4.794   9.890   0.551  1.00  0.00     0.029 A 
ATOM     37  C   UNL     1       4.962   8.619   1.083  1.00  0.00     0.049 A 
ATOM     38  H   UNL     1       4.486   6.752   0.227  1.00  0.00     0.167 HD
ATOM     39  C   UNL     1       5.647   6.990   2.834  1.00  0.00     0.074 A 
ATOM     40  C   UNL     1       6.204   6.668   4.131  1.00  0.00     0.031 C 
ATOM     41  C   UNL     1       5.512   8.253   2.362  1.00  0.00     0.037 A 
BRANCH  28  42
ATOM     42  C   UNL     1       3.151   8.668  -3.337  1.00  0.00     0.064 A 
ATOM     43  C   UNL     1       1.828   8.791  -3.782  1.00  0.00     0.173 A 
ATOM     44  C   UNL     1       4.160   9.311  -4.070  1.00  0.00     0.173 A 
ATOM     45  F   UNL     1       0.838   8.149  -3.142  1.00  0.00    -0.203 F 
ATOM     46  C   UNL     1       1.530   9.510  -4.936  1.00  0.00     0.198 A 
ATOM     47  C   UNL     1       3.855  10.053  -5.205  1.00  0.00     0.198 A 
ATOM     48  F   UNL     1       5.444   9.196  -3.699  1.00  0.00    -0.203 F 
ATOM     49  F   UNL     1       0.268   9.558  -5.385  1.00  0.00    -0.200 F 
ATOM     50  C   UNL     1       2.542  10.145  -5.641  1.00  0.00     0.200 A 
ATOM     51  F   UNL     1       4.834  10.661  -5.888  1.00  0.00    -0.200 F 
ATOM     52  F   UNL     1       2.254  10.831  -6.756  1.00  0.00    -0.200 F 
ENDBRANCH  28  42
BRANCH  29  53
ATOM     53  C   UNL     1       6.233   2.442   3.938  1.00  0.00     0.064 A 
ATOM     54  C   UNL     1       5.559   2.451   5.175  1.00  0.00     0.173 A 
ATOM     55  C   UNL     1       7.353   1.602   3.843  1.00  0.00     0.173 A 
ATOM     56  F   UNL     1       4.498   3.252   5.355  1.00  0.00    -0.203 F 
ATOM     57  C   UNL     1       6.004   1.692   6.261  1.00  0.00     0.198 A 
ATOM     58  C   UNL     1       7.763   0.800   4.910  1.00  0.00     0.198 A 
ATOM     59  F   UNL     1       8.066   1.554   2.708  1.00  0.00    -0.203 F 
ATOM     60  F   UNL     1       5.387   1.792   7.447  1.00  0.00    -0.200 F 
ATOM     61  C   UNL     1       7.101   0.858   6.124  1.00  0.00     0.200 A 
ATOM     62  F   UNL     1       8.811  -0.022   4.760  1.00  0.00    -0.200 F 
ATOM     63  F   UNL     1       7.528   0.125   7.162  1.00  0.00    -0.200 F 
ENDBRANCH  29  53
BRANCH  41  64
ATOM     64  C   UNL     1       5.993   9.369   3.238  1.00  0.00     0.064 A 
ATOM     65  C   UNL     1       7.362   9.606   3.428  1.00  0.00     0.173 A 
ATOM     66  C   UNL     1       5.079  10.264   3.811  1.00  0.00     0.173 A 
ATOM     67  F   UNL     1       8.272   8.767   2.909  1.00  0.00    -0.203 F 
ATOM     68  C   UNL     1       7.799  10.698   4.170  1.00  0.00     0.198 A 
ATOM     69  C   UNL     1       5.521  11.373   4.524  1.00  0.00     0.198 A 
ATOM     70  F   UNL     1       3.760  10.082   3.647  1.00  0.00    -0.203 F 
ATOM     71  F   UNL     1       9.111  10.891   4.365  1.00  0.00    -0.200 F 
ATOM     72  C   UNL     1       6.879  11.587   4.706  1.00  0.00     0.200 A 
ATOM     73  F   UNL     1       4.632  12.242   5.025  1.00  0.00    -0.200 F 
ATOM     74  F   UNL     1       7.303  12.653   5.399  1.00  0.00    -0.200 F 
ENDBRANCH  41  64
ENDBRANCH  15  16
ENDBRANCH   8  10
ENDBRANCH   7   8
ENDBRANCH   6   7
ENDBRANCH   5   6
ENDBRANCH   4   5
ENDBRANCH   3   4
ENDBRANCH   2   3
ENDBRANCH   1   2
BRANCH   1  75
ATOM     75  C   UNL     1       0.709  -5.297  -1.317  1.00  0.00     0.202 C 
BRANCH  75  76
ATOM     76  C   UNL     1       1.161  -4.940   0.118  1.00  0.00     0.261 C 
BRANCH  76  77
ATOM     77  O   UNL     1       2.205  -3.934   0.253  1.00  0.00    -0.459 OA
BRANCH  77  78
ATOM     78  C   UNL     1       3.205  -4.243   1.118  1.00  0.00     0.368 C 
ATOM     79  O   UNL     1       3.300  -5.359   1.636  1.00  0.00    -0.245 OA
BRANCH  78  80
ATOM     80  C   UNL     1       4.251  -3.109   1.463  1.00  0.00     0.195 C 
ATOM     81  C   UNL     1       4.457  -3.181   2.998  1.00  0.00     0.081 C 
ATOM     82  C   UNL     1       4.059  -1.597   1.206  1.00  0.00     0.095 C 
ATOM     83  C   UNL     1       3.230  -2.617   3.739  1.00  0.00     0.008 C 
ATOM     84  C   UNL     1       3.028  -0.755   1.968  1.00  0.00     0.053 C 
ATOM     85  C   UNL     1       2.926  -1.149   3.440  1.00  0.00     0.015 C 
BRANCH  80  86
ATOM     86  N   UNL     1       5.526  -3.362   0.700  1.00  0.00    -0.330 N 
ATOM     87  H   UNL     1       6.278  -2.909   1.219  1.00  0.00     0.347 HD
ATOM     88  H   UNL     1       5.328  -2.998  -0.232  1.00  0.00     0.347 HD
BRANCH  86  89
ATOM     89  C   UNL     1       5.946  -4.739   0.454  1.00  0.00     0.183 C 
ATOM     90  C   UNL     1       5.811  -5.303  -0.934  1.00  0.00     0.071 C 
ATOM     91  C   UNL     1       7.167  -4.956  -0.405  1.00  0.00     0.071 C 
ENDBRANCH  86  89
ENDBRANCH  80  86
BRANCH  84  92
ATOM     92  S   UNL     1       1.513   0.056   1.283  1.00  0.00    -0.156 SA
BRANCH  92  93
ATOM     93  C   UNL     1       0.691  -1.179   0.253  1.00  0.00     0.104 C 
BRANCH  93  94
ATOM     94  C   UNL     1       1.104  -1.204  -1.221  1.00  0.00     0.149 C 
BRANCH  94  95
ATOM     95  C   UNL     1       2.607  -1.292  -1.430  1.00  0.00     0.188 C 
BRANCH  95  96
ATOM     96  O   UNL     1       3.039  -1.512  -2.752  1.00  0.00    -0.394 OA
ATOM     97  H   UNL     1       2.720  -2.376  -3.058  1.00  0.00     0.210 HD
ENDBRANCH  95  96
ENDBRANCH  94  95
BRANCH  94  98
ATOM     98  O   UNL     1       0.491  -2.345  -1.794  1.00  0.00    -0.390 OA
ATOM     99  H   UNL     1       0.808  -3.143  -1.343  1.00  0.00     0.211 HD
ENDBRANCH  94  98
ENDBRANCH  93  94
ENDBRANCH  92  93
ENDBRANCH  84  92
ENDBRANCH  78  80
ENDBRANCH  77  78
ENDBRANCH  76  77
ENDBRANCH  75  76
ENDBRANCH   1  75
TORSDOF 25
