REMARK SMILES Cc1ccc2oc(C(=O)N[C@@H]3C=C[C@H](C(=O)OCCOCCOCCOC(=O)c4ccc(-c5c6nc(c(-c7c(F)c(F)c(F)c(F)c7F)c7ccc([nH]7)c(-c7c(F)c(F)c(F)c(F)c7F)c7nc(c(-c8c(F)c(F)c(F)c(F)c8F)c8ccc5[nH]8)C=C7)C=C6)cc4)C3)cc2c1
REMARK SMILES IDX 21 1 20 2 19 3 18 4 17 5 15 6 16 7 14 8 11 9 12 10 92 11
REMARK SMILES IDX 13 12 10 13 8 14 9 15 7 17 1 18 2 19 3 20 95 21 4 22 94 23
REMARK SMILES IDX 5 24 93 25 6 26 22 27 23 28 24 29 25 30 26 31 27 32 28 33
REMARK SMILES IDX 29 34 30 35 91 36 31 37 90 38 32 39 33 40 34 41 84 42 35 43
REMARK SMILES IDX 89 44 83 45 85 46 36 47 88 48 82 49 81 50 37 52 69 53 49 54
REMARK SMILES IDX 68 55 50 56 53 57 67 58 86 59 51 60 52 61 66 63 87 64 54 65
REMARK SMILES IDX 38 66 39 67 47 68 40 69 41 70 45 71 48 72 42 73 43 74 46 75
REMARK SMILES IDX 44 76 70 77 71 78 79 79 72 80 73 81 77 82 80 83 74 84 75 85
REMARK SMILES IDX 78 86 76 87 55 88 56 89 64 90 57 91 58 92 62 93 65 94 59 95
REMARK SMILES IDX 60 96 63 97 61 98
REMARK H PARENT 10 16 85 51 53 62
REMARK Flexibility Score: inf
ROOT
ATOM      1  C   UNL     1      -0.335  -4.007   3.091  1.00  0.00     0.188 C 
ENDROOT
BRANCH   1   2
ATOM      2  O   UNL     1      -1.488  -4.758   2.767  1.00  0.00    -0.376 OA
BRANCH   2   3
ATOM      3  C   UNL     1      -1.515  -5.357   1.480  1.00  0.00     0.202 C 
BRANCH   3   4
ATOM      4  C   UNL     1      -0.419  -6.392   1.145  1.00  0.00     0.261 C 
BRANCH   4   5
ATOM      5  O   UNL     1       0.948  -5.996   1.397  1.00  0.00    -0.463 OA
BRANCH   5   6
ATOM      6  C   UNL     1       1.436  -5.003   0.611  1.00  0.00     0.312 C 
ATOM      7  O   UNL     1       0.795  -4.505  -0.306  1.00  0.00    -0.252 OA
BRANCH   6   8
ATOM      8  C   UNL     1       2.764  -4.430   1.155  1.00  0.00     0.124 C 
ATOM      9  C   UNL     1       3.821  -3.076  -0.560  1.00  0.00     0.106 C 
ATOM     10  C   UNL     1       4.687  -4.215  -0.179  1.00  0.00    -0.006 C 
ATOM     11  C   UNL     1       2.901  -2.984   0.661  1.00  0.00     0.048 C 
ATOM     12  C   UNL     1       4.088  -4.992   0.738  1.00  0.00    -0.014 C 
BRANCH   9  13
ATOM     13  N   UNL     1       3.163  -3.223  -1.861  1.00  0.00    -0.343 N 
ATOM     14  C   UNL     1       2.524  -4.184  -2.629  1.00  0.00     0.287 C 
ATOM     15  O   UNL     1       1.871  -3.718  -3.569  1.00  0.00    -0.266 OA
ATOM     16  H   UNL     1       3.181  -2.365  -2.344  1.00  0.00     0.164 HD
BRANCH  14  17
ATOM     17  C   UNL     1       2.596  -5.616  -2.376  1.00  0.00     0.192 A 
ATOM     18  C   UNL     1       2.500 -10.918   0.402  1.00  0.00     0.044 C 
ATOM     19  C   UNL     1       2.289  -9.826  -0.608  1.00  0.00    -0.050 A 
ATOM     20  C   UNL     1       1.237  -9.878  -1.537  1.00  0.00     0.007 A 
ATOM     21  C   UNL     1       3.130  -8.705  -0.577  1.00  0.00     0.015 A 
ATOM     22  C   UNL     1       0.927  -8.786  -2.368  1.00  0.00     0.048 A 
ATOM     23  C   UNL     1       2.871  -7.639  -1.449  1.00  0.00     0.021 A 
ATOM     24  C   UNL     1       1.736  -7.660  -2.238  1.00  0.00     0.135 A 
ATOM     25  C   UNL     1       3.531  -6.444  -1.792  1.00  0.00     0.065 A 
ATOM     26  O   UNL     1       1.552  -6.427  -2.805  1.00  0.00    -0.451 OA
ENDBRANCH  14  17
ENDBRANCH   9  13
ENDBRANCH   6   8
ENDBRANCH   5   6
ENDBRANCH   4   5
ENDBRANCH   3   4
ENDBRANCH   2   3
ENDBRANCH   1   2
BRANCH   1  27
ATOM     27  C   UNL     1       0.632  -4.763   4.028  1.00  0.00     0.188 C 
BRANCH  27  28
ATOM     28  O   UNL     1       0.225  -5.954   4.674  1.00  0.00    -0.376 OA
BRANCH  28  29
ATOM     29  C   UNL     1      -1.062  -5.994   5.260  1.00  0.00     0.202 C 
BRANCH  29  30
ATOM     30  C   UNL     1      -1.461  -4.892   6.258  1.00  0.00     0.261 C 
BRANCH  30  31
ATOM     31  O   UNL     1      -1.161  -3.534   5.871  1.00  0.00    -0.460 OA
BRANCH  31  32
ATOM     32  C   UNL     1      -0.132  -2.933   6.519  1.00  0.00     0.338 C 
ATOM     33  O   UNL     1       0.548  -3.405   7.422  1.00  0.00    -0.246 OA
BRANCH  32  34
ATOM     34  C   UNL     1       0.220  -1.657   5.851  1.00  0.00     0.060 A 
ATOM     35  C   UNL     1       1.492  -1.517   5.269  1.00  0.00     0.016 A 
ATOM     36  C   UNL     1      -0.666  -0.581   5.849  1.00  0.00     0.016 A 
ATOM     37  C   UNL     1       1.885  -0.303   4.697  1.00  0.00     0.010 A 
ATOM     38  C   UNL     1      -0.259   0.646   5.308  1.00  0.00     0.010 A 
ATOM     39  C   UNL     1       1.028   0.801   4.755  1.00  0.00    -0.014 A 
BRANCH  39  40
ATOM     40  C   UNL     1       1.541   2.160   4.436  1.00  0.00     0.031 A 
ATOM     41  C   UNL     1       1.980   3.042   5.574  1.00  0.00     0.074 A 
ATOM     42  C   UNL     1       1.621   2.612   3.172  1.00  0.00     0.049 A 
ATOM     43  N   UNL     1       2.367   4.293   5.562  1.00  0.00    -0.248 NA
ATOM     44  C   UNL     1       1.976   2.426   6.911  1.00  0.00     0.031 C 
ATOM     45  C   UNL     1       1.282   1.848   1.975  1.00  0.00     0.029 A 
ATOM     46  N   UNL     1       2.001   3.843   2.691  1.00  0.00    -0.354 N 
ATOM     47  C   UNL     1       2.636   4.616   6.886  1.00  0.00     0.074 A 
ATOM     48  C   UNL     1       2.344   3.441   7.678  1.00  0.00     0.031 C 
ATOM     49  C   UNL     1       1.447   2.634   0.896  1.00  0.00     0.029 A 
ATOM     50  C   UNL     1       1.866   3.968   1.329  1.00  0.00     0.049 A 
ATOM     51  H   UNL     1       2.338   4.567   3.267  1.00  0.00     0.167 HD
ATOM     52  C   UNL     1       3.089   5.786   7.398  1.00  0.00     0.037 A 
ATOM     53  C   UNL     1       2.029   5.043   0.532  1.00  0.00     0.037 A 
ATOM     54  C   UNL     1       3.375   6.958   6.613  1.00  0.00     0.049 A 
ATOM     55  C   UNL     1       2.448   6.363   1.137  1.00  0.00     0.074 A 
ATOM     56  C   UNL     1       3.854   8.185   7.038  1.00  0.00     0.029 A 
ATOM     57  N   UNL     1       3.196   7.054   5.241  1.00  0.00    -0.354 N 
ATOM     58  N   UNL     1       2.723   6.657   2.385  1.00  0.00    -0.248 NA
ATOM     59  C   UNL     1       2.579   7.503   0.216  1.00  0.00     0.031 C 
ATOM     60  C   UNL     1       3.904   9.042   5.934  1.00  0.00     0.029 A 
ATOM     61  C   UNL     1       3.526   8.329   4.809  1.00  0.00     0.049 A 
ATOM     62  H   UNL     1       2.881   6.324   4.660  1.00  0.00     0.167 HD
ATOM     63  C   UNL     1       3.093   7.997   2.392  1.00  0.00     0.074 A 
ATOM     64  C   UNL     1       3.019   8.457   1.023  1.00  0.00     0.031 C 
ATOM     65  C   UNL     1       3.463   8.775   3.440  1.00  0.00     0.037 A 
BRANCH  52  66
ATOM     66  C   UNL     1       3.271   5.868   8.887  1.00  0.00     0.064 A 
ATOM     67  C   UNL     1       4.284   5.159   9.550  1.00  0.00     0.173 A 
ATOM     68  C   UNL     1       2.436   6.691   9.658  1.00  0.00     0.173 A 
ATOM     69  F   UNL     1       5.101   4.347   8.862  1.00  0.00    -0.203 F 
ATOM     70  C   UNL     1       4.435   5.248  10.931  1.00  0.00     0.198 A 
ATOM     71  C   UNL     1       2.611   6.805  11.034  1.00  0.00     0.198 A 
ATOM     72  F   UNL     1       1.453   7.395   9.074  1.00  0.00    -0.203 F 
ATOM     73  F   UNL     1       5.375   4.521  11.549  1.00  0.00    -0.200 F 
ATOM     74  C   UNL     1       3.604   6.077  11.671  1.00  0.00     0.200 A 
ATOM     75  F   UNL     1       1.817   7.619  11.744  1.00  0.00    -0.200 F 
ATOM     76  F   UNL     1       3.756   6.168  12.999  1.00  0.00    -0.200 F 
ENDBRANCH  52  66
BRANCH  53  77
ATOM     77  C   UNL     1       1.781   4.935  -0.931  1.00  0.00     0.064 A 
ATOM     78  C   UNL     1       2.826   5.080  -1.855  1.00  0.00     0.173 A 
ATOM     79  C   UNL     1       0.490   4.727  -1.439  1.00  0.00     0.173 A 
ATOM     80  F   UNL     1       4.074   5.312  -1.421  1.00  0.00    -0.203 F 
ATOM     81  C   UNL     1       2.587   5.042  -3.227  1.00  0.00     0.198 A 
ATOM     82  C   UNL     1       0.257   4.657  -2.812  1.00  0.00     0.198 A 
ATOM     83  F   UNL     1      -0.548   4.590  -0.601  1.00  0.00    -0.203 F 
ATOM     84  F   UNL     1       3.597   5.241  -4.086  1.00  0.00    -0.200 F 
ATOM     85  C   UNL     1       1.304   4.824  -3.705  1.00  0.00     0.200 A 
ATOM     86  F   UNL     1      -0.984   4.437  -3.268  1.00  0.00    -0.200 F 
ATOM     87  F   UNL     1       1.075   4.789  -5.024  1.00  0.00    -0.200 F 
ENDBRANCH  53  77
BRANCH  65  88
ATOM     88  C   UNL     1       3.872  10.193   3.148  1.00  0.00     0.064 A 
ATOM     89  C   UNL     1       2.946  11.166   2.744  1.00  0.00     0.173 A 
ATOM     90  C   UNL     1       5.207  10.594   3.321  1.00  0.00     0.173 A 
ATOM     91  F   UNL     1       1.660  10.836   2.552  1.00  0.00    -0.203 F 
ATOM     92  C   UNL     1       3.345  12.478   2.497  1.00  0.00     0.198 A 
ATOM     93  C   UNL     1       5.596  11.914   3.107  1.00  0.00     0.198 A 
ATOM     94  F   UNL     1       6.134   9.708   3.715  1.00  0.00    -0.203 F 
ATOM     95  F   UNL     1       2.452  13.378   2.061  1.00  0.00    -0.200 F 
ATOM     96  C   UNL     1       4.667  12.853   2.687  1.00  0.00     0.200 A 
ATOM     97  F   UNL     1       6.870  12.277   3.310  1.00  0.00    -0.200 F 
ATOM     98  F   UNL     1       5.047  14.117   2.458  1.00  0.00    -0.200 F 
ENDBRANCH  65  88
ENDBRANCH  39  40
ENDBRANCH  32  34
ENDBRANCH  31  32
ENDBRANCH  30  31
ENDBRANCH  29  30
ENDBRANCH  28  29
ENDBRANCH  27  28
ENDBRANCH   1  27
TORSDOF 19
