REMARK SMILES CC(C)C[C@H](NC(=O)[C@H]1CCCCC[C@H]1[NH3+])C(=O)OCCOCCOCCOC(=O)c1ccc(-c2c3nc(c(-c4c(F)c(F)c(F)c(F)c4F)c4ccc([nH]4)c(-c4c(F)c(F)c(F)c(F)c4F)c4nc(c(-c5c(F)c(F)c(F)c(F)c5F)c5ccc2[nH]5)C=C4)C=C3)cc1
REMARK SMILES IDX 22 1 21 2 20 3 19 4 17 5 18 6 5 7 4 8 2 9 1 10 3 11 6 12
REMARK SMILES IDX 7 13 8 15 9 16 10 17 11 18 12 19 15 21 14 22 13 23 16 25
REMARK SMILES IDX 23 29 24 30 25 31 26 32 27 33 28 34 29 35 30 36 31 37 32 38
REMARK SMILES IDX 93 39 33 40 92 41 34 42 35 43 36 44 86 45 37 46 91 47 85 48
REMARK SMILES IDX 87 49 38 50 90 51 84 52 83 53 39 55 71 56 51 57 70 58 52 59
REMARK SMILES IDX 55 60 69 61 88 62 53 63 54 64 68 66 89 67 56 68 40 69 41 70
REMARK SMILES IDX 49 71 42 72 43 73 47 74 50 75 44 76 45 77 48 78 46 79 72 80
REMARK SMILES IDX 73 81 81 82 74 83 75 84 79 85 82 86 76 87 77 88 80 89 78 90
REMARK SMILES IDX 57 91 58 92 66 93 59 94 60 95 64 96 67 97 61 98 62 99 65 100
REMARK SMILES IDX 63 101
REMARK H PARENT 6 14 16 26 16 27 16 28 87 54 55 65
REMARK Flexibility Score: 90.00
ROOT
ATOM      1  O   UNL     1      -3.949  -5.775  -1.464  1.00  0.00    -0.376 OA
ENDROOT
BRANCH   1   2
ATOM      2  C   UNL     1      -3.002  -4.702  -1.726  1.00  0.00     0.202 C 
BRANCH   2   3
ATOM      3  C   UNL     1      -2.984  -3.626  -0.535  1.00  0.00     0.261 C 
BRANCH   3   4
ATOM      4  O   UNL     1      -3.046  -4.150   0.856  1.00  0.00    -0.462 OA
BRANCH   4   5
ATOM      5  C   UNL     1      -4.268  -4.530   1.320  1.00  0.00     0.328 C 
ATOM      6  O   UNL     1      -5.309  -4.153   0.780  1.00  0.00    -0.250 OA
BRANCH   5   7
ATOM      7  C   UNL     1      -4.314  -5.429   2.697  1.00  0.00     0.192 C 
BRANCH   7   8
ATOM      8  C   UNL     1      -4.433  -4.376   3.801  1.00  0.00     0.040 C 
BRANCH   8   9
ATOM      9  C   UNL     1      -3.242  -4.298   4.765  1.00  0.00    -0.015 C 
ATOM     10  C   UNL     1      -1.869  -4.231   4.078  1.00  0.00     0.007 C 
ATOM     11  C   UNL     1      -3.438  -3.106   5.682  1.00  0.00     0.007 C 
ENDBRANCH   8   9
ENDBRANCH   7   8
BRANCH   7  12
ATOM     12  N   UNL     1      -3.436  -6.604   3.214  1.00  0.00    -0.342 N 
ATOM     13  C   UNL     1      -3.218  -7.945   3.004  1.00  0.00     0.229 C 
ATOM     14  H   UNL     1      -2.839  -6.281   3.926  1.00  0.00     0.164 HD
ATOM     15  O   UNL     1      -2.571  -8.562   3.850  1.00  0.00    -0.275 OA
BRANCH  13  16
ATOM     16  C   UNL     1      -3.786  -8.629   1.814  1.00  0.00     0.136 C 
BRANCH  16  17
ATOM     17  C   UNL     1      -3.932  -7.380   0.773  1.00  0.00     0.020 C 
BRANCH  17  18
ATOM     18  C   UNL     1      -2.308  -6.747   0.117  1.00  0.00     0.001 C 
BRANCH  18  19
ATOM     19  C   UNL     1      -1.409  -7.500  -1.508  1.00  0.00     0.000 CG0
ATOM     20  G   UNL     1      -1.234  -9.609  -1.352  1.00  0.00     0.000 G0
ENDBRANCH  18  19
ENDBRANCH  17  18
ENDBRANCH  16  17
BRANCH  16  21
ATOM     21  C   UNL     1      -3.041 -10.194   1.285  1.00  0.00     0.193 C 
BRANCH  21  22
ATOM     22  C   UNL     1      -1.606 -10.423   0.326  1.00  0.00     0.066 C 
BRANCH  22  23
ATOM     23  C   UNL     1      -1.234  -9.609  -1.352  1.00  0.00     0.006 CG0
ATOM     24  G   UNL     1      -1.409  -7.500  -1.508  1.00  0.00     0.000 G0
ENDBRANCH  22  23
ENDBRANCH  21  22
BRANCH  21  25
ATOM     25  N   UNL     1      -3.033 -11.195   2.356  1.00  0.00    -0.354 N 
ATOM     26  H   UNL     1      -2.301 -10.967   3.029  1.00  0.00     0.344 HD
ATOM     27  H   UNL     1      -2.853 -12.117   1.958  1.00  0.00     0.344 HD
ATOM     28  H   UNL     1      -3.938 -11.198   2.825  1.00  0.00     0.344 HD
ENDBRANCH  21  25
ENDBRANCH  16  21
ENDBRANCH  13  16
ENDBRANCH   7  12
ENDBRANCH   5   7
ENDBRANCH   4   5
ENDBRANCH   3   4
ENDBRANCH   2   3
ENDBRANCH   1   2
BRANCH   1  29
ATOM     29  C   UNL     1      -3.720  -7.177  -1.836  1.00  0.00     0.188 C 
BRANCH  29  30
ATOM     30  C   UNL     1      -2.834  -8.542  -0.821  1.00  0.00     0.188 C 
BRANCH  30  31
ATOM     31  O   UNL     1      -1.090  -8.392   0.076  1.00  0.00    -0.376 OA
BRANCH  31  32
ATOM     32  C   UNL     1       0.457  -8.371  -0.956  1.00  0.00     0.202 C 
BRANCH  32  33
ATOM     33  C   UNL     1       0.296  -8.578  -2.855  1.00  0.00     0.261 C 
BRANCH  33  34
ATOM     34  O   UNL     1      -1.201  -8.955  -3.562  1.00  0.00    -0.460 OA
BRANCH  34  35
ATOM     35  C   UNL     1      -1.663 -10.145  -4.165  1.00  0.00     0.338 C 
ATOM     36  O   UNL     1      -0.876 -10.941  -4.662  1.00  0.00    -0.246 OA
BRANCH  35  37
ATOM     37  C   UNL     1      -3.224 -10.601  -3.987  1.00  0.00     0.060 A 
ATOM     38  C   UNL     1      -4.132  -9.992  -3.132  1.00  0.00     0.016 A 
ATOM     39  C   UNL     1      -3.779 -11.767  -4.513  1.00  0.00     0.016 A 
ATOM     40  C   UNL     1      -5.380 -10.481  -2.646  1.00  0.00     0.010 A 
ATOM     41  C   UNL     1      -5.130 -12.209  -4.193  1.00  0.00     0.010 A 
ATOM     42  C   UNL     1      -5.965 -11.568  -3.248  1.00  0.00    -0.014 A 
BRANCH  42  43
ATOM     43  C   UNL     1      -7.402 -11.972  -2.976  1.00  0.00     0.031 A 
ATOM     44  C   UNL     1      -7.730 -13.414  -2.700  1.00  0.00     0.074 A 
ATOM     45  C   UNL     1      -8.447 -11.107  -3.043  1.00  0.00     0.049 A 
ATOM     46  N   UNL     1      -8.814 -14.098  -2.964  1.00  0.00    -0.248 NA
ATOM     47  C   UNL     1      -6.673 -14.189  -2.039  1.00  0.00     0.031 C 
ATOM     48  C   UNL     1      -8.363  -9.646  -3.086  1.00  0.00     0.029 A 
ATOM     49  N   UNL     1      -9.809 -11.344  -3.158  1.00  0.00    -0.354 N 
ATOM     50  C   UNL     1      -8.527 -15.412  -2.611  1.00  0.00     0.074 A 
ATOM     51  C   UNL     1      -7.184 -15.413  -2.064  1.00  0.00     0.031 C 
ATOM     52  C   UNL     1      -9.583  -9.127  -3.294  1.00  0.00     0.029 A 
ATOM     53  C   UNL     1     -10.526 -10.215  -3.507  1.00  0.00     0.049 A 
ATOM     54  H   UNL     1     -10.222 -12.225  -3.006  1.00  0.00     0.167 HD
ATOM     55  C   UNL     1      -9.305 -16.511  -2.777  1.00  0.00     0.037 A 
ATOM     56  C   UNL     1     -11.757 -10.065  -4.045  1.00  0.00     0.037 A 
ATOM     57  C   UNL     1     -10.654 -16.464  -3.287  1.00  0.00     0.049 A 
ATOM     58  C   UNL     1     -12.579 -11.293  -4.340  1.00  0.00     0.074 A 
ATOM     59  C   UNL     1     -11.535 -17.507  -3.515  1.00  0.00     0.029 A 
ATOM     60  N   UNL     1     -11.319 -15.298  -3.644  1.00  0.00    -0.354 N 
ATOM     61  N   UNL     1     -12.276 -12.553  -4.141  1.00  0.00    -0.248 NA
ATOM     62  C   UNL     1     -13.900 -11.086  -4.951  1.00  0.00     0.031 C 
ATOM     63  C   UNL     1     -12.703 -16.979  -4.075  1.00  0.00     0.029 A 
ATOM     64  C   UNL     1     -12.585 -15.598  -4.120  1.00  0.00     0.049 A 
ATOM     65  H   UNL     1     -10.945 -14.390  -3.570  1.00  0.00     0.167 HD
ATOM     66  C   UNL     1     -13.375 -13.285  -4.569  1.00  0.00     0.074 A 
ATOM     67  C   UNL     1     -14.356 -12.328  -5.038  1.00  0.00     0.031 C 
ATOM     68  C   UNL     1     -13.556 -14.629  -4.567  1.00  0.00     0.037 A 
BRANCH  55  69
ATOM     69  C   UNL     1      -8.678 -17.855  -2.518  1.00  0.00     0.064 A 
ATOM     70  C   UNL     1      -8.301 -18.285  -1.238  1.00  0.00     0.173 A 
ATOM     71  C   UNL     1      -8.434 -18.728  -3.593  1.00  0.00     0.173 A 
ATOM     72  F   UNL     1      -8.502 -17.494  -0.173  1.00  0.00    -0.203 F 
ATOM     73  C   UNL     1      -7.654 -19.506  -1.051  1.00  0.00     0.198 A 
ATOM     74  C   UNL     1      -7.825 -19.965  -3.398  1.00  0.00     0.198 A 
ATOM     75  F   UNL     1      -8.782 -18.379  -4.841  1.00  0.00    -0.203 F 
ATOM     76  F   UNL     1      -7.231 -19.858   0.171  1.00  0.00    -0.200 F 
ATOM     77  C   UNL     1      -7.419 -20.346  -2.130  1.00  0.00     0.200 A 
ATOM     78  F   UNL     1      -7.615 -20.779  -4.442  1.00  0.00    -0.200 F 
ATOM     79  F   UNL     1      -6.790 -21.515  -1.950  1.00  0.00    -0.200 F 
ENDBRANCH  55  69
BRANCH  56  80
ATOM     80  C   UNL     1     -12.246  -8.707  -4.439  1.00  0.00     0.064 A 
ATOM     81  C   UNL     1     -13.341  -8.112  -3.796  1.00  0.00     0.173 A 
ATOM     82  C   UNL     1     -11.630  -7.975  -5.469  1.00  0.00     0.173 A 
ATOM     83  F   UNL     1     -13.993  -8.778  -2.833  1.00  0.00    -0.203 F 
ATOM     84  C   UNL     1     -13.798  -6.845  -4.165  1.00  0.00     0.198 A 
ATOM     85  C   UNL     1     -12.066  -6.695  -5.813  1.00  0.00     0.198 A 
ATOM     86  F   UNL     1     -10.587  -8.495  -6.133  1.00  0.00    -0.203 F 
ATOM     87  F   UNL     1     -14.872  -6.320  -3.559  1.00  0.00    -0.200 F 
ATOM     88  C   UNL     1     -13.153  -6.133  -5.164  1.00  0.00     0.200 A 
ATOM     89  F   UNL     1     -11.430  -6.007  -6.772  1.00  0.00    -0.200 F 
ATOM     90  F   UNL     1     -13.584  -4.910  -5.506  1.00  0.00    -0.200 F 
ENDBRANCH  56  80
BRANCH  68  91
ATOM     91  C   UNL     1     -14.888 -15.152  -5.024  1.00  0.00     0.064 A 
ATOM     92  C   UNL     1     -15.270 -15.140  -6.372  1.00  0.00     0.173 A 
ATOM     93  C   UNL     1     -15.760 -15.747  -4.098  1.00  0.00     0.173 A 
ATOM     94  F   UNL     1     -14.480 -14.568  -7.294  1.00  0.00    -0.203 F 
ATOM     95  C   UNL     1     -16.481 -15.696  -6.776  1.00  0.00     0.198 A 
ATOM     96  C   UNL     1     -16.953 -16.331  -4.510  1.00  0.00     0.198 A 
ATOM     97  F   UNL     1     -15.440 -15.786  -2.796  1.00  0.00    -0.203 F 
ATOM     98  F   UNL     1     -16.844 -15.643  -8.065  1.00  0.00    -0.200 F 
ATOM     99  C   UNL     1     -17.315 -16.302  -5.848  1.00  0.00     0.200 A 
ATOM    100  F   UNL     1     -17.748 -16.932  -3.613  1.00  0.00    -0.200 F 
ATOM    101  F   UNL     1     -18.469 -16.858  -6.242  1.00  0.00    -0.200 F 
ENDBRANCH  68  91
ENDBRANCH  42  43
ENDBRANCH  35  37
ENDBRANCH  34  35
ENDBRANCH  33  34
ENDBRANCH  32  33
ENDBRANCH  31  32
ENDBRANCH  30  31
ENDBRANCH  29  30
ENDBRANCH   1  29
TORSDOF 22
