REMARK SMILES CC[NH+]1CCN(c2ccc(NC(=O)C3CCCC3)c(C(=O)OCCOCCOCCOC(=O)c3ccc(-c4c5nc(c(-c6c(F)c(F)c(F)c(F)c6F)c6ccc([nH]6)c(-c6c(F)c(F)c(F)c(F)c6F)c6nc(c(-c7c(F)c(F)c(F)c(F)c7F)c7ccc4[nH]7)C=C6)C=C5)cc3)c2)CC1
REMARK SMILES IDX 26 1 25 2 24 3 23 4 22 5 20 6 21 7 19 8 7 9 8 10 97 11 9 12
REMARK SMILES IDX 10 13 6 14 3 15 4 16 99 17 5 19 98 20 2 21 1 22 11 23 12 24
REMARK SMILES IDX 13 26 14 27 15 28 18 29 16 30 17 31 27 32 28 33 29 34 30 35
REMARK SMILES IDX 31 36 32 37 33 38 34 39 35 40 96 41 36 42 95 43 37 44 38 45
REMARK SMILES IDX 39 46 89 47 40 48 94 49 88 50 90 51 41 52 93 53 87 54 86 55
REMARK SMILES IDX 42 57 74 58 54 59 73 60 55 61 58 62 72 63 91 64 56 65 57 66
REMARK SMILES IDX 71 68 92 69 59 70 43 71 44 72 52 73 45 74 46 75 50 76 53 77
REMARK SMILES IDX 47 78 48 79 51 80 49 81 75 82 76 83 84 84 77 85 78 86 82 87
REMARK SMILES IDX 85 88 79 89 80 90 83 91 81 92 60 93 61 94 69 95 62 96 63 97
REMARK SMILES IDX 67 98 70 99 64 100 65 101 68 102 66 103
REMARK H PARENT 3 18 11 25 90 56 58 67
REMARK Flexibility Score: inf
ROOT
ATOM      1  C   UNL     1       0.398   6.011   7.717  1.00  0.00     0.188 C 
ENDROOT
BRANCH   1   2
ATOM      2  O   UNL     1      -0.063   5.903   9.061  1.00  0.00    -0.376 OA
BRANCH   2   3
ATOM      3  C   UNL     1      -0.571   4.652   9.517  1.00  0.00     0.202 C 
BRANCH   3   4
ATOM      4  C   UNL     1      -1.871   4.173   8.866  1.00  0.00     0.261 C 
BRANCH   4   5
ATOM      5  O   UNL     1      -1.688   3.853   7.474  1.00  0.00    -0.460 OA
BRANCH   5   6
ATOM      6  C   UNL     1      -2.530   4.459   6.592  1.00  0.00     0.340 C 
ATOM      7  O   UNL     1      -3.493   5.145   6.850  1.00  0.00    -0.246 OA
BRANCH   6   8
ATOM      8  C   UNL     1      -1.888   4.395   5.255  1.00  0.00     0.085 A 
ATOM      9  C   UNL     1      -0.580   3.101   3.629  1.00  0.00     0.038 A 
ATOM     10  C   UNL     1      -0.145   4.341   3.139  1.00  0.00     0.028 A 
ATOM     11  C   UNL     1      -1.401   3.166   4.765  1.00  0.00     0.043 A 
ATOM     12  C   UNL     1      -0.614   5.556   3.639  1.00  0.00     0.029 A 
ATOM     13  C   UNL     1      -1.627   5.588   4.570  1.00  0.00     0.055 A 
BRANCH   9  14
ATOM     14  N   UNL     1      -0.143   1.906   3.085  1.00  0.00    -0.360 N 
ATOM     15  N   UNL     1       1.052  -0.639   2.133  1.00  0.00    -0.332 N 
ATOM     16  C   UNL     1       1.748   0.658   2.101  1.00  0.00     0.283 C 
ATOM     17  C   UNL     1       0.046  -0.589   3.225  1.00  0.00     0.283 C 
ATOM     18  H   UNL     1       1.754  -1.359   2.304  1.00  0.00     0.348 HD
ATOM     19  C   UNL     1       0.822   1.878   1.968  1.00  0.00     0.178 C 
ATOM     20  C   UNL     1      -0.905   0.643   3.222  1.00  0.00     0.178 C 
BRANCH  15  21
ATOM     21  C   UNL     1       0.435  -1.043   0.862  1.00  0.00     0.258 C 
ATOM     22  C   UNL     1       1.282  -0.796  -0.385  1.00  0.00     0.071 C 
ENDBRANCH  15  21
ENDBRANCH   9  14
BRANCH  13  23
ATOM     23  N   UNL     1      -2.295   6.779   4.879  1.00  0.00    -0.325 N 
ATOM     24  C   UNL     1      -2.562   7.914   4.182  1.00  0.00     0.227 C 
ATOM     25  H   UNL     1      -2.646   6.798   5.798  1.00  0.00     0.169 HD
ATOM     26  O   UNL     1      -3.024   8.847   4.860  1.00  0.00    -0.274 OA
BRANCH  24  27
ATOM     27  C   UNL     1      -2.444   8.130   2.659  1.00  0.00     0.079 C 
ATOM     28  C   UNL     1      -2.047   7.074   1.633  1.00  0.00     0.013 C 
ATOM     29  C   UNL     1      -3.842   8.555   2.144  1.00  0.00     0.013 C 
ATOM     30  C   UNL     1      -2.580   7.601   0.313  1.00  0.00     0.001 C 
ATOM     31  C   UNL     1      -3.947   8.132   0.678  1.00  0.00     0.001 C 
ENDBRANCH  24  27
ENDBRANCH  13  23
ENDBRANCH   6   8
ENDBRANCH   5   6
ENDBRANCH   4   5
ENDBRANCH   3   4
ENDBRANCH   2   3
ENDBRANCH   1   2
BRANCH   1  32
ATOM     32  C   UNL     1       1.273   4.879   7.148  1.00  0.00     0.188 C 
BRANCH  32  33
ATOM     33  O   UNL     1       1.938   4.155   8.172  1.00  0.00    -0.376 OA
BRANCH  33  34
ATOM     34  C   UNL     1       3.352   4.202   8.171  1.00  0.00     0.202 C 
BRANCH  34  35
ATOM     35  C   UNL     1       3.950   5.528   8.652  1.00  0.00     0.261 C 
BRANCH  35  36
ATOM     36  O   UNL     1       3.467   6.707   7.988  1.00  0.00    -0.460 OA
BRANCH  36  37
ATOM     37  C   UNL     1       3.922   6.956   6.742  1.00  0.00     0.338 C 
ATOM     38  O   UNL     1       4.663   6.261   6.072  1.00  0.00    -0.246 OA
BRANCH  37  39
ATOM     39  C   UNL     1       3.247   8.181   6.260  1.00  0.00     0.060 A 
ATOM     40  C   UNL     1       2.468   8.123   5.098  1.00  0.00     0.016 A 
ATOM     41  C   UNL     1       3.374   9.381   6.966  1.00  0.00     0.016 A 
ATOM     42  C   UNL     1       1.818   9.274   4.637  1.00  0.00     0.010 A 
ATOM     43  C   UNL     1       2.736  10.532   6.496  1.00  0.00     0.010 A 
ATOM     44  C   UNL     1       1.964  10.490   5.322  1.00  0.00    -0.014 A 
BRANCH  44  45
ATOM     45  C   UNL     1       1.385  11.744   4.780  1.00  0.00     0.031 A 
ATOM     46  C   UNL     1       2.245  12.662   3.961  1.00  0.00     0.074 A 
ATOM     47  C   UNL     1       0.107  12.079   5.036  1.00  0.00     0.049 A 
ATOM     48  N   UNL     1       1.964  13.838   3.458  1.00  0.00    -0.248 NA
ATOM     49  C   UNL     1       3.606  12.189   3.665  1.00  0.00     0.031 C 
ATOM     50  C   UNL     1      -0.843  11.261   5.782  1.00  0.00     0.029 A 
ATOM     51  N   UNL     1      -0.606  13.204   4.698  1.00  0.00    -0.354 N 
ATOM     52  C   UNL     1       3.110  14.248   2.791  1.00  0.00     0.074 A 
ATOM     53  C   UNL     1       4.098  13.203   2.967  1.00  0.00     0.031 C 
ATOM     54  C   UNL     1      -2.015  11.913   5.856  1.00  0.00     0.029 A 
ATOM     55  C   UNL     1      -1.885  13.210   5.196  1.00  0.00     0.049 A 
ATOM     56  H   UNL     1      -0.235  13.934   4.152  1.00  0.00     0.167 HD
ATOM     57  C   UNL     1       3.319  15.391   2.096  1.00  0.00     0.037 A 
ATOM     58  C   UNL     1      -2.835  14.165   5.148  1.00  0.00     0.037 A 
ATOM     59  C   UNL     1       2.345  16.437   1.931  1.00  0.00     0.049 A 
ATOM     60  C   UNL     1      -2.546  15.465   4.443  1.00  0.00     0.074 A 
ATOM     61  C   UNL     1       2.461  17.622   1.224  1.00  0.00     0.029 A 
ATOM     62  N   UNL     1       1.077  16.432   2.494  1.00  0.00    -0.354 N 
ATOM     63  N   UNL     1      -1.470  15.835   3.793  1.00  0.00    -0.248 NA
ATOM     64  C   UNL     1      -3.605  16.486   4.474  1.00  0.00     0.031 C 
ATOM     65  C   UNL     1       1.283  18.356   1.400  1.00  0.00     0.029 A 
ATOM     66  C   UNL     1       0.415  17.608   2.179  1.00  0.00     0.049 A 
ATOM     67  H   UNL     1       0.704  15.701   3.038  1.00  0.00     0.167 HD
ATOM     68  C   UNL     1      -1.725  17.118   3.328  1.00  0.00     0.074 A 
ATOM     69  C   UNL     1      -3.067  17.459   3.752  1.00  0.00     0.031 C 
ATOM     70  C   UNL     1      -0.917  17.941   2.615  1.00  0.00     0.037 A 
BRANCH  57  71
ATOM     71  C   UNL     1       4.673  15.585   1.482  1.00  0.00     0.064 A 
ATOM     72  C   UNL     1       5.072  14.869   0.344  1.00  0.00     0.173 A 
ATOM     73  C   UNL     1       5.566  16.524   2.018  1.00  0.00     0.173 A 
ATOM     74  F   UNL     1       4.258  13.950  -0.197  1.00  0.00    -0.203 F 
ATOM     75  C   UNL     1       6.328  15.073  -0.224  1.00  0.00     0.198 A 
ATOM     76  C   UNL     1       6.811  16.741   1.434  1.00  0.00     0.198 A 
ATOM     77  F   UNL     1       5.229  17.235   3.104  1.00  0.00    -0.203 F 
ATOM     78  F   UNL     1       6.705  14.351  -1.288  1.00  0.00    -0.200 F 
ATOM     79  C   UNL     1       7.193  16.013   0.318  1.00  0.00     0.200 A 
ATOM     80  F   UNL     1       7.642  17.656   1.953  1.00  0.00    -0.200 F 
ATOM     81  F   UNL     1       8.398  16.211  -0.233  1.00  0.00    -0.200 F 
ENDBRANCH  57  71
BRANCH  58  82
ATOM     82  C   UNL     1      -4.145  13.943   5.813  1.00  0.00     0.064 A 
ATOM     83  C   UNL     1      -5.319  13.792   5.063  1.00  0.00     0.173 A 
ATOM     84  C   UNL     1      -4.253  13.906   7.211  1.00  0.00     0.173 A 
ATOM     85  F   UNL     1      -5.273  13.862   3.725  1.00  0.00    -0.203 F 
ATOM     86  C   UNL     1      -6.554  13.626   5.688  1.00  0.00     0.198 A 
ATOM     87  C   UNL     1      -5.484  13.714   7.834  1.00  0.00     0.198 A 
ATOM     88  F   UNL     1      -3.161  14.066   7.974  1.00  0.00    -0.203 F 
ATOM     89  F   UNL     1      -7.670  13.540   4.949  1.00  0.00    -0.200 F 
ATOM     90  C   UNL     1      -6.635  13.581   7.072  1.00  0.00     0.200 A 
ATOM     91  F   UNL     1      -5.558  13.676   9.171  1.00  0.00    -0.200 F 
ATOM     92  F   UNL     1      -7.824  13.431   7.671  1.00  0.00    -0.200 F 
ENDBRANCH  58  82
BRANCH  70  93
ATOM     93  C   UNL     1      -1.463  19.289   2.240  1.00  0.00     0.064 A 
ATOM     94  C   UNL     1      -1.609  20.309   3.192  1.00  0.00     0.173 A 
ATOM     95  C   UNL     1      -1.802  19.578   0.910  1.00  0.00     0.173 A 
ATOM     96  F   UNL     1      -1.312  20.078   4.480  1.00  0.00    -0.203 F 
ATOM     97  C   UNL     1      -2.095  21.562   2.829  1.00  0.00     0.198 A 
ATOM     98  C   UNL     1      -2.262  20.841   0.546  1.00  0.00     0.198 A 
ATOM     99  F   UNL     1      -1.674  18.640  -0.040  1.00  0.00    -0.203 F 
ATOM    100  F   UNL     1      -2.264  22.509   3.763  1.00  0.00    -0.200 F 
ATOM    101  C   UNL     1      -2.414  21.829   1.506  1.00  0.00     0.200 A 
ATOM    102  F   UNL     1      -2.558  21.101  -0.735  1.00  0.00    -0.200 F 
ATOM    103  F   UNL     1      -2.874  23.039   1.157  1.00  0.00    -0.200 F 
ENDBRANCH  70  93
ENDBRANCH  44  45
ENDBRANCH  37  39
ENDBRANCH  36  37
ENDBRANCH  35  36
ENDBRANCH  34  35
ENDBRANCH  33  34
ENDBRANCH  32  33
ENDBRANCH   1  32
TORSDOF 21
