REMARK SMILES CC[NH2+][C@@]1(C(=O)OCCOCCOCCOC(=O)c2ccc(-c3c4nc(c(-c5c(F)c(F)c(F)c(F)c5F)c5ccc([nH]5)c(-c5c(F)c(F)c(F)c(F)c5F)c5nc(c(-c6c(F)c(F)c(F)c(F)c6F)c6ccc3[nH]6)C=C5)C=C4)cc2)CC[C@@H](SCC2CCCC2)C1
REMARK SMILES IDX 11 1 10 2 9 3 8 4 7 5 5 6 6 7 4 8 82 9 92 10 83 11 84 12
REMARK SMILES IDX 3 13 2 16 1 17 85 18 86 19 87 20 88 21 91 22 89 23 90 24
REMARK SMILES IDX 12 25 13 26 14 27 15 28 16 29 17 30 18 31 19 32 20 33 81 34
REMARK SMILES IDX 21 35 80 36 22 37 23 38 24 39 74 40 25 41 79 42 73 43 75 44
REMARK SMILES IDX 26 45 78 46 72 47 71 48 27 50 59 51 39 52 58 53 40 54 43 55
REMARK SMILES IDX 57 56 76 57 41 58 42 59 56 61 77 62 44 63 28 64 29 65 37 66
REMARK SMILES IDX 30 67 31 68 35 69 38 70 32 71 33 72 36 73 34 74 60 75 61 76
REMARK SMILES IDX 69 77 62 78 63 79 67 80 70 81 64 82 65 83 68 84 66 85 45 86
REMARK SMILES IDX 46 87 54 88 47 89 48 90 52 91 55 92 49 93 50 94 53 95 51 96
REMARK H PARENT 3 14 3 15 75 49 43 60
REMARK Flexibility Score: inf
ROOT
ATOM      1  C   UNL     1      -0.693  -2.009   4.118  1.00  0.00     0.188 C 
ENDROOT
BRANCH   1   2
ATOM      2  O   UNL     1      -1.975  -2.090   4.721  1.00  0.00    -0.376 OA
BRANCH   2   3
ATOM      3  C   UNL     1      -2.782  -3.233   4.438  1.00  0.00     0.202 C 
BRANCH   3   4
ATOM      4  C   UNL     1      -2.913  -3.745   2.990  1.00  0.00     0.261 C 
BRANCH   4   5
ATOM      5  O   UNL     1      -1.666  -4.074   2.337  1.00  0.00    -0.459 OA
BRANCH   5   6
ATOM      6  C   UNL     1      -1.408  -3.401   1.187  1.00  0.00     0.368 C 
ATOM      7  O   UNL     1      -2.214  -2.639   0.657  1.00  0.00    -0.245 OA
BRANCH   6   8
ATOM      8  C   UNL     1       0.018  -3.660   0.591  1.00  0.00     0.195 C 
ATOM      9  C   UNL     1      -0.226  -4.190  -0.829  1.00  0.00     0.082 C 
ATOM     10  C   UNL     1       0.873  -4.813   1.188  1.00  0.00     0.095 C 
ATOM     11  C   UNL     1      -0.522  -5.678  -0.609  1.00  0.00     0.022 C 
ATOM     12  C   UNL     1       0.387  -6.109   0.542  1.00  0.00     0.053 C 
BRANCH   8  13
ATOM     13  N   UNL     1       0.808  -2.395   0.703  1.00  0.00    -0.332 N 
ATOM     14  H   UNL     1       0.658  -2.011   1.636  1.00  0.00     0.347 HD
ATOM     15  H   UNL     1       1.778  -2.651   0.518  1.00  0.00     0.347 HD
BRANCH  13  16
ATOM     16  C   UNL     1       0.470  -1.357  -0.274  1.00  0.00     0.257 C 
ATOM     17  C   UNL     1       1.141  -0.046   0.121  1.00  0.00     0.071 C 
ENDBRANCH  13  16
ENDBRANCH   8  13
BRANCH  12  18
ATOM     18  S   UNL     1       1.690  -7.364   0.150  1.00  0.00    -0.158 SA
BRANCH  18  19
ATOM     19  C   UNL     1       2.994  -6.443  -0.766  1.00  0.00     0.073 C 
BRANCH  19  20
ATOM     20  C   UNL     1       2.527  -5.976  -2.133  1.00  0.00    -0.001 C 
ATOM     21  C   UNL     1       3.174  -4.682  -2.618  1.00  0.00     0.004 C 
ATOM     22  C   UNL     1       2.799  -6.917  -3.301  1.00  0.00     0.004 C 
ATOM     23  C   UNL     1       2.630  -4.585  -4.039  1.00  0.00     0.000 C 
ATOM     24  C   UNL     1       2.516  -6.037  -4.524  1.00  0.00     0.000 C 
ENDBRANCH  19  20
ENDBRANCH  18  19
ENDBRANCH  12  18
ENDBRANCH   6   8
ENDBRANCH   5   6
ENDBRANCH   4   5
ENDBRANCH   3   4
ENDBRANCH   2   3
ENDBRANCH   1   2
BRANCH   1  25
ATOM     25  C   UNL     1       0.256  -3.200   4.275  1.00  0.00     0.188 C 
BRANCH  25  26
ATOM     26  O   UNL     1      -0.356  -4.412   4.649  1.00  0.00    -0.376 OA
BRANCH  26  27
ATOM     27  C   UNL     1       0.005  -5.051   5.865  1.00  0.00     0.202 C 
BRANCH  27  28
ATOM     28  C   UNL     1       0.242  -4.258   7.169  1.00  0.00     0.261 C 
BRANCH  28  29
ATOM     29  O   UNL     1       0.986  -3.030   7.083  1.00  0.00    -0.460 OA
BRANCH  29  30
ATOM     30  C   UNL     1       2.309  -3.118   6.807  1.00  0.00     0.338 C 
ATOM     31  O   UNL     1       2.973  -4.140   6.714  1.00  0.00    -0.246 OA
BRANCH  30  32
ATOM     32  C   UNL     1       2.754  -1.778   6.343  1.00  0.00     0.060 A 
ATOM     33  C   UNL     1       3.310  -1.659   5.057  1.00  0.00     0.016 A 
ATOM     34  C   UNL     1       2.556  -0.640   7.126  1.00  0.00     0.016 A 
ATOM     35  C   UNL     1       3.698  -0.410   4.566  1.00  0.00     0.010 A 
ATOM     36  C   UNL     1       2.974   0.606   6.646  1.00  0.00     0.010 A 
ATOM     37  C   UNL     1       3.576   0.723   5.379  1.00  0.00    -0.014 A 
BRANCH  37  38
ATOM     38  C   UNL     1       4.279   1.980   5.014  1.00  0.00     0.031 A 
ATOM     39  C   UNL     1       5.615   2.248   5.653  1.00  0.00     0.074 A 
ATOM     40  C   UNL     1       3.764   2.864   4.142  1.00  0.00     0.049 A 
ATOM     41  N   UNL     1       6.381   3.306   5.582  1.00  0.00    -0.248 NA
ATOM     42  C   UNL     1       6.156   1.168   6.495  1.00  0.00     0.031 C 
ATOM     43  C   UNL     1       2.512   2.702   3.410  1.00  0.00     0.029 A 
ATOM     44  N   UNL     1       4.236   4.090   3.740  1.00  0.00    -0.354 N 
ATOM     45  C   UNL     1       7.484   3.025   6.379  1.00  0.00     0.074 A 
ATOM     46  C   UNL     1       7.273   1.713   6.950  1.00  0.00     0.031 C 
ATOM     47  C   UNL     1       2.303   3.799   2.659  1.00  0.00     0.029 A 
ATOM     48  C   UNL     1       3.387   4.755   2.890  1.00  0.00     0.049 A 
ATOM     49  H   UNL     1       5.101   4.457   4.034  1.00  0.00     0.167 HD
ATOM     50  C   UNL     1       8.578   3.788   6.610  1.00  0.00     0.037 A 
ATOM     51  C   UNL     1       3.466   6.002   2.383  1.00  0.00     0.037 A 
ATOM     52  C   UNL     1       8.784   5.097   6.048  1.00  0.00     0.049 A 
ATOM     53  C   UNL     1       4.648   6.875   2.731  1.00  0.00     0.074 A 
ATOM     54  C   UNL     1       9.864   5.946   6.213  1.00  0.00     0.029 A 
ATOM     55  N   UNL     1       7.883   5.751   5.221  1.00  0.00    -0.354 N 
ATOM     56  N   UNL     1       5.696   6.601   3.471  1.00  0.00    -0.248 NA
ATOM     57  C   UNL     1       4.657   8.235   2.170  1.00  0.00     0.031 C 
ATOM     58  C   UNL     1       9.588   7.139   5.539  1.00  0.00     0.029 A 
ATOM     59  C   UNL     1       8.369   7.007   4.892  1.00  0.00     0.049 A 
ATOM     60  H   UNL     1       7.025   5.379   4.913  1.00  0.00     0.167 HD
ATOM     61  C   UNL     1       6.501   7.734   3.434  1.00  0.00     0.074 A 
ATOM     62  C   UNL     1       5.826   8.696   2.590  1.00  0.00     0.031 C 
ATOM     63  C   UNL     1       7.694   7.955   4.041  1.00  0.00     0.037 A 
BRANCH  50  64
ATOM     64  C   UNL     1       9.618   3.238   7.544  1.00  0.00     0.064 A 
ATOM     65  C   UNL     1      10.412   2.132   7.202  1.00  0.00     0.173 A 
ATOM     66  C   UNL     1       9.831   3.835   8.796  1.00  0.00     0.173 A 
ATOM     67  F   UNL     1      10.238   1.514   6.024  1.00  0.00    -0.203 F 
ATOM     68  C   UNL     1      11.354   1.623   8.092  1.00  0.00     0.198 A 
ATOM     69  C   UNL     1      10.800   3.346   9.668  1.00  0.00     0.198 A 
ATOM     70  F   UNL     1       9.103   4.896   9.173  1.00  0.00    -0.203 F 
ATOM     71  F   UNL     1      12.057   0.529   7.769  1.00  0.00    -0.200 F 
ATOM     72  C   UNL     1      11.552   2.235   9.321  1.00  0.00     0.200 A 
ATOM     73  F   UNL     1      11.000   3.948  10.849  1.00  0.00    -0.200 F 
ATOM     74  F   UNL     1      12.463   1.747  10.175  1.00  0.00    -0.200 F 
ENDBRANCH  50  64
BRANCH  51  75
ATOM     75  C   UNL     1       2.385   6.517   1.498  1.00  0.00     0.064 A 
ATOM     76  C   UNL     1       2.629   6.794   0.146  1.00  0.00     0.173 A 
ATOM     77  C   UNL     1       1.097   6.771   1.992  1.00  0.00     0.173 A 
ATOM     78  F   UNL     1       3.853   6.599  -0.367  1.00  0.00    -0.203 F 
ATOM     79  C   UNL     1       1.633   7.322  -0.674  1.00  0.00     0.198 A 
ATOM     80  C   UNL     1       0.092   7.268   1.164  1.00  0.00     0.198 A 
ATOM     81  F   UNL     1       0.811   6.533   3.280  1.00  0.00    -0.203 F 
ATOM     82  F   UNL     1       1.910   7.626  -1.949  1.00  0.00    -0.200 F 
ATOM     83  C   UNL     1       0.363   7.551  -0.166  1.00  0.00     0.200 A 
ATOM     84  F   UNL     1      -1.136   7.480   1.656  1.00  0.00    -0.200 F 
ATOM     85  F   UNL     1      -0.595   8.055  -0.956  1.00  0.00    -0.200 F 
ENDBRANCH  51  75
BRANCH  63  86
ATOM     86  C   UNL     1       8.380   9.267   3.777  1.00  0.00     0.064 A 
ATOM     87  C   UNL     1       7.889  10.479   4.283  1.00  0.00     0.173 A 
ATOM     88  C   UNL     1       9.578   9.304   3.044  1.00  0.00     0.173 A 
ATOM     89  F   UNL     1       6.743  10.504   4.981  1.00  0.00    -0.203 F 
ATOM     90  C   UNL     1       8.553  11.680   4.041  1.00  0.00     0.198 A 
ATOM     91  C   UNL     1      10.258  10.500   2.835  1.00  0.00     0.198 A 
ATOM     92  F   UNL     1      10.100   8.173   2.544  1.00  0.00    -0.203 F 
ATOM     93  F   UNL     1       8.035  12.832   4.490  1.00  0.00    -0.200 F 
ATOM     94  C   UNL     1       9.741  11.688   3.325  1.00  0.00     0.200 A 
ATOM     95  F   UNL     1      11.416  10.502   2.160  1.00  0.00    -0.200 F 
ATOM     96  F   UNL     1      10.383  12.843   3.103  1.00  0.00    -0.200 F 
ENDBRANCH  63  86
ENDBRANCH  37  38
ENDBRANCH  30  32
ENDBRANCH  29  30
ENDBRANCH  28  29
ENDBRANCH  27  28
ENDBRANCH  26  27
ENDBRANCH  25  26
ENDBRANCH   1  25
TORSDOF 22
