REMARK SMILES O=C(Cc1c[nH]c(=O)n(Cc2ccccc2)c1=O)OCCOCCOCCOC(=O)c1ccc(-c2c3nc(c(-c4c(F)c(F)c(F)c(F)c4F)c4ccc([nH]4)c(-c4c(F)c(F)c(F)c(F)c4F)c4nc(c(-c5c(F)c(F)c(F)c(F)c5F)c5ccc2[nH]5)C=C4)C=C3)cc1
REMARK SMILES IDX 23 1 22 2 21 3 20 4 19 5 2 6 1 7 3 8 4 9 5 10 17 11 6 12
REMARK SMILES IDX 9 13 18 14 7 15 8 17 10 18 11 19 12 20 16 21 13 22 15 23
REMARK SMILES IDX 14 24 24 25 25 26 26 27 27 28 28 29 29 30 30 31 31 32 32 33
REMARK SMILES IDX 93 34 33 35 92 36 34 37 35 38 36 39 86 40 37 41 91 42 85 43
REMARK SMILES IDX 87 44 38 45 90 46 84 47 83 48 39 50 71 51 51 52 70 53 52 54
REMARK SMILES IDX 55 55 69 56 88 57 53 58 54 59 68 61 89 62 56 63 40 64 41 65
REMARK SMILES IDX 49 66 42 67 43 68 47 69 50 70 44 71 45 72 48 73 46 74 72 75
REMARK SMILES IDX 73 76 81 77 74 78 75 79 79 80 82 81 76 82 77 83 80 84 78 85
REMARK SMILES IDX 57 86 58 87 66 88 59 89 60 90 64 91 67 92 61 93 62 94 65 95
REMARK SMILES IDX 63 96
REMARK H PARENT 6 16 87 49 55 60
REMARK Flexibility Score: inf
ROOT
ATOM      1  C   UNL     1       2.665   1.835   0.712  1.00  0.00     0.188 C 
ENDROOT
BRANCH   1   2
ATOM      2  O   UNL     1       4.030   1.496   0.893  1.00  0.00    -0.376 OA
BRANCH   2   3
ATOM      3  C   UNL     1       4.823   1.119  -0.225  1.00  0.00     0.202 C 
BRANCH   3   4
ATOM      4  C   UNL     1       4.364   0.080  -1.260  1.00  0.00     0.261 C 
BRANCH   4   5
ATOM      5  O   UNL     1       3.005  -0.365  -1.262  1.00  0.00    -0.463 OA
BRANCH   5   6
ATOM      6  C   UNL     1       2.471  -1.309  -0.455  1.00  0.00     0.310 C 
ATOM      7  O   UNL     1       1.420  -1.852  -0.784  1.00  0.00    -0.252 OA
BRANCH   6   8
ATOM      8  C   UNL     1       3.127  -1.586   0.882  1.00  0.00     0.165 C 
BRANCH   8   9
ATOM      9  C   UNL     1       4.130  -2.682   0.817  1.00  0.00     0.045 A 
ATOM     10  C   UNL     1       5.450  -2.500   0.920  1.00  0.00     0.097 A 
ATOM     11  C   UNL     1       3.618  -4.071   0.708  1.00  0.00     0.260 A 
ATOM     12  N   UNL     1       6.310  -3.548   0.840  1.00  0.00    -0.314 N 
ATOM     13  N   UNL     1       4.565  -5.052   0.491  1.00  0.00    -0.256 N 
ATOM     14  O   UNL     1       2.416  -4.287   0.846  1.00  0.00    -0.269 OA
ATOM     15  C   UNL     1       5.926  -4.843   0.617  1.00  0.00     0.328 A 
ATOM     16  H   UNL     1       7.271  -3.365   0.950  1.00  0.00     0.171 HD
ATOM     17  O   UNL     1       6.785  -5.718   0.544  1.00  0.00    -0.248 OA
BRANCH  13  18
ATOM     18  C   UNL     1       4.095  -6.376   0.123  1.00  0.00     0.166 C 
BRANCH  18  19
ATOM     19  C   UNL     1       3.942  -6.468  -1.382  1.00  0.00    -0.028 A 
ATOM     20  C   UNL     1       5.076  -6.595  -2.199  1.00  0.00     0.005 A 
ATOM     21  C   UNL     1       2.683  -6.340  -1.984  1.00  0.00     0.005 A 
ATOM     22  C   UNL     1       4.954  -6.592  -3.587  1.00  0.00     0.000 A 
ATOM     23  C   UNL     1       2.562  -6.352  -3.374  1.00  0.00     0.000 A 
ATOM     24  C   UNL     1       3.697  -6.474  -4.175  1.00  0.00     0.000 A 
ENDBRANCH  18  19
ENDBRANCH  13  18
ENDBRANCH   8   9
ENDBRANCH   6   8
ENDBRANCH   5   6
ENDBRANCH   4   5
ENDBRANCH   3   4
ENDBRANCH   2   3
ENDBRANCH   1   2
BRANCH   1  25
ATOM     25  C   UNL     1       2.257   3.280   0.420  1.00  0.00     0.188 C 
BRANCH  25  26
ATOM     26  O   UNL     1       3.121   4.077  -0.361  1.00  0.00    -0.376 OA
BRANCH  26  27
ATOM     27  C   UNL     1       4.349   4.508   0.217  1.00  0.00     0.202 C 
BRANCH  27  28
ATOM     28  C   UNL     1       4.391   5.022   1.660  1.00  0.00     0.261 C 
BRANCH  28  29
ATOM     29  O   UNL     1       4.110   4.008   2.647  1.00  0.00    -0.460 OA
BRANCH  29  30
ATOM     30  C   UNL     1       3.075   4.277   3.474  1.00  0.00     0.338 C 
ATOM     31  O   UNL     1       2.342   5.263   3.444  1.00  0.00    -0.246 OA
BRANCH  30  32
ATOM     32  C   UNL     1       2.829   3.163   4.401  1.00  0.00     0.060 A 
ATOM     33  C   UNL     1       3.792   2.805   5.345  1.00  0.00     0.016 A 
ATOM     34  C   UNL     1       1.553   2.584   4.434  1.00  0.00     0.016 A 
ATOM     35  C   UNL     1       3.455   1.897   6.354  1.00  0.00     0.010 A 
ATOM     36  C   UNL     1       1.220   1.675   5.442  1.00  0.00     0.010 A 
ATOM     37  C   UNL     1       2.160   1.349   6.430  1.00  0.00    -0.014 A 
BRANCH  37  38
ATOM     38  C   UNL     1       1.760   0.586   7.641  1.00  0.00     0.031 A 
ATOM     39  C   UNL     1       1.648  -0.906   7.639  1.00  0.00     0.074 A 
ATOM     40  C   UNL     1       1.503   1.270   8.772  1.00  0.00     0.049 A 
ATOM     41  N   UNL     1       1.510  -1.718   8.658  1.00  0.00    -0.248 NA
ATOM     42  C   UNL     1       1.683  -1.576   6.333  1.00  0.00     0.031 C 
ATOM     43  C   UNL     1       1.502   2.729   8.884  1.00  0.00     0.029 A 
ATOM     44  N   UNL     1       1.213   0.836  10.042  1.00  0.00    -0.354 N 
ATOM     45  C   UNL     1       1.478  -2.997   8.123  1.00  0.00     0.074 A 
ATOM     46  C   UNL     1       1.546  -2.849   6.682  1.00  0.00     0.031 C 
ATOM     47  C   UNL     1       1.273   3.069  10.162  1.00  0.00     0.029 A 
ATOM     48  C   UNL     1       1.103   1.855  10.957  1.00  0.00     0.049 A 
ATOM     49  H   UNL     1       1.097  -0.113  10.275  1.00  0.00     0.167 HD
ATOM     50  C   UNL     1       1.424  -4.181   8.779  1.00  0.00     0.037 A 
ATOM     51  C   UNL     1       0.914   1.819  12.290  1.00  0.00     0.037 A 
ATOM     52  C   UNL     1       1.328  -4.319  10.211  1.00  0.00     0.049 A 
ATOM     53  C   UNL     1       0.828   0.493  12.993  1.00  0.00     0.074 A 
ATOM     54  C   UNL     1       1.341  -5.479  10.968  1.00  0.00     0.029 A 
ATOM     55  N   UNL     1       1.171  -3.267  11.101  1.00  0.00    -0.354 N 
ATOM     56  N   UNL     1       0.945  -0.713  12.495  1.00  0.00    -0.248 NA
ATOM     57  C   UNL     1       0.592   0.523  14.444  1.00  0.00     0.031 C 
ATOM     58  C   UNL     1       1.134  -5.133  12.307  1.00  0.00     0.029 A 
ATOM     59  C   UNL     1       1.044  -3.753  12.394  1.00  0.00     0.049 A 
ATOM     60  H   UNL     1       1.153  -2.314  10.852  1.00  0.00     0.167 HD
ATOM     61  C   UNL     1       0.814  -1.584  13.568  1.00  0.00     0.074 A 
ATOM     62  C   UNL     1       0.626  -0.768  14.749  1.00  0.00     0.031 C 
ATOM     63  C   UNL     1       0.847  -2.939  13.567  1.00  0.00     0.037 A 
BRANCH  50  64
ATOM     64  C   UNL     1       1.494  -5.437   7.959  1.00  0.00     0.064 A 
ATOM     65  C   UNL     1       2.685  -5.824   7.326  1.00  0.00     0.173 A 
ATOM     66  C   UNL     1       0.396  -6.306   7.876  1.00  0.00     0.173 A 
ATOM     67  F   UNL     1       3.766  -5.030   7.377  1.00  0.00    -0.203 F 
ATOM     68  C   UNL     1       2.768  -7.024   6.625  1.00  0.00     0.198 A 
ATOM     69  C   UNL     1       0.490  -7.518   7.196  1.00  0.00     0.198 A 
ATOM     70  F   UNL     1      -0.762  -5.992   8.477  1.00  0.00    -0.203 F 
ATOM     71  F   UNL     1       3.909  -7.357   6.005  1.00  0.00    -0.200 F 
ATOM     72  C   UNL     1       1.675  -7.874   6.568  1.00  0.00     0.200 A 
ATOM     73  F   UNL     1      -0.561  -8.348   7.159  1.00  0.00    -0.200 F 
ATOM     74  F   UNL     1       1.762  -9.037   5.909  1.00  0.00    -0.200 F 
ENDBRANCH  50  64
BRANCH  51  75
ATOM     75  C   UNL     1       0.867   3.094  13.050  1.00  0.00     0.064 A 
ATOM     76  C   UNL     1       1.931   3.473  13.879  1.00  0.00     0.173 A 
ATOM     77  C   UNL     1      -0.215   3.977  12.928  1.00  0.00     0.173 A 
ATOM     78  F   UNL     1       2.980   2.653  14.039  1.00  0.00    -0.203 F 
ATOM     79  C   UNL     1       1.914   4.689  14.559  1.00  0.00     0.198 A 
ATOM     80  C   UNL     1      -0.220   5.203  13.589  1.00  0.00     0.198 A 
ATOM     81  F   UNL     1      -1.255   3.660  12.142  1.00  0.00    -0.203 F 
ATOM     82  F   UNL     1       2.934   5.018  15.363  1.00  0.00    -0.200 F 
ATOM     83  C   UNL     1       0.843   5.556  14.406  1.00  0.00     0.200 A 
ATOM     84  F   UNL     1      -1.249   6.045  13.427  1.00  0.00    -0.200 F 
ATOM     85  F   UNL     1       0.836   6.733  15.047  1.00  0.00    -0.200 F 
ENDBRANCH  51  75
BRANCH  63  86
ATOM     86  C   UNL     1       0.666  -3.645  14.880  1.00  0.00     0.064 A 
ATOM     87  C   UNL     1      -0.587  -3.711  15.506  1.00  0.00     0.173 A 
ATOM     88  C   UNL     1       1.733  -4.337  15.474  1.00  0.00     0.173 A 
ATOM     89  F   UNL     1      -1.636  -3.054  14.988  1.00  0.00    -0.203 F 
ATOM     90  C   UNL     1      -0.765  -4.441  16.679  1.00  0.00     0.198 A 
ATOM     91  C   UNL     1       1.546  -5.088  16.631  1.00  0.00     0.198 A 
ATOM     92  F   UNL     1       2.952  -4.309  14.913  1.00  0.00    -0.203 F 
ATOM     93  F   UNL     1      -1.966  -4.470  17.273  1.00  0.00    -0.200 F 
ATOM     94  C   UNL     1       0.298  -5.138  17.233  1.00  0.00     0.200 A 
ATOM     95  F   UNL     1       2.571  -5.772  17.158  1.00  0.00    -0.200 F 
ATOM     96  F   UNL     1       0.120  -5.859  18.349  1.00  0.00    -0.200 F 
ENDBRANCH  63  86
ENDBRANCH  37  38
ENDBRANCH  30  32
ENDBRANCH  29  30
ENDBRANCH  28  29
ENDBRANCH  27  28
ENDBRANCH  26  27
ENDBRANCH  25  26
ENDBRANCH   1  25
TORSDOF 20
