REMARK SMILES CCc1cc([C@H]([NH3+])C(=O)OCCOCCOCCOC(=O)c2ccc(-c3c4nc(c(-c5c(F)c(F)c(F)c(F)c5F)c5ccc([nH]5)c(-c5c(F)c(F)c(F)c(F)c5F)c5nc(c(-c6c(F)c(F)c(F)c(F)c6F)c6ccc3[nH]6)C=C5)C=C4)cc2)cc(CC)c1N
REMARK SMILES IDX 14 1 13 2 12 3 11 4 10 5 8 6 9 7 6 8 5 9 3 10 4 11 89 12
REMARK SMILES IDX 86 13 85 14 2 15 1 16 90 17 87 20 88 21 7 22 15 26 16 27
REMARK SMILES IDX 17 28 18 29 19 30 20 31 21 32 22 33 23 34 84 35 24 36 83 37
REMARK SMILES IDX 25 38 26 39 27 40 77 41 28 42 82 43 76 44 78 45 29 46 81 47
REMARK SMILES IDX 75 48 74 49 30 51 62 52 42 53 61 54 43 55 46 56 60 57 79 58
REMARK SMILES IDX 44 59 45 60 59 62 80 63 47 64 31 65 32 66 40 67 33 68 34 69
REMARK SMILES IDX 38 70 41 71 35 72 36 73 39 74 37 75 63 76 64 77 72 78 65 79
REMARK SMILES IDX 66 80 70 81 73 82 67 83 68 84 71 85 69 86 48 87 49 88 57 89
REMARK SMILES IDX 50 90 51 91 55 92 58 93 52 94 53 95 56 96 54 97
REMARK H PARENT 90 18 90 19 7 23 7 24 7 25 78 50 46 61
REMARK Flexibility Score: inf
ROOT
ATOM      1  C   UNL     1       0.286  -3.492   5.183  1.00  0.00     0.188 C 
ENDROOT
BRANCH   1   2
ATOM      2  O   UNL     1       0.275  -2.480   6.184  1.00  0.00    -0.376 OA
BRANCH   2   3
ATOM      3  C   UNL     1       0.712  -1.162   5.872  1.00  0.00     0.202 C 
BRANCH   3   4
ATOM      4  C   UNL     1       2.119  -0.957   5.292  1.00  0.00     0.261 C 
BRANCH   4   5
ATOM      5  O   UNL     1       2.394  -1.662   4.069  1.00  0.00    -0.459 OA
BRANCH   5   6
ATOM      6  C   UNL     1       3.221  -2.741   4.168  1.00  0.00     0.369 C 
ATOM      7  O   UNL     1       3.711  -3.136   5.224  1.00  0.00    -0.245 OA
BRANCH   6   8
ATOM      8  C   UNL     1       3.540  -3.424   2.811  1.00  0.00     0.323 C 
BRANCH   8   9
ATOM      9  C   UNL     1       4.935  -3.051   2.400  1.00  0.00     0.021 A 
ATOM     10  C   UNL     1       7.224  -3.673   1.911  1.00  0.00    -0.024 A 
ATOM     11  C   UNL     1       5.903  -4.027   2.207  1.00  0.00     0.016 A 
ATOM     12  C   UNL     1       7.563  -2.294   1.770  1.00  0.00     0.038 A 
ATOM     13  C   UNL     1       6.566  -1.303   1.939  1.00  0.00    -0.024 A 
ATOM     14  C   UNL     1       5.265  -1.707   2.243  1.00  0.00     0.016 A 
BRANCH  10  15
ATOM     15  C   UNL     1       8.279  -4.759   1.769  1.00  0.00     0.034 C 
ATOM     16  C   UNL     1       7.826  -6.208   1.958  1.00  0.00     0.009 C 
ENDBRANCH  10  15
BRANCH  12  17
ATOM     17  N   UNL     1       8.894  -1.932   1.587  1.00  0.00    -0.398 N 
ATOM     18  H   UNL     1       9.581  -2.627   1.470  1.00  0.00     0.156 HD
ATOM     19  H   UNL     1       9.148  -0.981   1.574  1.00  0.00     0.156 HD
ENDBRANCH  12  17
BRANCH  13  20
ATOM     20  C   UNL     1       6.806   0.194   1.901  1.00  0.00     0.034 C 
ATOM     21  C   UNL     1       5.890   0.939   0.930  1.00  0.00     0.009 C 
ENDBRANCH  13  20
ENDBRANCH   8   9
BRANCH   8  22
ATOM     22  N   UNL     1       2.610  -3.146   1.692  1.00  0.00    -0.342 N 
ATOM     23  H   UNL     1       2.657  -2.156   1.448  1.00  0.00     0.345 HD
ATOM     24  H   UNL     1       1.659  -3.382   1.974  1.00  0.00     0.345 HD
ATOM     25  H   UNL     1       2.875  -3.708   0.883  1.00  0.00     0.345 HD
ENDBRANCH   8  22
ENDBRANCH   6   8
ENDBRANCH   5   6
ENDBRANCH   4   5
ENDBRANCH   3   4
ENDBRANCH   2   3
ENDBRANCH   1   2
BRANCH   1  26
ATOM     26  C   UNL     1      -0.066  -3.138   3.728  1.00  0.00     0.188 C 
BRANCH  26  27
ATOM     27  O   UNL     1      -0.523  -1.821   3.550  1.00  0.00    -0.376 OA
BRANCH  27  28
ATOM     28  C   UNL     1      -1.868  -1.631   3.168  1.00  0.00     0.202 C 
BRANCH  28  29
ATOM     29  C   UNL     1      -2.982  -2.315   3.980  1.00  0.00     0.261 C 
BRANCH  29  30
ATOM     30  O   UNL     1      -2.732  -3.655   4.442  1.00  0.00    -0.460 OA
BRANCH  30  31
ATOM     31  C   UNL     1      -2.887  -4.662   3.549  1.00  0.00     0.338 C 
ATOM     32  O   UNL     1      -3.231  -4.565   2.388  1.00  0.00    -0.246 OA
BRANCH  31  33
ATOM     33  C   UNL     1      -2.341  -5.904   4.156  1.00  0.00     0.060 A 
ATOM     34  C   UNL     1      -1.280  -6.562   3.516  1.00  0.00     0.016 A 
ATOM     35  C   UNL     1      -2.868  -6.417   5.343  1.00  0.00     0.016 A 
ATOM     36  C   UNL     1      -0.776  -7.758   4.035  1.00  0.00     0.010 A 
ATOM     37  C   UNL     1      -2.378  -7.627   5.849  1.00  0.00     0.010 A 
ATOM     38  C   UNL     1      -1.356  -8.324   5.178  1.00  0.00    -0.014 A 
BRANCH  38  39
ATOM     39  C   UNL     1      -1.051  -9.732   5.545  1.00  0.00     0.031 A 
ATOM     40  C   UNL     1      -2.012 -10.805   5.106  1.00  0.00     0.074 A 
ATOM     41  C   UNL     1       0.054 -10.066   6.236  1.00  0.00     0.049 A 
ATOM     42  N   UNL     1      -2.001 -12.091   5.353  1.00  0.00    -0.248 NA
ATOM     43  C   UNL     1      -3.144 -10.363   4.275  1.00  0.00     0.031 C 
ATOM     44  C   UNL     1       1.086  -9.136   6.684  1.00  0.00     0.029 A 
ATOM     45  N   UNL     1       0.481 -11.291   6.691  1.00  0.00    -0.354 N 
ATOM     46  C   UNL     1      -3.126 -12.605   4.720  1.00  0.00     0.074 A 
ATOM     47  C   UNL     1      -3.813 -11.492   4.104  1.00  0.00     0.031 C 
ATOM     48  C   UNL     1       2.022  -9.821   7.367  1.00  0.00     0.029 A 
ATOM     49  C   UNL     1       1.637 -11.231   7.431  1.00  0.00     0.049 A 
ATOM     50  H   UNL     1       0.004 -12.131   6.504  1.00  0.00     0.167 HD
ATOM     51  C   UNL     1      -3.546 -13.891   4.652  1.00  0.00     0.037 A 
ATOM     52  C   UNL     1       2.291 -12.199   8.104  1.00  0.00     0.037 A 
ATOM     53  C   UNL     1      -2.865 -15.001   5.266  1.00  0.00     0.049 A 
ATOM     54  C   UNL     1       1.763 -13.614   8.074  1.00  0.00     0.074 A 
ATOM     55  C   UNL     1      -3.204 -16.342   5.239  1.00  0.00     0.029 A 
ATOM     56  N   UNL     1      -1.710 -14.895   6.027  1.00  0.00    -0.354 N 
ATOM     57  N   UNL     1       0.715 -14.097   7.453  1.00  0.00    -0.248 NA
ATOM     58  C   UNL     1       2.519 -14.620   8.835  1.00  0.00     0.031 C 
ATOM     59  C   UNL     1      -2.288 -17.041   6.032  1.00  0.00     0.029 A 
ATOM     60  C   UNL     1      -1.338 -16.145   6.495  1.00  0.00     0.049 A 
ATOM     61  H   UNL     1      -1.226 -14.057   6.207  1.00  0.00     0.167 HD
ATOM     62  C   UNL     1       0.707 -15.463   7.716  1.00  0.00     0.074 A 
ATOM     63  C   UNL     1       1.863 -15.733   8.544  1.00  0.00     0.031 C 
ATOM     64  C   UNL     1      -0.176 -16.407   7.306  1.00  0.00     0.037 A 
BRANCH  51  65
ATOM     65  C   UNL     1      -4.822 -14.165   3.910  1.00  0.00     0.064 A 
ATOM     66  C   UNL     1      -4.907 -14.050   2.514  1.00  0.00     0.173 A 
ATOM     67  C   UNL     1      -5.968 -14.584   4.604  1.00  0.00     0.173 A 
ATOM     68  F   UNL     1      -3.845 -13.638   1.805  1.00  0.00    -0.203 F 
ATOM     69  C   UNL     1      -6.098 -14.318   1.844  1.00  0.00     0.198 A 
ATOM     70  C   UNL     1      -7.147 -14.884   3.927  1.00  0.00     0.198 A 
ATOM     71  F   UNL     1      -5.941 -14.714   5.939  1.00  0.00    -0.203 F 
ATOM     72  F   UNL     1      -6.169 -14.153   0.516  1.00  0.00    -0.200 F 
ATOM     73  C   UNL     1      -7.214 -14.743   2.550  1.00  0.00     0.200 A 
ATOM     74  F   UNL     1      -8.220 -15.308   4.609  1.00  0.00    -0.200 F 
ATOM     75  F   UNL     1      -8.356 -15.011   1.902  1.00  0.00    -0.200 F 
ENDBRANCH  51  65
BRANCH  52  76
ATOM     76  C   UNL     1       3.517 -11.872   8.882  1.00  0.00     0.064 A 
ATOM     77  C   UNL     1       4.770 -12.377   8.507  1.00  0.00     0.173 A 
ATOM     78  C   UNL     1       3.455 -11.082  10.039  1.00  0.00     0.173 A 
ATOM     79  F   UNL     1       4.879 -13.164   7.426  1.00  0.00    -0.203 F 
ATOM     80  C   UNL     1       5.908 -12.124   9.272  1.00  0.00     0.198 A 
ATOM     81  C   UNL     1       4.598 -10.803  10.785  1.00  0.00     0.198 A 
ATOM     82  F   UNL     1       2.280 -10.580  10.448  1.00  0.00    -0.203 F 
ATOM     83  F   UNL     1       7.081 -12.670   8.923  1.00  0.00    -0.200 F 
ATOM     84  C   UNL     1       5.822 -11.332  10.407  1.00  0.00     0.200 A 
ATOM     85  F   UNL     1       4.512 -10.030  11.877  1.00  0.00    -0.200 F 
ATOM     86  F   UNL     1       6.916 -11.092  11.143  1.00  0.00    -0.200 F 
ENDBRANCH  52  76
BRANCH  64  87
ATOM     87  C   UNL     1       0.101 -17.834   7.692  1.00  0.00     0.064 A 
ATOM     88  C   UNL     1      -0.016 -18.284   9.016  1.00  0.00     0.173 A 
ATOM     89  C   UNL     1       0.453 -18.776   6.712  1.00  0.00     0.173 A 
ATOM     90  F   UNL     1      -0.340 -17.425   9.995  1.00  0.00    -0.203 F 
ATOM     91  C   UNL     1       0.243 -19.612   9.348  1.00  0.00     0.198 A 
ATOM     92  C   UNL     1       0.676 -20.110   7.042  1.00  0.00     0.198 A 
ATOM     93  F   UNL     1       0.569 -18.404   5.428  1.00  0.00    -0.203 F 
ATOM     94  F   UNL     1       0.180 -20.005  10.628  1.00  0.00    -0.200 F 
ATOM     95  C   UNL     1       0.581 -20.525   8.361  1.00  0.00     0.200 A 
ATOM     96  F   UNL     1       0.985 -20.993   6.082  1.00  0.00    -0.200 F 
ATOM     97  F   UNL     1       0.824 -21.803   8.681  1.00  0.00    -0.200 F 
ENDBRANCH  64  87
ENDBRANCH  38  39
ENDBRANCH  31  33
ENDBRANCH  30  31
ENDBRANCH  29  30
ENDBRANCH  28  29
ENDBRANCH  27  28
ENDBRANCH  26  27
ENDBRANCH   1  26
TORSDOF 22
