REMARK SMILES Cc1cc(C[NH+]2C[C@@H](C)[C@H](C)C2)oc1C(=O)OCCOCCOCCOC(=O)c1ccc(-c2c3nc(c(-c4c(F)c(F)c(F)c(F)c4F)c4ccc([nH]4)c(-c4c(F)c(F)c(F)c(F)c4F)c4nc(c(-c5c(F)c(F)c(F)c(F)c5F)c5ccc2[nH]5)C=C4)C=C3)cc1
REMARK SMILES IDX 21 1 20 2 19 3 18 4 17 5 15 6 16 7 14 8 1 9 2 10 3 11 4 12
REMARK SMILES IDX 13 13 5 14 6 15 7 16 12 17 8 19 10 20 9 21 11 22 22 23 23 24
REMARK SMILES IDX 24 25 25 26 26 27 27 28 28 29 29 30 30 31 91 32 31 33 90 34
REMARK SMILES IDX 32 35 33 36 34 37 84 38 35 39 89 40 83 41 85 42 36 43 88 44
REMARK SMILES IDX 82 45 81 46 37 48 69 49 49 50 68 51 50 52 53 53 67 54 86 55
REMARK SMILES IDX 51 56 52 57 66 59 87 60 54 61 38 62 39 63 47 64 40 65 41 66
REMARK SMILES IDX 45 67 48 68 42 69 43 70 46 71 44 72 70 73 71 74 79 75 72 76
REMARK SMILES IDX 73 77 77 78 80 79 74 80 75 81 78 82 76 83 55 84 56 85 64 86
REMARK SMILES IDX 57 87 58 88 62 89 65 90 59 91 60 92 63 93 61 94
REMARK H PARENT 6 18 85 47 53 58
REMARK Flexibility Score: inf
ROOT
ATOM      1  C   UNL     1       0.314  -3.761  -1.375  1.00  0.00     0.188 C 
ENDROOT
BRANCH   1   2
ATOM      2  O   UNL     1      -0.100  -5.033  -0.887  1.00  0.00    -0.376 OA
BRANCH   2   3
ATOM      3  C   UNL     1      -1.319  -5.136  -0.158  1.00  0.00     0.202 C 
BRANCH   3   4
ATOM      4  C   UNL     1      -1.385  -4.373   1.167  1.00  0.00     0.261 C 
BRANCH   4   5
ATOM      5  O   UNL     1      -1.406  -2.951   0.956  1.00  0.00    -0.457 OA
BRANCH   5   6
ATOM      6  C   UNL     1      -0.431  -2.236   1.592  1.00  0.00     0.374 C 
ATOM      7  O   UNL     1       0.342  -2.700   2.416  1.00  0.00    -0.242 OA
BRANCH   6   8
ATOM      8  C   UNL     1      -0.359  -0.899   1.035  1.00  0.00     0.215 A 
ATOM      9  C   UNL     1      -2.753  -0.169   0.346  1.00  0.00     0.049 C 
ATOM     10  C   UNL     1      -1.282  -0.018   0.482  1.00  0.00     0.003 A 
ATOM     11  C   UNL     1      -0.529   1.119   0.059  1.00  0.00     0.056 A 
ATOM     12  C   UNL     1       0.795   0.861   0.336  1.00  0.00     0.159 A 
ATOM     13  O   UNL     1       0.894  -0.349   0.953  1.00  0.00    -0.448 OA
BRANCH  12  14
ATOM     14  C   UNL     1       2.088   1.589   0.137  1.00  0.00     0.338 C 
BRANCH  14  15
ATOM     15  N   UNL     1       2.240   2.324  -1.116  1.00  0.00    -0.328 N 
ATOM     16  C   UNL     1       2.149   1.540  -2.344  1.00  0.00     0.266 C 
ATOM     17  C   UNL     1       1.466   3.556  -1.247  1.00  0.00     0.266 C 
ATOM     18  H   UNL     1       3.217   2.600  -1.014  1.00  0.00     0.348 HD
ATOM     19  C   UNL     1       1.837   2.594  -3.406  1.00  0.00     0.049 C 
ATOM     20  C   UNL     1       0.867   3.507  -2.655  1.00  0.00     0.049 C 
ATOM     21  C   UNL     1       1.263   1.991  -4.679  1.00  0.00     0.014 C 
ATOM     22  C   UNL     1       0.691   4.886  -3.270  1.00  0.00     0.014 C 
ENDBRANCH  14  15
ENDBRANCH  12  14
ENDBRANCH   6   8
ENDBRANCH   5   6
ENDBRANCH   4   5
ENDBRANCH   3   4
ENDBRANCH   2   3
ENDBRANCH   1   2
BRANCH   1  23
ATOM     23  C   UNL     1      -0.709  -2.867  -2.100  1.00  0.00     0.188 C 
BRANCH  23  24
ATOM     24  O   UNL     1      -1.874  -3.553  -2.537  1.00  0.00    -0.376 OA
BRANCH  24  25
ATOM     25  C   UNL     1      -2.068  -3.601  -3.944  1.00  0.00     0.202 C 
BRANCH  25  26
ATOM     26  C   UNL     1      -1.237  -4.697  -4.617  1.00  0.00     0.261 C 
BRANCH  26  27
ATOM     27  O   UNL     1       0.185  -4.526  -4.496  1.00  0.00    -0.460 OA
BRANCH  27  28
ATOM     28  C   UNL     1       0.725  -3.455  -5.117  1.00  0.00     0.338 C 
ATOM     29  O   UNL     1       0.146  -2.609  -5.774  1.00  0.00    -0.246 OA
BRANCH  28  30
ATOM     30  C   UNL     1       2.149  -3.380  -4.736  1.00  0.00     0.060 A 
ATOM     31  C   UNL     1       2.644  -2.184  -4.202  1.00  0.00     0.016 A 
ATOM     32  C   UNL     1       2.989  -4.484  -4.907  1.00  0.00     0.016 A 
ATOM     33  C   UNL     1       3.994  -2.083  -3.860  1.00  0.00     0.010 A 
ATOM     34  C   UNL     1       4.342  -4.376  -4.578  1.00  0.00     0.010 A 
ATOM     35  C   UNL     1       4.856  -3.169  -4.077  1.00  0.00    -0.014 A 
BRANCH  35  36
ATOM     36  C   UNL     1       6.322  -2.999  -3.931  1.00  0.00     0.031 A 
ATOM     37  C   UNL     1       7.131  -2.643  -5.146  1.00  0.00     0.074 A 
ATOM     38  C   UNL     1       6.929  -3.170  -2.743  1.00  0.00     0.049 A 
ATOM     39  N   UNL     1       8.423  -2.479  -5.267  1.00  0.00    -0.248 NA
ATOM     40  C   UNL     1       6.378  -2.446  -6.395  1.00  0.00     0.031 C 
ATOM     41  C   UNL     1       6.257  -3.497  -1.488  1.00  0.00     0.029 A 
ATOM     42  N   UNL     1       8.259  -3.100  -2.409  1.00  0.00    -0.354 N 
ATOM     43  C   UNL     1       8.638  -2.158  -6.600  1.00  0.00     0.074 A 
ATOM     44  C   UNL     1       7.348  -2.176  -7.256  1.00  0.00     0.031 C 
ATOM     45  C   UNL     1       7.182  -3.612  -0.518  1.00  0.00     0.029 A 
ATOM     46  C   UNL     1       8.510  -3.390  -1.090  1.00  0.00     0.049 A 
ATOM     47  H   UNL     1       8.965  -2.865  -3.053  1.00  0.00     0.167 HD
ATOM     48  C   UNL     1       9.805  -1.865  -7.221  1.00  0.00     0.037 A 
ATOM     49  C   UNL     1       9.681  -3.482  -0.430  1.00  0.00     0.037 A 
ATOM     50  C   UNL     1      11.090  -1.855  -6.578  1.00  0.00     0.049 A 
ATOM     51  C   UNL     1      10.973  -3.220  -1.161  1.00  0.00     0.074 A 
ATOM     52  C   UNL     1      12.325  -1.547  -7.121  1.00  0.00     0.029 A 
ATOM     53  N   UNL     1      11.307  -2.179  -5.248  1.00  0.00    -0.354 N 
ATOM     54  N   UNL     1      11.163  -2.873  -2.411  1.00  0.00    -0.248 NA
ATOM     55  C   UNL     1      12.215  -3.363  -0.386  1.00  0.00     0.031 C 
ATOM     56  C   UNL     1      13.296  -1.726  -6.130  1.00  0.00     0.029 A 
ATOM     57  C   UNL     1      12.659  -2.103  -4.958  1.00  0.00     0.049 A 
ATOM     58  H   UNL     1      10.604  -2.425  -4.604  1.00  0.00     0.167 HD
ATOM     59  C   UNL     1      12.536  -2.728  -2.563  1.00  0.00     0.074 A 
ATOM     60  C   UNL     1      13.133  -3.018  -1.277  1.00  0.00     0.031 C 
ATOM     61  C   UNL     1      13.239  -2.384  -3.670  1.00  0.00     0.037 A 
BRANCH  48  62
ATOM     62  C   UNL     1       9.742  -1.548  -8.684  1.00  0.00     0.064 A 
ATOM     63  C   UNL     1       9.237  -0.324  -9.147  1.00  0.00     0.173 A 
ATOM     64  C   UNL     1      10.217  -2.466  -9.631  1.00  0.00     0.173 A 
ATOM     65  F   UNL     1       8.756   0.579  -8.279  1.00  0.00    -0.203 F 
ATOM     66  C   UNL     1       9.193  -0.039 -10.509  1.00  0.00     0.198 A 
ATOM     67  C   UNL     1      10.192  -2.169 -10.991  1.00  0.00     0.198 A 
ATOM     68  F   UNL     1      10.710  -3.651  -9.237  1.00  0.00    -0.203 F 
ATOM     69  F   UNL     1       8.671   1.121 -10.932  1.00  0.00    -0.200 F 
ATOM     70  C   UNL     1       9.675  -0.958 -11.428  1.00  0.00     0.200 A 
ATOM     71  F   UNL     1      10.665  -3.055 -11.878  1.00  0.00    -0.200 F 
ATOM     72  F   UNL     1       9.635  -0.681 -12.739  1.00  0.00    -0.200 F 
ENDBRANCH  48  62
BRANCH  49  73
ATOM     73  C   UNL     1       9.695  -3.845   1.011  1.00  0.00     0.064 A 
ATOM     74  C   UNL     1      10.051  -2.906   1.988  1.00  0.00     0.173 A 
ATOM     75  C   UNL     1       9.389  -5.146   1.434  1.00  0.00     0.173 A 
ATOM     76  F   UNL     1      10.385  -1.658   1.627  1.00  0.00    -0.203 F 
ATOM     77  C   UNL     1      10.116  -3.259   3.335  1.00  0.00     0.198 A 
ATOM     78  C   UNL     1       9.431  -5.492   2.783  1.00  0.00     0.198 A 
ATOM     79  F   UNL     1       9.055  -6.084   0.535  1.00  0.00    -0.203 F 
ATOM     80  F   UNL     1      10.506  -2.356   4.244  1.00  0.00    -0.200 F 
ATOM     81  C   UNL     1       9.801  -4.550   3.732  1.00  0.00     0.200 A 
ATOM     82  F   UNL     1       9.126  -6.740   3.163  1.00  0.00    -0.200 F 
ATOM     83  F   UNL     1       9.870  -4.891   5.026  1.00  0.00    -0.200 F 
ENDBRANCH  49  73
BRANCH  61  84
ATOM     84  C   UNL     1      14.728  -2.265  -3.536  1.00  0.00     0.064 A 
ATOM     85  C   UNL     1      15.550  -3.397  -3.436  1.00  0.00     0.173 A 
ATOM     86  C   UNL     1      15.344  -1.004  -3.559  1.00  0.00     0.173 A 
ATOM     87  F   UNL     1      15.007  -4.623  -3.396  1.00  0.00    -0.203 F 
ATOM     88  C   UNL     1      16.933  -3.270  -3.346  1.00  0.00     0.198 A 
ATOM     89  C   UNL     1      16.729  -0.882  -3.494  1.00  0.00     0.198 A 
ATOM     90  F   UNL     1      14.603   0.109  -3.661  1.00  0.00    -0.203 F 
ATOM     91  F   UNL     1      17.698  -4.363  -3.215  1.00  0.00    -0.200 F 
ATOM     92  C   UNL     1      17.522  -2.014  -3.382  1.00  0.00     0.200 A 
ATOM     93  F   UNL     1      17.297   0.331  -3.541  1.00  0.00    -0.200 F 
ATOM     94  F   UNL     1      18.855  -1.895  -3.304  1.00  0.00    -0.200 F 
ENDBRANCH  61  84
ENDBRANCH  35  36
ENDBRANCH  28  30
ENDBRANCH  27  28
ENDBRANCH  26  27
ENDBRANCH  25  26
ENDBRANCH  24  25
ENDBRANCH  23  24
ENDBRANCH   1  23
TORSDOF 19
