REMARK SMILES COC(=O)c1ccc(NC(=O)[C@@H]2CC=CC[C@@H]2C(=O)OCCOCCOCCOC(=O)c2ccc(-c3c4nc(c(-c5c(F)c(F)c(F)c(F)c5F)c5ccc([nH]5)c(-c5c(F)c(F)c(F)c(F)c5F)c5nc(c(-c6c(F)c(F)c(F)c(F)c6F)c6ccc3[nH]6)C=C5)C=C4)cc2)c(C)c1
REMARK SMILES IDX 24 1 23 2 22 3 21 4 20 5 18 6 19 7 17 8 12 9 13 10 14 11
REMARK SMILES IDX 16 12 15 13 10 14 9 15 11 17 8 18 5 19 6 20 97 21 7 22 95 23
REMARK SMILES IDX 96 24 3 25 4 26 2 27 1 28 25 29 26 30 27 31 28 32 29 33
REMARK SMILES IDX 30 34 31 35 32 36 33 37 94 38 34 39 93 40 35 41 36 42 37 43
REMARK SMILES IDX 87 44 38 45 92 46 86 47 88 48 39 49 91 50 85 51 84 52 40 54
REMARK SMILES IDX 72 55 52 56 71 57 53 58 56 59 70 60 89 61 54 62 55 63 69 65
REMARK SMILES IDX 90 66 57 67 41 68 42 69 50 70 43 71 44 72 48 73 51 74 45 75
REMARK SMILES IDX 46 76 49 77 47 78 73 79 74 80 82 81 75 82 76 83 80 84 83 85
REMARK SMILES IDX 77 86 78 87 81 88 79 89 58 90 59 91 67 92 60 93 61 94 65 95
REMARK SMILES IDX 68 96 62 97 63 98 66 99 64 100
REMARK H PARENT 9 16 88 53 56 64
REMARK Flexibility Score: inf
ROOT
ATOM      1  C   UNL     1      -0.382   0.264   8.995  1.00  0.00     0.188 C 
ENDROOT
BRANCH   1   2
ATOM      2  O   UNL     1      -0.978   1.199   8.051  1.00  0.00    -0.376 OA
BRANCH   2   3
ATOM      3  C   UNL     1      -0.654   1.317   6.639  1.00  0.00     0.202 C 
BRANCH   3   4
ATOM      4  C   UNL     1      -0.115   2.790   5.913  1.00  0.00     0.261 C 
BRANCH   4   5
ATOM      5  O   UNL     1       1.514   3.502   5.904  1.00  0.00    -0.463 OA
BRANCH   5   6
ATOM      6  C   UNL     1       2.892   3.734   5.628  1.00  0.00     0.310 C 
ATOM      7  O   UNL     1       3.427   4.657   6.238  1.00  0.00    -0.252 OA
BRANCH   6   8
ATOM      8  C   UNL     1       4.062   2.982   4.773  1.00  0.00     0.116 C 
ATOM      9  C   UNL     1       5.517   3.656   5.007  1.00  0.00     0.097 C 
ATOM     10  C   UNL     1       5.592   5.105   4.471  1.00  0.00     0.041 C 
ATOM     11  C   UNL     1       5.007   5.212   3.092  1.00  0.00    -0.030 C 
ATOM     12  C   UNL     1       4.069   2.905   3.218  1.00  0.00     0.043 C 
ATOM     13  C   UNL     1       4.342   4.204   2.514  1.00  0.00    -0.030 C 
BRANCH   9  14
ATOM     14  C   UNL     1       6.137   3.562   6.389  1.00  0.00     0.228 C 
ATOM     15  N   UNL     1       7.047   2.615   6.788  1.00  0.00    -0.326 N 
ATOM     16  H   UNL     1       7.106   2.535   7.768  1.00  0.00     0.169 HD
ATOM     17  O   UNL     1       5.930   4.460   7.211  1.00  0.00    -0.274 OA
BRANCH  15  18
ATOM     18  C   UNL     1       7.919   1.726   6.115  1.00  0.00     0.044 A 
ATOM     19  C   UNL     1      10.004   0.463   4.673  1.00  0.00     0.060 A 
ATOM     20  C   UNL     1       8.766   0.685   4.078  1.00  0.00     0.018 A 
ATOM     21  C   UNL     1      10.154   0.743   6.034  1.00  0.00     0.021 A 
ATOM     22  C   UNL     1       7.729   1.284   4.805  1.00  0.00     0.027 A 
ATOM     23  C   UNL     1       9.113   1.337   6.774  1.00  0.00    -0.027 A 
ATOM     24  C   UNL     1       9.352   1.542   8.248  1.00  0.00     0.046 C 
BRANCH  19  25
ATOM     25  C   UNL     1      11.095  -0.138   3.862  1.00  0.00     0.337 C 
ATOM     26  O   UNL     1      11.010  -0.398   2.671  1.00  0.00    -0.246 OA
BRANCH  25  27
ATOM     27  O   UNL     1      12.156  -0.425   4.649  1.00  0.00    -0.465 OA
ATOM     28  C   UNL     1      12.366  -1.827   4.800  1.00  0.00     0.282 C 
ENDBRANCH  25  27
ENDBRANCH  19  25
ENDBRANCH  15  18
ENDBRANCH   9  14
ENDBRANCH   6   8
ENDBRANCH   5   6
ENDBRANCH   4   5
ENDBRANCH   3   4
ENDBRANCH   2   3
ENDBRANCH   1   2
BRANCH   1  29
ATOM     29  C   UNL     1       0.554  -0.879   8.564  1.00  0.00     0.188 C 
BRANCH  29  30
ATOM     30  O   UNL     1       0.153  -2.200   8.925  1.00  0.00    -0.376 OA
BRANCH  30  31
ATOM     31  C   UNL     1       0.499  -2.708  10.218  1.00  0.00     0.202 C 
BRANCH  31  32
ATOM     32  C   UNL     1       1.994  -2.781  10.606  1.00  0.00     0.261 C 
BRANCH  32  33
ATOM     33  O   UNL     1       2.794  -3.298   9.534  1.00  0.00    -0.460 OA
BRANCH  33  34
ATOM     34  C   UNL     1       4.103  -2.901   9.575  1.00  0.00     0.338 C 
ATOM     35  O   UNL     1       4.798  -2.823  10.571  1.00  0.00    -0.246 OA
BRANCH  34  36
ATOM     36  C   UNL     1       4.361  -2.169   8.305  1.00  0.00     0.060 A 
ATOM     37  C   UNL     1       5.006  -0.933   8.403  1.00  0.00     0.016 A 
ATOM     38  C   UNL     1       3.545  -2.442   7.214  1.00  0.00     0.016 A 
ATOM     39  C   UNL     1       4.566   0.118   7.599  1.00  0.00     0.010 A 
ATOM     40  C   UNL     1       3.047  -1.369   6.495  1.00  0.00     0.010 A 
ATOM     41  C   UNL     1       3.430  -0.057   6.797  1.00  0.00    -0.014 A 
BRANCH  41  42
ATOM     42  C   UNL     1       2.410   1.034   6.580  1.00  0.00     0.031 A 
ATOM     43  C   UNL     1       1.743   1.043   4.979  1.00  0.00     0.074 A 
ATOM     44  C   UNL     1       2.190   1.887   7.716  1.00  0.00     0.049 A 
ATOM     45  N   UNL     1       1.645   2.131   4.250  1.00  0.00    -0.248 NA
ATOM     46  C   UNL     1       1.231  -0.041   4.112  1.00  0.00     0.031 C 
ATOM     47  C   UNL     1       1.077   2.777   8.165  1.00  0.00     0.029 A 
ATOM     48  N   UNL     1       3.118   2.292   8.737  1.00  0.00    -0.354 N 
ATOM     49  C   UNL     1       0.839   2.050   3.150  1.00  0.00     0.074 A 
ATOM     50  C   UNL     1       0.731   0.606   3.025  1.00  0.00     0.031 C 
ATOM     51  C   UNL     1       1.347   3.672   9.091  1.00  0.00     0.029 A 
ATOM     52  C   UNL     1       2.715   3.542   9.308  1.00  0.00     0.049 A 
ATOM     53  H   UNL     1       3.916   1.783   9.006  1.00  0.00     0.167 HD
ATOM     54  C   UNL     1       0.231   3.175   2.588  1.00  0.00     0.037 A 
ATOM     55  C   UNL     1       3.388   4.695   9.509  1.00  0.00     0.037 A 
ATOM     56  C   UNL     1       0.180   4.450   3.435  1.00  0.00     0.049 A 
ATOM     57  C   UNL     1       3.072   5.886   8.554  1.00  0.00     0.074 A 
ATOM     58  C   UNL     1      -0.877   5.062   4.123  1.00  0.00     0.029 A 
ATOM     59  N   UNL     1       1.281   5.211   3.839  1.00  0.00    -0.354 N 
ATOM     60  N   UNL     1       2.042   6.071   7.728  1.00  0.00    -0.248 NA
ATOM     61  C   UNL     1       4.120   6.881   8.358  1.00  0.00     0.031 C 
ATOM     62  C   UNL     1      -0.396   6.097   4.983  1.00  0.00     0.029 A 
ATOM     63  C   UNL     1       0.970   6.186   4.829  1.00  0.00     0.049 A 
ATOM     64  H   UNL     1       2.186   5.085   3.474  1.00  0.00     0.167 HD
ATOM     65  C   UNL     1       2.456   6.968   6.707  1.00  0.00     0.074 A 
ATOM     66  C   UNL     1       3.718   7.499   7.240  1.00  0.00     0.031 C 
ATOM     67  C   UNL     1       2.003   7.097   5.385  1.00  0.00     0.037 A 
BRANCH  54  68
ATOM     68  C   UNL     1      -0.698   3.048   1.372  1.00  0.00     0.064 A 
ATOM     69  C   UNL     1      -1.792   3.919   1.135  1.00  0.00     0.173 A 
ATOM     70  C   UNL     1      -0.508   2.081   0.367  1.00  0.00     0.173 A 
ATOM     71  F   UNL     1      -2.030   4.993   1.893  1.00  0.00    -0.203 F 
ATOM     72  C   UNL     1      -2.693   3.745   0.081  1.00  0.00     0.198 A 
ATOM     73  C   UNL     1      -1.420   1.896  -0.684  1.00  0.00     0.198 A 
ATOM     74  F   UNL     1       0.589   1.311   0.356  1.00  0.00    -0.203 F 
ATOM     75  F   UNL     1      -3.726   4.590  -0.056  1.00  0.00    -0.200 F 
ATOM     76  C   UNL     1      -2.524   2.715  -0.815  1.00  0.00     0.200 A 
ATOM     77  F   UNL     1      -1.218   0.914  -1.573  1.00  0.00    -0.200 F 
ATOM     78  F   UNL     1      -3.402   2.532  -1.810  1.00  0.00    -0.200 F 
ENDBRANCH  54  68
BRANCH  55  79
ATOM     79  C   UNL     1       4.304   4.486  10.678  1.00  0.00     0.064 A 
ATOM     80  C   UNL     1       3.596   4.146  11.865  1.00  0.00     0.173 A 
ATOM     81  C   UNL     1       5.465   3.745  10.432  1.00  0.00     0.173 A 
ATOM     82  F   UNL     1       2.501   4.843  12.213  1.00  0.00    -0.203 F 
ATOM     83  C   UNL     1       3.821   2.924  12.508  1.00  0.00     0.198 A 
ATOM     84  C   UNL     1       5.672   2.513  11.050  1.00  0.00     0.198 A 
ATOM     85  F   UNL     1       6.337   4.133   9.502  1.00  0.00    -0.203 F 
ATOM     86  F   UNL     1       2.982   2.502  13.466  1.00  0.00    -0.200 F 
ATOM     87  C   UNL     1       4.814   2.077  12.046  1.00  0.00     0.200 A 
ATOM     88  F   UNL     1       6.635   1.700  10.592  1.00  0.00    -0.200 F 
ATOM     89  F   UNL     1       4.912   0.826  12.518  1.00  0.00    -0.200 F 
ENDBRANCH  55  79
BRANCH  67  90
ATOM     90  C   UNL     1       2.607   8.132   4.402  1.00  0.00     0.064 A 
ATOM     91  C   UNL     1       3.118   9.378   4.814  1.00  0.00     0.173 A 
ATOM     92  C   UNL     1       2.615   7.950   2.993  1.00  0.00     0.173 A 
ATOM     93  F   UNL     1       2.993   9.791   6.083  1.00  0.00    -0.203 F 
ATOM     94  C   UNL     1       3.748  10.266   3.929  1.00  0.00     0.198 A 
ATOM     95  C   UNL     1       3.188   8.864   2.104  1.00  0.00     0.198 A 
ATOM     96  F   UNL     1       2.075   6.883   2.396  1.00  0.00    -0.203 F 
ATOM     97  F   UNL     1       4.311  11.388   4.402  1.00  0.00    -0.200 F 
ATOM     98  C   UNL     1       3.792  10.004   2.575  1.00  0.00     0.200 A 
ATOM     99  F   UNL     1       3.154   8.616   0.786  1.00  0.00    -0.200 F 
ATOM    100  F   UNL     1       4.387  10.854   1.728  1.00  0.00    -0.200 F 
ENDBRANCH  67  90
ENDBRANCH  41  42
ENDBRANCH  34  36
ENDBRANCH  33  34
ENDBRANCH  32  33
ENDBRANCH  31  32
ENDBRANCH  30  31
ENDBRANCH  29  30
ENDBRANCH   1  29
TORSDOF 21
