REMARK SMILES O=C(OCCOCCOCCOC(=O)c1ccc(-c2c3nc(c(-c4c(F)c(F)c(F)c(F)c4F)c4ccc([nH]4)c(-c4c(F)c(F)c(F)c(F)c4F)c4nc(c(-c5c(F)c(F)c(F)c(F)c5F)c5ccc2[nH]5)C=C4)C=C3)cc1)C1=Cc2cc(Cl)cc(C#Cc3ccccc3)c2O[C@@H]1C(F)(F)F
REMARK SMILES IDX 7 1 6 2 5 3 4 4 3 5 2 6 1 7 78 8 79 9 96 10 80 11 95 12
REMARK SMILES IDX 81 13 94 14 82 15 85 16 83 17 84 18 97 19 98 20 99 21 100 22
REMARK SMILES IDX 86 23 87 24 88 25 89 26 93 27 90 28 92 29 91 30 8 31 9 32
REMARK SMILES IDX 10 33 11 34 12 35 13 36 14 37 15 38 16 39 77 40 17 41 76 42
REMARK SMILES IDX 18 43 19 44 20 45 70 46 21 47 75 48 69 49 71 50 22 51 74 52
REMARK SMILES IDX 68 53 67 54 23 56 55 57 35 58 54 59 36 60 39 61 53 62 72 63
REMARK SMILES IDX 37 64 38 65 52 67 73 68 40 69 24 70 25 71 33 72 26 73 27 74
REMARK SMILES IDX 31 75 34 76 28 77 29 78 32 79 30 80 56 81 57 82 65 83 58 84
REMARK SMILES IDX 59 85 63 86 66 87 60 88 61 89 64 90 62 91 41 92 42 93 50 94
REMARK SMILES IDX 43 95 44 96 48 97 51 98 45 99 46 100 49 101 47 102
REMARK H PARENT 71 55 39 66
REMARK Flexibility Score: inf
ROOT
ATOM      1  C   UNL     1       2.389  -2.305  -0.340  1.00  0.00     0.188 C 
ENDROOT
BRANCH   1   2
ATOM      2  O   UNL     1       3.736  -1.911  -0.847  1.00  0.00    -0.376 OA
BRANCH   2   3
ATOM      3  C   UNL     1       4.522  -0.388  -0.740  1.00  0.00     0.202 C 
BRANCH   3   4
ATOM      4  C   UNL     1       3.791   1.320   0.387  1.00  0.00     0.261 C 
BRANCH   4   5
ATOM      5  O   UNL     1       2.842   2.402  -0.129  1.00  0.00    -0.460 OA
BRANCH   5   6
ATOM      6  C   UNL     1       3.042   2.674  -1.426  1.00  0.00     0.338 C 
ATOM      7  O   UNL     1       2.355   3.329  -2.171  1.00  0.00    -0.246 OA
BRANCH   6   8
ATOM      8  C   UNL     1       3.934   1.560  -1.692  1.00  0.00     0.087 C 
ATOM      9  C   UNL     1       5.310   1.725  -1.238  1.00  0.00     0.027 C 
ATOM     10  C   UNL     1       2.702   0.262  -0.998  1.00  0.00     0.316 C 
ATOM     11  C   UNL     1       5.986   0.943   0.234  1.00  0.00     0.020 A 
ATOM     12  O   UNL     1       3.352  -0.486   0.689  1.00  0.00    -0.474 OA
ATOM     13  C   UNL     1       7.262   1.271   0.604  1.00  0.00     0.032 A 
ATOM     14  C   UNL     1       5.045  -0.098   1.262  1.00  0.00     0.143 A 
ATOM     15  C   UNL     1       7.701   0.677   1.795  1.00  0.00     0.043 A 
ATOM     16  C   UNL     1       5.576  -0.649   2.408  1.00  0.00     0.069 A 
ATOM     17  Cl  UNL     1       9.313   1.061   2.308  1.00  0.00    -0.084 Cl
ATOM     18  C   UNL     1       6.921  -0.225   2.629  1.00  0.00     0.041 A 
BRANCH  10  19
ATOM     19  C   UNL     1       2.455  -0.406  -2.531  1.00  0.00     0.430 C 
ATOM     20  F   UNL     1       2.299  -1.714  -2.724  1.00  0.00    -0.167 F 
ATOM     21  F   UNL     1       1.333   0.166  -3.054  1.00  0.00    -0.167 F 
ATOM     22  F   UNL     1       3.448  -0.058  -3.409  1.00  0.00    -0.167 F 
ENDBRANCH  10  19
BRANCH  16  23
ATOM     23  C   UNL     1       5.028  -1.595   3.329  1.00  0.00    -0.058 C 
ATOM     24  C   UNL     1       4.790  -2.446   4.151  1.00  0.00    -0.062 C 
BRANCH  24  25
ATOM     25  C   UNL     1       4.606  -3.497   5.120  1.00  0.00     0.025 A 
ATOM     26  C   UNL     1       4.397  -3.186   6.465  1.00  0.00     0.017 A 
ATOM     27  C   UNL     1       4.646  -4.845   4.743  1.00  0.00     0.017 A 
ATOM     28  C   UNL     1       4.203  -4.205   7.406  1.00  0.00     0.001 A 
ATOM     29  C   UNL     1       4.447  -5.864   5.678  1.00  0.00     0.001 A 
ATOM     30  C   UNL     1       4.221  -5.543   7.012  1.00  0.00     0.000 A 
ENDBRANCH  24  25
ENDBRANCH  16  23
ENDBRANCH   6   8
ENDBRANCH   5   6
ENDBRANCH   4   5
ENDBRANCH   3   4
ENDBRANCH   2   3
ENDBRANCH   1   2
BRANCH   1  31
ATOM     31  C   UNL     1       2.142  -3.382   0.725  1.00  0.00     0.188 C 
BRANCH  31  32
ATOM     32  O   UNL     1       3.148  -3.696   1.649  1.00  0.00    -0.376 OA
BRANCH  32  33
ATOM     33  C   UNL     1       4.435  -3.939   1.109  1.00  0.00     0.202 C 
BRANCH  33  34
ATOM     34  C   UNL     1       4.581  -5.107   0.141  1.00  0.00     0.261 C 
BRANCH  34  35
ATOM     35  O   UNL     1       4.043  -4.825  -1.159  1.00  0.00    -0.460 OA
BRANCH  35  36
ATOM     36  C   UNL     1       2.955  -5.533  -1.539  1.00  0.00     0.338 C 
ATOM     37  O   UNL     1       2.355  -6.387  -0.913  1.00  0.00    -0.246 OA
BRANCH  36  38
ATOM     38  C   UNL     1       2.507  -5.006  -2.837  1.00  0.00     0.060 A 
ATOM     39  C   UNL     1       1.217  -4.470  -2.962  1.00  0.00     0.016 A 
ATOM     40  C   UNL     1       3.368  -5.069  -3.931  1.00  0.00     0.016 A 
ATOM     41  C   UNL     1       0.792  -3.973  -4.192  1.00  0.00     0.010 A 
ATOM     42  C   UNL     1       2.925  -4.620  -5.170  1.00  0.00     0.010 A 
ATOM     43  C   UNL     1       1.629  -4.093  -5.308  1.00  0.00    -0.014 A 
BRANCH  43  44
ATOM     44  C   UNL     1       1.065  -3.936  -6.663  1.00  0.00     0.031 A 
ATOM     45  C   UNL     1       0.524  -5.169  -7.327  1.00  0.00     0.074 A 
ATOM     46  C   UNL     1       1.051  -2.749  -7.290  1.00  0.00     0.049 A 
ATOM     47  N   UNL     1       0.045  -5.326  -8.532  1.00  0.00    -0.248 NA
ATOM     48  C   UNL     1       0.539  -6.400  -6.517  1.00  0.00     0.031 C 
ATOM     49  C   UNL     1       1.517  -1.487  -6.722  1.00  0.00     0.029 A 
ATOM     50  N   UNL     1       0.637  -2.422  -8.556  1.00  0.00    -0.354 N 
ATOM     51  C   UNL     1      -0.298  -6.668  -8.623  1.00  0.00     0.074 A 
ATOM     52  C   UNL     1       0.065  -7.292  -7.371  1.00  0.00     0.031 C 
ATOM     53  C   UNL     1       1.373  -0.518  -7.645  1.00  0.00     0.029 A 
ATOM     54  C   UNL     1       0.839  -1.103  -8.875  1.00  0.00     0.049 A 
ATOM     55  H   UNL     1       0.233  -3.071  -9.175  1.00  0.00     0.167 HD
ATOM     56  C   UNL     1      -0.874  -7.319  -9.659  1.00  0.00     0.037 A 
ATOM     57  C   UNL     1       0.635  -0.458 -10.041  1.00  0.00     0.037 A 
ATOM     58  C   UNL     1      -1.202  -6.692 -10.910  1.00  0.00     0.049 A 
ATOM     59  C   UNL     1       0.081  -1.229 -11.215  1.00  0.00     0.074 A 
ATOM     60  C   UNL     1      -1.788  -7.254 -12.028  1.00  0.00     0.029 A 
ATOM     61  N   UNL     1      -0.951  -5.361 -11.213  1.00  0.00    -0.354 N 
ATOM     62  N   UNL     1      -0.276  -2.490 -11.290  1.00  0.00    -0.248 NA
ATOM     63  C   UNL     1      -0.103  -0.484 -12.469  1.00  0.00     0.031 C 
ATOM     64  C   UNL     1      -1.823  -6.284 -13.034  1.00  0.00     0.029 A 
ATOM     65  C   UNL     1      -1.341  -5.092 -12.515  1.00  0.00     0.049 A 
ATOM     66  H   UNL     1      -0.554  -4.705 -10.595  1.00  0.00     0.167 HD
ATOM     67  C   UNL     1      -0.761  -2.678 -12.579  1.00  0.00     0.074 A 
ATOM     68  C   UNL     1      -0.666  -1.397 -13.248  1.00  0.00     0.031 C 
ATOM     69  C   UNL     1      -1.246  -3.806 -13.159  1.00  0.00     0.037 A 
BRANCH  56  70
ATOM     70  C   UNL     1      -1.143  -8.786  -9.491  1.00  0.00     0.064 A 
ATOM     71  C   UNL     1      -2.100  -9.264  -8.582  1.00  0.00     0.173 A 
ATOM     72  C   UNL     1      -0.443  -9.727 -10.260  1.00  0.00     0.173 A 
ATOM     73  F   UNL     1      -2.784  -8.408  -7.808  1.00  0.00    -0.203 F 
ATOM     74  C   UNL     1      -2.322 -10.630  -8.428  1.00  0.00     0.198 A 
ATOM     75  C   UNL     1      -0.696 -11.090 -10.131  1.00  0.00     0.198 A 
ATOM     76  F   UNL     1       0.485  -9.326 -11.142  1.00  0.00    -0.203 F 
ATOM     77  F   UNL     1      -3.197 -11.065  -7.511  1.00  0.00    -0.200 F 
ATOM     78  C   UNL     1      -1.627 -11.541  -9.209  1.00  0.00     0.200 A 
ATOM     79  F   UNL     1      -0.034 -11.967 -10.898  1.00  0.00    -0.200 F 
ATOM     80  F   UNL     1      -1.850 -12.854  -9.067  1.00  0.00    -0.200 F 
ENDBRANCH  56  70
BRANCH  57  81
ATOM     81  C   UNL     1       0.957   0.990 -10.165  1.00  0.00     0.064 A 
ATOM     82  C   UNL     1      -0.050   1.937 -10.405  1.00  0.00     0.173 A 
ATOM     83  C   UNL     1       2.278   1.455 -10.085  1.00  0.00     0.173 A 
ATOM     84  F   UNL     1      -1.327   1.543 -10.518  1.00  0.00    -0.203 F 
ATOM     85  C   UNL     1       0.255   3.285 -10.588  1.00  0.00     0.198 A 
ATOM     86  C   UNL     1       2.578   2.808 -10.232  1.00  0.00     0.198 A 
ATOM     87  F   UNL     1       3.282   0.594  -9.865  1.00  0.00    -0.203 F 
ATOM     88  F   UNL     1      -0.720   4.156 -10.882  1.00  0.00    -0.200 F 
ATOM     89  C   UNL     1       1.568   3.720 -10.495  1.00  0.00     0.200 A 
ATOM     90  F   UNL     1       3.847   3.226 -10.129  1.00  0.00    -0.200 F 
ATOM     91  F   UNL     1       1.861   5.016 -10.674  1.00  0.00    -0.200 F 
ENDBRANCH  57  81
BRANCH  69  92
ATOM     92  C   UNL     1      -1.763  -3.698 -14.567  1.00  0.00     0.064 A 
ATOM     93  C   UNL     1      -0.913  -3.464 -15.658  1.00  0.00     0.173 A 
ATOM     94  C   UNL     1      -3.130  -3.882 -14.831  1.00  0.00     0.173 A 
ATOM     95  F   UNL     1       0.401  -3.273 -15.463  1.00  0.00    -0.203 F 
ATOM     96  C   UNL     1      -1.417  -3.382 -16.954  1.00  0.00     0.198 A 
ATOM     97  C   UNL     1      -3.623  -3.843 -16.132  1.00  0.00     0.198 A 
ATOM     98  F   UNL     1      -3.988  -4.123 -13.828  1.00  0.00    -0.203 F 
ATOM     99  F   UNL     1      -0.595  -3.096 -17.973  1.00  0.00    -0.200 F 
ATOM    100  C   UNL     1      -2.769  -3.581 -17.191  1.00  0.00     0.200 A 
ATOM    101  F   UNL     1      -4.926  -4.061 -16.360  1.00  0.00    -0.200 F 
ATOM    102  F   UNL     1      -3.249  -3.514 -18.440  1.00  0.00    -0.200 F 
ENDBRANCH  69  92
ENDBRANCH  43  44
ENDBRANCH  36  38
ENDBRANCH  35  36
ENDBRANCH  34  35
ENDBRANCH  33  34
ENDBRANCH  32  33
ENDBRANCH  31  32
ENDBRANCH   1  31
TORSDOF 20
