REMARK SMILES C[C@@H]1[C@@H](C(=O)OCCOCCOCCOC(=O)c2ccc(-c3c4nc(c(-c5c(F)c(F)c(F)c(F)c5F)c5ccc([nH]5)c(-c5c(F)c(F)c(F)c(F)c5F)c5nc(c(-c6c(F)c(F)c(F)c(F)c6F)c6ccc3[nH]6)C=C5)C=C4)cc2)CCN1C(=O)[C@]1([NH3+])CCOC1
REMARK SMILES IDX 10 1 9 2 8 3 7 4 6 5 4 6 5 7 3 8 1 9 2 10 83 11 81 12 82 13
REMARK SMILES IDX 84 14 85 15 86 16 88 17 91 18 89 19 90 20 87 21 11 25 12 26
REMARK SMILES IDX 13 27 14 28 15 29 16 30 17 31 18 32 19 33 80 34 20 35 79 36
REMARK SMILES IDX 21 37 22 38 23 39 73 40 24 41 78 42 72 43 74 44 25 45 77 46
REMARK SMILES IDX 71 47 70 48 26 50 58 51 38 52 57 53 39 54 42 55 56 56 75 57
REMARK SMILES IDX 40 58 41 59 55 61 76 62 43 63 27 64 28 65 36 66 29 67 30 68
REMARK SMILES IDX 34 69 37 70 31 71 32 72 35 73 33 74 59 75 60 76 68 77 61 78
REMARK SMILES IDX 62 79 66 80 69 81 63 82 64 83 67 84 65 85 44 86 45 87 53 88
REMARK SMILES IDX 46 89 47 90 51 91 54 92 48 93 49 94 52 95 50 96
REMARK H PARENT 87 22 87 23 87 24 74 49 42 60
REMARK Flexibility Score: inf
ROOT
ATOM      1  C   UNL     1       6.849  -5.770   0.275  1.00  0.00     0.188 C 
ENDROOT
BRANCH   1   2
ATOM      2  O   UNL     1       6.914  -6.214   1.617  1.00  0.00    -0.376 OA
BRANCH   2   3
ATOM      3  C   UNL     1       6.364  -7.468   1.995  1.00  0.00     0.202 C 
BRANCH   3   4
ATOM      4  C   UNL     1       5.011  -7.962   1.462  1.00  0.00     0.261 C 
BRANCH   4   5
ATOM      5  O   UNL     1       4.817  -7.808   0.050  1.00  0.00    -0.463 OA
BRANCH   5   6
ATOM      6  C   UNL     1       3.865  -6.906  -0.307  1.00  0.00     0.311 C 
ATOM      7  O   UNL     1       3.163  -6.289   0.482  1.00  0.00    -0.252 OA
BRANCH   6   8
ATOM      8  C   UNL     1       3.825  -6.721  -1.815  1.00  0.00     0.123 C 
ATOM      9  C   UNL     1       3.858  -4.890  -3.562  1.00  0.00     0.032 C 
ATOM     10  C   UNL     1       3.401  -5.281  -2.152  1.00  0.00     0.096 C 
ATOM     11  N   UNL     1       1.941  -5.344  -2.052  1.00  0.00    -0.334 N 
ATOM     12  C   UNL     1       2.727  -7.569  -2.436  1.00  0.00     0.039 C 
ATOM     13  C   UNL     1       1.481  -6.727  -2.204  1.00  0.00     0.121 C 
BRANCH  11  14
ATOM     14  C   UNL     1       1.041  -4.431  -1.543  1.00  0.00     0.286 C 
ATOM     15  O   UNL     1      -0.143  -4.788  -1.406  1.00  0.00    -0.267 OA
BRANCH  14  16
ATOM     16  C   UNL     1       1.403  -2.951  -1.142  1.00  0.00     0.199 C 
ATOM     17  C   UNL     1       1.863  -2.096  -2.305  1.00  0.00     0.110 C 
ATOM     18  C   UNL     1       2.502  -2.802  -0.093  1.00  0.00     0.239 C 
ATOM     19  C   UNL     1       3.311  -1.760  -2.023  1.00  0.00     0.167 C 
ATOM     20  O   UNL     1       3.648  -2.186  -0.705  1.00  0.00    -0.374 OA
BRANCH  16  21
ATOM     21  N   UNL     1       0.137  -2.341  -0.607  1.00  0.00    -0.343 N 
ATOM     22  H   UNL     1       0.315  -1.376  -0.330  1.00  0.00     0.345 HD
ATOM     23  H   UNL     1      -0.182  -2.874   0.203  1.00  0.00     0.345 HD
ATOM     24  H   UNL     1      -0.582  -2.360  -1.330  1.00  0.00     0.345 HD
ENDBRANCH  16  21
ENDBRANCH  14  16
ENDBRANCH  11  14
ENDBRANCH   6   8
ENDBRANCH   5   6
ENDBRANCH   4   5
ENDBRANCH   3   4
ENDBRANCH   2   3
ENDBRANCH   1   2
BRANCH   1  25
ATOM     25  C   UNL     1       7.395  -6.651  -0.867  1.00  0.00     0.188 C 
BRANCH  25  26
ATOM     26  O   UNL     1       7.681  -7.989  -0.559  1.00  0.00    -0.376 OA
BRANCH  26  27
ATOM     27  C   UNL     1       8.965  -8.344  -0.072  1.00  0.00     0.202 C 
BRANCH  27  28
ATOM     28  C   UNL     1      10.117  -7.368   0.259  1.00  0.00     0.261 C 
BRANCH  28  29
ATOM     29  O   UNL     1       9.866  -5.959   0.203  1.00  0.00    -0.460 OA
BRANCH  29  30
ATOM     30  C   UNL     1      10.342  -5.314  -0.888  1.00  0.00     0.338 C 
ATOM     31  O   UNL     1      10.935  -5.805  -1.841  1.00  0.00    -0.246 OA
BRANCH  30  32
ATOM     32  C   UNL     1       9.857  -3.923  -0.874  1.00  0.00     0.060 A 
ATOM     33  C   UNL     1       8.917  -3.522  -1.835  1.00  0.00     0.016 A 
ATOM     34  C   UNL     1      10.349  -3.010   0.059  1.00  0.00     0.016 A 
ATOM     35  C   UNL     1       8.473  -2.200  -1.874  1.00  0.00     0.010 A 
ATOM     36  C   UNL     1       9.926  -1.679  -0.000  1.00  0.00     0.010 A 
ATOM     37  C   UNL     1       9.006  -1.262  -0.981  1.00  0.00    -0.014 A 
BRANCH  37  38
ATOM     38  C   UNL     1       8.753   0.186  -1.183  1.00  0.00     0.031 A 
ATOM     39  C   UNL     1       9.796   1.002  -1.895  1.00  0.00     0.074 A 
ATOM     40  C   UNL     1       7.622   0.769  -0.749  1.00  0.00     0.049 A 
ATOM     41  N   UNL     1       9.851   2.293  -2.100  1.00  0.00    -0.248 NA
ATOM     42  C   UNL     1      10.935   0.255  -2.454  1.00  0.00     0.031 C 
ATOM     43  C   UNL     1       6.506   0.082  -0.104  1.00  0.00     0.029 A 
ATOM     44  N   UNL     1       7.237   2.088  -0.775  1.00  0.00    -0.354 N 
ATOM     45  C   UNL     1      11.028   2.513  -2.803  1.00  0.00     0.074 A 
ATOM     46  C   UNL     1      11.674   1.228  -2.964  1.00  0.00     0.031 C 
ATOM     47  C   UNL     1       5.570   0.988   0.226  1.00  0.00     0.029 A 
ATOM     48  C   UNL     1       6.038   2.322  -0.147  1.00  0.00     0.049 A 
ATOM     49  H   UNL     1       7.770   2.797  -1.203  1.00  0.00     0.167 HD
ATOM     50  C   UNL     1      11.522   3.680  -3.280  1.00  0.00     0.037 A 
ATOM     51  C   UNL     1       5.412   3.485   0.120  1.00  0.00     0.037 A 
ATOM     52  C   UNL     1      10.884   4.959  -3.110  1.00  0.00     0.049 A 
ATOM     53  C   UNL     1       6.038   4.785  -0.325  1.00  0.00     0.074 A 
ATOM     54  C   UNL     1      11.307   6.200  -3.554  1.00  0.00     0.029 A 
ATOM     55  N   UNL     1       9.691   5.162  -2.433  1.00  0.00    -0.354 N 
ATOM     56  N   UNL     1       7.144   4.988  -1.000  1.00  0.00    -0.248 NA
ATOM     57  C   UNL     1       5.324   6.020   0.030  1.00  0.00     0.031 C 
ATOM     58  C   UNL     1      10.398   7.160  -3.099  1.00  0.00     0.029 A 
ATOM     59  C   UNL     1       9.374   6.511  -2.427  1.00  0.00     0.049 A 
ATOM     60  H   UNL     1       9.148   4.452  -2.019  1.00  0.00     0.167 HD
ATOM     61  C   UNL     1       7.235   6.363  -1.185  1.00  0.00     0.074 A 
ATOM     62  C   UNL     1       6.068   6.946  -0.559  1.00  0.00     0.031 C 
ATOM     63  C   UNL     1       8.198   7.078  -1.818  1.00  0.00     0.037 A 
BRANCH  50  64
ATOM     64  C   UNL     1      12.833   3.631  -4.009  1.00  0.00     0.064 A 
ATOM     65  C   UNL     1      12.948   3.049  -5.281  1.00  0.00     0.173 A 
ATOM     66  C   UNL     1      13.982   4.207  -3.446  1.00  0.00     0.173 A 
ATOM     67  F   UNL     1      11.883   2.472  -5.858  1.00  0.00    -0.203 F 
ATOM     68  C   UNL     1      14.169   3.022  -5.949  1.00  0.00     0.198 A 
ATOM     69  C   UNL     1      15.194   4.206  -4.131  1.00  0.00     0.198 A 
ATOM     70  F   UNL     1      13.928   4.780  -2.234  1.00  0.00    -0.203 F 
ATOM     71  F   UNL     1      14.265   2.417  -7.141  1.00  0.00    -0.200 F 
ATOM     72  C   UNL     1      15.289   3.607  -5.378  1.00  0.00     0.200 A 
ATOM     73  F   UNL     1      16.272   4.785  -3.583  1.00  0.00    -0.200 F 
ATOM     74  F   UNL     1      16.461   3.589  -6.027  1.00  0.00    -0.200 F 
ENDBRANCH  50  64
BRANCH  51  75
ATOM     75  C   UNL     1       4.124   3.488   0.865  1.00  0.00     0.064 A 
ATOM     76  C   UNL     1       2.936   3.909   0.251  1.00  0.00     0.173 A 
ATOM     77  C   UNL     1       4.062   3.121   2.218  1.00  0.00     0.173 A 
ATOM     78  F   UNL     1       2.949   4.303  -1.032  1.00  0.00    -0.203 F 
ATOM     79  C   UNL     1       1.743   3.990   0.967  1.00  0.00     0.198 A 
ATOM     80  C   UNL     1       2.862   3.171   2.924  1.00  0.00     0.198 A 
ATOM     81  F   UNL     1       5.172   2.724   2.858  1.00  0.00    -0.203 F 
ATOM     82  F   UNL     1       0.639   4.462   0.372  1.00  0.00    -0.200 F 
ATOM     83  C   UNL     1       1.706   3.616   2.302  1.00  0.00     0.200 A 
ATOM     84  F   UNL     1       2.831   2.808   4.214  1.00  0.00    -0.200 F 
ATOM     85  F   UNL     1       0.562   3.706   2.993  1.00  0.00    -0.200 F 
ENDBRANCH  51  75
BRANCH  63  86
ATOM     86  C   UNL     1       8.007   8.566  -1.922  1.00  0.00     0.064 A 
ATOM     87  C   UNL     1       8.116   9.409  -0.807  1.00  0.00     0.173 A 
ATOM     88  C   UNL     1       7.757   9.161  -3.170  1.00  0.00     0.173 A 
ATOM     89  F   UNL     1       8.342   8.892   0.410  1.00  0.00    -0.203 F 
ATOM     90  C   UNL     1       7.954  10.787  -0.931  1.00  0.00     0.198 A 
ATOM     91  C   UNL     1       7.630  10.541  -3.296  1.00  0.00     0.198 A 
ATOM     92  F   UNL     1       7.652   8.403  -4.272  1.00  0.00    -0.203 F 
ATOM     93  F   UNL     1       8.013  11.567   0.157  1.00  0.00    -0.200 F 
ATOM     94  C   UNL     1       7.720  11.352  -2.175  1.00  0.00     0.200 A 
ATOM     95  F   UNL     1       7.423  11.086  -4.502  1.00  0.00    -0.200 F 
ATOM     96  F   UNL     1       7.576  12.679  -2.294  1.00  0.00    -0.200 F 
ENDBRANCH  63  86
ENDBRANCH  37  38
ENDBRANCH  30  32
ENDBRANCH  29  30
ENDBRANCH  28  29
ENDBRANCH  27  28
ENDBRANCH  26  27
ENDBRANCH  25  26
ENDBRANCH   1  25
TORSDOF 20
