REMARK SMILES CCN1C(=O)CC[C@H](C(=O)OCCOCCOCCOC(=O)c2ccc(-c3c4nc(c(-c5c(F)c(F)c(F)c(F)c5F)c5ccc([nH]5)c(-c5c(F)c(F)c(F)c(F)c5F)c5nc(c(-c6c(F)c(F)c(F)c(F)c6F)c6ccc3[nH]6)C=C5)C=C4)cc2)[C@@H]1c1ccc(OC)cc1
REMARK SMILES IDX 15 1 14 2 13 3 12 4 11 5 9 6 10 7 8 8 3 9 4 10 86 11 5 12
REMARK SMILES IDX 6 13 7 14 2 15 1 16 87 17 88 18 94 19 89 20 93 21 90 22
REMARK SMILES IDX 91 23 92 24 16 25 17 26 18 27 19 28 20 29 21 30 22 31 23 32
REMARK SMILES IDX 24 33 85 34 25 35 84 36 26 37 27 38 28 39 78 40 29 41 83 42
REMARK SMILES IDX 77 43 79 44 30 45 82 46 76 47 75 48 31 50 63 51 43 52 62 53
REMARK SMILES IDX 44 54 47 55 61 56 80 57 45 58 46 59 60 61 81 62 48 63 32 64
REMARK SMILES IDX 33 65 41 66 34 67 35 68 39 69 42 70 36 71 37 72 40 73 38 74
REMARK SMILES IDX 64 75 65 76 73 77 66 78 67 79 71 80 74 81 68 82 69 83 72 84
REMARK SMILES IDX 70 85 49 86 50 87 58 88 51 89 52 90 56 91 59 92 53 93 54 94
REMARK SMILES IDX 57 95 55 96
REMARK H PARENT 79 49 47 60
REMARK Flexibility Score: inf
ROOT
ATOM      1  C   UNL     1       2.085   5.779   4.916  1.00  0.00     0.188 C 
ENDROOT
BRANCH   1   2
ATOM      2  O   UNL     1       1.136   6.815   4.710  1.00  0.00    -0.376 OA
BRANCH   2   3
ATOM      3  C   UNL     1      -0.223   6.475   4.445  1.00  0.00     0.202 C 
BRANCH   3   4
ATOM      4  C   UNL     1      -0.532   5.432   3.360  1.00  0.00     0.261 C 
BRANCH   4   5
ATOM      5  O   UNL     1      -0.142   4.071   3.665  1.00  0.00    -0.463 OA
BRANCH   5   6
ATOM      6  C   UNL     1       0.756   3.501   2.825  1.00  0.00     0.311 C 
ATOM      7  O   UNL     1       1.302   4.093   1.897  1.00  0.00    -0.252 OA
BRANCH   6   8
ATOM      8  C   UNL     1       1.007   2.018   3.045  1.00  0.00     0.127 C 
ATOM      9  N   UNL     1       0.700  -0.177   1.945  1.00  0.00    -0.335 N 
ATOM     10  C   UNL     1       1.134  -0.852   3.082  1.00  0.00     0.223 C 
ATOM     11  C   UNL     1       0.239   1.223   1.977  1.00  0.00     0.129 C 
ATOM     12  O   UNL     1       1.379  -2.059   3.087  1.00  0.00    -0.275 OA
ATOM     13  C   UNL     1       1.410  -0.043   4.340  1.00  0.00     0.101 C 
ATOM     14  C   UNL     1       0.795   1.349   4.399  1.00  0.00     0.028 C 
BRANCH   9  15
ATOM     15  C   UNL     1       0.490  -0.945   0.712  1.00  0.00     0.117 C 
ATOM     16  C   UNL     1       1.104  -0.307  -0.526  1.00  0.00     0.027 C 
ENDBRANCH   9  15
BRANCH  11  17
ATOM     17  C   UNL     1      -1.279   1.361   2.131  1.00  0.00    -0.024 A 
ATOM     18  C   UNL     1      -2.064   0.430   2.825  1.00  0.00     0.010 A 
ATOM     19  C   UNL     1      -1.907   2.529   1.661  1.00  0.00     0.010 A 
ATOM     20  C   UNL     1      -3.403   0.706   3.119  1.00  0.00     0.047 A 
ATOM     21  C   UNL     1      -3.233   2.819   1.987  1.00  0.00     0.047 A 
ATOM     22  C   UNL     1      -3.977   1.921   2.745  1.00  0.00     0.118 A 
BRANCH  22  23
ATOM     23  O   UNL     1      -5.269   2.112   3.149  1.00  0.00    -0.497 OA
ATOM     24  C   UNL     1      -5.671   3.471   3.294  1.00  0.00     0.278 C 
ENDBRANCH  22  23
ENDBRANCH  11  17
ENDBRANCH   6   8
ENDBRANCH   5   6
ENDBRANCH   4   5
ENDBRANCH   3   4
ENDBRANCH   2   3
ENDBRANCH   1   2
BRANCH   1  25
ATOM     25  C   UNL     1       1.689   4.583   5.785  1.00  0.00     0.188 C 
BRANCH  25  26
ATOM     26  O   UNL     1       0.411   4.663   6.370  1.00  0.00    -0.376 OA
BRANCH  26  27
ATOM     27  C   UNL     1       0.314   4.811   7.778  1.00  0.00     0.202 C 
BRANCH  27  28
ATOM     28  C   UNL     1       1.153   5.897   8.472  1.00  0.00     0.261 C 
BRANCH  28  29
ATOM     29  O   UNL     1       2.558   5.910   8.164  1.00  0.00    -0.460 OA
BRANCH  29  30
ATOM     30  C   UNL     1       3.302   4.855   8.575  1.00  0.00     0.338 C 
ATOM     31  O   UNL     1       2.931   3.914   9.254  1.00  0.00    -0.246 OA
BRANCH  30  32
ATOM     32  C   UNL     1       4.572   4.899   7.804  1.00  0.00     0.060 A 
ATOM     33  C   UNL     1       4.945   3.773   7.052  1.00  0.00     0.016 A 
ATOM     34  C   UNL     1       5.338   6.064   7.750  1.00  0.00     0.016 A 
ATOM     35  C   UNL     1       6.096   3.806   6.261  1.00  0.00     0.010 A 
ATOM     36  C   UNL     1       6.505   6.087   6.982  1.00  0.00     0.010 A 
ATOM     37  C   UNL     1       6.905   4.949   6.257  1.00  0.00    -0.014 A 
BRANCH  37  38
ATOM     38  C   UNL     1       8.280   4.882   5.705  1.00  0.00     0.031 A 
ATOM     39  C   UNL     1       9.402   4.587   6.662  1.00  0.00     0.074 A 
ATOM     40  C   UNL     1       8.542   5.074   4.401  1.00  0.00     0.049 A 
ATOM     41  N   UNL     1      10.693   4.553   6.455  1.00  0.00    -0.248 NA
ATOM     42  C   UNL     1       9.006   4.295   8.050  1.00  0.00     0.031 C 
ATOM     43  C   UNL     1       7.546   5.317   3.362  1.00  0.00     0.029 A 
ATOM     44  N   UNL     1       9.742   5.105   3.734  1.00  0.00    -0.354 N 
ATOM     45  C   UNL     1      11.261   4.247   7.684  1.00  0.00     0.074 A 
ATOM     46  C   UNL     1      10.180   4.137   8.638  1.00  0.00     0.031 C 
ATOM     47  C   UNL     1       8.178   5.487   2.187  1.00  0.00     0.029 A 
ATOM     48  C   UNL     1       9.623   5.401   2.399  1.00  0.00     0.049 A 
ATOM     49  H   UNL     1      10.607   4.931   4.172  1.00  0.00     0.167 HD
ATOM     50  C   UNL     1      12.567   4.067   7.991  1.00  0.00     0.037 A 
ATOM     51  C   UNL     1      10.575   5.604   1.466  1.00  0.00     0.037 A 
ATOM     52  C   UNL     1      13.644   4.187   7.045  1.00  0.00     0.049 A 
ATOM     53  C   UNL     1      12.031   5.490   1.849  1.00  0.00     0.074 A 
ATOM     54  C   UNL     1      15.000   4.011   7.255  1.00  0.00     0.029 A 
ATOM     55  N   UNL     1      13.485   4.527   5.710  1.00  0.00    -0.354 N 
ATOM     56  N   UNL     1      12.563   5.179   3.007  1.00  0.00    -0.248 NA
ATOM     57  C   UNL     1      13.018   5.755   0.792  1.00  0.00     0.031 C 
ATOM     58  C   UNL     1      15.667   4.304   6.061  1.00  0.00     0.029 A 
ATOM     59  C   UNL     1      14.723   4.598   5.090  1.00  0.00     0.049 A 
ATOM     60  H   UNL     1      12.622   4.694   5.268  1.00  0.00     0.167 HD
ATOM     61  C   UNL     1      13.940   5.179   2.810  1.00  0.00     0.074 A 
ATOM     62  C   UNL     1      14.161   5.512   1.419  1.00  0.00     0.031 C 
ATOM     63  C   UNL     1      14.930   4.922   3.701  1.00  0.00     0.037 A 
BRANCH  50  64
ATOM     64  C   UNL     1      12.898   3.764   9.423  1.00  0.00     0.064 A 
ATOM     65  C   UNL     1      12.553   2.541  10.020  1.00  0.00     0.173 A 
ATOM     66  C   UNL     1      13.570   4.711  10.210  1.00  0.00     0.173 A 
ATOM     67  F   UNL     1      11.891   1.609   9.318  1.00  0.00    -0.203 F 
ATOM     68  C   UNL     1      12.835   2.295  11.361  1.00  0.00     0.198 A 
ATOM     69  C   UNL     1      13.881   4.447  11.540  1.00  0.00     0.198 A 
ATOM     70  F   UNL     1      13.923   5.896   9.688  1.00  0.00    -0.203 F 
ATOM     71  F   UNL     1      12.438   1.147  11.928  1.00  0.00    -0.200 F 
ATOM     72  C   UNL     1      13.504   3.245  12.118  1.00  0.00     0.200 A 
ATOM     73  F   UNL     1      14.538   5.362  12.267  1.00  0.00    -0.200 F 
ATOM     74  F   UNL     1      13.776   3.006  13.409  1.00  0.00    -0.200 F 
ENDBRANCH  50  64
BRANCH  51  75
ATOM     75  C   UNL     1      10.189   5.949   0.071  1.00  0.00     0.064 A 
ATOM     76  C   UNL     1      10.420   5.056  -0.985  1.00  0.00     0.173 A 
ATOM     77  C   UNL     1       9.602   7.185  -0.239  1.00  0.00     0.173 A 
ATOM     78  F   UNL     1      11.009   3.875  -0.745  1.00  0.00    -0.203 F 
ATOM     79  C   UNL     1      10.092   5.391  -2.297  1.00  0.00     0.198 A 
ATOM     80  C   UNL     1       9.248   7.508  -1.547  1.00  0.00     0.198 A 
ATOM     81  F   UNL     1       9.367   8.080   0.733  1.00  0.00    -0.203 F 
ATOM     82  F   UNL     1      10.369   4.538  -3.293  1.00  0.00    -0.200 F 
ATOM     83  C   UNL     1       9.500   6.613  -2.577  1.00  0.00     0.200 A 
ATOM     84  F   UNL     1       8.668   8.686  -1.811  1.00  0.00    -0.200 F 
ATOM     85  F   UNL     1       9.181   6.934  -3.838  1.00  0.00    -0.200 F 
ENDBRANCH  51  75
BRANCH  63  86
ATOM     86  C   UNL     1      16.346   4.944   3.195  1.00  0.00     0.064 A 
ATOM     87  C   UNL     1      16.986   6.139   2.835  1.00  0.00     0.173 A 
ATOM     88  C   UNL     1      17.089   3.755   3.120  1.00  0.00     0.173 A 
ATOM     89  F   UNL     1      16.319   7.302   2.877  1.00  0.00    -0.203 F 
ATOM     90  C   UNL     1      18.308   6.139   2.393  1.00  0.00     0.198 A 
ATOM     91  C   UNL     1      18.420   3.763   2.710  1.00  0.00     0.198 A 
ATOM     92  F   UNL     1      16.530   2.585   3.463  1.00  0.00    -0.203 F 
ATOM     93  F   UNL     1      18.883   7.287   2.007  1.00  0.00    -0.200 F 
ATOM     94  C   UNL     1      19.025   4.954   2.339  1.00  0.00     0.200 A 
ATOM     95  F   UNL     1      19.116   2.619   2.677  1.00  0.00    -0.200 F 
ATOM     96  F   UNL     1      20.300   4.957   1.924  1.00  0.00    -0.200 F 
ENDBRANCH  63  86
ENDBRANCH  37  38
ENDBRANCH  30  32
ENDBRANCH  29  30
ENDBRANCH  28  29
ENDBRANCH  27  28
ENDBRANCH  26  27
ENDBRANCH  25  26
ENDBRANCH   1  25
TORSDOF 20
