REMARK SMILES COc1ccccc1-c1ccc(C(=O)OCCOCCOCCOC(=O)c2ccc(-c3c4nc(c(-c5c(F)c(F)c(F)c(F)c5F)c5ccc([nH]5)c(-c5c(F)c(F)c(F)c(F)c5F)c5nc(c(-c6c(F)c(F)c(F)c(F)c6F)c6ccc3[nH]6)C=C5)C=C4)cc2)c(O)c1
REMARK SMILES IDX 19 1 18 2 17 3 16 4 15 5 13 6 14 7 12 8 9 9 10 10 92 11
REMARK SMILES IDX 11 12 90 13 8 14 3 15 4 16 5 17 7 18 6 19 2 20 1 21 91 22
REMARK SMILES IDX 20 24 21 25 22 26 23 27 24 28 25 29 26 30 27 31 28 32 89 33
REMARK SMILES IDX 29 34 88 35 30 36 31 37 32 38 82 39 33 40 87 41 81 42 83 43
REMARK SMILES IDX 34 44 86 45 80 46 79 47 35 49 67 50 47 51 66 52 48 53 51 54
REMARK SMILES IDX 65 55 84 56 49 57 50 58 64 60 85 61 52 62 36 63 37 64 45 65
REMARK SMILES IDX 38 66 39 67 43 68 46 69 40 70 41 71 44 72 42 73 68 74 69 75
REMARK SMILES IDX 77 76 70 77 71 78 75 79 78 80 72 81 73 82 76 83 74 84 53 85
REMARK SMILES IDX 54 86 62 87 55 88 56 89 60 90 63 91 57 92 58 93 61 94 59 95
REMARK H PARENT 91 23 83 48 51 59
REMARK Flexibility Score: inf
ROOT
ATOM      1  C   UNL     1       7.882  -2.056  -0.521  1.00  0.00     0.188 C 
ENDROOT
BRANCH   1   2
ATOM      2  O   UNL     1       8.442  -2.833  -1.563  1.00  0.00    -0.376 OA
BRANCH   2   3
ATOM      3  C   UNL     1       7.903  -2.759  -2.876  1.00  0.00     0.202 C 
BRANCH   3   4
ATOM      4  C   UNL     1       6.394  -2.711  -3.115  1.00  0.00     0.261 C 
BRANCH   4   5
ATOM      5  O   UNL     1       5.742  -1.696  -2.346  1.00  0.00    -0.460 OA
BRANCH   5   6
ATOM      6  C   UNL     1       4.676  -2.120  -1.630  1.00  0.00     0.341 C 
ATOM      7  O   UNL     1       4.192  -3.242  -1.635  1.00  0.00    -0.246 OA
BRANCH   6   8
ATOM      8  C   UNL     1       4.279  -1.114  -0.627  1.00  0.00     0.101 A 
ATOM      9  C   UNL     1       3.173   0.559   1.327  1.00  0.00    -0.011 A 
ATOM     10  C   UNL     1       3.557  -0.750   1.655  1.00  0.00     0.010 A 
ATOM     11  C   UNL     1       3.489   1.064   0.052  1.00  0.00     0.056 A 
ATOM     12  C   UNL     1       4.093  -1.585   0.680  1.00  0.00     0.020 A 
ATOM     13  C   UNL     1       4.029   0.226  -0.926  1.00  0.00     0.130 A 
BRANCH   9  14
ATOM     14  C   UNL     1       2.257   1.280   2.222  1.00  0.00     0.024 A 
ATOM     15  C   UNL     1       0.922   1.542   1.839  1.00  0.00     0.126 A 
ATOM     16  C   UNL     1       0.032   2.169   2.712  1.00  0.00     0.047 A 
ATOM     17  C   UNL     1       0.445   2.518   3.996  1.00  0.00     0.004 A 
ATOM     18  C   UNL     1       2.655   1.653   3.517  1.00  0.00     0.012 A 
ATOM     19  C   UNL     1       1.755   2.265   4.396  1.00  0.00     0.001 A 
BRANCH  15  20
ATOM     20  O   UNL     1       0.437   1.274   0.580  1.00  0.00    -0.496 OA
ATOM     21  C   UNL     1       0.244  -0.123   0.349  1.00  0.00     0.278 C 
ENDBRANCH  15  20
ENDBRANCH   9  14
BRANCH  13  22
ATOM     22  O   UNL     1       4.234   0.709  -2.186  1.00  0.00    -0.507 OA
ATOM     23  H   UNL     1       4.596   0.152  -2.848  1.00  0.00     0.293 HD
ENDBRANCH  13  22
ENDBRANCH   6   8
ENDBRANCH   5   6
ENDBRANCH   4   5
ENDBRANCH   3   4
ENDBRANCH   2   3
ENDBRANCH   1   2
BRANCH   1  24
ATOM     24  C   UNL     1       7.863  -0.514  -0.604  1.00  0.00     0.188 C 
BRANCH  24  25
ATOM     25  O   UNL     1       8.359   0.174  -1.731  1.00  0.00    -0.376 OA
BRANCH  25  26
ATOM     26  C   UNL     1       9.711   0.041  -2.128  1.00  0.00     0.202 C 
BRANCH  26  27
ATOM     27  C   UNL     1      10.875  -0.067  -1.135  1.00  0.00     0.261 C 
BRANCH  27  28
ATOM     28  O   UNL     1      10.627  -0.839   0.044  1.00  0.00    -0.460 OA
BRANCH  28  29
ATOM     29  C   UNL     1      10.615  -0.121   1.194  1.00  0.00     0.338 C 
ATOM     30  O   UNL     1      10.792   1.075   1.329  1.00  0.00    -0.246 OA
BRANCH  29  31
ATOM     31  C   UNL     1      10.178  -0.985   2.303  1.00  0.00     0.060 A 
ATOM     32  C   UNL     1       8.995  -0.648   2.973  1.00  0.00     0.016 A 
ATOM     33  C   UNL     1      10.958  -2.061   2.727  1.00  0.00     0.016 A 
ATOM     34  C   UNL     1       8.604  -1.369   4.098  1.00  0.00     0.010 A 
ATOM     35  C   UNL     1      10.575  -2.771   3.869  1.00  0.00     0.010 A 
ATOM     36  C   UNL     1       9.417  -2.405   4.577  1.00  0.00    -0.014 A 
BRANCH  36  37
ATOM     37  C   UNL     1       9.141  -2.979   5.915  1.00  0.00     0.031 A 
ATOM     38  C   UNL     1       9.892  -2.441   7.100  1.00  0.00     0.074 A 
ATOM     39  C   UNL     1       8.215  -3.939   6.079  1.00  0.00     0.049 A 
ATOM     40  N   UNL     1       9.816  -2.785   8.360  1.00  0.00    -0.248 NA
ATOM     41  C   UNL     1      10.862  -1.370   6.825  1.00  0.00     0.031 C 
ATOM     42  C   UNL     1       7.406  -4.524   5.013  1.00  0.00     0.029 A 
ATOM     43  N   UNL     1       7.809  -4.596   7.213  1.00  0.00    -0.354 N 
ATOM     44  C   UNL     1      10.729  -1.979   9.026  1.00  0.00     0.074 A 
ATOM     45  C   UNL     1      11.369  -1.149   8.029  1.00  0.00     0.031 C 
ATOM     46  C   UNL     1       6.608  -5.467   5.542  1.00  0.00     0.029 A 
ATOM     47  C   UNL     1       6.867  -5.565   6.978  1.00  0.00     0.049 A 
ATOM     48  H   UNL     1       8.159  -4.391   8.110  1.00  0.00     0.167 HD
ATOM     49  C   UNL     1      11.003  -1.929  10.351  1.00  0.00     0.037 A 
ATOM     50  C   UNL     1       6.295  -6.442   7.825  1.00  0.00     0.037 A 
ATOM     51  C   UNL     1      10.369  -2.757  11.343  1.00  0.00     0.049 A 
ATOM     52  C   UNL     1       6.653  -6.401   9.289  1.00  0.00     0.074 A 
ATOM     53  C   UNL     1      10.557  -2.760  12.714  1.00  0.00     0.029 A 
ATOM     54  N   UNL     1       9.432  -3.742  11.066  1.00  0.00    -0.354 N 
ATOM     55  N   UNL     1       7.482  -5.604   9.919  1.00  0.00    -0.248 NA
ATOM     56  C   UNL     1       5.983  -7.376  10.161  1.00  0.00     0.031 C 
ATOM     57  C   UNL     1       9.774  -3.784  13.260  1.00  0.00     0.029 A 
ATOM     58  C   UNL     1       9.054  -4.379  12.237  1.00  0.00     0.049 A 
ATOM     59  H   UNL     1       9.088  -3.957  10.169  1.00  0.00     0.167 HD
ATOM     60  C   UNL     1       7.416  -5.963  11.260  1.00  0.00     0.074 A 
ATOM     61  C   UNL     1       6.450  -7.038  11.355  1.00  0.00     0.031 C 
ATOM     62  C   UNL     1       8.092  -5.449  12.318  1.00  0.00     0.037 A 
BRANCH  49  63
ATOM     63  C   UNL     1      12.061  -0.963  10.800  1.00  0.00     0.064 A 
ATOM     64  C   UNL     1      11.850   0.424  10.786  1.00  0.00     0.173 A 
ATOM     65  C   UNL     1      13.297  -1.435  11.267  1.00  0.00     0.173 A 
ATOM     66  F   UNL     1      10.691   0.926  10.333  1.00  0.00    -0.203 F 
ATOM     67  C   UNL     1      12.848   1.304  11.196  1.00  0.00     0.198 A 
ATOM     68  C   UNL     1      14.281  -0.553  11.704  1.00  0.00     0.198 A 
ATOM     69  F   UNL     1      13.549  -2.752  11.303  1.00  0.00    -0.203 F 
ATOM     70  F   UNL     1      12.643   2.627  11.127  1.00  0.00    -0.200 F 
ATOM     71  C   UNL     1      14.060   0.815  11.661  1.00  0.00     0.200 A 
ATOM     72  F   UNL     1      15.448  -1.028  12.164  1.00  0.00    -0.200 F 
ATOM     73  F   UNL     1      15.018   1.663  12.059  1.00  0.00    -0.200 F 
ENDBRANCH  49  63
BRANCH  50  74
ATOM     74  C   UNL     1       5.326  -7.444   7.310  1.00  0.00     0.064 A 
ATOM     75  C   UNL     1       3.966  -7.376   7.642  1.00  0.00     0.173 A 
ATOM     76  C   UNL     1       5.746  -8.501   6.489  1.00  0.00     0.173 A 
ATOM     77  F   UNL     1       3.522  -6.398   8.446  1.00  0.00    -0.203 F 
ATOM     78  C   UNL     1       3.066  -8.338   7.189  1.00  0.00     0.198 A 
ATOM     79  C   UNL     1       4.840  -9.446   6.013  1.00  0.00     0.198 A 
ATOM     80  F   UNL     1       7.037  -8.613   6.146  1.00  0.00    -0.203 F 
ATOM     81  F   UNL     1       1.780  -8.276   7.561  1.00  0.00    -0.200 F 
ATOM     82  C   UNL     1       3.502  -9.368   6.370  1.00  0.00     0.200 A 
ATOM     83  F   UNL     1       5.264 -10.435   5.214  1.00  0.00    -0.200 F 
ATOM     84  F   UNL     1       2.636 -10.292   5.932  1.00  0.00    -0.200 F 
ENDBRANCH  50  74
BRANCH  62  85
ATOM     85  C   UNL     1       7.786  -6.019  13.674  1.00  0.00     0.064 A 
ATOM     86  C   UNL     1       8.183  -7.315  14.038  1.00  0.00     0.173 A 
ATOM     87  C   UNL     1       7.109  -5.248  14.633  1.00  0.00     0.173 A 
ATOM     88  F   UNL     1       8.822  -8.098  13.155  1.00  0.00    -0.203 F 
ATOM     89  C   UNL     1       7.883  -7.829  15.297  1.00  0.00     0.198 A 
ATOM     90  C   UNL     1       6.840  -5.754  15.902  1.00  0.00     0.198 A 
ATOM     91  F   UNL     1       6.715  -4.000  14.341  1.00  0.00    -0.203 F 
ATOM     92  F   UNL     1       8.223  -9.089  15.602  1.00  0.00    -0.200 F 
ATOM     93  C   UNL     1       7.218  -7.047  16.230  1.00  0.00     0.200 A 
ATOM     94  F   UNL     1       6.211  -4.991  16.806  1.00  0.00    -0.200 F 
ATOM     95  F   UNL     1       6.933  -7.543  17.441  1.00  0.00    -0.200 F 
ENDBRANCH  62  85
ENDBRANCH  36  37
ENDBRANCH  29  31
ENDBRANCH  28  29
ENDBRANCH  27  28
ENDBRANCH  26  27
ENDBRANCH  25  26
ENDBRANCH  24  25
ENDBRANCH   1  24
TORSDOF 20
