REMARK SMILES Cc1ccc(Cl)c(NC(=O)C[N@@H+]2CCC[C@H]2C(=O)OCCOCCOCCOC(=O)c2ccc(-c3c4nc(c(-c5c(F)c(F)c(F)c(F)c5F)c5ccc([nH]5)c(-c5c(F)c(F)c(F)c(F)c5F)c5nc(c(-c6c(F)c(F)c(F)c(F)c6F)c6ccc3[nH]6)C=C5)C=C4)cc2)c1Cl
REMARK SMILES IDX 23 1 22 2 21 3 20 4 19 5 17 6 18 7 16 8 12 9 13 10 14 12
REMARK SMILES IDX 15 13 11 14 9 15 8 16 10 18 7 19 1 20 2 21 3 22 94 23 4 24
REMARK SMILES IDX 95 25 5 26 6 27 24 28 25 29 26 30 27 31 28 32 29 33 30 34
REMARK SMILES IDX 31 35 32 36 93 37 33 38 92 39 34 40 35 41 36 42 86 43 37 44
REMARK SMILES IDX 91 45 85 46 87 47 38 48 90 49 84 50 83 51 39 53 71 54 51 55
REMARK SMILES IDX 70 56 52 57 55 58 69 59 88 60 53 61 54 62 68 64 89 65 56 66
REMARK SMILES IDX 40 67 41 68 49 69 42 70 43 71 47 72 50 73 44 74 45 75 48 76
REMARK SMILES IDX 46 77 72 78 73 79 81 80 74 81 75 82 79 83 82 84 76 85 77 86
REMARK SMILES IDX 80 87 78 88 57 89 58 90 66 91 59 92 60 93 64 94 67 95 61 96
REMARK SMILES IDX 62 97 65 98 63 99
REMARK H PARENT 12 11 8 17 87 52 55 63
REMARK Flexibility Score: inf
ROOT
ATOM      1  C   UNL     1       0.358   2.243  -3.180  1.00  0.00     0.188 C 
ENDROOT
BRANCH   1   2
ATOM      2  O   UNL     1       0.020   2.128  -4.558  1.00  0.00    -0.376 OA
BRANCH   2   3
ATOM      3  C   UNL     1      -0.754   1.022  -5.008  1.00  0.00     0.202 C 
BRANCH   3   4
ATOM      4  C   UNL     1      -0.066  -0.342  -4.981  1.00  0.00     0.261 C 
BRANCH   4   5
ATOM      5  O   UNL     1       0.341  -0.703  -3.655  1.00  0.00    -0.459 OA
BRANCH   5   6
ATOM      6  C   UNL     1       1.659  -1.012  -3.487  1.00  0.00     0.365 C 
ATOM      7  O   UNL     1       2.491  -1.062  -4.384  1.00  0.00    -0.245 OA
BRANCH   6   8
ATOM      8  C   UNL     1       1.969  -1.167  -1.986  1.00  0.00     0.295 C 
ATOM      9  N   UNL     1       2.452  -2.538  -1.692  1.00  0.00    -0.315 N 
ATOM     10  C   UNL     1       3.913  -2.447  -1.909  1.00  0.00     0.263 C 
ATOM     11  H   UNL     1       1.982  -3.232  -2.272  1.00  0.00     0.349 HD
ATOM     12  C   UNL     1       4.317  -1.084  -1.365  1.00  0.00     0.068 C 
ATOM     13  C   UNL     1       3.098  -0.204  -1.598  1.00  0.00     0.083 C 
BRANCH   9  14
ATOM     14  C   UNL     1       2.196  -2.933  -0.281  1.00  0.00     0.364 C 
BRANCH  14  15
ATOM     15  C   UNL     1       0.727  -3.202   0.032  1.00  0.00     0.279 C 
ATOM     16  N   UNL     1      -0.110  -2.328   0.662  1.00  0.00    -0.319 N 
ATOM     17  H   UNL     1      -1.015  -2.703   0.760  1.00  0.00     0.170 HD
ATOM     18  O   UNL     1       0.201  -4.257  -0.353  1.00  0.00    -0.268 OA
BRANCH  16  19
ATOM     19  C   UNL     1      -0.026  -1.024   1.214  1.00  0.00     0.079 A 
ATOM     20  C   UNL     1       2.371   1.749   2.356  1.00  0.00     0.046 C 
ATOM     21  C   UNL     1       1.106   0.990   2.044  1.00  0.00    -0.030 A 
ATOM     22  C   UNL     1      -0.087   1.713   1.926  1.00  0.00     0.006 A 
ATOM     23  C   UNL     1       1.097  -0.403   1.790  1.00  0.00     0.069 A 
ATOM     24  C   UNL     1      -1.258   1.071   1.551  1.00  0.00     0.023 A 
ATOM     25  Cl  UNL     1       2.337  -1.347   2.565  1.00  0.00    -0.082 Cl
ATOM     26  C   UNL     1      -1.221  -0.270   1.171  1.00  0.00     0.066 A 
ATOM     27  Cl  UNL     1      -2.705  -0.962   0.597  1.00  0.00    -0.082 Cl
ENDBRANCH  16  19
ENDBRANCH  14  15
ENDBRANCH   9  14
ENDBRANCH   6   8
ENDBRANCH   5   6
ENDBRANCH   4   5
ENDBRANCH   3   4
ENDBRANCH   2   3
ENDBRANCH   1   2
BRANCH   1  28
ATOM     28  C   UNL     1      -0.606   1.737  -2.092  1.00  0.00     0.188 C 
BRANCH  28  29
ATOM     29  O   UNL     1      -1.971   1.781  -2.471  1.00  0.00    -0.376 OA
BRANCH  29  30
ATOM     30  C   UNL     1      -2.811   2.596  -1.667  1.00  0.00     0.202 C 
BRANCH  30  31
ATOM     31  C   UNL     1      -2.755   4.061  -2.098  1.00  0.00     0.261 C 
BRANCH  31  32
ATOM     32  O   UNL     1      -1.472   4.681  -1.889  1.00  0.00    -0.460 OA
BRANCH  32  33
ATOM     33  C   UNL     1      -1.093   4.862  -0.609  1.00  0.00     0.338 C 
ATOM     34  O   UNL     1      -1.699   4.543   0.405  1.00  0.00    -0.246 OA
BRANCH  33  35
ATOM     35  C   UNL     1       0.282   5.381  -0.611  1.00  0.00     0.060 A 
ATOM     36  C   UNL     1       1.316   4.552  -0.165  1.00  0.00     0.016 A 
ATOM     37  C   UNL     1       0.546   6.685  -1.027  1.00  0.00     0.016 A 
ATOM     38  C   UNL     1       2.622   5.034  -0.109  1.00  0.00     0.010 A 
ATOM     39  C   UNL     1       1.858   7.164  -0.979  1.00  0.00     0.010 A 
ATOM     40  C   UNL     1       2.901   6.348  -0.505  1.00  0.00    -0.014 A 
BRANCH  40  41
ATOM     41  C   UNL     1       4.268   6.904  -0.352  1.00  0.00     0.031 A 
ATOM     42  C   UNL     1       4.540   7.897   0.740  1.00  0.00     0.074 A 
ATOM     43  C   UNL     1       5.261   6.522  -1.175  1.00  0.00     0.049 A 
ATOM     44  N   UNL     1       5.606   8.624   0.956  1.00  0.00    -0.248 NA
ATOM     45  C   UNL     1       3.466   8.093   1.725  1.00  0.00     0.031 C 
ATOM     46  C   UNL     1       5.149   5.512  -2.226  1.00  0.00     0.029 A 
ATOM     47  N   UNL     1       6.562   6.953  -1.259  1.00  0.00    -0.354 N 
ATOM     48  C   UNL     1       5.322   9.384   2.082  1.00  0.00     0.074 A 
ATOM     49  C   UNL     1       3.982   9.033   2.504  1.00  0.00     0.031 C 
ATOM     50  C   UNL     1       6.332   5.404  -2.854  1.00  0.00     0.029 A 
ATOM     51  C   UNL     1       7.263   6.381  -2.293  1.00  0.00     0.049 A 
ATOM     52  H   UNL     1       6.955   7.608  -0.638  1.00  0.00     0.167 HD
ATOM     53  C   UNL     1       6.109  10.293   2.704  1.00  0.00     0.037 A 
ATOM     54  C   UNL     1       8.497   6.649  -2.761  1.00  0.00     0.037 A 
ATOM     55  C   UNL     1       7.445  10.631   2.291  1.00  0.00     0.049 A 
ATOM     56  C   UNL     1       9.316   7.735  -2.112  1.00  0.00     0.074 A 
ATOM     57  C   UNL     1       8.320  11.543   2.856  1.00  0.00     0.029 A 
ATOM     58  N   UNL     1       8.101  10.067   1.207  1.00  0.00    -0.354 N 
ATOM     59  N   UNL     1       9.030   8.478  -1.071  1.00  0.00    -0.248 NA
ATOM     60  C   UNL     1      10.623   8.031  -2.718  1.00  0.00     0.031 C 
ATOM     61  C   UNL     1       9.489  11.561   2.089  1.00  0.00     0.029 A 
ATOM     62  C   UNL     1       9.361  10.628   1.073  1.00  0.00     0.049 A 
ATOM     63  H   UNL     1       7.727   9.371   0.620  1.00  0.00     0.167 HD
ATOM     64  C   UNL     1      10.123   9.315  -0.886  1.00  0.00     0.074 A 
ATOM     65  C   UNL     1      11.086   8.978  -1.914  1.00  0.00     0.031 C 
ATOM     66  C   UNL     1      10.311  10.278   0.049  1.00  0.00     0.037 A 
BRANCH  53  67
ATOM     67  C   UNL     1       5.526  11.021   3.878  1.00  0.00     0.064 A 
ATOM     68  C   UNL     1       5.348  10.396   5.121  1.00  0.00     0.173 A 
ATOM     69  C   UNL     1       5.169  12.373   3.764  1.00  0.00     0.173 A 
ATOM     70  F   UNL     1       5.657   9.099   5.275  1.00  0.00    -0.203 F 
ATOM     71  C   UNL     1       4.813  11.093   6.201  1.00  0.00     0.198 A 
ATOM     72  C   UNL     1       4.658  13.073   4.852  1.00  0.00     0.198 A 
ATOM     73  F   UNL     1       5.321  13.015   2.596  1.00  0.00    -0.203 F 
ATOM     74  F   UNL     1       4.610  10.465   7.367  1.00  0.00    -0.200 F 
ATOM     75  C   UNL     1       4.474  12.432   6.068  1.00  0.00     0.200 A 
ATOM     76  F   UNL     1       4.339  14.369   4.724  1.00  0.00    -0.200 F 
ATOM     77  F   UNL     1       3.963  13.102   7.109  1.00  0.00    -0.200 F 
ENDBRANCH  53  67
BRANCH  54  78
ATOM     78  C   UNL     1       9.021   5.913  -3.941  1.00  0.00     0.064 A 
ATOM     79  C   UNL     1      10.096   5.023  -3.819  1.00  0.00     0.173 A 
ATOM     80  C   UNL     1       8.473   6.103  -5.219  1.00  0.00     0.173 A 
ATOM     81  F   UNL     1      10.674   4.833  -2.623  1.00  0.00    -0.203 F 
ATOM     82  C   UNL     1      10.611   4.361  -4.931  1.00  0.00     0.198 A 
ATOM     83  C   UNL     1       8.970   5.419  -6.325  1.00  0.00     0.198 A 
ATOM     84  F   UNL     1       7.448   6.951  -5.391  1.00  0.00    -0.203 F 
ATOM     85  F   UNL     1      11.670   3.550  -4.794  1.00  0.00    -0.200 F 
ATOM     86  C   UNL     1      10.044   4.553  -6.182  1.00  0.00     0.200 A 
ATOM     87  F   UNL     1       8.414   5.603  -7.530  1.00  0.00    -0.200 F 
ATOM     88  F   UNL     1      10.540   3.915  -7.250  1.00  0.00    -0.200 F 
ENDBRANCH  54  78
BRANCH  66  89
ATOM     89  C   UNL     1      11.615  11.018   0.025  1.00  0.00     0.064 A 
ATOM     90  C   UNL     1      11.893  11.986  -0.951  1.00  0.00     0.173 A 
ATOM     91  C   UNL     1      12.578  10.793   1.021  1.00  0.00     0.173 A 
ATOM     92  F   UNL     1      11.010  12.226  -1.932  1.00  0.00    -0.203 F 
ATOM     93  C   UNL     1      13.094  12.690  -0.939  1.00  0.00     0.198 A 
ATOM     94  C   UNL     1      13.767  11.516   1.045  1.00  0.00     0.198 A 
ATOM     95  F   UNL     1      12.357   9.882   1.980  1.00  0.00    -0.203 F 
ATOM     96  F   UNL     1      13.354  13.584  -1.902  1.00  0.00    -0.200 F 
ATOM     97  C   UNL     1      14.026  12.460   0.063  1.00  0.00     0.200 A 
ATOM     98  F   UNL     1      14.661  11.301   2.020  1.00  0.00    -0.200 F 
ATOM     99  F   UNL     1      15.178  13.145   0.078  1.00  0.00    -0.200 F 
ENDBRANCH  66  89
ENDBRANCH  40  41
ENDBRANCH  33  35
ENDBRANCH  32  33
ENDBRANCH  31  32
ENDBRANCH  30  31
ENDBRANCH  29  30
ENDBRANCH  28  29
ENDBRANCH   1  28
TORSDOF 20
