REMARK SMILES O=C(OCCOCCOCCOC(=O)[C@H](CCO)NC(=O)c1cccc(C(F)(F)F)c1F)c1ccc(-c2c3nc(c(-c4c(F)c(F)c(F)c(F)c4F)c4ccc([nH]4)c(-c4c(F)c(F)c(F)c(F)c4F)c4nc(c(-c5c(F)c(F)c(F)c(F)c5F)c5ccc2[nH]5)C=C4)C=C3)cc1
REMARK SMILES IDX 8 1 7 2 6 3 5 4 4 5 3 6 2 7 1 8 33 9 34 10 95 11 35 12 94 13
REMARK SMILES IDX 36 14 37 15 38 16 88 17 39 18 93 19 87 20 89 21 40 22 92 23
REMARK SMILES IDX 86 24 85 25 41 27 73 28 53 29 72 30 54 31 57 32 71 33 90 34
REMARK SMILES IDX 55 35 56 36 70 38 91 39 58 40 42 41 43 42 51 43 44 44 45 45
REMARK SMILES IDX 49 46 52 47 46 48 47 49 50 50 48 51 74 52 75 53 83 54 76 55
REMARK SMILES IDX 77 56 81 57 84 58 78 59 79 60 82 61 80 62 59 63 60 64 68 65
REMARK SMILES IDX 61 66 62 67 66 68 69 69 63 70 64 71 67 72 65 73 9 74 10 75
REMARK SMILES IDX 11 76 12 77 13 78 14 79 15 80 19 81 20 82 21 84 22 85 23 86
REMARK SMILES IDX 31 87 24 88 26 89 32 90 25 91 27 92 28 93 29 94 30 95 16 96
REMARK SMILES IDX 17 97 18 98
REMARK H PARENT 89 26 57 37 19 83 18 99
REMARK Flexibility Score: inf
ROOT
ATOM      1  C   UNL     1       5.367  -1.699   1.913  1.00  0.00     0.188 C 
ENDROOT
BRANCH   1   2
ATOM      2  C   UNL     1       4.549  -1.634   0.625  1.00  0.00     0.188 C 
BRANCH   2   3
ATOM      3  O   UNL     1       3.191  -2.062   0.808  1.00  0.00    -0.376 OA
BRANCH   3   4
ATOM      4  C   UNL     1       2.735  -2.897  -0.265  1.00  0.00     0.202 C 
BRANCH   4   5
ATOM      5  C   UNL     1       2.273  -2.131  -1.514  1.00  0.00     0.261 C 
BRANCH   5   6
ATOM      6  O   UNL     1       2.879  -0.831  -1.631  1.00  0.00    -0.460 OA
BRANCH   6   7
ATOM      7  C   UNL     1       2.476   0.348  -1.094  1.00  0.00     0.338 C 
ATOM      8  O   UNL     1       3.200   1.334  -1.231  1.00  0.00    -0.246 OA
BRANCH   7   9
ATOM      9  C   UNL     1       1.167   0.544  -0.398  1.00  0.00     0.060 A 
ATOM     10  C   UNL     1       0.448  -0.454   0.254  1.00  0.00     0.016 A 
ATOM     11  C   UNL     1       0.643   1.851  -0.368  1.00  0.00     0.016 A 
ATOM     12  C   UNL     1      -0.816  -0.205   0.778  1.00  0.00     0.010 A 
ATOM     13  C   UNL     1      -0.598   2.127   0.225  1.00  0.00     0.010 A 
ATOM     14  C   UNL     1      -1.357   1.083   0.758  1.00  0.00    -0.014 A 
BRANCH  14  15
ATOM     15  C   UNL     1      -2.751   1.249   1.231  1.00  0.00     0.031 A 
ATOM     16  C   UNL     1      -3.858   1.386   0.232  1.00  0.00     0.074 A 
ATOM     17  C   UNL     1      -3.049   1.039   2.526  1.00  0.00     0.049 A 
ATOM     18  N   UNL     1      -5.150   1.360   0.432  1.00  0.00    -0.248 NA
ATOM     19  C   UNL     1      -3.464   1.516  -1.178  1.00  0.00     0.031 C 
ATOM     20  C   UNL     1      -2.069   0.735   3.564  1.00  0.00     0.029 A 
ATOM     21  N   UNL     1      -4.259   0.966   3.173  1.00  0.00    -0.354 N 
ATOM     22  C   UNL     1      -5.724   1.451  -0.825  1.00  0.00     0.074 A 
ATOM     23  C   UNL     1      -4.643   1.554  -1.782  1.00  0.00     0.031 C 
ATOM     24  C   UNL     1      -2.724   0.450   4.697  1.00  0.00     0.029 A 
ATOM     25  C   UNL     1      -4.153   0.597   4.491  1.00  0.00     0.049 A 
ATOM     26  H   UNL     1      -5.118   1.160   2.734  1.00  0.00     0.167 HD
ATOM     27  C   UNL     1      -7.037   1.443  -1.151  1.00  0.00     0.037 A 
ATOM     28  C   UNL     1      -5.094   0.390   5.430  1.00  0.00     0.037 A 
ATOM     29  C   UNL     1      -8.118   1.359  -0.207  1.00  0.00     0.049 A 
ATOM     30  C   UNL     1      -6.534   0.528   5.061  1.00  0.00     0.074 A 
ATOM     31  C   UNL     1      -9.479   1.442  -0.445  1.00  0.00     0.029 A 
ATOM     32  N   UNL     1      -7.963   1.172   1.158  1.00  0.00    -0.354 N 
ATOM     33  N   UNL     1      -7.063   0.721   3.881  1.00  0.00    -0.248 NA
ATOM     34  C   UNL     1      -7.505   0.416   6.158  1.00  0.00     0.031 C 
ATOM     35  C   UNL     1     -10.147   1.350   0.782  1.00  0.00     0.029 A 
ATOM     36  C   UNL     1      -9.204   1.167   1.778  1.00  0.00     0.049 A 
ATOM     37  H   UNL     1      -7.101   1.060   1.619  1.00  0.00     0.167 HD
ATOM     38  C   UNL     1      -8.430   0.767   4.091  1.00  0.00     0.074 A 
ATOM     39  C   UNL     1      -8.651   0.538   5.505  1.00  0.00     0.031 C 
ATOM     40  C   UNL     1      -9.412   0.992   3.189  1.00  0.00     0.037 A 
BRANCH  27  41
ATOM     41  C   UNL     1      -7.372   1.595  -2.599  1.00  0.00     0.064 A 
ATOM     42  C   UNL     1      -7.827   2.828  -3.085  1.00  0.00     0.173 A 
ATOM     43  C   UNL     1      -7.265   0.525  -3.498  1.00  0.00     0.173 A 
ATOM     44  F   UNL     1      -7.930   3.881  -2.260  1.00  0.00    -0.203 F 
ATOM     45  C   UNL     1      -8.180   2.982  -4.421  1.00  0.00     0.198 A 
ATOM     46  C   UNL     1      -7.601   0.688  -4.839  1.00  0.00     0.198 A 
ATOM     47  F   UNL     1      -6.802  -0.664  -3.082  1.00  0.00    -0.203 F 
ATOM     48  F   UNL     1      -8.629   4.166  -4.861  1.00  0.00    -0.200 F 
ATOM     49  C   UNL     1      -8.066   1.913  -5.296  1.00  0.00     0.200 A 
ATOM     50  F   UNL     1      -7.464  -0.337  -5.692  1.00  0.00    -0.200 F 
ATOM     51  F   UNL     1      -8.397   2.066  -6.586  1.00  0.00    -0.200 F 
ENDBRANCH  27  41
BRANCH  28  52
ATOM     52  C   UNL     1      -4.734   0.065   6.831  1.00  0.00     0.064 A 
ATOM     53  C   UNL     1      -4.334   1.077   7.714  1.00  0.00     0.173 A 
ATOM     54  C   UNL     1      -4.845  -1.241   7.329  1.00  0.00     0.173 A 
ATOM     55  F   UNL     1      -4.207   2.337   7.277  1.00  0.00    -0.203 F 
ATOM     56  C   UNL     1      -4.043   0.791   9.046  1.00  0.00     0.198 A 
ATOM     57  C   UNL     1      -4.553  -1.525   8.663  1.00  0.00     0.198 A 
ATOM     58  F   UNL     1      -5.247  -2.233   6.522  1.00  0.00    -0.203 F 
ATOM     59  F   UNL     1      -3.611   1.767   9.857  1.00  0.00    -0.200 F 
ATOM     60  C   UNL     1      -4.149  -0.509   9.519  1.00  0.00     0.200 A 
ATOM     61  F   UNL     1      -4.646  -2.782   9.115  1.00  0.00    -0.200 F 
ATOM     62  F   UNL     1      -3.824  -0.789  10.788  1.00  0.00    -0.200 F 
ENDBRANCH  28  52
BRANCH  40  63
ATOM     63  C   UNL     1     -10.806   1.042   3.728  1.00  0.00     0.064 A 
ATOM     64  C   UNL     1     -11.703  -0.009   3.497  1.00  0.00     0.173 A 
ATOM     65  C   UNL     1     -11.240   2.127   4.506  1.00  0.00     0.173 A 
ATOM     66  F   UNL     1     -11.329  -1.070   2.767  1.00  0.00    -0.203 F 
ATOM     67  C   UNL     1     -12.986   0.021   4.033  1.00  0.00     0.198 A 
ATOM     68  C   UNL     1     -12.514   2.140   5.062  1.00  0.00     0.198 A 
ATOM     69  F   UNL     1     -10.403   3.140   4.777  1.00  0.00    -0.203 F 
ATOM     70  F   UNL     1     -13.831  -0.993   3.801  1.00  0.00    -0.200 F 
ATOM     71  C   UNL     1     -13.387   1.090   4.822  1.00  0.00     0.200 A 
ATOM     72  F   UNL     1     -12.886   3.155   5.855  1.00  0.00    -0.200 F 
ATOM     73  F   UNL     1     -14.611   1.099   5.367  1.00  0.00    -0.200 F 
ENDBRANCH  40  63
ENDBRANCH  14  15
ENDBRANCH   7   9
ENDBRANCH   6   7
ENDBRANCH   5   6
ENDBRANCH   4   5
ENDBRANCH   3   4
ENDBRANCH   2   3
ENDBRANCH   1   2
BRANCH   1  74
ATOM     74  O   UNL     1       5.601  -2.991   2.465  1.00  0.00    -0.376 OA
BRANCH  74  75
ATOM     75  C   UNL     1       4.476  -3.789   2.809  1.00  0.00     0.202 C 
BRANCH  75  76
ATOM     76  C   UNL     1       3.639  -3.378   4.027  1.00  0.00     0.261 C 
BRANCH  76  77
ATOM     77  O   UNL     1       3.159  -2.026   4.027  1.00  0.00    -0.462 OA
BRANCH  77  78
ATOM     78  C   UNL     1       3.901  -1.169   4.788  1.00  0.00     0.328 C 
ATOM     79  O   UNL     1       5.004  -1.416   5.260  1.00  0.00    -0.250 OA
BRANCH  78  80
ATOM     80  C   UNL     1       3.167   0.161   4.989  1.00  0.00     0.194 C 
BRANCH  80  81
ATOM     81  N   UNL     1       3.657   0.687   6.274  1.00  0.00    -0.338 N 
ATOM     82  C   UNL     1       3.137   0.501   7.533  1.00  0.00     0.254 C 
ATOM     83  H   UNL     1       4.465   1.247   6.225  1.00  0.00     0.164 HD
ATOM     84  O   UNL     1       3.763   0.783   8.533  1.00  0.00    -0.269 OA
BRANCH  82  85
ATOM     85  C   UNL     1       1.732   0.103   7.645  1.00  0.00     0.076 A 
ATOM     86  C   UNL     1       0.842   1.079   8.098  1.00  0.00     0.017 A 
ATOM     87  C   UNL     1       1.283  -1.143   7.209  1.00  0.00     0.148 A 
ATOM     88  C   UNL     1      -0.514   0.798   8.109  1.00  0.00     0.002 A 
ATOM     89  C   UNL     1      -0.074  -1.406   7.144  1.00  0.00     0.092 A 
ATOM     90  F   UNL     1       2.147  -2.058   6.752  1.00  0.00    -0.205 F 
ATOM     91  C   UNL     1      -0.956  -0.443   7.648  1.00  0.00     0.016 A 
BRANCH  89  92
ATOM     92  C   UNL     1      -0.578  -2.603   6.391  1.00  0.00     0.419 C 
ATOM     93  F   UNL     1      -1.900  -2.846   6.627  1.00  0.00    -0.166 F 
ATOM     94  F   UNL     1      -0.483  -2.416   5.043  1.00  0.00    -0.166 F 
ATOM     95  F   UNL     1       0.075  -3.759   6.665  1.00  0.00    -0.166 F 
ENDBRANCH  89  92
ENDBRANCH  82  85
ENDBRANCH  80  81
BRANCH  80  96
ATOM     96  C   UNL     1       3.399   1.152   3.848  1.00  0.00     0.065 C 
BRANCH  96  97
ATOM     97  C   UNL     1       2.266   2.175   3.746  1.00  0.00     0.159 C 
BRANCH  97  98
ATOM     98  O   UNL     1       2.163   2.998   4.897  1.00  0.00    -0.396 OA
ATOM     99  H   UNL     1       1.967   2.447   5.671  1.00  0.00     0.210 HD
ENDBRANCH  97  98
ENDBRANCH  96  97
ENDBRANCH  80  96
ENDBRANCH  78  80
ENDBRANCH  77  78
ENDBRANCH  76  77
ENDBRANCH  75  76
ENDBRANCH  74  75
ENDBRANCH   1  74
TORSDOF 23
