REMARK SMILES C=CC[NH2+][C@H](C(=O)OCCOCCOCCOC(=O)c1ccc(-c2c3nc(c(-c4c(F)c(F)c(F)c(F)c4F)c4ccc([nH]4)c(-c4c(F)c(F)c(F)c(F)c4F)c4nc(c(-c5c(F)c(F)c(F)c(F)c5F)c5ccc2[nH]5)C=C4)C=C3)cc1)c1cnn(C)c1C
REMARK SMILES IDX 12 1 11 2 10 3 9 4 8 5 6 6 7 7 5 8 4 9 3 12 2 13 1 14 83 15
REMARK SMILES IDX 84 16 88 17 85 18 86 19 89 20 87 21 13 22 14 23 15 24 16 25
REMARK SMILES IDX 17 26 18 27 19 28 20 29 21 30 82 31 22 32 81 33 23 34 24 35
REMARK SMILES IDX 25 36 75 37 26 38 80 39 74 40 76 41 27 42 79 43 73 44 72 45
REMARK SMILES IDX 28 47 60 48 40 49 59 50 41 51 44 52 58 53 77 54 42 55 43 56
REMARK SMILES IDX 57 58 78 59 45 60 29 61 30 62 38 63 31 64 32 65 36 66 39 67
REMARK SMILES IDX 33 68 34 69 37 70 35 71 61 72 62 73 70 74 63 75 64 76 68 77
REMARK SMILES IDX 71 78 65 79 66 80 69 81 67 82 46 83 47 84 55 85 48 86 49 87
REMARK SMILES IDX 53 88 56 89 50 90 51 91 54 92 52 93
REMARK H PARENT 4 10 4 11 76 46 44 57
REMARK Flexibility Score: inf
ROOT
ATOM      1  C   UNL     1      -0.270  -2.566  -3.251  1.00  0.00     0.188 C 
ENDROOT
BRANCH   1   2
ATOM      2  O   UNL     1       0.987  -2.135  -2.755  1.00  0.00    -0.376 OA
BRANCH   2   3
ATOM      3  C   UNL     1       1.139  -1.854  -1.372  1.00  0.00     0.202 C 
BRANCH   3   4
ATOM      4  C   UNL     1       0.285  -0.736  -0.786  1.00  0.00     0.261 C 
BRANCH   4   5
ATOM      5  O   UNL     1      -1.107  -1.085  -0.764  1.00  0.00    -0.459 OA
BRANCH   5   6
ATOM      6  C   UNL     1      -1.939  -0.283  -1.500  1.00  0.00     0.370 C 
ATOM      7  O   UNL     1      -1.558   0.672  -2.166  1.00  0.00    -0.245 OA
BRANCH   6   8
ATOM      8  C   UNL     1      -3.405  -0.753  -1.324  1.00  0.00     0.328 C 
BRANCH   8   9
ATOM      9  N   UNL     1      -4.198   0.286  -0.646  1.00  0.00    -0.327 N 
ATOM     10  H   UNL     1      -4.111   1.158  -1.169  1.00  0.00     0.347 HD
ATOM     11  H   UNL     1      -5.166  -0.034  -0.613  1.00  0.00     0.347 HD
BRANCH   9  12
ATOM     12  C   UNL     1      -3.757   0.516   0.723  1.00  0.00     0.289 C 
BRANCH  12  13
ATOM     13  C   UNL     1      -4.147   1.907   1.099  1.00  0.00     0.025 C 
ATOM     14  C   UNL     1      -4.883   2.237   2.167  1.00  0.00     0.010 C 
ENDBRANCH  12  13
ENDBRANCH   9  12
ENDBRANCH   8   9
BRANCH   8  15
ATOM     15  C   UNL     1      -4.044  -1.042  -2.658  1.00  0.00     0.062 A 
ATOM     16  C   UNL     1      -4.484  -2.308  -3.115  1.00  0.00     0.146 A 
ATOM     17  C   UNL     1      -4.352  -0.188  -3.711  1.00  0.00     0.045 A 
ATOM     18  N   UNL     1      -4.984  -2.272  -4.349  1.00  0.00    -0.181 NA
ATOM     19  N   UNL     1      -4.933  -0.968  -4.678  1.00  0.00    -0.272 N 
ATOM     20  C   UNL     1      -4.155   1.277  -3.879  1.00  0.00     0.067 C 
ATOM     21  C   UNL     1      -5.451  -0.541  -5.959  1.00  0.00     0.174 C 
ENDBRANCH   8  15
ENDBRANCH   6   8
ENDBRANCH   5   6
ENDBRANCH   4   5
ENDBRANCH   3   4
ENDBRANCH   2   3
ENDBRANCH   1   2
BRANCH   1  22
ATOM     22  C   UNL     1      -1.074  -3.657  -2.514  1.00  0.00     0.188 C 
BRANCH  22  23
ATOM     23  O   UNL     1      -0.444  -4.563  -1.625  1.00  0.00    -0.376 OA
BRANCH  23  24
ATOM     24  C   UNL     1       0.752  -5.216  -2.022  1.00  0.00     0.202 C 
BRANCH  24  25
ATOM     25  C   UNL     1       0.721  -6.082  -3.282  1.00  0.00     0.261 C 
BRANCH  25  26
ATOM     26  O   UNL     1       0.381  -5.336  -4.461  1.00  0.00    -0.460 OA
BRANCH  26  27
ATOM     27  C   UNL     1      -0.707  -5.774  -5.132  1.00  0.00     0.338 C 
ATOM     28  O   UNL     1      -1.393  -6.760  -4.879  1.00  0.00    -0.246 OA
BRANCH  27  29
ATOM     29  C   UNL     1      -1.079  -4.797  -6.165  1.00  0.00     0.060 A 
ATOM     30  C   UNL     1      -2.329  -4.175  -6.069  1.00  0.00     0.016 A 
ATOM     31  C   UNL     1      -0.244  -4.546  -7.256  1.00  0.00     0.016 A 
ATOM     32  C   UNL     1      -2.762  -3.318  -7.077  1.00  0.00     0.010 A 
ATOM     33  C   UNL     1      -0.690  -3.700  -8.277  1.00  0.00     0.010 A 
ATOM     34  C   UNL     1      -1.961  -3.102  -8.205  1.00  0.00    -0.014 A 
BRANCH  34  35
ATOM     35  C   UNL     1      -2.522  -2.398  -9.382  1.00  0.00     0.031 A 
ATOM     36  C   UNL     1      -3.137  -3.216 -10.482  1.00  0.00     0.074 A 
ATOM     37  C   UNL     1      -2.510  -1.056  -9.469  1.00  0.00     0.049 A 
ATOM     38  N   UNL     1      -3.590  -2.836 -11.650  1.00  0.00    -0.248 NA
ATOM     39  C   UNL     1      -3.263  -4.659 -10.226  1.00  0.00     0.031 C 
ATOM     40  C   UNL     1      -2.017  -0.146  -8.440  1.00  0.00     0.029 A 
ATOM     41  N   UNL     1      -2.920  -0.229 -10.487  1.00  0.00    -0.354 N 
ATOM     42  C   UNL     1      -4.041  -3.992 -12.272  1.00  0.00     0.074 A 
ATOM     43  C   UNL     1      -3.801  -5.088 -11.358  1.00  0.00     0.031 C 
ATOM     44  C   UNL     1      -2.135   1.118  -8.886  1.00  0.00     0.029 A 
ATOM     45  C   UNL     1      -2.667   1.099 -10.249  1.00  0.00     0.049 A 
ATOM     46  H   UNL     1      -3.353  -0.557 -11.307  1.00  0.00     0.167 HD
ATOM     47  C   UNL     1      -4.602  -4.128 -13.496  1.00  0.00     0.037 A 
ATOM     48  C   UNL     1      -2.813   2.168 -11.057  1.00  0.00     0.037 A 
ATOM     49  C   UNL     1      -4.836  -3.042 -14.409  1.00  0.00     0.049 A 
ATOM     50  C   UNL     1      -3.341   1.977 -12.458  1.00  0.00     0.074 A 
ATOM     51  C   UNL     1      -5.387  -3.083 -15.678  1.00  0.00     0.029 A 
ATOM     52  N   UNL     1      -4.522  -1.716 -14.151  1.00  0.00    -0.354 N 
ATOM     53  N   UNL     1      -3.754   0.882 -13.048  1.00  0.00    -0.248 NA
ATOM     54  C   UNL     1      -3.412   3.175 -13.310  1.00  0.00     0.031 C 
ATOM     55  C   UNL     1      -5.364  -1.789 -16.206  1.00  0.00     0.029 A 
ATOM     56  C   UNL     1      -4.847  -0.933 -15.247  1.00  0.00     0.049 A 
ATOM     57  H   UNL     1      -4.128  -1.381 -13.314  1.00  0.00     0.167 HD
ATOM     58  C   UNL     1      -4.157   1.260 -14.323  1.00  0.00     0.074 A 
ATOM     59  C   UNL     1      -3.951   2.689 -14.420  1.00  0.00     0.031 C 
ATOM     60  C   UNL     1      -4.652   0.492 -15.325  1.00  0.00     0.037 A 
BRANCH  47  61
ATOM     61  C   UNL     1      -4.961  -5.515 -13.937  1.00  0.00     0.064 A 
ATOM     62  C   UNL     1      -6.059  -6.201 -13.398  1.00  0.00     0.173 A 
ATOM     63  C   UNL     1      -4.206  -6.157 -14.930  1.00  0.00     0.173 A 
ATOM     64  F   UNL     1      -6.801  -5.635 -12.434  1.00  0.00    -0.203 F 
ATOM     65  C   UNL     1      -6.374  -7.489 -13.820  1.00  0.00     0.198 A 
ATOM     66  C   UNL     1      -4.540  -7.435 -15.369  1.00  0.00     0.198 A 
ATOM     67  F   UNL     1      -3.147  -5.542 -15.478  1.00  0.00    -0.203 F 
ATOM     68  F   UNL     1      -7.401  -8.144 -13.261  1.00  0.00    -0.200 F 
ATOM     69  C   UNL     1      -5.618  -8.103 -14.809  1.00  0.00     0.200 A 
ATOM     70  F   UNL     1      -3.815  -8.021 -16.331  1.00  0.00    -0.200 F 
ATOM     71  F   UNL     1      -5.926  -9.341 -15.218  1.00  0.00    -0.200 F 
ENDBRANCH  47  61
BRANCH  48  72
ATOM     72  C   UNL     1      -2.415   3.521 -10.585  1.00  0.00     0.064 A 
ATOM     73  C   UNL     1      -3.370   4.529 -10.390  1.00  0.00     0.173 A 
ATOM     74  C   UNL     1      -1.069   3.848 -10.366  1.00  0.00     0.173 A 
ATOM     75  F   UNL     1      -4.667   4.274 -10.617  1.00  0.00    -0.203 F 
ATOM     76  C   UNL     1      -2.992   5.816 -10.014  1.00  0.00     0.198 A 
ATOM     77  C   UNL     1      -0.694   5.128  -9.962  1.00  0.00     0.198 A 
ATOM     78  F   UNL     1      -0.115   2.924 -10.550  1.00  0.00    -0.203 F 
ATOM     79  F   UNL     1      -3.920   6.775  -9.889  1.00  0.00    -0.200 F 
ATOM     80  C   UNL     1      -1.655   6.113  -9.795  1.00  0.00     0.200 A 
ATOM     81  F   UNL     1       0.598   5.408  -9.746  1.00  0.00    -0.200 F 
ATOM     82  F   UNL     1      -1.291   7.353  -9.439  1.00  0.00    -0.200 F 
ENDBRANCH  48  72
BRANCH  60  83
ATOM     83  C   UNL     1      -5.050   1.179 -16.600  1.00  0.00     0.064 A 
ATOM     84  C   UNL     1      -4.095   1.670 -17.502  1.00  0.00     0.173 A 
ATOM     85  C   UNL     1      -6.404   1.292 -16.951  1.00  0.00     0.173 A 
ATOM     86  F   UNL     1      -2.788   1.599 -17.207  1.00  0.00    -0.203 F 
ATOM     87  C   UNL     1      -4.482   2.265 -18.700  1.00  0.00     0.198 A 
ATOM     88  C   UNL     1      -6.786   1.862 -18.162  1.00  0.00     0.198 A 
ATOM     89  F   UNL     1      -7.357   0.832 -16.126  1.00  0.00    -0.203 F 
ATOM     90  F   UNL     1      -3.554   2.762 -19.530  1.00  0.00    -0.200 F 
ATOM     91  C   UNL     1      -5.826   2.353 -19.033  1.00  0.00     0.200 A 
ATOM     92  F   UNL     1      -8.084   1.932 -18.488  1.00  0.00    -0.200 F 
ATOM     93  F   UNL     1      -6.196   2.914 -20.192  1.00  0.00    -0.200 F 
ENDBRANCH  60  83
ENDBRANCH  34  35
ENDBRANCH  27  29
ENDBRANCH  26  27
ENDBRANCH  25  26
ENDBRANCH  24  25
ENDBRANCH  23  24
ENDBRANCH  22  23
ENDBRANCH   1  22
TORSDOF 21
