REMARK SMILES C[C@H](NC(=O)OC(C)(C)C)C(=O)N[C@@H](C)C(=O)N1CCC[C@H]1C(=O)OCCOCCOCCOC(=O)c1ccc(-c2c3nc(c(-c4c(F)c(F)c(F)c(F)c4F)c4ccc([nH]4)c(-c4c(F)c(F)c(F)c(F)c4F)c4nc(c(-c5c(F)c(F)c(F)c(F)c5F)c5ccc2[nH]5)C=C4)C=C3)cc1
REMARK SMILES IDX 27 1 26 2 25 3 23 4 24 5 22 6 18 7 19 8 20 9 21 10 16 11
REMARK SMILES IDX 17 12 14 13 15 14 13 15 11 16 12 17 2 19 1 20 3 21 4 22 5 24
REMARK SMILES IDX 6 25 7 26 8 27 9 28 10 29 28 30 29 31 30 32 31 33 32 34
REMARK SMILES IDX 33 35 34 36 35 37 36 38 37 39 38 40 99 41 39 42 98 43 40 44
REMARK SMILES IDX 41 45 42 46 92 47 43 48 97 49 91 50 93 51 44 52 96 53 90 54
REMARK SMILES IDX 89 55 45 57 77 58 57 59 76 60 58 61 61 62 75 63 94 64 59 65
REMARK SMILES IDX 60 66 74 68 95 69 62 70 46 71 47 72 55 73 48 74 49 75 53 76
REMARK SMILES IDX 56 77 50 78 51 79 54 80 52 81 78 82 79 83 87 84 80 85 81 86
REMARK SMILES IDX 85 87 88 88 82 89 83 90 86 91 84 92 63 93 64 94 72 95 65 96
REMARK SMILES IDX 66 97 70 98 73 99 67 100 68 101 71 102 69 103
REMARK H PARENT 13 18 3 23 93 56 61 67
REMARK Flexibility Score: inf
ROOT
ATOM      1  C   UNL     1      -2.177   8.071   4.063  1.00  0.00     0.202 C 
ENDROOT
BRANCH   1   2
ATOM      2  C   UNL     1      -3.182   6.904   4.163  1.00  0.00     0.261 C 
BRANCH   2   3
ATOM      3  O   UNL     1      -3.134   5.889   3.136  1.00  0.00    -0.462 OA
BRANCH   3   4
ATOM      4  C   UNL     1      -4.050   6.025   2.146  1.00  0.00     0.328 C 
ATOM      5  O   UNL     1      -4.853   6.956   2.099  1.00  0.00    -0.250 OA
BRANCH   4   6
ATOM      6  C   UNL     1      -3.858   5.059   0.942  1.00  0.00     0.195 C 
ATOM      7  N   UNL     1      -3.417   3.654   1.038  1.00  0.00    -0.327 N 
ATOM      8  C   UNL     1      -4.555   2.774   0.918  1.00  0.00     0.120 C 
ATOM      9  C   UNL     1      -5.469   3.487  -0.053  1.00  0.00     0.024 C 
ATOM     10  C   UNL     1      -5.202   4.968   0.181  1.00  0.00     0.039 C 
BRANCH   7  11
ATOM     11  C   UNL     1      -2.094   3.272   1.071  1.00  0.00     0.245 C 
ATOM     12  O   UNL     1      -1.261   3.895   1.728  1.00  0.00    -0.272 OA
BRANCH  11  13
ATOM     13  C   UNL     1      -1.601   2.052   0.251  1.00  0.00     0.168 C 
ATOM     14  C   UNL     1      -2.050   2.063  -1.206  1.00  0.00     0.041 C 
BRANCH  13  15
ATOM     15  N   UNL     1      -1.834   0.776   0.902  1.00  0.00    -0.343 N 
ATOM     16  C   UNL     1      -0.960  -0.081   1.495  1.00  0.00     0.243 C 
ATOM     17  O   UNL     1      -1.460  -1.006   2.145  1.00  0.00    -0.273 OA
ATOM     18  H   UNL     1      -2.775   0.484   0.917  1.00  0.00     0.164 HD
BRANCH  16  19
ATOM     19  C   UNL     1       0.578   0.079   1.433  1.00  0.00     0.171 C 
ATOM     20  C   UNL     1       1.077   1.140   2.406  1.00  0.00     0.042 C 
BRANCH  19  21
ATOM     21  N   UNL     1       1.094   0.096   0.059  1.00  0.00    -0.310 N 
ATOM     22  C   UNL     1       1.659   1.084  -0.681  1.00  0.00     0.408 C 
ATOM     23  H   UNL     1       1.016  -0.765  -0.411  1.00  0.00     0.167 HD
ATOM     24  O   UNL     1       1.940   0.908  -1.862  1.00  0.00    -0.225 OA
BRANCH  22  25
ATOM     25  O   UNL     1       1.831   2.226   0.001  1.00  0.00    -0.444 OA
BRANCH  25  26
ATOM     26  C   UNL     1       2.328   3.435  -0.616  1.00  0.00     0.106 C 
ATOM     27  C   UNL     1       3.763   3.277  -1.119  1.00  0.00     0.056 C 
ATOM     28  C   UNL     1       1.385   3.943  -1.712  1.00  0.00     0.056 C 
ATOM     29  C   UNL     1       2.322   4.445   0.530  1.00  0.00     0.056 C 
ENDBRANCH  25  26
ENDBRANCH  22  25
ENDBRANCH  19  21
ENDBRANCH  16  19
ENDBRANCH  13  15
ENDBRANCH  11  13
ENDBRANCH   7  11
ENDBRANCH   4   6
ENDBRANCH   3   4
ENDBRANCH   2   3
ENDBRANCH   1   2
BRANCH   1  30
ATOM     30  O   UNL     1      -2.024   8.758   2.830  1.00  0.00    -0.376 OA
BRANCH  30  31
ATOM     31  C   UNL     1      -1.573   8.064   1.675  1.00  0.00     0.188 C 
BRANCH  31  32
ATOM     32  C   UNL     1      -0.691   6.812   1.794  1.00  0.00     0.188 C 
BRANCH  32  33
ATOM     33  O   UNL     1      -0.238   6.533   3.100  1.00  0.00    -0.376 OA
BRANCH  33  34
ATOM     34  C   UNL     1       1.160   6.495   3.306  1.00  0.00     0.202 C 
BRANCH  34  35
ATOM     35  C   UNL     1       1.930   7.786   2.989  1.00  0.00     0.261 C 
BRANCH  35  36
ATOM     36  O   UNL     1       1.488   8.455   1.791  1.00  0.00    -0.460 OA
BRANCH  36  37
ATOM     37  C   UNL     1       2.220   8.281   0.672  1.00  0.00     0.338 C 
ATOM     38  O   UNL     1       3.284   7.701   0.562  1.00  0.00    -0.246 OA
BRANCH  37  39
ATOM     39  C   UNL     1       1.506   8.873  -0.477  1.00  0.00     0.060 A 
ATOM     40  C   UNL     1       0.699   8.077  -1.303  1.00  0.00     0.016 A 
ATOM     41  C   UNL     1       1.758  10.203  -0.807  1.00  0.00     0.016 A 
ATOM     42  C   UNL     1       0.177   8.601  -2.488  1.00  0.00     0.010 A 
ATOM     43  C   UNL     1       1.246  10.723  -1.998  1.00  0.00     0.010 A 
ATOM     44  C   UNL     1       0.490   9.913  -2.865  1.00  0.00    -0.014 A 
BRANCH  44  45
ATOM     45  C   UNL     1       0.186  10.401  -4.234  1.00  0.00     0.031 A 
ATOM     46  C   UNL     1       1.302  10.472  -5.241  1.00  0.00     0.074 A 
ATOM     47  C   UNL     1      -1.054  10.795  -4.569  1.00  0.00     0.049 A 
ATOM     48  N   UNL     1       1.306  10.974  -6.450  1.00  0.00    -0.248 NA
ATOM     49  C   UNL     1       2.595   9.908  -4.821  1.00  0.00     0.031 C 
ATOM     50  C   UNL     1      -2.222  10.738  -3.693  1.00  0.00     0.029 A 
ATOM     51  N   UNL     1      -1.530  11.343  -5.734  1.00  0.00    -0.354 N 
ATOM     52  C   UNL     1       2.601  10.803  -6.926  1.00  0.00     0.074 A 
ATOM     53  C   UNL     1       3.363  10.178  -5.866  1.00  0.00     0.031 C 
ATOM     54  C   UNL     1      -3.279  11.250  -4.346  1.00  0.00     0.029 A 
ATOM     55  C   UNL     1      -2.852  11.710  -5.666  1.00  0.00     0.049 A 
ATOM     56  H   UNL     1      -0.978  11.462  -6.540  1.00  0.00     0.167 HD
ATOM     57  C   UNL     1       3.105  11.135  -8.139  1.00  0.00     0.037 A 
ATOM     58  C   UNL     1      -3.616  12.373  -6.556  1.00  0.00     0.037 A 
ATOM     59  C   UNL     1       2.339  11.760  -9.186  1.00  0.00     0.049 A 
ATOM     60  C   UNL     1      -3.012  12.798  -7.871  1.00  0.00     0.074 A 
ATOM     61  C   UNL     1       2.746  12.117 -10.460  1.00  0.00     0.029 A 
ATOM     62  N   UNL     1       1.006  12.132  -9.074  1.00  0.00    -0.354 N 
ATOM     63  N   UNL     1      -1.796  12.611  -8.326  1.00  0.00    -0.248 NA
ATOM     64  C   UNL     1      -3.891  13.525  -8.797  1.00  0.00     0.031 C 
ATOM     65  C   UNL     1       1.679  12.762 -11.095  1.00  0.00     0.029 A 
ATOM     66  C   UNL     1       0.585  12.743 -10.245  1.00  0.00     0.049 A 
ATOM     67  H   UNL     1       0.443  11.984  -8.280  1.00  0.00     0.167 HD
ATOM     68  C   UNL     1      -1.773  13.166  -9.600  1.00  0.00     0.074 A 
ATOM     69  C   UNL     1      -3.103  13.680  -9.852  1.00  0.00     0.031 C 
ATOM     70  C   UNL     1      -0.746  13.245 -10.482  1.00  0.00     0.037 A 
BRANCH  57  71
ATOM     71  C   UNL     1       4.562  10.858  -8.390  1.00  0.00     0.064 A 
ATOM     72  C   UNL     1       5.060   9.551  -8.502  1.00  0.00     0.173 A 
ATOM     73  C   UNL     1       5.468  11.918  -8.554  1.00  0.00     0.173 A 
ATOM     74  F   UNL     1       4.242   8.500  -8.343  1.00  0.00    -0.203 F 
ATOM     75  C   UNL     1       6.413   9.316  -8.738  1.00  0.00     0.198 A 
ATOM     76  C   UNL     1       6.813  11.680  -8.825  1.00  0.00     0.198 A 
ATOM     77  F   UNL     1       5.047  13.188  -8.463  1.00  0.00    -0.203 F 
ATOM     78  F   UNL     1       6.874   8.058  -8.789  1.00  0.00    -0.200 F 
ATOM     79  C   UNL     1       7.286  10.380  -8.908  1.00  0.00     0.200 A 
ATOM     80  F   UNL     1       7.651  12.710  -9.005  1.00  0.00    -0.200 F 
ATOM     81  F   UNL     1       8.585  10.152  -9.145  1.00  0.00    -0.200 F 
ENDBRANCH  57  71
BRANCH  58  82
ATOM     82  C   UNL     1      -5.033  12.688  -6.233  1.00  0.00     0.064 A 
ATOM     83  C   UNL     1      -6.085  12.101  -6.949  1.00  0.00     0.173 A 
ATOM     84  C   UNL     1      -5.367  13.597  -5.217  1.00  0.00     0.173 A 
ATOM     85  F   UNL     1      -5.819  11.244  -7.947  1.00  0.00    -0.203 F 
ATOM     86  C   UNL     1      -7.413  12.426  -6.678  1.00  0.00     0.198 A 
ATOM     87  C   UNL     1      -6.696  13.895  -4.923  1.00  0.00     0.198 A 
ATOM     88  F   UNL     1      -4.400  14.190  -4.501  1.00  0.00    -0.203 F 
ATOM     89  F   UNL     1      -8.395  11.889  -7.416  1.00  0.00    -0.200 F 
ATOM     90  C   UNL     1      -7.717  13.317  -5.661  1.00  0.00     0.200 A 
ATOM     91  F   UNL     1      -6.986  14.746  -3.930  1.00  0.00    -0.200 F 
ATOM     92  F   UNL     1      -8.994  13.626  -5.398  1.00  0.00    -0.200 F 
ENDBRANCH  58  82
BRANCH  70  93
ATOM     93  C   UNL     1      -1.030  13.873 -11.819  1.00  0.00     0.064 A 
ATOM     94  C   UNL     1      -1.290  15.245 -11.954  1.00  0.00     0.173 A 
ATOM     95  C   UNL     1      -1.013  13.092 -12.986  1.00  0.00     0.173 A 
ATOM     96  F   UNL     1      -1.331  16.035 -10.870  1.00  0.00    -0.203 F 
ATOM     97  C   UNL     1      -1.559  15.804 -13.201  1.00  0.00     0.198 A 
ATOM     98  C   UNL     1      -1.243  13.662 -14.235  1.00  0.00     0.198 A 
ATOM     99  F   UNL     1      -0.760  11.777 -12.917  1.00  0.00    -0.203 F 
ATOM    100  F   UNL     1      -1.866  17.105 -13.298  1.00  0.00    -0.200 F 
ATOM    101  C   UNL     1      -1.527  15.014 -14.341  1.00  0.00     0.200 A 
ATOM    102  F   UNL     1      -1.194  12.899 -15.336  1.00  0.00    -0.200 F 
ATOM    103  F   UNL     1      -1.780  15.555 -15.540  1.00  0.00    -0.200 F 
ENDBRANCH  70  93
ENDBRANCH  44  45
ENDBRANCH  37  39
ENDBRANCH  36  37
ENDBRANCH  35  36
ENDBRANCH  34  35
ENDBRANCH  33  34
ENDBRANCH  32  33
ENDBRANCH  31  32
ENDBRANCH  30  31
ENDBRANCH   1  30
TORSDOF 24
