REMARK SMILES Cc1cc(Cl)cc2c1O[C@H](C(F)(F)F)C(C(=O)OCCOCCOCCOC(=O)c1ccc(-c3c4nc(c(-c5c(F)c(F)c(F)c(F)c5F)c5ccc([nH]5)c(-c5c(F)c(F)c(F)c(F)c5F)c5nc(c(-c6c(F)c(F)c(F)c(F)c6F)c6ccc3[nH]6)C=C5)C=C4)cc1)=C2
REMARK SMILES IDX 23 1 22 2 21 3 20 4 19 5 18 6 16 7 17 8 15 9 1 10 2 11 3 12
REMARK SMILES IDX 8 13 4 14 7 15 9 16 5 17 6 18 93 19 10 20 11 21 12 22 13 23
REMARK SMILES IDX 14 24 24 25 25 26 26 27 27 28 28 29 29 30 30 31 31 32 92 33
REMARK SMILES IDX 32 34 91 35 33 36 34 37 35 38 85 39 36 40 90 41 84 42 86 43
REMARK SMILES IDX 37 44 89 45 83 46 82 47 38 49 70 50 50 51 69 52 51 53 54 54
REMARK SMILES IDX 68 55 87 56 52 57 53 58 67 60 88 61 55 62 39 63 40 64 48 65
REMARK SMILES IDX 41 66 42 67 46 68 49 69 43 70 44 71 47 72 45 73 71 74 72 75
REMARK SMILES IDX 80 76 73 77 74 78 78 79 81 80 75 81 76 82 79 83 77 84 56 85
REMARK SMILES IDX 57 86 65 87 58 88 59 89 63 90 66 91 60 92 61 93 64 94 62 95
REMARK H PARENT 86 48 54 59
REMARK Flexibility Score: inf
ROOT
ATOM      1  C   UNL     1       2.955  -5.839   3.484  1.00  0.00     0.188 C 
ENDROOT
BRANCH   1   2
ATOM      2  C   UNL     1       1.970  -6.558   4.428  1.00  0.00     0.188 C 
BRANCH   2   3
ATOM      3  O   UNL     1       1.936  -7.966   4.454  1.00  0.00    -0.376 OA
BRANCH   3   4
ATOM      4  C   UNL     1       1.453  -8.713   3.351  1.00  0.00     0.202 C 
BRANCH   4   5
ATOM      5  C   UNL     1       0.524  -8.164   2.254  1.00  0.00     0.261 C 
BRANCH   5   6
ATOM      6  O   UNL     1       0.651  -6.775   1.937  1.00  0.00    -0.460 OA
BRANCH   6   7
ATOM      7  C   UNL     1      -0.405  -6.003   2.292  1.00  0.00     0.338 C 
ATOM      8  O   UNL     1      -1.430  -6.374   2.839  1.00  0.00    -0.246 OA
BRANCH   7   9
ATOM      9  C   UNL     1      -0.073  -4.581   2.073  1.00  0.00     0.087 C 
ATOM     10  C   UNL     1       1.001  -0.002   0.050  1.00  0.00     0.048 C 
ATOM     11  C   UNL     1       0.496  -0.505   1.374  1.00  0.00    -0.007 A 
ATOM     12  C   UNL     1       0.130   0.413   2.370  1.00  0.00     0.027 A 
ATOM     13  C   UNL     1       0.396  -1.881   1.641  1.00  0.00     0.131 A 
ATOM     14  C   UNL     1      -0.339  -0.037   3.602  1.00  0.00     0.042 A 
ATOM     15  C   UNL     1      -0.118  -2.325   2.865  1.00  0.00     0.019 A 
ATOM     16  O   UNL     1       0.821  -2.732   0.660  1.00  0.00    -0.475 OA
ATOM     17  Cl  UNL     1      -0.792   1.099   4.812  1.00  0.00    -0.084 Cl
ATOM     18  C   UNL     1      -0.465  -1.401   3.855  1.00  0.00     0.032 A 
ATOM     19  C   UNL     1      -0.356  -3.742   3.077  1.00  0.00     0.027 C 
ATOM     20  C   UNL     1       0.555  -4.155   0.775  1.00  0.00     0.316 C 
BRANCH  20  21
ATOM     21  C   UNL     1      -0.273  -4.590  -0.441  1.00  0.00     0.430 C 
ATOM     22  F   UNL     1       0.279  -4.149  -1.596  1.00  0.00    -0.167 F 
ATOM     23  F   UNL     1      -0.351  -5.938  -0.537  1.00  0.00    -0.167 F 
ATOM     24  F   UNL     1      -1.537  -4.114  -0.385  1.00  0.00    -0.167 F 
ENDBRANCH  20  21
ENDBRANCH   7   9
ENDBRANCH   6   7
ENDBRANCH   5   6
ENDBRANCH   4   5
ENDBRANCH   3   4
ENDBRANCH   2   3
ENDBRANCH   1   2
BRANCH   1  25
ATOM     25  O   UNL     1       3.707  -6.577   2.548  1.00  0.00    -0.376 OA
BRANCH  25  26
ATOM     26  C   UNL     1       4.653  -7.532   3.006  1.00  0.00     0.202 C 
BRANCH  26  27
ATOM     27  C   UNL     1       5.449  -7.396   4.319  1.00  0.00     0.261 C 
BRANCH  27  28
ATOM     28  O   UNL     1       4.764  -6.820   5.438  1.00  0.00    -0.460 OA
BRANCH  28  29
ATOM     29  C   UNL     1       5.203  -5.592   5.826  1.00  0.00     0.338 C 
ATOM     30  O   UNL     1       6.093  -4.931   5.332  1.00  0.00    -0.246 OA
BRANCH  29  31
ATOM     31  C   UNL     1       4.278  -5.069   6.852  1.00  0.00     0.060 A 
ATOM     32  C   UNL     1       3.452  -3.983   6.529  1.00  0.00     0.016 A 
ATOM     33  C   UNL     1       4.228  -5.646   8.121  1.00  0.00     0.016 A 
ATOM     34  C   UNL     1       2.557  -3.481   7.474  1.00  0.00     0.010 A 
ATOM     35  C   UNL     1       3.353  -5.121   9.076  1.00  0.00     0.010 A 
ATOM     36  C   UNL     1       2.523  -4.030   8.762  1.00  0.00    -0.014 A 
BRANCH  36  37
ATOM     37  C   UNL     1       1.733  -3.360   9.823  1.00  0.00     0.031 A 
ATOM     38  C   UNL     1       2.434  -2.407  10.749  1.00  0.00     0.074 A 
ATOM     39  C   UNL     1       0.409  -3.569   9.943  1.00  0.00     0.049 A 
ATOM     40  N   UNL     1       1.951  -1.709  11.745  1.00  0.00    -0.248 NA
ATOM     41  C   UNL     1       3.875  -2.213  10.520  1.00  0.00     0.031 C 
ATOM     42  C   UNL     1      -0.389  -4.440   9.084  1.00  0.00     0.029 A 
ATOM     43  N   UNL     1      -0.497  -3.058  10.841  1.00  0.00    -0.354 N 
ATOM     44  C   UNL     1       3.023  -0.987  12.251  1.00  0.00     0.074 A 
ATOM     45  C   UNL     1       4.191  -1.365  11.487  1.00  0.00     0.031 C 
ATOM     46  C   UNL     1      -1.669  -4.401   9.494  1.00  0.00     0.029 A 
ATOM     47  C   UNL     1      -1.776  -3.525  10.661  1.00  0.00     0.049 A 
ATOM     48  H   UNL     1      -0.252  -2.418  11.547  1.00  0.00     0.167 HD
ATOM     49  C   UNL     1       3.026  -0.074  13.249  1.00  0.00     0.037 A 
ATOM     50  C   UNL     1      -2.900  -3.279  11.365  1.00  0.00     0.037 A 
ATOM     51  C   UNL     1       1.865   0.295  14.012  1.00  0.00     0.049 A 
ATOM     52  C   UNL     1      -2.849  -2.333  12.541  1.00  0.00     0.074 A 
ATOM     53  C   UNL     1       1.771   1.213  15.043  1.00  0.00     0.029 A 
ATOM     54  N   UNL     1       0.598  -0.240  13.834  1.00  0.00    -0.354 N 
ATOM     55  N   UNL     1      -1.839  -1.630  12.992  1.00  0.00    -0.248 NA
ATOM     56  C   UNL     1      -4.092  -2.147  13.305  1.00  0.00     0.031 C 
ATOM     57  C   UNL     1       0.462   1.192  15.527  1.00  0.00     0.029 A 
ATOM     58  C   UNL     1      -0.277   0.309  14.756  1.00  0.00     0.049 A 
ATOM     59  H   UNL     1       0.357  -0.910  13.154  1.00  0.00     0.167 HD
ATOM     60  C   UNL     1      -2.331  -0.894  14.064  1.00  0.00     0.074 A 
ATOM     61  C   UNL     1      -3.732  -1.231  14.195  1.00  0.00     0.031 C 
ATOM     62  C   UNL     1      -1.677  -0.016  14.863  1.00  0.00     0.037 A 
BRANCH  49  63
ATOM     63  C   UNL     1       4.326   0.597  13.579  1.00  0.00     0.064 A 
ATOM     64  C   UNL     1       4.903   1.538  12.713  1.00  0.00     0.173 A 
ATOM     65  C   UNL     1       4.964   0.354  14.805  1.00  0.00     0.173 A 
ATOM     66  F   UNL     1       4.338   1.797  11.524  1.00  0.00    -0.203 F 
ATOM     67  C   UNL     1       6.077   2.203  13.058  1.00  0.00     0.198 A 
ATOM     68  C   UNL     1       6.120   1.042  15.159  1.00  0.00     0.198 A 
ATOM     69  F   UNL     1       4.451  -0.533  15.670  1.00  0.00    -0.203 F 
ATOM     70  F   UNL     1       6.628   3.073  12.201  1.00  0.00    -0.200 F 
ATOM     71  C   UNL     1       6.678   1.963  14.284  1.00  0.00     0.200 A 
ATOM     72  F   UNL     1       6.691   0.822  16.352  1.00  0.00    -0.200 F 
ATOM     73  F   UNL     1       7.796   2.619  14.623  1.00  0.00    -0.200 F 
ENDBRANCH  49  63
BRANCH  50  74
ATOM     74  C   UNL     1      -4.181  -3.922  10.965  1.00  0.00     0.064 A 
ATOM     75  C   UNL     1      -5.240  -3.159  10.452  1.00  0.00     0.173 A 
ATOM     76  C   UNL     1      -4.376  -5.306  11.087  1.00  0.00     0.173 A 
ATOM     77  F   UNL     1      -5.114  -1.829  10.343  1.00  0.00    -0.203 F 
ATOM     78  C   UNL     1      -6.446  -3.754  10.085  1.00  0.00     0.198 A 
ATOM     79  C   UNL     1      -5.572  -5.904  10.691  1.00  0.00     0.198 A 
ATOM     80  F   UNL     1      -3.399  -6.082  11.578  1.00  0.00    -0.203 F 
ATOM     81  F   UNL     1      -7.455  -2.995   9.635  1.00  0.00    -0.200 F 
ATOM     82  C   UNL     1      -6.608  -5.127  10.196  1.00  0.00     0.200 A 
ATOM     83  F   UNL     1      -5.720  -7.232  10.791  1.00  0.00    -0.200 F 
ATOM     84  F   UNL     1      -7.764  -5.699   9.833  1.00  0.00    -0.200 F 
ENDBRANCH  50  74
BRANCH  62  85
ATOM     85  C   UNL     1      -2.454   0.685  15.941  1.00  0.00     0.064 A 
ATOM     86  C   UNL     1      -2.853   0.020  17.108  1.00  0.00     0.173 A 
ATOM     87  C   UNL     1      -2.677   2.070  15.864  1.00  0.00     0.173 A 
ATOM     88  F   UNL     1      -2.671  -1.304  17.227  1.00  0.00    -0.203 F 
ATOM     89  C   UNL     1      -3.443   0.715  18.161  1.00  0.00     0.198 A 
ATOM     90  C   UNL     1      -3.239   2.766  16.930  1.00  0.00     0.198 A 
ATOM     91  F   UNL     1      -2.303   2.755  14.773  1.00  0.00    -0.203 F 
ATOM     92  F   UNL     1      -3.829   0.057  19.263  1.00  0.00    -0.200 F 
ATOM     93  C   UNL     1      -3.620   2.089  18.078  1.00  0.00     0.200 A 
ATOM     94  F   UNL     1      -3.389   4.096  16.856  1.00  0.00    -0.200 F 
ATOM     95  F   UNL     1      -4.154   2.761  19.107  1.00  0.00    -0.200 F 
ENDBRANCH  62  85
ENDBRANCH  36  37
ENDBRANCH  29  31
ENDBRANCH  28  29
ENDBRANCH  27  28
ENDBRANCH  26  27
ENDBRANCH  25  26
ENDBRANCH   1  25
TORSDOF 18
