REMARK SMILES Cc1ccc2n[nH]cc2c1C(=O)OCCOCCOCCOC(=O)c1ccc(-c2c3nc(c(-c4c(F)c(F)c(F)c(F)c4F)c4ccc([nH]4)c(-c4c(F)c(F)c(F)c(F)c4F)c4nc(c(-c5c(F)c(F)c(F)c(F)c5F)c5ccc2[nH]5)C=C4)C=C3)cc1
REMARK SMILES IDX 18 1 17 2 16 3 15 4 14 5 13 6 11 7 12 8 10 9 1 10 2 11 3 12
REMARK SMILES IDX 4 13 9 14 5 15 8 16 6 17 7 18 19 20 20 21 21 22 22 23 23 24
REMARK SMILES IDX 24 25 25 26 26 27 87 28 27 29 86 30 28 31 29 32 30 33 80 34
REMARK SMILES IDX 31 35 85 36 79 37 81 38 32 39 84 40 78 41 77 42 33 44 65 45
REMARK SMILES IDX 45 46 64 47 46 48 49 49 63 50 82 51 47 52 48 53 62 55 83 56
REMARK SMILES IDX 50 57 34 58 35 59 43 60 36 61 37 62 41 63 44 64 38 65 39 66
REMARK SMILES IDX 42 67 40 68 66 69 67 70 75 71 68 72 69 73 73 74 76 75 70 76
REMARK SMILES IDX 71 77 74 78 72 79 51 80 52 81 60 82 53 83 54 84 58 85 61 86
REMARK SMILES IDX 55 87 56 88 59 89 57 90
REMARK H PARENT 7 19 81 43 49 54
REMARK Flexibility Score: inf
ROOT
ATOM      1  C   UNL     1      -0.288   2.501  -2.588  1.00  0.00     0.188 C 
ENDROOT
BRANCH   1   2
ATOM      2  C   UNL     1       1.065   3.235  -2.518  1.00  0.00     0.188 C 
BRANCH   2   3
ATOM      3  O   UNL     1       2.014   3.101  -3.553  1.00  0.00    -0.376 OA
BRANCH   3   4
ATOM      4  C   UNL     1       2.662   1.852  -3.709  1.00  0.00     0.202 C 
BRANCH   4   5
ATOM      5  C   UNL     1       2.988   1.060  -2.442  1.00  0.00     0.261 C 
BRANCH   5   6
ATOM      6  O   UNL     1       1.802   0.627  -1.731  1.00  0.00    -0.460 OA
BRANCH   6   7
ATOM      7  C   UNL     1       1.857   0.809  -0.388  1.00  0.00     0.339 C 
ATOM      8  O   UNL     1       2.826   1.238   0.219  1.00  0.00    -0.246 OA
BRANCH   7   9
ATOM      9  C   UNL     1       0.672   0.309   0.340  1.00  0.00     0.074 A 
ATOM     10  C   UNL     1       1.374  -2.047  -0.118  1.00  0.00     0.045 C 
ATOM     11  C   UNL     1       0.629  -1.050   0.727  1.00  0.00    -0.036 A 
ATOM     12  C   UNL     1      -0.099  -1.504   1.881  1.00  0.00     0.006 A 
ATOM     13  C   UNL     1      -0.867  -0.669   2.720  1.00  0.00     0.031 A 
ATOM     14  C   UNL     1      -0.203   1.087   1.110  1.00  0.00     0.034 A 
ATOM     15  C   UNL     1      -0.941   0.652   2.274  1.00  0.00     0.093 A 
ATOM     16  C   UNL     1      -0.563   2.391   0.929  1.00  0.00     0.114 A 
ATOM     17  N   UNL     1      -1.614   1.683   2.808  1.00  0.00    -0.176 NA
ATOM     18  N   UNL     1      -1.301   2.721   2.029  1.00  0.00    -0.284 N 
ATOM     19  H   UNL     1      -1.579   3.644   2.229  1.00  0.00     0.189 HD
ENDBRANCH   7   9
ENDBRANCH   6   7
ENDBRANCH   5   6
ENDBRANCH   4   5
ENDBRANCH   3   4
ENDBRANCH   2   3
ENDBRANCH   1   2
BRANCH   1  20
ATOM     20  O   UNL     1      -0.653   1.833  -3.779  1.00  0.00    -0.376 OA
BRANCH  20  21
ATOM     21  C   UNL     1      -0.658   2.596  -4.980  1.00  0.00     0.202 C 
BRANCH  21  22
ATOM     22  C   UNL     1      -1.460   3.909  -4.965  1.00  0.00     0.261 C 
BRANCH  22  23
ATOM     23  O   UNL     1      -0.838   4.896  -4.111  1.00  0.00    -0.460 OA
BRANCH  23  24
ATOM     24  C   UNL     1      -1.680   5.707  -3.418  1.00  0.00     0.338 C 
ATOM     25  O   UNL     1      -2.866   5.887  -3.657  1.00  0.00    -0.246 OA
BRANCH  24  26
ATOM     26  C   UNL     1      -1.050   6.028  -2.104  1.00  0.00     0.060 A 
ATOM     27  C   UNL     1       0.282   6.436  -1.936  1.00  0.00     0.016 A 
ATOM     28  C   UNL     1      -1.789   5.667  -0.981  1.00  0.00     0.016 A 
ATOM     29  C   UNL     1       0.920   6.300  -0.677  1.00  0.00     0.010 A 
ATOM     30  C   UNL     1      -1.160   5.573   0.260  1.00  0.00     0.010 A 
ATOM     31  C   UNL     1       0.223   5.787   0.425  1.00  0.00    -0.014 A 
BRANCH  31  32
ATOM     32  C   UNL     1       0.790   5.711   1.805  1.00  0.00     0.031 A 
ATOM     33  C   UNL     1       0.505   6.936   2.557  1.00  0.00     0.074 A 
ATOM     34  C   UNL     1       1.433   4.732   2.507  1.00  0.00     0.049 A 
ATOM     35  N   UNL     1       1.389   7.849   2.778  1.00  0.00    -0.248 NA
ATOM     36  C   UNL     1      -0.854   7.266   2.999  1.00  0.00     0.031 C 
ATOM     37  C   UNL     1       1.878   3.445   2.013  1.00  0.00     0.029 A 
ATOM     38  N   UNL     1       1.759   4.622   3.855  1.00  0.00    -0.354 N 
ATOM     39  C   UNL     1       0.764   8.724   3.633  1.00  0.00     0.074 A 
ATOM     40  C   UNL     1      -0.653   8.478   3.523  1.00  0.00     0.031 C 
ATOM     41  C   UNL     1       2.102   2.577   3.033  1.00  0.00     0.029 A 
ATOM     42  C   UNL     1       2.039   3.309   4.283  1.00  0.00     0.049 A 
ATOM     43  H   UNL     1       1.792   5.398   4.460  1.00  0.00     0.167 HD
ATOM     44  C   UNL     1       1.473   9.282   4.644  1.00  0.00     0.037 A 
ATOM     45  C   UNL     1       2.412   2.841   5.509  1.00  0.00     0.037 A 
ATOM     46  C   UNL     1       2.892   9.069   4.517  1.00  0.00     0.049 A 
ATOM     47  C   UNL     1       3.292   3.880   6.069  1.00  0.00     0.074 A 
ATOM     48  C   UNL     1       3.916   9.568   3.740  1.00  0.00     0.029 A 
ATOM     49  N   UNL     1       3.349   7.903   5.066  1.00  0.00    -0.354 N 
ATOM     50  N   UNL     1       4.480   4.131   5.598  1.00  0.00    -0.248 NA
ATOM     51  C   UNL     1       2.789   4.812   7.069  1.00  0.00     0.031 C 
ATOM     52  C   UNL     1       4.996   8.638   3.815  1.00  0.00     0.029 A 
ATOM     53  C   UNL     1       4.618   7.591   4.642  1.00  0.00     0.049 A 
ATOM     54  H   UNL     1       2.829   7.351   5.694  1.00  0.00     0.167 HD
ATOM     55  C   UNL     1       4.634   5.469   5.856  1.00  0.00     0.074 A 
ATOM     56  C   UNL     1       3.701   5.777   6.928  1.00  0.00     0.031 C 
ATOM     57  C   UNL     1       5.155   6.276   4.894  1.00  0.00     0.037 A 
BRANCH  44  58
ATOM     58  C   UNL     1       0.841   9.627   5.953  1.00  0.00     0.064 A 
ATOM     59  C   UNL     1       1.397  10.638   6.743  1.00  0.00     0.173 A 
ATOM     60  C   UNL     1      -0.181   8.853   6.546  1.00  0.00     0.173 A 
ATOM     61  F   UNL     1       2.431  11.361   6.287  1.00  0.00    -0.203 F 
ATOM     62  C   UNL     1       0.931  10.887   8.034  1.00  0.00     0.198 A 
ATOM     63  C   UNL     1      -0.691   9.147   7.805  1.00  0.00     0.198 A 
ATOM     64  F   UNL     1      -0.647   7.739   5.962  1.00  0.00    -0.203 F 
ATOM     65  F   UNL     1       1.532  11.815   8.789  1.00  0.00    -0.200 F 
ATOM     66  C   UNL     1      -0.127  10.158   8.554  1.00  0.00     0.200 A 
ATOM     67  F   UNL     1      -1.694   8.409   8.302  1.00  0.00    -0.200 F 
ATOM     68  F   UNL     1      -0.573  10.398   9.794  1.00  0.00    -0.200 F 
ENDBRANCH  44  58
BRANCH  45  69
ATOM     69  C   UNL     1       2.305   1.542   6.243  1.00  0.00     0.064 A 
ATOM     70  C   UNL     1       3.234   1.178   7.245  1.00  0.00     0.173 A 
ATOM     71  C   UNL     1       1.099   0.822   6.244  1.00  0.00     0.173 A 
ATOM     72  F   UNL     1       4.410   1.812   7.348  1.00  0.00    -0.203 F 
ATOM     73  C   UNL     1       2.945   0.218   8.223  1.00  0.00     0.198 A 
ATOM     74  C   UNL     1       0.813  -0.148   7.219  1.00  0.00     0.198 A 
ATOM     75  F   UNL     1       0.132   1.131   5.372  1.00  0.00    -0.203 F 
ATOM     76  F   UNL     1       3.823  -0.019   9.209  1.00  0.00    -0.200 F 
ATOM     77  C   UNL     1       1.725  -0.430   8.222  1.00  0.00     0.200 A 
ATOM     78  F   UNL     1      -0.383  -0.755   7.231  1.00  0.00    -0.200 F 
ATOM     79  F   UNL     1       1.413  -1.284   9.208  1.00  0.00    -0.200 F 
ENDBRANCH  45  69
BRANCH  57  80
ATOM     80  C   UNL     1       6.181   5.684   3.978  1.00  0.00     0.064 A 
ATOM     81  C   UNL     1       5.922   4.707   3.003  1.00  0.00     0.173 A 
ATOM     82  C   UNL     1       7.497   6.152   4.085  1.00  0.00     0.173 A 
ATOM     83  F   UNL     1       4.683   4.244   2.807  1.00  0.00    -0.203 F 
ATOM     84  C   UNL     1       6.941   4.210   2.188  1.00  0.00     0.198 A 
ATOM     85  C   UNL     1       8.506   5.676   3.253  1.00  0.00     0.198 A 
ATOM     86  F   UNL     1       7.802   7.093   4.993  1.00  0.00    -0.203 F 
ATOM     87  F   UNL     1       6.673   3.267   1.272  1.00  0.00    -0.200 F 
ATOM     88  C   UNL     1       8.230   4.701   2.308  1.00  0.00     0.200 A 
ATOM     89  F   UNL     1       9.746   6.175   3.357  1.00  0.00    -0.200 F 
ATOM     90  F   UNL     1       9.203   4.249   1.504  1.00  0.00    -0.200 F 
ENDBRANCH  57  80
ENDBRANCH  31  32
ENDBRANCH  24  26
ENDBRANCH  23  24
ENDBRANCH  22  23
ENDBRANCH  21  22
ENDBRANCH  20  21
ENDBRANCH   1  20
TORSDOF 17
