REMARK SMILES CC(C)Cc1ccc(S(=O)(=O)Nc2cnc(N3CCCC3)c(C(=O)OCCOCCOCCOC(=O)c3ccc(-c4c5nc(c(-c6c(F)c(F)c(F)c(F)c6F)c6ccc([nH]6)c(-c6c(F)c(F)c(F)c(F)c6F)c6nc(c(-c7c(F)c(F)c(F)c(F)c7F)c7ccc4[nH]7)C=C6)C=C5)cc3)c2)cc1
REMARK SMILES IDX 28 1 27 2 26 3 25 4 23 5 24 6 22 7 13 8 14 9 100 10 15 11
REMARK SMILES IDX 16 12 12 13 9 15 10 16 11 17 8 18 5 19 6 20 102 21 7 22
REMARK SMILES IDX 101 23 4 24 2 25 1 26 3 27 17 28 18 29 21 30 19 31 20 32
REMARK SMILES IDX 29 33 30 34 31 35 32 36 33 37 34 38 35 39 36 40 37 41 38 42
REMARK SMILES IDX 99 43 39 44 98 45 40 46 41 47 42 48 92 49 43 50 97 51 91 52
REMARK SMILES IDX 93 53 44 54 96 55 90 56 89 57 45 59 77 60 57 61 76 62 58 63
REMARK SMILES IDX 61 64 75 65 94 66 59 67 60 68 74 70 95 71 62 72 46 73 47 74
REMARK SMILES IDX 55 75 48 76 49 77 53 78 56 79 50 80 51 81 54 82 52 83 78 84
REMARK SMILES IDX 79 85 87 86 80 87 81 88 85 89 88 90 82 91 83 92 86 93 84 94
REMARK SMILES IDX 63 95 64 96 72 97 65 98 66 99 70 100 73 101 67 102 68 103
REMARK SMILES IDX 71 104 69 105
REMARK H PARENT 12 14 93 58 61 69
REMARK Flexibility Score: inf
ROOT
ATOM      1  O   UNL     1      -7.744  -1.533  -0.269  1.00  0.00    -0.376 OA
ENDROOT
BRANCH   1   2
ATOM      2  C   UNL     1      -6.481  -2.000   0.172  1.00  0.00     0.202 C 
BRANCH   2   3
ATOM      3  C   UNL     1      -5.231  -1.179  -0.185  1.00  0.00     0.261 C 
BRANCH   3   4
ATOM      4  O   UNL     1      -5.262  -0.496  -1.448  1.00  0.00    -0.460 OA
BRANCH   4   5
ATOM      5  C   UNL     1      -4.757  -1.113  -2.546  1.00  0.00     0.342 C 
ATOM      6  O   UNL     1      -4.290  -2.238  -2.569  1.00  0.00    -0.246 OA
BRANCH   5   7
ATOM      7  C   UNL     1      -4.865  -0.190  -3.714  1.00  0.00     0.104 A 
ATOM      8  C   UNL     1      -4.489   2.034  -4.572  1.00  0.00     0.068 A 
ATOM      9  C   UNL     1      -4.584   1.492  -5.843  1.00  0.00     0.140 A 
ATOM     10  C   UNL     1      -4.680   1.183  -3.496  1.00  0.00     0.048 A 
ATOM     11  N   UNL     1      -4.887   0.193  -6.081  1.00  0.00    -0.236 NA
ATOM     12  C   UNL     1      -5.051  -0.646  -5.027  1.00  0.00     0.143 A 
BRANCH   8  13
ATOM     13  N   UNL     1      -4.117   3.396  -4.329  1.00  0.00    -0.278 N 
ATOM     14  H   UNL     1      -4.770   4.122  -4.454  1.00  0.00     0.180 HD
BRANCH  13  15
ATOM     15  S   UNL     1      -2.518   3.743  -3.817  1.00  0.00     0.261 S 
ATOM     16  O   UNL     1      -2.639   4.878  -2.925  1.00  0.00    -0.201 OA
ATOM     17  O   UNL     1      -1.726   3.835  -5.024  1.00  0.00    -0.201 OA
BRANCH  15  18
ATOM     18  C   UNL     1      -1.894   2.365  -2.877  1.00  0.00     0.087 A 
ATOM     19  C   UNL     1      -1.101   0.154  -1.349  1.00  0.00    -0.048 A 
ATOM     20  C   UNL     1      -1.220   1.420  -0.759  1.00  0.00     0.005 A 
ATOM     21  C   UNL     1      -1.318   0.021  -2.726  1.00  0.00     0.005 A 
ATOM     22  C   UNL     1      -1.626   2.522  -1.515  1.00  0.00     0.022 A 
ATOM     23  C   UNL     1      -1.666   1.132  -3.498  1.00  0.00     0.022 A 
BRANCH  19  24
ATOM     24  C   UNL     1      -0.716  -1.049  -0.518  1.00  0.00     0.038 C 
BRANCH  24  25
ATOM     25  C   UNL     1       0.796  -1.340  -0.524  1.00  0.00    -0.013 C 
ATOM     26  C   UNL     1       1.596  -0.246   0.187  1.00  0.00     0.008 C 
ATOM     27  C   UNL     1       1.069  -2.691   0.142  1.00  0.00     0.008 C 
ENDBRANCH  24  25
ENDBRANCH  19  24
ENDBRANCH  15  18
ENDBRANCH  13  15
ENDBRANCH   8  13
BRANCH  12  28
ATOM     28  N   UNL     1      -5.572  -1.862  -5.341  1.00  0.00    -0.356 N 
ATOM     29  C   UNL     1      -6.916  -2.252  -4.993  1.00  0.00     0.118 C 
ATOM     30  C   UNL     1      -4.790  -2.993  -5.805  1.00  0.00     0.118 C 
ATOM     31  C   UNL     1      -6.689  -3.660  -4.470  1.00  0.00     0.023 C 
ATOM     32  C   UNL     1      -5.703  -4.200  -5.502  1.00  0.00     0.023 C 
ENDBRANCH  12  28
ENDBRANCH   5   7
ENDBRANCH   4   5
ENDBRANCH   3   4
ENDBRANCH   2   3
ENDBRANCH   1   2
BRANCH   1  33
ATOM     33  C   UNL     1      -7.922  -1.410  -1.665  1.00  0.00     0.188 C 
BRANCH  33  34
ATOM     34  C   UNL     1      -8.043   0.055  -2.138  1.00  0.00     0.188 C 
BRANCH  34  35
ATOM     35  O   UNL     1      -8.336   1.091  -1.214  1.00  0.00    -0.376 OA
BRANCH  35  36
ATOM     36  C   UNL     1      -9.216   0.819  -0.139  1.00  0.00     0.202 C 
BRANCH  36  37
ATOM     37  C   UNL     1     -10.643   0.345  -0.458  1.00  0.00     0.261 C 
BRANCH  37  38
ATOM     38  O   UNL     1     -10.784  -0.580  -1.551  1.00  0.00    -0.460 OA
BRANCH  38  39
ATOM     39  C   UNL     1     -11.163  -0.039  -2.741  1.00  0.00     0.338 C 
ATOM     40  O   UNL     1     -11.394   1.128  -2.977  1.00  0.00    -0.246 OA
BRANCH  39  41
ATOM     41  C   UNL     1     -11.099  -1.081  -3.800  1.00  0.00     0.060 A 
ATOM     42  C   UNL     1     -10.380  -0.814  -4.975  1.00  0.00     0.016 A 
ATOM     43  C   UNL     1     -11.777  -2.293  -3.661  1.00  0.00     0.016 A 
ATOM     44  C   UNL     1     -10.349  -1.751  -6.016  1.00  0.00     0.010 A 
ATOM     45  C   UNL     1     -11.768  -3.217  -4.715  1.00  0.00     0.010 A 
ATOM     46  C   UNL     1     -11.071  -2.947  -5.906  1.00  0.00    -0.014 A 
BRANCH  46  47
ATOM     47  C   UNL     1     -11.273  -3.835  -7.085  1.00  0.00     0.031 A 
ATOM     48  C   UNL     1     -12.431  -3.555  -7.992  1.00  0.00     0.074 A 
ATOM     49  C   UNL     1     -10.491  -4.903  -7.326  1.00  0.00     0.049 A 
ATOM     50  N   UNL     1     -12.908  -4.277  -8.972  1.00  0.00    -0.248 NA
ATOM     51  C   UNL     1     -13.157  -2.299  -7.752  1.00  0.00     0.031 C 
ATOM     52  C   UNL     1      -9.316  -5.251  -6.549  1.00  0.00     0.029 A 
ATOM     53  N   UNL     1     -10.566  -5.899  -8.271  1.00  0.00    -0.354 N 
ATOM     54  C   UNL     1     -14.001  -3.575  -9.453  1.00  0.00     0.074 A 
ATOM     55  C   UNL     1     -14.123  -2.374  -8.655  1.00  0.00     0.031 C 
ATOM     56  C   UNL     1      -8.768  -6.376  -7.034  1.00  0.00     0.029 A 
ATOM     57  C   UNL     1      -9.602  -6.872  -8.126  1.00  0.00     0.049 A 
ATOM     58  H   UNL     1     -11.244  -5.915  -8.985  1.00  0.00     0.167 HD
ATOM     59  C   UNL     1     -14.836  -3.912 -10.462  1.00  0.00     0.037 A 
ATOM     60  C   UNL     1      -9.439  -8.049  -8.766  1.00  0.00     0.037 A 
ATOM     61  C   UNL     1     -14.731  -5.125 -11.227  1.00  0.00     0.049 A 
ATOM     62  C   UNL     1     -10.443  -8.448  -9.819  1.00  0.00     0.074 A 
ATOM     63  C   UNL     1     -15.545  -5.567 -12.253  1.00  0.00     0.029 A 
ATOM     64  N   UNL     1     -13.761  -6.099 -11.037  1.00  0.00    -0.354 N 
ATOM     65  N   UNL     1     -11.479  -7.781 -10.266  1.00  0.00    -0.248 NA
ATOM     66  C   UNL     1     -10.271  -9.768 -10.444  1.00  0.00     0.031 C 
ATOM     67  C   UNL     1     -15.107  -6.835 -12.643  1.00  0.00     0.029 A 
ATOM     68  C   UNL     1     -13.971  -7.151 -11.913  1.00  0.00     0.049 A 
ATOM     69  H   UNL     1     -13.031  -6.050 -10.377  1.00  0.00     0.167 HD
ATOM     70  C   UNL     1     -12.054  -8.577 -11.248  1.00  0.00     0.074 A 
ATOM     71  C   UNL     1     -11.255  -9.780 -11.334  1.00  0.00     0.031 C 
ATOM     72  C   UNL     1     -13.146  -8.328 -12.011  1.00  0.00     0.037 A 
BRANCH  59  73
ATOM     73  C   UNL     1     -15.971  -2.977 -10.750  1.00  0.00     0.064 A 
ATOM     74  C   UNL     1     -15.759  -1.711 -11.316  1.00  0.00     0.173 A 
ATOM     75  C   UNL     1     -17.290  -3.357 -10.460  1.00  0.00     0.173 A 
ATOM     76  F   UNL     1     -14.514  -1.293 -11.591  1.00  0.00    -0.203 F 
ATOM     77  C   UNL     1     -16.825  -0.848 -11.553  1.00  0.00     0.198 A 
ATOM     78  C   UNL     1     -18.355  -2.505 -10.730  1.00  0.00     0.198 A 
ATOM     79  F   UNL     1     -17.545  -4.556  -9.916  1.00  0.00    -0.203 F 
ATOM     80  F   UNL     1     -16.595   0.380 -12.039  1.00  0.00    -0.200 F 
ATOM     81  C   UNL     1     -18.122  -1.248 -11.267  1.00  0.00     0.200 A 
ATOM     82  F   UNL     1     -19.609  -2.898 -10.465  1.00  0.00    -0.200 F 
ATOM     83  F   UNL     1     -19.147  -0.417 -11.499  1.00  0.00    -0.200 F 
ENDBRANCH  59  73
BRANCH  60  84
ATOM     84  C   UNL     1      -8.313  -8.961  -8.414  1.00  0.00     0.064 A 
ATOM     85  C   UNL     1      -7.312  -9.266  -9.348  1.00  0.00     0.173 A 
ATOM     86  C   UNL     1      -8.235  -9.582  -7.158  1.00  0.00     0.173 A 
ATOM     87  F   UNL     1      -7.353  -8.723 -10.574  1.00  0.00    -0.203 F 
ATOM     88  C   UNL     1      -6.295 -10.173  -9.050  1.00  0.00     0.198 A 
ATOM     89  C   UNL     1      -7.198 -10.461  -6.848  1.00  0.00     0.198 A 
ATOM     90  F   UNL     1      -9.166  -9.335  -6.226  1.00  0.00    -0.203 F 
ATOM     91  F   UNL     1      -5.388 -10.490  -9.984  1.00  0.00    -0.200 F 
ATOM     92  C   UNL     1      -6.235 -10.765  -7.798  1.00  0.00     0.200 A 
ATOM     93  F   UNL     1      -7.137 -11.021  -5.632  1.00  0.00    -0.200 F 
ATOM     94  F   UNL     1      -5.258 -11.636  -7.512  1.00  0.00    -0.200 F 
ENDBRANCH  60  84
BRANCH  72  95
ATOM     95  C   UNL     1     -13.509  -9.330 -13.069  1.00  0.00     0.064 A 
ATOM     96  C   UNL     1     -14.085 -10.569 -12.755  1.00  0.00     0.173 A 
ATOM     97  C   UNL     1     -13.369  -8.993 -14.425  1.00  0.00     0.173 A 
ATOM     98  F   UNL     1     -14.226 -10.944 -11.475  1.00  0.00    -0.203 F 
ATOM     99  C   UNL     1     -14.504 -11.436 -13.761  1.00  0.00     0.198 A 
ATOM    100  C   UNL     1     -13.818  -9.848 -15.427  1.00  0.00     0.198 A 
ATOM    101  F   UNL     1     -12.829  -7.817 -14.777  1.00  0.00    -0.203 F 
ATOM    102  F   UNL     1     -15.028 -12.627 -13.441  1.00  0.00    -0.200 F 
ATOM    103  C   UNL     1     -14.384 -11.069 -15.094  1.00  0.00     0.200 A 
ATOM    104  F   UNL     1     -13.717  -9.483 -16.712  1.00  0.00    -0.200 F 
ATOM    105  F   UNL     1     -14.814 -11.893 -16.059  1.00  0.00    -0.200 F 
ENDBRANCH  72  95
ENDBRANCH  46  47
ENDBRANCH  39  41
ENDBRANCH  38  39
ENDBRANCH  37  38
ENDBRANCH  36  37
ENDBRANCH  35  36
ENDBRANCH  34  35
ENDBRANCH  33  34
ENDBRANCH   1  33
TORSDOF 23
