REMARK SMILES CC(C)[C@@H](CNC(=O)Cc1ccc(F)cc1F)C(=O)OCCOCCOCCOC(=O)c1ccc(-c2c3nc(c(-c4c(F)c(F)c(F)c(F)c4F)c4ccc([nH]4)c(-c4c(F)c(F)c(F)c(F)c4F)c4nc(c(-c5c(F)c(F)c(F)c(F)c5F)c5ccc2[nH]5)C=C4)C=C3)cc1
REMARK SMILES IDX 24 1 23 2 22 3 21 4 20 5 18 6 19 7 4 8 2 9 1 10 3 11 5 12
REMARK SMILES IDX 6 13 7 14 8 16 9 17 10 18 11 19 16 20 12 21 15 22 17 23
REMARK SMILES IDX 13 24 14 25 25 26 26 27 27 28 28 29 29 30 30 31 31 32 32 33
REMARK SMILES IDX 33 34 94 35 34 36 93 37 35 38 36 39 37 40 87 41 38 42 92 43
REMARK SMILES IDX 86 44 88 45 39 46 91 47 85 48 84 49 40 51 72 52 52 53 71 54
REMARK SMILES IDX 53 55 56 56 70 57 89 58 54 59 55 60 69 62 90 63 57 64 41 65
REMARK SMILES IDX 42 66 50 67 43 68 44 69 48 70 51 71 45 72 46 73 49 74 47 75
REMARK SMILES IDX 73 76 74 77 82 78 75 79 76 80 80 81 83 82 77 83 78 84 81 85
REMARK SMILES IDX 79 86 58 87 59 88 67 89 60 90 61 91 65 92 68 93 62 94 63 95
REMARK SMILES IDX 66 96 64 97
REMARK H PARENT 6 15 88 50 56 61
REMARK Flexibility Score: inf
ROOT
ATOM      1  C   UNL     1      -1.284  -2.642   4.926  1.00  0.00     0.188 C 
ENDROOT
BRANCH   1   2
ATOM      2  O   UNL     1      -1.320  -4.049   4.754  1.00  0.00    -0.376 OA
BRANCH   2   3
ATOM      3  C   UNL     1      -2.065  -4.451   3.613  1.00  0.00     0.202 C 
BRANCH   3   4
ATOM      4  C   UNL     1      -1.326  -4.543   2.261  1.00  0.00     0.261 C 
BRANCH   4   5
ATOM      5  O   UNL     1      -0.693  -3.410   1.606  1.00  0.00    -0.463 OA
BRANCH   5   6
ATOM      6  C   UNL     1      -1.337  -2.236   1.446  1.00  0.00     0.311 C 
ATOM      7  O   UNL     1      -2.361  -1.926   2.044  1.00  0.00    -0.252 OA
BRANCH   6   8
ATOM      8  C   UNL     1      -0.730  -1.322   0.376  1.00  0.00     0.121 C 
BRANCH   8   9
ATOM      9  C   UNL     1       0.821  -1.256   0.207  1.00  0.00    -0.001 C 
ATOM     10  C   UNL     1       1.232  -0.197  -0.835  1.00  0.00     0.008 C 
ATOM     11  C   UNL     1       1.564  -0.876   1.491  1.00  0.00     0.008 C 
ENDBRANCH   8   9
BRANCH   8  12
ATOM     12  C   UNL     1      -1.475  -1.649  -0.935  1.00  0.00     0.131 C 
BRANCH  12  13
ATOM     13  N   UNL     1      -1.459  -3.065  -1.253  1.00  0.00    -0.355 N 
ATOM     14  C   UNL     1      -2.500  -3.952  -1.268  1.00  0.00     0.224 C 
ATOM     15  H   UNL     1      -0.579  -3.438  -1.489  1.00  0.00     0.163 HD
ATOM     16  O   UNL     1      -2.229  -5.153  -1.314  1.00  0.00    -0.275 OA
BRANCH  14  17
ATOM     17  C   UNL     1      -3.938  -3.452  -1.292  1.00  0.00     0.138 C 
BRANCH  17  18
ATOM     18  C   UNL     1      -4.546  -3.134   0.053  1.00  0.00    -0.003 A 
ATOM     19  C   UNL     1      -4.877  -1.813   0.402  1.00  0.00     0.010 A 
ATOM     20  C   UNL     1      -4.796  -4.145   0.988  1.00  0.00     0.129 A 
ATOM     21  C   UNL     1      -5.360  -1.516   1.681  1.00  0.00     0.040 A 
ATOM     22  C   UNL     1      -5.305  -3.862   2.252  1.00  0.00     0.078 A 
ATOM     23  F   UNL     1      -4.520  -5.420   0.684  1.00  0.00    -0.207 F 
ATOM     24  C   UNL     1      -5.553  -2.542   2.598  1.00  0.00     0.126 A 
ATOM     25  F   UNL     1      -5.961  -2.248   3.840  1.00  0.00    -0.207 F 
ENDBRANCH  17  18
ENDBRANCH  14  17
ENDBRANCH  12  13
ENDBRANCH   8  12
ENDBRANCH   6   8
ENDBRANCH   5   6
ENDBRANCH   4   5
ENDBRANCH   3   4
ENDBRANCH   2   3
ENDBRANCH   1   2
BRANCH   1  26
ATOM     26  C   UNL     1      -0.075  -2.038   4.255  1.00  0.00     0.188 C 
BRANCH  26  27
ATOM     27  O   UNL     1       0.975  -2.897   3.874  1.00  0.00    -0.376 OA
BRANCH  27  28
ATOM     28  C   UNL     1       1.643  -3.724   4.805  1.00  0.00     0.202 C 
BRANCH  28  29
ATOM     29  C   UNL     1       1.665  -3.411   6.311  1.00  0.00     0.261 C 
BRANCH  29  30
ATOM     30  O   UNL     1       1.313  -2.083   6.726  1.00  0.00    -0.460 OA
BRANCH  30  31
ATOM     31  C   UNL     1       2.126  -1.066   6.347  1.00  0.00     0.338 C 
ATOM     32  O   UNL     1       3.200  -1.152   5.790  1.00  0.00    -0.246 OA
BRANCH  31  33
ATOM     33  C   UNL     1       1.337   0.192   6.497  1.00  0.00     0.060 A 
ATOM     34  C   UNL     1       1.200   1.026   5.375  1.00  0.00     0.016 A 
ATOM     35  C   UNL     1       0.640   0.486   7.672  1.00  0.00     0.016 A 
ATOM     36  C   UNL     1       0.390   2.162   5.433  1.00  0.00     0.010 A 
ATOM     37  C   UNL     1      -0.141   1.647   7.742  1.00  0.00     0.010 A 
ATOM     38  C   UNL     1      -0.246   2.506   6.632  1.00  0.00    -0.014 A 
BRANCH  38  39
ATOM     39  C   UNL     1      -0.816   3.869   6.791  1.00  0.00     0.031 A 
ATOM     40  C   UNL     1       0.044   4.914   7.451  1.00  0.00     0.074 A 
ATOM     41  C   UNL     1      -2.033   4.200   6.323  1.00  0.00     0.049 A 
ATOM     42  N   UNL     1      -0.232   6.159   7.743  1.00  0.00    -0.248 NA
ATOM     43  C   UNL     1       1.404   4.494   7.829  1.00  0.00     0.031 C 
ATOM     44  C   UNL     1      -2.938   3.305   5.608  1.00  0.00     0.029 A 
ATOM     45  N   UNL     1      -2.716   5.392   6.383  1.00  0.00    -0.354 N 
ATOM     46  C   UNL     1       0.914   6.665   8.343  1.00  0.00     0.074 A 
ATOM     47  C   UNL     1       1.878   5.590   8.401  1.00  0.00     0.031 C 
ATOM     48  C   UNL     1      -4.061   3.978   5.298  1.00  0.00     0.029 A 
ATOM     49  C   UNL     1      -3.970   5.340   5.824  1.00  0.00     0.049 A 
ATOM     50  H   UNL     1      -2.342   6.207   6.789  1.00  0.00     0.167 HD
ATOM     51  C   UNL     1       1.147   7.918   8.793  1.00  0.00     0.037 A 
ATOM     52  C   UNL     1      -4.938   6.279   5.763  1.00  0.00     0.037 A 
ATOM     53  C   UNL     1       0.193   8.992   8.728  1.00  0.00     0.049 A 
ATOM     54  C   UNL     1      -4.689   7.646   6.353  1.00  0.00     0.074 A 
ATOM     55  C   UNL     1       0.339  10.298   9.159  1.00  0.00     0.029 A 
ATOM     56  N   UNL     1      -1.085   8.883   8.199  1.00  0.00    -0.354 N 
ATOM     57  N   UNL     1      -3.604   8.117   6.918  1.00  0.00    -0.248 NA
ATOM     58  C   UNL     1      -5.797   8.612   6.296  1.00  0.00     0.031 C 
ATOM     59  C   UNL     1      -0.869  10.965   8.943  1.00  0.00     0.029 A 
ATOM     60  C   UNL     1      -1.745  10.094   8.316  1.00  0.00     0.049 A 
ATOM     61  H   UNL     1      -1.464   8.067   7.801  1.00  0.00     0.167 HD
ATOM     62  C   UNL     1      -3.886   9.436   7.255  1.00  0.00     0.074 A 
ATOM     63  C   UNL     1      -5.243   9.696   6.824  1.00  0.00     0.031 C 
ATOM     64  C   UNL     1      -3.090  10.348   7.864  1.00  0.00     0.037 A 
BRANCH  51  65
ATOM     65  C   UNL     1       2.480   8.202   9.418  1.00  0.00     0.064 A 
ATOM     66  C   UNL     1       2.576   8.463  10.794  1.00  0.00     0.173 A 
ATOM     67  C   UNL     1       3.651   8.284   8.650  1.00  0.00     0.173 A 
ATOM     68  F   UNL     1       1.485   8.398  11.572  1.00  0.00    -0.203 F 
ATOM     69  C   UNL     1       3.790   8.818  11.373  1.00  0.00     0.198 A 
ATOM     70  C   UNL     1       4.870   8.610   9.239  1.00  0.00     0.198 A 
ATOM     71  F   UNL     1       3.615   8.026   7.334  1.00  0.00    -0.203 F 
ATOM     72  F   UNL     1       3.849   9.101  12.681  1.00  0.00    -0.200 F 
ATOM     73  C   UNL     1       4.937   8.888  10.596  1.00  0.00     0.200 A 
ATOM     74  F   UNL     1       5.982   8.652   8.492  1.00  0.00    -0.200 F 
ATOM     75  F   UNL     1       6.107   9.223  11.156  1.00  0.00    -0.200 F 
ENDBRANCH  51  65
BRANCH  52  76
ATOM     76  C   UNL     1      -6.241   5.958   5.119  1.00  0.00     0.064 A 
ATOM     77  C   UNL     1      -7.126   5.029   5.687  1.00  0.00     0.173 A 
ATOM     78  C   UNL     1      -6.628   6.572   3.919  1.00  0.00     0.173 A 
ATOM     79  F   UNL     1      -6.811   4.419   6.839  1.00  0.00    -0.203 F 
ATOM     80  C   UNL     1      -8.333   4.708   5.068  1.00  0.00     0.198 A 
ATOM     81  C   UNL     1      -7.849   6.273   3.316  1.00  0.00     0.198 A 
ATOM     82  F   UNL     1      -5.832   7.490   3.350  1.00  0.00    -0.203 F 
ATOM     83  F   UNL     1      -9.142   3.792   5.617  1.00  0.00    -0.200 F 
ATOM     84  C   UNL     1      -8.695   5.334   3.885  1.00  0.00     0.200 A 
ATOM     85  F   UNL     1      -8.208   6.901   2.188  1.00  0.00    -0.200 F 
ATOM     86  F   UNL     1      -9.861   5.035   3.297  1.00  0.00    -0.200 F 
ENDBRANCH  52  76
BRANCH  64  87
ATOM     87  C   UNL     1      -3.629  11.735   8.075  1.00  0.00     0.064 A 
ATOM     88  C   UNL     1      -3.083  12.819   7.369  1.00  0.00     0.173 A 
ATOM     89  C   UNL     1      -4.600  12.008   9.047  1.00  0.00     0.173 A 
ATOM     90  F   UNL     1      -2.141  12.613   6.436  1.00  0.00    -0.203 F 
ATOM     91  C   UNL     1      -3.474  14.126   7.645  1.00  0.00     0.198 A 
ATOM     92  C   UNL     1      -5.011  13.315   9.300  1.00  0.00     0.198 A 
ATOM     93  F   UNL     1      -5.159  11.007   9.743  1.00  0.00    -0.203 F 
ATOM     94  F   UNL     1      -2.904  15.148   6.991  1.00  0.00    -0.200 F 
ATOM     95  C   UNL     1      -4.439  14.373   8.609  1.00  0.00     0.200 A 
ATOM     96  F   UNL     1      -5.960  13.551  10.217  1.00  0.00    -0.200 F 
ATOM     97  F   UNL     1      -4.817  15.631   8.873  1.00  0.00    -0.200 F 
ENDBRANCH  64  87
ENDBRANCH  38  39
ENDBRANCH  31  33
ENDBRANCH  30  31
ENDBRANCH  29  30
ENDBRANCH  28  29
ENDBRANCH  27  28
ENDBRANCH  26  27
ENDBRANCH   1  26
TORSDOF 22
