REMARK SMILES O=C(Nc1ccc(C(=O)OCCOCCOCCOC(=O)c2ccc(-c3c4nc(c(-c5c(F)c(F)c(F)c(F)c5F)c5ccc([nH]5)c(-c5c(F)c(F)c(F)c(F)c5F)c5nc(c(-c6c(F)c(F)c(F)c(F)c6F)c6ccc3[nH]6)C=C5)C=C4)cc2)cc1)c1cc(F)cc(Br)c1
REMARK SMILES IDX 14 1 13 2 12 3 11 4 10 5 8 6 9 7 7 8 4 9 5 10 86 11 6 12
REMARK SMILES IDX 85 13 3 14 1 15 2 16 87 18 88 19 94 20 89 21 92 22 90 23
REMARK SMILES IDX 91 24 93 25 15 26 16 27 17 28 18 29 19 30 20 31 21 32 22 33
REMARK SMILES IDX 23 34 84 35 24 36 83 37 25 38 26 39 27 40 77 41 28 42 82 43
REMARK SMILES IDX 76 44 78 45 29 46 81 47 75 48 74 49 30 51 62 52 42 53 61 54
REMARK SMILES IDX 43 55 46 56 60 57 79 58 44 59 45 60 59 62 80 63 47 64 31 65
REMARK SMILES IDX 32 66 40 67 33 68 34 69 38 70 41 71 35 72 36 73 39 74 37 75
REMARK SMILES IDX 63 76 64 77 72 78 65 79 66 80 70 81 73 82 67 83 68 84 71 85
REMARK SMILES IDX 69 86 48 87 49 88 57 89 50 90 51 91 55 92 58 93 52 94 53 95
REMARK SMILES IDX 56 96 54 97
REMARK H PARENT 3 17 78 50 46 61
REMARK Flexibility Score: inf
ROOT
ATOM      1  C   UNL     1       9.946  -1.509   2.635  1.00  0.00     0.188 C 
ENDROOT
BRANCH   1   2
ATOM      2  O   UNL     1      11.291  -1.376   2.212  1.00  0.00    -0.376 OA
BRANCH   2   3
ATOM      3  C   UNL     1      11.667  -0.309   1.354  1.00  0.00     0.202 C 
BRANCH   3   4
ATOM      4  C   UNL     1      10.905  -0.063   0.050  1.00  0.00     0.261 C 
BRANCH   4   5
ATOM      5  O   UNL     1       9.494   0.103   0.241  1.00  0.00    -0.460 OA
BRANCH   5   6
ATOM      6  C   UNL     1       8.724  -0.838  -0.356  1.00  0.00     0.338 C 
ATOM      7  O   UNL     1       9.098  -1.745  -1.080  1.00  0.00    -0.246 OA
BRANCH   6   8
ATOM      8  C   UNL     1       7.331  -0.740   0.129  1.00  0.00     0.060 A 
ATOM      9  C   UNL     1       4.621  -0.692   0.741  1.00  0.00     0.041 A 
ATOM     10  C   UNL     1       5.285  -1.915   0.689  1.00  0.00     0.027 A 
ATOM     11  C   UNL     1       5.347   0.505   0.673  1.00  0.00     0.027 A 
ATOM     12  C   UNL     1       6.636  -1.938   0.349  1.00  0.00     0.018 A 
ATOM     13  C   UNL     1       6.705   0.486   0.355  1.00  0.00     0.018 A 
BRANCH   9  14
ATOM     14  N   UNL     1       3.217  -0.718   0.725  1.00  0.00    -0.322 N 
ATOM     15  O   UNL     1       1.154   0.060   0.172  1.00  0.00    -0.269 OA
ATOM     16  C   UNL     1       2.368   0.092  -0.008  1.00  0.00     0.255 C 
ATOM     17  H   UNL     1       2.787  -1.390   1.301  1.00  0.00     0.170 HD
BRANCH  16  18
ATOM     18  C   UNL     1       2.911   0.954  -1.090  1.00  0.00     0.044 A 
ATOM     19  C   UNL     1       3.837   0.457  -2.018  1.00  0.00     0.053 A 
ATOM     20  C   UNL     1       2.513   2.292  -1.143  1.00  0.00     0.029 A 
ATOM     21  C   UNL     1       4.442   1.333  -2.910  1.00  0.00     0.125 A 
ATOM     22  C   UNL     1       3.116   3.146  -2.067  1.00  0.00     0.021 A 
ATOM     23  F   UNL     1       5.396   0.878  -3.731  1.00  0.00    -0.207 F 
ATOM     24  C   UNL     1       4.099   2.678  -2.938  1.00  0.00     0.055 A 
ATOM     25  Br  UNL     1       2.622   4.969  -2.115  1.00  0.00    -0.051 Br
ENDBRANCH  16  18
ENDBRANCH   9  14
ENDBRANCH   6   8
ENDBRANCH   5   6
ENDBRANCH   4   5
ENDBRANCH   3   4
ENDBRANCH   2   3
ENDBRANCH   1   2
BRANCH   1  26
ATOM     26  C   UNL     1       9.179  -0.318   3.247  1.00  0.00     0.188 C 
BRANCH  26  27
ATOM     27  O   UNL     1       9.814   0.929   3.387  1.00  0.00    -0.376 OA
BRANCH  27  28
ATOM     28  C   UNL     1      10.809   1.150   4.371  1.00  0.00     0.202 C 
BRANCH  28  29
ATOM     29  C   UNL     1      11.072   0.264   5.600  1.00  0.00     0.261 C 
BRANCH  29  30
ATOM     30  O   UNL     1      10.648  -1.098   5.537  1.00  0.00    -0.460 OA
BRANCH  30  31
ATOM     31  C   UNL     1       9.588  -1.401   6.327  1.00  0.00     0.338 C 
ATOM     32  O   UNL     1       8.948  -0.649   7.038  1.00  0.00    -0.246 OA
BRANCH  31  33
ATOM     33  C   UNL     1       9.192  -2.796   6.074  1.00  0.00     0.060 A 
ATOM     34  C   UNL     1       7.920  -3.041   5.540  1.00  0.00     0.016 A 
ATOM     35  C   UNL     1      10.043  -3.851   6.410  1.00  0.00     0.016 A 
ATOM     36  C   UNL     1       7.481  -4.352   5.367  1.00  0.00     0.010 A 
ATOM     37  C   UNL     1       9.593  -5.163   6.254  1.00  0.00     0.010 A 
ATOM     38  C   UNL     1       8.300  -5.418   5.762  1.00  0.00    -0.014 A 
BRANCH  38  39
ATOM     39  C   UNL     1       7.739  -6.787   5.837  1.00  0.00     0.031 A 
ATOM     40  C   UNL     1       7.211  -7.275   7.156  1.00  0.00     0.074 A 
ATOM     41  C   UNL     1       7.689  -7.579   4.753  1.00  0.00     0.049 A 
ATOM     42  N   UNL     1       6.719  -8.444   7.476  1.00  0.00    -0.248 NA
ATOM     43  C   UNL     1       7.248  -6.311   8.268  1.00  0.00     0.031 C 
ATOM     44  C   UNL     1       8.132  -7.206   3.412  1.00  0.00     0.029 A 
ATOM     45  N   UNL     1       7.247  -8.871   4.618  1.00  0.00    -0.354 N 
ATOM     46  C   UNL     1       6.392  -8.358   8.823  1.00  0.00     0.074 A 
ATOM     47  C   UNL     1       6.769  -7.033   9.268  1.00  0.00     0.031 C 
ATOM     48  C   UNL     1       7.953  -8.255   2.590  1.00  0.00     0.029 A 
ATOM     49  C   UNL     1       7.412  -9.378   3.354  1.00  0.00     0.049 A 
ATOM     50  H   UNL     1       6.851  -9.386   5.358  1.00  0.00     0.167 HD
ATOM     51  C   UNL     1       5.823  -9.296   9.616  1.00  0.00     0.037 A 
ATOM     52  C   UNL     1       7.173 -10.616   2.878  1.00  0.00     0.037 A 
ATOM     53  C   UNL     1       5.459 -10.616   9.175  1.00  0.00     0.049 A 
ATOM     54  C   UNL     1       6.613 -11.670   3.800  1.00  0.00     0.074 A 
ATOM     55  C   UNL     1       4.862 -11.634   9.897  1.00  0.00     0.029 A 
ATOM     56  N   UNL     1       5.671 -11.105   7.894  1.00  0.00    -0.354 N 
ATOM     57  N   UNL     1       6.278 -11.574   5.064  1.00  0.00    -0.248 NA
ATOM     58  C   UNL     1       6.399 -13.006   3.225  1.00  0.00     0.031 C 
ATOM     59  C   UNL     1       4.761 -12.756   9.068  1.00  0.00     0.029 A 
ATOM     60  C   UNL     1       5.243 -12.420   7.813  1.00  0.00     0.049 A 
ATOM     61  H   UNL     1       6.068 -10.594   7.153  1.00  0.00     0.167 HD
ATOM     62  C   UNL     1       5.786 -12.822   5.426  1.00  0.00     0.074 A 
ATOM     63  C   UNL     1       5.858 -13.657   4.246  1.00  0.00     0.031 C 
ATOM     64  C   UNL     1       5.313 -13.238   6.628  1.00  0.00     0.037 A 
BRANCH  51  65
ATOM     65  C   UNL     1       5.593  -8.932  11.053  1.00  0.00     0.064 A 
ATOM     66  C   UNL     1       4.613  -8.002  11.431  1.00  0.00     0.173 A 
ATOM     67  C   UNL     1       6.359  -9.527  12.066  1.00  0.00     0.173 A 
ATOM     68  F   UNL     1       3.866  -7.392  10.499  1.00  0.00    -0.203 F 
ATOM     69  C   UNL     1       4.430  -7.658  12.768  1.00  0.00     0.198 A 
ATOM     70  C   UNL     1       6.153  -9.204  13.405  1.00  0.00     0.198 A 
ATOM     71  F   UNL     1       7.309 -10.424  11.759  1.00  0.00    -0.203 F 
ATOM     72  F   UNL     1       3.526  -6.727  13.101  1.00  0.00    -0.200 F 
ATOM     73  C   UNL     1       5.196  -8.263  13.754  1.00  0.00     0.200 A 
ATOM     74  F   UNL     1       6.887  -9.796  14.356  1.00  0.00    -0.200 F 
ATOM     75  F   UNL     1       5.018  -7.932  15.040  1.00  0.00    -0.200 F 
ENDBRANCH  51  65
BRANCH  52  76
ATOM     76  C   UNL     1       7.465 -10.932   1.456  1.00  0.00     0.064 A 
ATOM     77  C   UNL     1       6.429 -11.183   0.546  1.00  0.00     0.173 A 
ATOM     78  C   UNL     1       8.783 -11.006   0.983  1.00  0.00     0.173 A 
ATOM     79  F   UNL     1       5.154 -11.151   0.958  1.00  0.00    -0.203 F 
ATOM     80  C   UNL     1       6.702 -11.509  -0.781  1.00  0.00     0.198 A 
ATOM     81  C   UNL     1       9.053 -11.306  -0.350  1.00  0.00     0.198 A 
ATOM     82  F   UNL     1       9.809 -10.780   1.816  1.00  0.00    -0.203 F 
ATOM     83  F   UNL     1       5.694 -11.786  -1.620  1.00  0.00    -0.200 F 
ATOM     84  C   UNL     1       8.013 -11.564  -1.230  1.00  0.00     0.200 A 
ATOM     85  F   UNL     1      10.321 -11.350  -0.781  1.00  0.00    -0.200 F 
ATOM     86  F   UNL     1       8.274 -11.874  -2.507  1.00  0.00    -0.200 F 
ENDBRANCH  52  76
BRANCH  64  87
ATOM     87  C   UNL     1       4.796 -14.645   6.721  1.00  0.00     0.064 A 
ATOM     88  C   UNL     1       5.658 -15.752   6.701  1.00  0.00     0.173 A 
ATOM     89  C   UNL     1       3.422 -14.886   6.881  1.00  0.00     0.173 A 
ATOM     90  F   UNL     1       6.977 -15.577   6.536  1.00  0.00    -0.203 F 
ATOM     91  C   UNL     1       5.160 -17.048   6.814  1.00  0.00     0.198 A 
ATOM     92  C   UNL     1       2.932 -16.181   7.024  1.00  0.00     0.198 A 
ATOM     93  F   UNL     1       2.556 -13.862   6.915  1.00  0.00    -0.203 F 
ATOM     94  F   UNL     1       5.997 -18.093   6.747  1.00  0.00    -0.200 F 
ATOM     95  C   UNL     1       3.800 -17.261   6.984  1.00  0.00     0.200 A 
ATOM     96  F   UNL     1       1.620 -16.383   7.203  1.00  0.00    -0.200 F 
ATOM     97  F   UNL     1       3.325 -18.508   7.101  1.00  0.00    -0.200 F 
ENDBRANCH  64  87
ENDBRANCH  38  39
ENDBRANCH  31  33
ENDBRANCH  30  31
ENDBRANCH  29  30
ENDBRANCH  28  29
ENDBRANCH  27  28
ENDBRANCH  26  27
ENDBRANCH   1  26
TORSDOF 19
