REMARK SMILES CC(C)Cc1noc(CCCCC(=O)OCCOCCOCCOC(=O)c2ccc(-c3c4nc(c(-c5c(F)c(F)c(F)c(F)c5F)c5ccc([nH]5)c(-c5c(F)c(F)c(F)c(F)c5F)c5nc(c(-c6c(F)c(F)c(F)c(F)c6F)c6ccc3[nH]6)C=C5)C=C4)cc2)n1
REMARK SMILES IDX 17 1 16 2 15 3 13 4 14 5 12 6 11 7 10 8 9 9 8 10 5 11 6 12
REMARK SMILES IDX 90 13 7 14 4 15 2 16 1 17 3 18 18 19 19 20 20 21 21 22 22 23
REMARK SMILES IDX 23 24 24 25 25 26 26 27 27 28 28 29 89 30 29 31 88 32 30 33
REMARK SMILES IDX 31 34 32 35 82 36 33 37 87 38 81 39 83 40 34 41 86 42 80 43
REMARK SMILES IDX 79 44 35 46 67 47 47 48 66 49 48 50 51 51 65 52 84 53 49 54
REMARK SMILES IDX 50 55 64 57 85 58 52 59 36 60 37 61 45 62 38 63 39 64 43 65
REMARK SMILES IDX 46 66 40 67 41 68 44 69 42 70 68 71 69 72 77 73 70 74 71 75
REMARK SMILES IDX 75 76 78 77 72 78 73 79 76 80 74 81 53 82 54 83 62 84 55 85
REMARK SMILES IDX 56 86 60 87 63 88 57 89 58 90 61 91 59 92
REMARK H PARENT 83 45 51 56
REMARK Flexibility Score: inf
ROOT
ATOM      1  C   UNL     1      -2.248  -7.734   5.689  1.00  0.00     0.202 C 
ENDROOT
BRANCH   1   2
ATOM      2  C   UNL     1      -2.734  -7.050   4.402  1.00  0.00     0.261 C 
BRANCH   2   3
ATOM      3  O   UNL     1      -2.474  -5.633   4.369  1.00  0.00    -0.463 OA
BRANCH   3   4
ATOM      4  C   UNL     1      -3.560  -4.824   4.271  1.00  0.00     0.305 C 
ATOM      5  O   UNL     1      -4.708  -5.208   4.084  1.00  0.00    -0.252 OA
BRANCH   4   6
ATOM      6  C   UNL     1      -3.246  -3.360   4.521  1.00  0.00     0.123 C 
BRANCH   6   7
ATOM      7  C   UNL     1      -1.788  -2.901   4.508  1.00  0.00     0.012 C 
BRANCH   7   8
ATOM      8  C   UNL     1      -0.969  -3.250   3.260  1.00  0.00     0.010 C 
BRANCH   8   9
ATOM      9  C   UNL     1      -1.690  -3.061   1.924  1.00  0.00     0.100 C 
BRANCH   9  10
ATOM     10  C   UNL     1      -1.824  -1.635   1.559  1.00  0.00     0.226 A 
ATOM     11  C   UNL     1      -1.528   0.306   0.870  1.00  0.00     0.172 A 
ATOM     12  N   UNL     1      -2.330   0.486   1.927  1.00  0.00    -0.063 NA
ATOM     13  N   UNL     1      -1.250  -0.999   0.570  1.00  0.00    -0.196 NA
ATOM     14  O   UNL     1      -2.542  -0.819   2.384  1.00  0.00    -0.339 OA
BRANCH  11  15
ATOM     15  C   UNL     1      -0.925   1.419   0.097  1.00  0.00     0.084 C 
BRANCH  15  16
ATOM     16  C   UNL     1       0.615   1.481   0.200  1.00  0.00    -0.010 C 
ATOM     17  C   UNL     1       1.314   0.186  -0.233  1.00  0.00     0.008 C 
ATOM     18  C   UNL     1       1.134   2.638  -0.657  1.00  0.00     0.008 C 
ENDBRANCH  15  16
ENDBRANCH  11  15
ENDBRANCH   9  10
ENDBRANCH   8   9
ENDBRANCH   7   8
ENDBRANCH   6   7
ENDBRANCH   4   6
ENDBRANCH   3   4
ENDBRANCH   2   3
ENDBRANCH   1   2
BRANCH   1  19
ATOM     19  O   UNL     1      -2.686  -7.159   6.920  1.00  0.00    -0.376 OA
BRANCH  19  20
ATOM     20  C   UNL     1      -2.249  -5.834   7.200  1.00  0.00     0.188 C 
BRANCH  20  21
ATOM     21  C   UNL     1      -0.739  -5.604   7.218  1.00  0.00     0.188 C 
BRANCH  21  22
ATOM     22  O   UNL     1      -0.014  -6.112   6.109  1.00  0.00    -0.376 OA
BRANCH  22  23
ATOM     23  C   UNL     1       1.413  -6.000   6.179  1.00  0.00     0.202 C 
BRANCH  23  24
ATOM     24  C   UNL     1       2.098  -6.461   7.487  1.00  0.00     0.261 C 
BRANCH  24  25
ATOM     25  O   UNL     1       1.689  -5.775   8.694  1.00  0.00    -0.460 OA
BRANCH  25  26
ATOM     26  C   UNL     1       1.727  -4.423   8.691  1.00  0.00     0.338 C 
ATOM     27  O   UNL     1       2.308  -3.721   7.879  1.00  0.00    -0.246 OA
BRANCH  26  28
ATOM     28  C   UNL     1       0.727  -3.900   9.668  1.00  0.00     0.060 A 
ATOM     29  C   UNL     1       0.005  -2.753   9.308  1.00  0.00     0.016 A 
ATOM     30  C   UNL     1       0.441  -4.537  10.881  1.00  0.00     0.016 A 
ATOM     31  C   UNL     1      -0.947  -2.209  10.174  1.00  0.00     0.010 A 
ATOM     32  C   UNL     1      -0.510  -3.984  11.756  1.00  0.00     0.010 A 
ATOM     33  C   UNL     1      -1.180  -2.791  11.426  1.00  0.00    -0.014 A 
BRANCH  33  34
ATOM     34  C   UNL     1      -1.969  -2.034  12.440  1.00  0.00     0.031 A 
ATOM     35  C   UNL     1      -1.227  -1.248  13.492  1.00  0.00     0.074 A 
ATOM     36  C   UNL     1      -3.313  -1.965  12.396  1.00  0.00     0.049 A 
ATOM     37  N   UNL     1      -1.690  -0.461  14.431  1.00  0.00    -0.248 NA
ATOM     38  C   UNL     1       0.239  -1.365  13.477  1.00  0.00     0.031 C 
ATOM     39  C   UNL     1      -4.164  -2.644  11.423  1.00  0.00     0.029 A 
ATOM     40  N   UNL     1      -4.197  -1.277  13.194  1.00  0.00    -0.354 N 
ATOM     41  C   UNL     1      -0.575   0.011  15.114  1.00  0.00     0.074 A 
ATOM     42  C   UNL     1       0.583  -0.611  14.510  1.00  0.00     0.031 C 
ATOM     43  C   UNL     1      -5.449  -2.337  11.679  1.00  0.00     0.029 A 
ATOM     44  C   UNL     1      -5.514  -1.457  12.846  1.00  0.00     0.049 A 
ATOM     45  H   UNL     1      -3.912  -0.708  13.945  1.00  0.00     0.167 HD
ATOM     46  C   UNL     1      -0.514   0.895  16.139  1.00  0.00     0.037 A 
ATOM     47  C   UNL     1      -6.642  -0.974  13.407  1.00  0.00     0.037 A 
ATOM     48  C   UNL     1      -1.659   1.518  16.752  1.00  0.00     0.049 A 
ATOM     49  C   UNL     1      -6.551  -0.042  14.592  1.00  0.00     0.074 A 
ATOM     50  C   UNL     1      -1.690   2.441  17.784  1.00  0.00     0.029 A 
ATOM     51  N   UNL     1      -2.978   1.272  16.401  1.00  0.00    -0.354 N 
ATOM     52  N   UNL     1      -5.491   0.430  15.201  1.00  0.00    -0.248 NA
ATOM     53  C   UNL     1      -7.824   0.433  15.158  1.00  0.00     0.031 C 
ATOM     54  C   UNL     1      -3.027   2.706  18.099  1.00  0.00     0.029 A 
ATOM     55  C   UNL     1      -3.830   2.002  17.217  1.00  0.00     0.049 A 
ATOM     56  H   UNL     1      -3.267   0.668  15.679  1.00  0.00     0.167 HD
ATOM     57  C   UNL     1      -5.966   1.276  16.199  1.00  0.00     0.074 A 
ATOM     58  C   UNL     1      -7.409   1.272  16.096  1.00  0.00     0.031 C 
ATOM     59  C   UNL     1      -5.268   1.991  17.117  1.00  0.00     0.037 A 
BRANCH  46  60
ATOM     60  C   UNL     1       0.846   1.223  16.687  1.00  0.00     0.064 A 
ATOM     61  C   UNL     1       1.779   1.973  15.954  1.00  0.00     0.173 A 
ATOM     62  C   UNL     1       1.211   0.804  17.976  1.00  0.00     0.173 A 
ATOM     63  F   UNL     1       1.487   2.385  14.711  1.00  0.00    -0.203 F 
ATOM     64  C   UNL     1       3.036   2.264  16.478  1.00  0.00     0.198 A 
ATOM     65  C   UNL     1       2.455   1.126  18.510  1.00  0.00     0.198 A 
ATOM     66  F   UNL     1       0.356   0.088  18.721  1.00  0.00    -0.203 F 
ATOM     67  F   UNL     1       3.930   2.934  15.738  1.00  0.00    -0.200 F 
ATOM     68  C   UNL     1       3.370   1.847  17.758  1.00  0.00     0.200 A 
ATOM     69  F   UNL     1       2.771   0.735  19.752  1.00  0.00    -0.200 F 
ATOM     70  F   UNL     1       4.577   2.134  18.264  1.00  0.00    -0.200 F 
ENDBRANCH  46  60
BRANCH  47  71
ATOM     71  C   UNL     1      -7.972  -1.363  12.863  1.00  0.00     0.064 A 
ATOM     72  C   UNL     1      -8.814  -0.422  12.252  1.00  0.00     0.173 A 
ATOM     73  C   UNL     1      -8.448  -2.677  12.984  1.00  0.00     0.173 A 
ATOM     74  F   UNL     1      -8.422   0.856  12.144  1.00  0.00    -0.203 F 
ATOM     75  C   UNL     1     -10.086  -0.775  11.805  1.00  0.00     0.198 A 
ATOM     76  C   UNL     1      -9.706  -3.037  12.506  1.00  0.00     0.198 A 
ATOM     77  F   UNL     1      -7.689  -3.614  13.570  1.00  0.00    -0.203 F 
ATOM     78  F   UNL     1     -10.892   0.158  11.280  1.00  0.00    -0.200 F 
ATOM     79  C   UNL     1     -10.529  -2.083  11.925  1.00  0.00     0.200 A 
ATOM     80  F   UNL     1     -10.127  -4.304  12.619  1.00  0.00    -0.200 F 
ATOM     81  F   UNL     1     -11.752  -2.422  11.495  1.00  0.00    -0.200 F 
ENDBRANCH  47  71
BRANCH  59  82
ATOM     82  C   UNL     1      -6.056   2.857  18.065  1.00  0.00     0.064 A 
ATOM     83  C   UNL     1      -6.893   2.308  19.049  1.00  0.00     0.173 A 
ATOM     84  C   UNL     1      -5.969   4.256  17.991  1.00  0.00     0.173 A 
ATOM     85  F   UNL     1      -7.022   0.977  19.161  1.00  0.00    -0.203 F 
ATOM     86  C   UNL     1      -7.649   3.125  19.887  1.00  0.00     0.198 A 
ATOM     87  C   UNL     1      -6.697   5.070  18.856  1.00  0.00     0.198 A 
ATOM     88  F   UNL     1      -5.175   4.838  17.080  1.00  0.00    -0.203 F 
ATOM     89  F   UNL     1      -8.496   2.576  20.769  1.00  0.00    -0.200 F 
ATOM     90  C   UNL     1      -7.548   4.505  19.793  1.00  0.00     0.200 A 
ATOM     91  F   UNL     1      -6.583   6.403  18.775  1.00  0.00    -0.200 F 
ATOM     92  F   UNL     1      -8.279   5.289  20.597  1.00  0.00    -0.200 F 
ENDBRANCH  59  82
ENDBRANCH  33  34
ENDBRANCH  26  28
ENDBRANCH  25  26
ENDBRANCH  24  25
ENDBRANCH  23  24
ENDBRANCH  22  23
ENDBRANCH  21  22
ENDBRANCH  20  21
ENDBRANCH  19  20
ENDBRANCH   1  19
TORSDOF 23
