REMARK SMILES Cc1cc(C[N@@H+]2CC[C@@H](C(=O)OCCOCCOCCOC(=O)c3ccc(-c4c5nc(c(-c6c(F)c(F)c(F)c(F)c6F)c6ccc([nH]6)c(-c6c(F)c(F)c(F)c(F)c6F)c6nc(c(-c7c(F)c(F)c(F)c(F)c7F)c7ccc4[nH]7)C=C6)C=C5)cc3)C2)ccc1Br
REMARK SMILES IDX 16 1 15 2 14 3 13 4 12 5 10 6 11 7 9 8 6 9 7 10 87 11 8 13
REMARK SMILES IDX 5 14 4 15 1 16 2 17 3 18 90 19 89 20 91 21 88 22 17 23 18 24
REMARK SMILES IDX 19 25 20 26 21 27 22 28 23 29 24 30 25 31 86 32 26 33 85 34
REMARK SMILES IDX 27 35 28 36 29 37 79 38 30 39 84 40 78 41 80 42 31 43 83 44
REMARK SMILES IDX 77 45 76 46 32 48 64 49 44 50 63 51 45 52 48 53 62 54 81 55
REMARK SMILES IDX 46 56 47 57 61 59 82 60 49 61 33 62 34 63 42 64 35 65 36 66
REMARK SMILES IDX 40 67 43 68 37 69 38 70 41 71 39 72 65 73 66 74 74 75 67 76
REMARK SMILES IDX 68 77 72 78 75 79 69 80 70 81 73 82 71 83 50 84 51 85 59 86
REMARK SMILES IDX 52 87 53 88 57 89 60 90 54 91 55 92 58 93 56 94
REMARK H PARENT 6 12 80 47 48 58
REMARK Flexibility Score: inf
ROOT
ATOM      1  C   UNL     1       4.141   1.214  -6.257  1.00  0.00     0.188 C 
ENDROOT
BRANCH   1   2
ATOM      2  O   UNL     1       3.800   2.307  -7.097  1.00  0.00    -0.376 OA
BRANCH   2   3
ATOM      3  C   UNL     1       4.313   3.583  -6.729  1.00  0.00     0.202 C 
BRANCH   3   4
ATOM      4  C   UNL     1       3.786   4.196  -5.425  1.00  0.00     0.261 C 
BRANCH   4   5
ATOM      5  O   UNL     1       3.948   3.389  -4.243  1.00  0.00    -0.463 OA
BRANCH   5   6
ATOM      6  C   UNL     1       2.807   2.824  -3.753  1.00  0.00     0.314 C 
ATOM      7  O   UNL     1       1.716   2.853  -4.311  1.00  0.00    -0.252 OA
BRANCH   6   8
ATOM      8  C   UNL     1       2.998   2.201  -2.391  1.00  0.00     0.159 C 
ATOM      9  N   UNL     1       4.723   1.440  -0.922  1.00  0.00    -0.330 N 
ATOM     10  C   UNL     1       4.540   2.864  -0.652  1.00  0.00     0.263 C 
ATOM     11  C   UNL     1       4.143   1.204  -2.250  1.00  0.00     0.278 C 
ATOM     12  H   UNL     1       5.714   1.198  -0.942  1.00  0.00     0.348 HD
ATOM     13  C   UNL     1       3.267   3.292  -1.363  1.00  0.00     0.082 C 
BRANCH   9  14
ATOM     14  C   UNL     1       4.319   0.530   0.160  1.00  0.00     0.299 C 
BRANCH  14  15
ATOM     15  C   UNL     1       2.838   0.291   0.375  1.00  0.00     0.007 A 
ATOM     16  C   UNL     1       0.312  -2.507  -0.218  1.00  0.00     0.045 C 
ATOM     17  C   UNL     1       0.873  -1.160   0.143  1.00  0.00    -0.036 A 
ATOM     18  C   UNL     1       2.256  -0.937   0.018  1.00  0.00     0.014 A 
ATOM     19  C   UNL     1       0.063  -0.103   0.579  1.00  0.00     0.020 A 
ATOM     20  C   UNL     1       0.635   1.100   0.995  1.00  0.00     0.016 A 
ATOM     21  Br  UNL     1      -1.831  -0.229   0.613  1.00  0.00    -0.051 Br
ATOM     22  C   UNL     1       2.018   1.275   0.935  1.00  0.00     0.011 A 
ENDBRANCH  14  15
ENDBRANCH   9  14
ENDBRANCH   6   8
ENDBRANCH   5   6
ENDBRANCH   4   5
ENDBRANCH   3   4
ENDBRANCH   2   3
ENDBRANCH   1   2
BRANCH   1  23
ATOM     23  C   UNL     1       5.628   0.932  -6.070  1.00  0.00     0.188 C 
BRANCH  23  24
ATOM     24  O   UNL     1       6.447   2.029  -5.689  1.00  0.00    -0.376 OA
BRANCH  24  25
ATOM     25  C   UNL     1       7.828   1.699  -5.474  1.00  0.00     0.202 C 
BRANCH  25  26
ATOM     26  C   UNL     1       8.560   1.026  -6.657  1.00  0.00     0.261 C 
BRANCH  26  27
ATOM     27  O   UNL     1       8.037  -0.257  -7.073  1.00  0.00    -0.460 OA
BRANCH  27  28
ATOM     28  C   UNL     1       7.855  -1.214  -6.133  1.00  0.00     0.338 C 
ATOM     29  O   UNL     1       8.324  -1.226  -5.008  1.00  0.00    -0.246 OA
BRANCH  28  30
ATOM     30  C   UNL     1       6.755  -2.111  -6.590  1.00  0.00     0.060 A 
ATOM     31  C   UNL     1       5.810  -2.548  -5.646  1.00  0.00     0.016 A 
ATOM     32  C   UNL     1       6.586  -2.442  -7.938  1.00  0.00     0.016 A 
ATOM     33  C   UNL     1       4.721  -3.336  -6.039  1.00  0.00     0.010 A 
ATOM     34  C   UNL     1       5.510  -3.246  -8.328  1.00  0.00     0.010 A 
ATOM     35  C   UNL     1       4.588  -3.724  -7.379  1.00  0.00    -0.014 A 
BRANCH  35  36
ATOM     36  C   UNL     1       3.654  -4.812  -7.770  1.00  0.00     0.031 A 
ATOM     37  C   UNL     1       4.209  -6.208  -7.853  1.00  0.00     0.074 A 
ATOM     38  C   UNL     1       2.364  -4.592  -8.079  1.00  0.00     0.049 A 
ATOM     39  N   UNL     1       3.664  -7.302  -8.319  1.00  0.00    -0.248 NA
ATOM     40  C   UNL     1       5.577  -6.386  -7.341  1.00  0.00     0.031 C 
ATOM     41  C   UNL     1       1.668  -3.314  -7.973  1.00  0.00     0.029 A 
ATOM     42  N   UNL     1       1.411  -5.457  -8.566  1.00  0.00    -0.354 N 
ATOM     43  C   UNL     1       4.628  -8.291  -8.176  1.00  0.00     0.074 A 
ATOM     44  C   UNL     1       5.798  -7.665  -7.597  1.00  0.00     0.031 C 
ATOM     45  C   UNL     1       0.401  -3.473  -8.397  1.00  0.00     0.029 A 
ATOM     46  C   UNL     1       0.211  -4.852  -8.851  1.00  0.00     0.049 A 
ATOM     47  H   UNL     1       1.574  -6.419  -8.698  1.00  0.00     0.167 HD
ATOM     48  C   UNL     1       4.551  -9.604  -8.498  1.00  0.00     0.037 A 
ATOM     49  C   UNL     1      -0.895  -5.348  -9.443  1.00  0.00     0.037 A 
ATOM     50  C   UNL     1       3.397 -10.230  -9.082  1.00  0.00     0.049 A 
ATOM     51  C   UNL     1      -0.917  -6.786  -9.909  1.00  0.00     0.074 A 
ATOM     52  C   UNL     1       3.223 -11.554  -9.443  1.00  0.00     0.029 A 
ATOM     53  N   UNL     1       2.221  -9.569  -9.404  1.00  0.00    -0.354 N 
ATOM     54  N   UNL     1      -0.005  -7.718  -9.774  1.00  0.00    -0.248 NA
ATOM     55  C   UNL     1      -2.123  -7.234 -10.624  1.00  0.00     0.031 C 
ATOM     56  C   UNL     1       1.963 -11.684 -10.034  1.00  0.00     0.029 A 
ATOM     57  C   UNL     1       1.328 -10.453  -9.987  1.00  0.00     0.049 A 
ATOM     58  H   UNL     1       2.047  -8.613  -9.243  1.00  0.00     0.167 HD
ATOM     59  C   UNL     1      -0.541  -8.867 -10.345  1.00  0.00     0.074 A 
ATOM     60  C   UNL     1      -1.857  -8.517 -10.833  1.00  0.00     0.031 C 
ATOM     61  C   UNL     1       0.008 -10.103 -10.447  1.00  0.00     0.037 A 
BRANCH  48  62
ATOM     62  C   UNL     1       5.778 -10.435  -8.265  1.00  0.00     0.064 A 
ATOM     63  C   UNL     1       6.222 -10.755  -6.973  1.00  0.00     0.173 A 
ATOM     64  C   UNL     1       6.525 -10.911  -9.353  1.00  0.00     0.173 A 
ATOM     65  F   UNL     1       5.554 -10.307  -5.899  1.00  0.00    -0.203 F 
ATOM     66  C   UNL     1       7.391 -11.486  -6.779  1.00  0.00     0.198 A 
ATOM     67  C   UNL     1       7.675 -11.670  -9.156  1.00  0.00     0.198 A 
ATOM     68  F   UNL     1       6.143 -10.635 -10.609  1.00  0.00    -0.203 F 
ATOM     69  F   UNL     1       7.833 -11.722  -5.536  1.00  0.00    -0.200 F 
ATOM     70  C   UNL     1       8.113 -11.947  -7.870  1.00  0.00     0.200 A 
ATOM     71  F   UNL     1       8.365 -12.124 -10.211  1.00  0.00    -0.200 F 
ATOM     72  F   UNL     1       9.240 -12.646  -7.682  1.00  0.00    -0.200 F 
ENDBRANCH  48  62
BRANCH  49  73
ATOM     73  C   UNL     1      -2.085  -4.480  -9.654  1.00  0.00     0.064 A 
ATOM     74  C   UNL     1      -3.280  -4.720  -8.960  1.00  0.00     0.173 A 
ATOM     75  C   UNL     1      -2.068  -3.422 -10.575  1.00  0.00     0.173 A 
ATOM     76  F   UNL     1      -3.358  -5.744  -8.097  1.00  0.00    -0.203 F 
ATOM     77  C   UNL     1      -4.414  -3.942  -9.186  1.00  0.00     0.198 A 
ATOM     78  C   UNL     1      -3.195  -2.629 -10.781  1.00  0.00     0.198 A 
ATOM     79  F   UNL     1      -0.957  -3.162 -11.278  1.00  0.00    -0.203 F 
ATOM     80  F   UNL     1      -5.556  -4.224  -8.545  1.00  0.00    -0.200 F 
ATOM     81  C   UNL     1      -4.369  -2.893 -10.092  1.00  0.00     0.200 A 
ATOM     82  F   UNL     1      -3.147  -1.615 -11.656  1.00  0.00    -0.200 F 
ATOM     83  F   UNL     1      -5.460  -2.147 -10.311  1.00  0.00    -0.200 F 
ENDBRANCH  49  73
BRANCH  61  84
ATOM     84  C   UNL     1      -0.826 -11.198 -11.049  1.00  0.00     0.064 A 
ATOM     85  C   UNL     1      -1.086 -11.262 -12.425  1.00  0.00     0.173 A 
ATOM     86  C   UNL     1      -1.306 -12.242 -10.242  1.00  0.00     0.173 A 
ATOM     87  F   UNL     1      -0.662 -10.283 -13.239  1.00  0.00    -0.203 F 
ATOM     88  C   UNL     1      -1.806 -12.325 -12.969  1.00  0.00     0.198 A 
ATOM     89  C   UNL     1      -1.999 -13.317 -10.793  1.00  0.00     0.198 A 
ATOM     90  F   UNL     1      -1.077 -12.234  -8.920  1.00  0.00    -0.203 F 
ATOM     91  F   UNL     1      -2.070 -12.350 -14.283  1.00  0.00    -0.200 F 
ATOM     92  C   UNL     1      -2.251 -13.355 -12.155  1.00  0.00     0.200 A 
ATOM     93  F   UNL     1      -2.414 -14.319 -10.006  1.00  0.00    -0.200 F 
ATOM     94  F   UNL     1      -2.927 -14.385 -12.683  1.00  0.00    -0.200 F 
ENDBRANCH  61  84
ENDBRANCH  35  36
ENDBRANCH  28  30
ENDBRANCH  27  28
ENDBRANCH  26  27
ENDBRANCH  25  26
ENDBRANCH  24  25
ENDBRANCH  23  24
ENDBRANCH   1  23
TORSDOF 19
