REMARK SMILES O=C(Cn1c(=O)[nH]c2ccccc2c1=O)NC[C@H]1CC[C@@H](C(=O)N2CCC(C(=O)OCCOCCOCCOC(=O)c3ccc(-c4c5nc(c(-c6c(F)c(F)c(F)c(F)c6F)c6ccc([nH]6)c(-c6c(F)c(F)c(F)c(F)c6F)c6nc(c(-c7c(F)c(F)c(F)c(F)c7F)c7ccc4[nH]7)C=C6)C=C5)cc3)CC2)CC1
REMARK SMILES IDX 33 1 32 2 31 3 30 4 28 5 29 6 27 7 22 8 23 9 24 10 25 11
REMARK SMILES IDX 106 12 26 13 105 14 21 15 18 16 19 17 108 18 20 19 107 20
REMARK SMILES IDX 17 21 16 22 1 23 2 24 3 26 4 27 5 28 14 29 6 30 7 31 13 32
REMARK SMILES IDX 15 33 8 34 12 36 9 37 11 38 10 39 34 40 35 41 36 42 37 43
REMARK SMILES IDX 38 44 39 45 40 46 41 47 42 48 43 49 104 50 44 51 103 52
REMARK SMILES IDX 45 53 46 54 47 55 97 56 48 57 102 58 96 59 98 60 49 61
REMARK SMILES IDX 101 62 95 63 94 64 50 66 82 67 62 68 81 69 63 70 66 71 80 72
REMARK SMILES IDX 99 73 64 74 65 75 79 77 100 78 67 79 51 80 52 81 60 82 53 83
REMARK SMILES IDX 54 84 58 85 61 86 55 87 56 88 59 89 57 90 83 91 84 92 92 93
REMARK SMILES IDX 85 94 86 95 90 96 93 97 87 98 88 99 91 100 89 101 68 102
REMARK SMILES IDX 69 103 77 104 70 105 71 106 75 107 78 108 72 109 73 110
REMARK SMILES IDX 76 111 74 112
REMARK H PARENT 16 25 7 35 98 65 66 76
REMARK Flexibility Score: inf
ROOT
ATOM      1  O   UNL     1      -2.952  -0.998   8.898  1.00  0.00    -0.376 OA
ENDROOT
BRANCH   1   2
ATOM      2  C   UNL     1      -3.401  -2.297   9.279  1.00  0.00     0.202 C 
BRANCH   2   3
ATOM      3  C   UNL     1      -3.447  -3.361   8.175  1.00  0.00     0.261 C 
BRANCH   3   4
ATOM      4  O   UNL     1      -2.179  -3.609   7.541  1.00  0.00    -0.463 OA
BRANCH   4   5
ATOM      5  C   UNL     1      -2.078  -3.178   6.259  1.00  0.00     0.309 C 
ATOM      6  O   UNL     1      -2.970  -2.613   5.635  1.00  0.00    -0.252 OA
BRANCH   5   7
ATOM      7  C   UNL     1      -0.716  -3.412   5.641  1.00  0.00     0.103 C 
ATOM      8  C   UNL     1       2.405  -5.849   4.069  1.00  0.00     0.225 C 
ATOM      9  O   UNL     1       2.978  -6.530   4.930  1.00  0.00    -0.275 OA
ATOM     10  N   UNL     1       1.477  -4.898   4.457  1.00  0.00    -0.342 N 
ATOM     11  C   UNL     1       1.673  -4.210   5.738  1.00  0.00     0.120 C 
ATOM     12  C   UNL     1       0.361  -4.454   3.650  1.00  0.00     0.120 C 
ATOM     13  C   UNL     1       0.382  -3.992   6.534  1.00  0.00     0.037 C 
ATOM     14  C   UNL     1      -0.922  -4.329   4.443  1.00  0.00     0.037 C 
BRANCH   8  15
ATOM     15  C   UNL     1       2.960  -5.919   2.621  1.00  0.00     0.078 C 
ATOM     16  C   UNL     1       2.909  -3.244   1.232  1.00  0.00     0.008 C 
ATOM     17  C   UNL     1       3.815  -3.557   2.430  1.00  0.00     0.006 C 
ATOM     18  C   UNL     1       1.858  -4.315   0.882  1.00  0.00     0.006 C 
ATOM     19  C   UNL     1       4.200  -5.023   2.525  1.00  0.00     0.014 C 
ATOM     20  C   UNL     1       2.115  -5.746   1.362  1.00  0.00     0.014 C 
BRANCH  16  21
ATOM     21  C   UNL     1       2.238  -1.865   1.435  1.00  0.00     0.119 C 
BRANCH  21  22
ATOM     22  N   UNL     1       2.886  -0.856   0.635  1.00  0.00    -0.354 N 
ATOM     23  O   UNL     1       0.973  -0.014  -0.309  1.00  0.00    -0.273 OA
ATOM     24  C   UNL     1       2.196  -0.003  -0.201  1.00  0.00     0.240 C 
ATOM     25  H   UNL     1       3.865  -0.771   0.688  1.00  0.00     0.163 HD
BRANCH  24  26
ATOM     26  C   UNL     1       3.095   0.878  -1.067  1.00  0.00     0.230 C 
BRANCH  26  27
ATOM     27  N   UNL     1       3.826   1.860  -0.273  1.00  0.00    -0.250 N 
ATOM     28  C   UNL     1       4.960   1.445   0.399  1.00  0.00     0.329 A 
ATOM     29  C   UNL     1       3.342   3.165  -0.254  1.00  0.00     0.264 A 
ATOM     30  O   UNL     1       5.352   0.277   0.417  1.00  0.00    -0.248 OA
ATOM     31  N   UNL     1       5.650   2.388   1.099  1.00  0.00    -0.307 N 
ATOM     32  C   UNL     1       4.146   4.160   0.482  1.00  0.00     0.064 A 
ATOM     33  O   UNL     1       2.318   3.528  -0.826  1.00  0.00    -0.268 OA
ATOM     34  C   UNL     1       5.288   3.730   1.149  1.00  0.00     0.055 A 
ATOM     35  H   UNL     1       6.449   2.103   1.599  1.00  0.00     0.171 HD
ATOM     36  C   UNL     1       3.787   5.511   0.500  1.00  0.00     0.016 A 
ATOM     37  C   UNL     1       6.076   4.638   1.854  1.00  0.00     0.027 A 
ATOM     38  C   UNL     1       4.581   6.425   1.193  1.00  0.00     0.001 A 
ATOM     39  C   UNL     1       5.721   5.989   1.871  1.00  0.00     0.002 A 
ENDBRANCH  26  27
ENDBRANCH  24  26
ENDBRANCH  21  22
ENDBRANCH  16  21
ENDBRANCH   8  15
ENDBRANCH   5   7
ENDBRANCH   4   5
ENDBRANCH   3   4
ENDBRANCH   2   3
ENDBRANCH   1   2
BRANCH   1  40
ATOM     40  C   UNL     1      -1.586  -0.871   8.527  1.00  0.00     0.188 C 
BRANCH  40  41
ATOM     41  C   UNL     1      -0.551  -1.315   9.558  1.00  0.00     0.188 C 
BRANCH  41  42
ATOM     42  O   UNL     1      -0.672  -2.652  10.026  1.00  0.00    -0.376 OA
BRANCH  42  43
ATOM     43  C   UNL     1       0.397  -3.100  10.872  1.00  0.00     0.202 C 
BRANCH  43  44
ATOM     44  C   UNL     1       0.705  -2.227  12.107  1.00  0.00     0.261 C 
BRANCH  44  45
ATOM     45  O   UNL     1       1.128  -0.877  11.814  1.00  0.00    -0.460 OA
BRANCH  45  46
ATOM     46  C   UNL     1       2.176  -0.700  10.974  1.00  0.00     0.338 C 
ATOM     47  O   UNL     1       2.978  -1.548  10.626  1.00  0.00    -0.246 OA
BRANCH  46  48
ATOM     48  C   UNL     1       2.011   0.625  10.307  1.00  0.00     0.060 A 
ATOM     49  C   UNL     1       1.385   1.702  10.947  1.00  0.00     0.016 A 
ATOM     50  C   UNL     1       2.380   0.744   8.959  1.00  0.00     0.016 A 
ATOM     51  C   UNL     1       1.151   2.892  10.248  1.00  0.00     0.010 A 
ATOM     52  C   UNL     1       2.142   1.933   8.259  1.00  0.00     0.010 A 
ATOM     53  C   UNL     1       1.542   3.024   8.904  1.00  0.00    -0.014 A 
BRANCH  53  54
ATOM     54  C   UNL     1       1.512   4.360   8.254  1.00  0.00     0.031 A 
ATOM     55  C   UNL     1       0.433   4.783   7.302  1.00  0.00     0.074 A 
ATOM     56  C   UNL     1       2.515   5.211   8.542  1.00  0.00     0.049 A 
ATOM     57  N   UNL     1       0.255   5.952   6.735  1.00  0.00    -0.248 NA
ATOM     58  C   UNL     1      -0.564   3.773   6.928  1.00  0.00     0.031 C 
ATOM     59  C   UNL     1       3.638   4.905   9.428  1.00  0.00     0.029 A 
ATOM     60  N   UNL     1       2.751   6.498   8.131  1.00  0.00    -0.354 N 
ATOM     61  C   UNL     1      -0.890   5.831   5.959  1.00  0.00     0.074 A 
ATOM     62  C   UNL     1      -1.335   4.457   6.089  1.00  0.00     0.031 C 
ATOM     63  C   UNL     1       4.432   5.982   9.514  1.00  0.00     0.029 A 
ATOM     64  C   UNL     1       3.885   7.045   8.676  1.00  0.00     0.049 A 
ATOM     65  H   UNL     1       2.164   6.981   7.505  1.00  0.00     0.167 HD
ATOM     66  C   UNL     1      -1.516   6.785   5.225  1.00  0.00     0.037 A 
ATOM     67  C   UNL     1       4.425   8.270   8.530  1.00  0.00     0.037 A 
ATOM     68  C   UNL     1      -1.060   8.148   5.081  1.00  0.00     0.049 A 
ATOM     69  C   UNL     1       3.735   9.291   7.675  1.00  0.00     0.074 A 
ATOM     70  C   UNL     1      -1.663   9.191   4.396  1.00  0.00     0.029 A 
ATOM     71  N   UNL     1       0.115   8.656   5.614  1.00  0.00    -0.354 N 
ATOM     72  N   UNL     1       2.609   9.189   7.013  1.00  0.00    -0.248 NA
ATOM     73  C   UNL     1       4.387  10.603   7.553  1.00  0.00     0.031 C 
ATOM     74  C   UNL     1      -0.828  10.311   4.468  1.00  0.00     0.029 A 
ATOM     75  C   UNL     1       0.271   9.985   5.244  1.00  0.00     0.049 A 
ATOM     76  H   UNL     1       0.747   8.148   6.173  1.00  0.00     0.167 HD
ATOM     77  C   UNL     1       2.405  10.425   6.416  1.00  0.00     0.074 A 
ATOM     78  C   UNL     1       3.516  11.268   6.805  1.00  0.00     0.031 C 
ATOM     79  C   UNL     1       1.383  10.821   5.619  1.00  0.00     0.037 A 
BRANCH  66  80
ATOM     80  C   UNL     1      -2.790   6.411   4.522  1.00  0.00     0.064 A 
ATOM     81  C   UNL     1      -3.981   6.213   5.237  1.00  0.00     0.173 A 
ATOM     82  C   UNL     1      -2.853   6.369   3.120  1.00  0.00     0.173 A 
ATOM     83  F   UNL     1      -3.977   6.253   6.578  1.00  0.00    -0.203 F 
ATOM     84  C   UNL     1      -5.184   5.976   4.576  1.00  0.00     0.198 A 
ATOM     85  C   UNL     1      -4.062   6.156   2.462  1.00  0.00     0.198 A 
ATOM     86  F   UNL     1      -1.748   6.576   2.388  1.00  0.00    -0.203 F 
ATOM     87  F   UNL     1      -6.306   5.778   5.282  1.00  0.00    -0.200 F 
ATOM     88  C   UNL     1      -5.226   5.958   3.190  1.00  0.00     0.200 A 
ATOM     89  F   UNL     1      -4.106   6.167   1.122  1.00  0.00    -0.200 F 
ATOM     90  F   UNL     1      -6.390   5.759   2.556  1.00  0.00    -0.200 F 
ENDBRANCH  66  80
BRANCH  67  91
ATOM     91  C   UNL     1       5.671   8.601   9.263  1.00  0.00     0.064 A 
ATOM     92  C   UNL     1       5.645   9.475  10.358  1.00  0.00     0.173 A 
ATOM     93  C   UNL     1       6.899   8.024   8.911  1.00  0.00     0.173 A 
ATOM     94  F   UNL     1       4.495  10.063  10.718  1.00  0.00    -0.203 F 
ATOM     95  C   UNL     1       6.805   9.765  11.070  1.00  0.00     0.198 A 
ATOM     96  C   UNL     1       8.053   8.294   9.641  1.00  0.00     0.198 A 
ATOM     97  F   UNL     1       6.970   7.176   7.874  1.00  0.00    -0.203 F 
ATOM     98  F   UNL     1       6.761  10.627  12.095  1.00  0.00    -0.200 F 
ATOM     99  C   UNL     1       8.006   9.168  10.717  1.00  0.00     0.200 A 
ATOM    100  F   UNL     1       9.208   7.703   9.306  1.00  0.00    -0.200 F 
ATOM    101  F   UNL     1       9.120   9.436  11.412  1.00  0.00    -0.200 F 
ENDBRANCH  67  91
BRANCH  79 102
ATOM    102  C   UNL     1       1.410  12.233   5.107  1.00  0.00     0.064 A 
ATOM    103  C   UNL     1       2.323  12.637   4.122  1.00  0.00     0.173 A 
ATOM    104  C   UNL     1       0.484  13.180   5.572  1.00  0.00     0.173 A 
ATOM    105  F   UNL     1       3.240  11.775   3.657  1.00  0.00    -0.203 F 
ATOM    106  C   UNL     1       2.319  13.942   3.633  1.00  0.00     0.198 A 
ATOM    107  C   UNL     1       0.465  14.476   5.060  1.00  0.00     0.198 A 
ATOM    108  F   UNL     1      -0.412  12.845   6.511  1.00  0.00    -0.203 F 
ATOM    109  F   UNL     1       3.228  14.316   2.721  1.00  0.00    -0.200 F 
ATOM    110  C   UNL     1       1.386  14.857   4.096  1.00  0.00     0.200 A 
ATOM    111  F   UNL     1      -0.445  15.355   5.501  1.00  0.00    -0.200 F 
ATOM    112  F   UNL     1       1.378  16.108   3.617  1.00  0.00    -0.200 F 
ENDBRANCH  79 102
ENDBRANCH  53  54
ENDBRANCH  46  48
ENDBRANCH  45  46
ENDBRANCH  44  45
ENDBRANCH  43  44
ENDBRANCH  42  43
ENDBRANCH  41  42
ENDBRANCH  40  41
ENDBRANCH   1  40
TORSDOF 22
