REMARK SMILES [NH3+][C@H]1C=C[C@H](C(=O)N2CCCc3c(C(=O)OCCOCCOCCOC(=O)c4ccc(-c5c6nc(c(-c7c(F)c(F)c(F)c(F)c7F)c7ccc([nH]7)c(-c7c(F)c(F)c(F)c(F)c7F)c7nc(c(-c8c(F)c(F)c(F)c(F)c8F)c8ccc5[nH]8)C=C7)C=C6)cc4)cccc32)C1
REMARK SMILES IDX 20 1 19 2 18 3 17 4 16 5 14 6 15 7 13 8 8 9 9 10 94 11 10 12
REMARK SMILES IDX 12 13 93 14 11 15 92 16 91 17 6 18 7 19 5 20 2 21 3 22 95 23
REMARK SMILES IDX 4 24 1 25 21 29 22 30 23 31 24 32 25 33 26 34 27 35 28 36
REMARK SMILES IDX 29 37 90 38 30 39 89 40 31 41 32 42 33 43 83 44 34 45 88 46
REMARK SMILES IDX 82 47 84 48 35 49 87 50 81 51 80 52 36 54 68 55 48 56 67 57
REMARK SMILES IDX 49 58 52 59 66 60 85 61 50 62 51 63 65 65 86 66 53 67 37 68
REMARK SMILES IDX 38 69 46 70 39 71 40 72 44 73 47 74 41 75 42 76 45 77 43 78
REMARK SMILES IDX 69 79 70 80 78 81 71 82 72 83 76 84 79 85 73 86 74 87 77 88
REMARK SMILES IDX 75 89 54 90 55 91 63 92 56 93 57 94 61 95 64 96 58 97 59 98
REMARK SMILES IDX 62 99 60 100
REMARK H PARENT 1 26 1 27 1 28 84 53 52 64
REMARK Flexibility Score: inf
ROOT
ATOM      1  C   UNL     1      -6.865   5.898   6.832  1.00  0.00     0.188 C 
ENDROOT
BRANCH   1   2
ATOM      2  O   UNL     1      -8.152   5.579   7.349  1.00  0.00    -0.376 OA
BRANCH   2   3
ATOM      3  C   UNL     1      -8.777   4.361   6.947  1.00  0.00     0.202 C 
BRANCH   3   4
ATOM      4  C   UNL     1      -8.886   4.056   5.449  1.00  0.00     0.261 C 
BRANCH   4   5
ATOM      5  O   UNL     1      -7.601   4.015   4.808  1.00  0.00    -0.460 OA
BRANCH   5   6
ATOM      6  C   UNL     1      -7.480   4.719   3.660  1.00  0.00     0.338 C 
ATOM      7  O   UNL     1      -8.375   5.294   3.062  1.00  0.00    -0.246 OA
BRANCH   6   8
ATOM      8  C   UNL     1      -6.046   4.896   3.309  1.00  0.00     0.065 A 
ATOM      9  N   UNL     1      -2.890   3.080   2.406  1.00  0.00    -0.312 N 
ATOM     10  C   UNL     1      -3.400   1.719   2.425  1.00  0.00     0.126 C 
ATOM     11  C   UNL     1      -3.800   4.138   2.748  1.00  0.00     0.048 A 
ATOM     12  C   UNL     1      -4.304   1.484   3.614  1.00  0.00     0.027 C 
ATOM     13  C   UNL     1      -5.108   3.841   3.203  1.00  0.00    -0.010 A 
ATOM     14  C   UNL     1      -3.431   5.480   2.545  1.00  0.00     0.027 A 
ATOM     15  C   UNL     1      -5.494   2.425   3.559  1.00  0.00     0.040 C 
ATOM     16  C   UNL     1      -4.346   6.516   2.718  1.00  0.00     0.003 A 
ATOM     17  C   UNL     1      -5.656   6.222   3.067  1.00  0.00     0.016 A 
BRANCH   9  18
ATOM     18  C   UNL     1      -1.543   3.328   2.132  1.00  0.00     0.234 C 
ATOM     19  O   UNL     1      -0.846   4.002   2.897  1.00  0.00    -0.274 OA
BRANCH  18  20
ATOM     20  C   UNL     1      -1.049   2.928   0.717  1.00  0.00     0.108 C 
ATOM     21  C   UNL     1       0.572   1.107   0.762  1.00  0.00     0.205 C 
ATOM     22  C   UNL     1       1.252   2.412   0.534  1.00  0.00     0.033 C 
ATOM     23  C   UNL     1      -0.874   1.445   0.378  1.00  0.00     0.087 C 
ATOM     24  C   UNL     1       0.366   3.416   0.501  1.00  0.00    -0.012 C 
BRANCH  21  25
ATOM     25  N   UNL     1       1.100   0.038  -0.062  1.00  0.00    -0.352 N 
ATOM     26  H   UNL     1       2.060  -0.164   0.217  1.00  0.00     0.345 HD
ATOM     27  H   UNL     1       1.083   0.323  -1.041  1.00  0.00     0.345 HD
ATOM     28  H   UNL     1       0.528  -0.798   0.059  1.00  0.00     0.345 HD
ENDBRANCH  21  25
ENDBRANCH  18  20
ENDBRANCH   9  18
ENDBRANCH   6   8
ENDBRANCH   5   6
ENDBRANCH   4   5
ENDBRANCH   3   4
ENDBRANCH   2   3
ENDBRANCH   1   2
BRANCH   1  29
ATOM     29  C   UNL     1      -5.715   4.875   6.963  1.00  0.00     0.188 C 
BRANCH  29  30
ATOM     30  O   UNL     1      -6.079   3.631   7.507  1.00  0.00    -0.376 OA
BRANCH  30  31
ATOM     31  C   UNL     1      -5.947   3.382   8.895  1.00  0.00     0.202 C 
BRANCH  31  32
ATOM     32  C   UNL     1      -5.838   4.452  10.000  1.00  0.00     0.261 C 
BRANCH  32  33
ATOM     33  O   UNL     1      -5.739   5.822   9.611  1.00  0.00    -0.460 OA
BRANCH  33  34
ATOM     34  C   UNL     1      -4.492   6.351   9.625  1.00  0.00     0.338 C 
ATOM     35  O   UNL     1      -3.448   5.785   9.886  1.00  0.00    -0.246 OA
BRANCH  34  36
ATOM     36  C   UNL     1      -4.565   7.731   9.108  1.00  0.00     0.060 A 
ATOM     37  C   UNL     1      -3.874   8.039   7.930  1.00  0.00     0.016 A 
ATOM     38  C   UNL     1      -5.265   8.718   9.805  1.00  0.00     0.016 A 
ATOM     39  C   UNL     1      -3.841   9.355   7.469  1.00  0.00     0.010 A 
ATOM     40  C   UNL     1      -5.216  10.039   9.351  1.00  0.00     0.010 A 
ATOM     41  C   UNL     1      -4.470  10.368   8.205  1.00  0.00    -0.014 A 
BRANCH  41  42
ATOM     42  C   UNL     1      -4.163  11.787   7.904  1.00  0.00     0.031 A 
ATOM     43  C   UNL     1      -3.076  12.462   8.695  1.00  0.00     0.074 A 
ATOM     44  C   UNL     1      -4.813  12.458   6.939  1.00  0.00     0.049 A 
ATOM     45  N   UNL     1      -2.648  13.698   8.641  1.00  0.00    -0.248 NA
ATOM     46  C   UNL     1      -2.378  11.627   9.687  1.00  0.00     0.031 C 
ATOM     47  C   UNL     1      -5.858  11.907   6.081  1.00  0.00     0.029 A 
ATOM     48  N   UNL     1      -4.687  13.762   6.526  1.00  0.00    -0.354 N 
ATOM     49  C   UNL     1      -1.637  13.787   9.590  1.00  0.00     0.074 A 
ATOM     50  C   UNL     1      -1.537  12.493  10.228  1.00  0.00     0.031 C 
ATOM     51  C   UNL     1      -6.290  12.872   5.248  1.00  0.00     0.029 A 
ATOM     52  C   UNL     1      -5.569  14.112   5.534  1.00  0.00     0.049 A 
ATOM     53  H   UNL     1      -4.028  14.386   6.906  1.00  0.00     0.167 HD
ATOM     54  C   UNL     1      -0.856  14.849   9.896  1.00  0.00     0.037 A 
ATOM     55  C   UNL     1      -5.776  15.303   4.941  1.00  0.00     0.037 A 
ATOM     56  C   UNL     1      -0.959  16.138   9.266  1.00  0.00     0.049 A 
ATOM     57  C   UNL     1      -4.935  16.489   5.343  1.00  0.00     0.074 A 
ATOM     58  C   UNL     1      -0.211  17.278   9.504  1.00  0.00     0.029 A 
ATOM     59  N   UNL     1      -1.875  16.459   8.276  1.00  0.00    -0.354 N 
ATOM     60  N   UNL     1      -3.965  16.561   6.223  1.00  0.00    -0.248 NA
ATOM     61  C   UNL     1      -5.213  17.760   4.658  1.00  0.00     0.031 C 
ATOM     62  C   UNL     1      -0.706  18.303   8.689  1.00  0.00     0.029 A 
ATOM     63  C   UNL     1      -1.723  17.785   7.903  1.00  0.00     0.049 A 
ATOM     64  H   UNL     1      -2.535  15.837   7.894  1.00  0.00     0.167 HD
ATOM     65  C   UNL     1      -3.495  17.868   6.170  1.00  0.00     0.074 A 
ATOM     66  C   UNL     1      -4.280  18.553   5.165  1.00  0.00     0.031 C 
ATOM     67  C   UNL     1      -2.501  18.448   6.887  1.00  0.00     0.037 A 
BRANCH  54  68
ATOM     68  C   UNL     1       0.163  14.663  10.982  1.00  0.00     0.064 A 
ATOM     69  C   UNL     1       1.305  13.870  10.793  1.00  0.00     0.173 A 
ATOM     70  C   UNL     1       0.003  15.299  12.222  1.00  0.00     0.173 A 
ATOM     71  F   UNL     1       1.496  13.226   9.631  1.00  0.00    -0.203 F 
ATOM     72  C   UNL     1       2.234  13.698  11.816  1.00  0.00     0.198 A 
ATOM     73  C   UNL     1       0.949  15.149  13.232  1.00  0.00     0.198 A 
ATOM     74  F   UNL     1      -1.071  16.069  12.453  1.00  0.00    -0.203 F 
ATOM     75  F   UNL     1       3.291  12.895  11.631  1.00  0.00    -0.200 F 
ATOM     76  C   UNL     1       2.059  14.343  13.031  1.00  0.00     0.200 A 
ATOM     77  F   UNL     1       0.784  15.781  14.402  1.00  0.00    -0.200 F 
ATOM     78  F   UNL     1       2.957  14.180  14.013  1.00  0.00    -0.200 F 
ENDBRANCH  54  68
BRANCH  55  79
ATOM     79  C   UNL     1      -6.828  15.445   3.900  1.00  0.00     0.064 A 
ATOM     80  C   UNL     1      -6.492  15.689   2.561  1.00  0.00     0.173 A 
ATOM     81  C   UNL     1      -8.190  15.373   4.228  1.00  0.00     0.173 A 
ATOM     82  F   UNL     1      -5.204  15.795   2.202  1.00  0.00    -0.203 F 
ATOM     83  C   UNL     1      -7.478  15.879   1.594  1.00  0.00     0.198 A 
ATOM     84  C   UNL     1      -9.174  15.534   3.256  1.00  0.00     0.198 A 
ATOM     85  F   UNL     1      -8.564  15.146   5.496  1.00  0.00    -0.203 F 
ATOM     86  F   UNL     1      -7.129  16.165   0.332  1.00  0.00    -0.200 F 
ATOM     87  C   UNL     1      -8.818  15.796   1.941  1.00  0.00     0.200 A 
ATOM     88  F   UNL     1     -10.468  15.447   3.594  1.00  0.00    -0.200 F 
ATOM     89  F   UNL     1      -9.766  15.982   1.012  1.00  0.00    -0.200 F 
ENDBRANCH  55  79
BRANCH  67  90
ATOM     90  C   UNL     1      -2.163  19.878   6.571  1.00  0.00     0.064 A 
ATOM     91  C   UNL     1      -3.019  20.935   6.911  1.00  0.00     0.173 A 
ATOM     92  C   UNL     1      -0.946  20.194   5.947  1.00  0.00     0.173 A 
ATOM     93  F   UNL     1      -4.199  20.686   7.498  1.00  0.00    -0.203 F 
ATOM     94  C   UNL     1      -2.685  22.253   6.608  1.00  0.00     0.198 A 
ATOM     95  C   UNL     1      -0.601  21.515   5.674  1.00  0.00     0.198 A 
ATOM     96  F   UNL     1      -0.086  19.221   5.609  1.00  0.00    -0.203 F 
ATOM     97  F   UNL     1      -3.543  23.242   6.893  1.00  0.00    -0.200 F 
ATOM     98  C   UNL     1      -1.474  22.542   5.996  1.00  0.00     0.200 A 
ATOM     99  F   UNL     1       0.577  21.793   5.097  1.00  0.00    -0.200 F 
ATOM    100  F   UNL     1      -1.153  23.811   5.708  1.00  0.00    -0.200 F 
ENDBRANCH  67  90
ENDBRANCH  41  42
ENDBRANCH  34  36
ENDBRANCH  33  34
ENDBRANCH  32  33
ENDBRANCH  31  32
ENDBRANCH  30  31
ENDBRANCH  29  30
ENDBRANCH   1  29
TORSDOF 20
