REMARK SMILES Cc1sc2nc3c(S[C@H](C)C(=O)OCCOCCOCCOC(=O)c4ccc(-c5c6nc(c(-c7c(F)c(F)c(F)c(F)c7F)c7ccc([nH]7)c(-c7c(F)c(F)c(F)c(F)c7F)c7nc(c(-c8c(F)c(F)c(F)c(F)c8F)c8ccc5[nH]8)C=C7)C=C6)cc4)cc(C(=O)c4ccccc4O)cn3c(=O)c2c1C
REMARK SMILES IDX 16 1 15 2 14 3 13 4 11 5 12 6 9 7 10 8 8 9 7 10 1 11 2 12
REMARK SMILES IDX 3 13 104 14 4 15 103 16 105 17 5 18 101 19 6 20 100 21
REMARK SMILES IDX 102 22 99 23 88 24 89 25 90 26 91 27 92 28 93 29 97 30 94 31
REMARK SMILES IDX 96 32 95 33 98 34 17 36 18 37 19 38 20 39 21 40 22 41 23 42
REMARK SMILES IDX 24 43 25 44 26 45 87 46 27 47 86 48 28 49 29 50 30 51 80 52
REMARK SMILES IDX 31 53 85 54 79 55 81 56 32 57 84 58 78 59 77 60 33 62 65 63
REMARK SMILES IDX 45 64 64 65 46 66 49 67 63 68 82 69 47 70 48 71 62 73 83 74
REMARK SMILES IDX 50 75 34 76 35 77 43 78 36 79 37 80 41 81 44 82 38 83 39 84
REMARK SMILES IDX 42 85 40 86 66 87 67 88 75 89 68 90 69 91 73 92 76 93 70 94
REMARK SMILES IDX 71 95 74 96 72 97 51 98 52 99 60 100 53 101 54 102 58 103
REMARK SMILES IDX 61 104 55 105 56 106 59 107 57 108
REMARK H PARENT 98 35 81 61 49 72
REMARK Flexibility Score: inf
ROOT
ATOM      1  O   UNL     1      -6.432  -0.344  -9.314  1.00  0.00    -0.376 OA
ENDROOT
BRANCH   1   2
ATOM      2  C   UNL     1      -5.887  -1.649  -9.532  1.00  0.00     0.202 C 
BRANCH   2   3
ATOM      3  C   UNL     1      -4.819  -1.759 -10.629  1.00  0.00     0.261 C 
BRANCH   3   4
ATOM      4  O   UNL     1      -3.589  -1.301 -10.047  1.00  0.00    -0.462 OA
BRANCH   4   5
ATOM      5  C   UNL     1      -2.714  -0.606 -10.826  1.00  0.00     0.319 C 
ATOM      6  O   UNL     1      -2.720  -0.623 -12.047  1.00  0.00    -0.251 OA
BRANCH   5   7
ATOM      7  C   UNL     1      -1.888   0.315  -9.915  1.00  0.00     0.158 C 
ATOM      8  C   UNL     1      -1.502  -0.382  -8.605  1.00  0.00     0.032 C 
BRANCH   7   9
ATOM      9  S   UNL     1      -0.581   1.190 -10.851  1.00  0.00    -0.107 SA
BRANCH   9  10
ATOM     10  C   UNL     1       0.861   0.869  -9.961  1.00  0.00     0.052 A 
ATOM     11  C   UNL     1      -0.819   3.620  -3.182  1.00  0.00     0.057 C 
ATOM     12  C   UNL     1      -0.136   3.145  -4.425  1.00  0.00     0.007 A 
ATOM     13  S   UNL     1      -0.908   3.384  -5.932  1.00  0.00    -0.120 S 
ATOM     14  C   UNL     1       1.092   2.507  -4.558  1.00  0.00    -0.022 A 
ATOM     15  C   UNL     1       0.309   2.540  -6.766  1.00  0.00     0.131 A 
ATOM     16  C   UNL     1       1.319   2.123  -5.933  1.00  0.00     0.080 A 
ATOM     17  C   UNL     1       1.999   2.220  -3.402  1.00  0.00     0.046 C 
ATOM     18  N   UNL     1       0.173   2.266  -8.083  1.00  0.00    -0.218 NA
ATOM     19  C   UNL     1       2.395   1.342  -6.531  1.00  0.00     0.266 A 
ATOM     20  C   UNL     1       1.056   1.450  -8.581  1.00  0.00     0.155 A 
ATOM     21  N   UNL     1       2.186   0.989  -7.880  1.00  0.00    -0.266 N 
ATOM     22  O   UNL     1       3.383   0.996  -5.886  1.00  0.00    -0.268 OA
ATOM     23  C   UNL     1       3.133   0.170  -8.504  1.00  0.00     0.108 A 
ATOM     24  C   UNL     1       1.774   0.035 -10.469  1.00  0.00     0.032 A 
ATOM     25  C   UNL     1       2.989  -0.280  -9.762  1.00  0.00     0.041 A 
BRANCH  25  26
ATOM     26  C   UNL     1       4.059  -1.178 -10.315  1.00  0.00     0.198 C 
ATOM     27  O   UNL     1       4.943  -1.653  -9.602  1.00  0.00    -0.288 OA
BRANCH  26  28
ATOM     28  C   UNL     1       3.988  -1.631 -11.724  1.00  0.00     0.064 A 
ATOM     29  C   UNL     1       3.731  -0.741 -12.776  1.00  0.00     0.016 A 
ATOM     30  C   UNL     1       4.135  -2.996 -11.996  1.00  0.00     0.126 A 
ATOM     31  C   UNL     1       3.514  -1.232 -14.065  1.00  0.00     0.001 A 
ATOM     32  C   UNL     1       3.918  -3.484 -13.281  1.00  0.00     0.047 A 
ATOM     33  C   UNL     1       3.590  -2.603 -14.312  1.00  0.00     0.004 A 
BRANCH  30  34
ATOM     34  O   UNL     1       4.475  -3.909 -11.035  1.00  0.00    -0.507 OA
ATOM     35  H   UNL     1       4.630  -3.627 -10.155  1.00  0.00     0.293 HD
ENDBRANCH  30  34
ENDBRANCH  26  28
ENDBRANCH  25  26
ENDBRANCH   9  10
ENDBRANCH   7   9
ENDBRANCH   5   7
ENDBRANCH   4   5
ENDBRANCH   3   4
ENDBRANCH   2   3
ENDBRANCH   1   2
BRANCH   1  36
ATOM     36  C   UNL     1      -5.520   0.724  -9.108  1.00  0.00     0.188 C 
BRANCH  36  37
ATOM     37  C   UNL     1      -4.797   0.848  -7.751  1.00  0.00     0.188 C 
BRANCH  37  38
ATOM     38  O   UNL     1      -4.822  -0.248  -6.856  1.00  0.00    -0.376 OA
BRANCH  38  39
ATOM     39  C   UNL     1      -6.061  -0.496  -6.184  1.00  0.00     0.202 C 
BRANCH  39  40
ATOM     40  C   UNL     1      -6.645   0.669  -5.371  1.00  0.00     0.261 C 
BRANCH  40  41
ATOM     41  O   UNL     1      -7.315   1.589  -6.253  1.00  0.00    -0.460 OA
BRANCH  41  42
ATOM     42  C   UNL     1      -6.997   2.901  -6.133  1.00  0.00     0.338 C 
ATOM     43  O   UNL     1      -6.333   3.435  -5.262  1.00  0.00    -0.246 OA
BRANCH  42  44
ATOM     44  C   UNL     1      -7.364   3.534  -7.413  1.00  0.00     0.060 A 
ATOM     45  C   UNL     1      -8.662   3.425  -7.903  1.00  0.00     0.016 A 
ATOM     46  C   UNL     1      -6.347   4.100  -8.195  1.00  0.00     0.016 A 
ATOM     47  C   UNL     1      -8.932   3.850  -9.200  1.00  0.00     0.010 A 
ATOM     48  C   UNL     1      -6.614   4.485  -9.510  1.00  0.00     0.010 A 
ATOM     49  C   UNL     1      -7.907   4.352 -10.029  1.00  0.00    -0.014 A 
BRANCH  49  50
ATOM     50  C   UNL     1      -8.270   4.789 -11.392  1.00  0.00     0.031 A 
ATOM     51  C   UNL     1      -7.406   5.801 -12.082  1.00  0.00     0.074 A 
ATOM     52  C   UNL     1      -8.960   3.944 -12.182  1.00  0.00     0.049 A 
ATOM     53  N   UNL     1      -6.418   5.551 -12.895  1.00  0.00    -0.248 NA
ATOM     54  C   UNL     1      -7.528   7.215 -11.720  1.00  0.00     0.031 C 
ATOM     55  C   UNL     1      -8.575   2.558 -12.454  1.00  0.00     0.029 A 
ATOM     56  N   UNL     1      -9.992   4.205 -13.053  1.00  0.00    -0.354 N 
ATOM     57  C   UNL     1      -5.782   6.760 -13.145  1.00  0.00     0.074 A 
ATOM     58  C   UNL     1      -6.505   7.760 -12.391  1.00  0.00     0.031 C 
ATOM     59  C   UNL     1      -9.263   2.129 -13.530  1.00  0.00     0.029 A 
ATOM     60  C   UNL     1     -10.206   3.166 -13.950  1.00  0.00     0.049 A 
ATOM     61  H   UNL     1     -10.519   5.036 -13.042  1.00  0.00     0.167 HD
ATOM     62  C   UNL     1      -4.708   6.915 -13.965  1.00  0.00     0.037 A 
ATOM     63  C   UNL     1     -10.682   3.336 -15.213  1.00  0.00     0.037 A 
ATOM     64  C   UNL     1      -4.236   5.745 -14.634  1.00  0.00     0.049 A 
ATOM     65  C   UNL     1      -9.424   3.777 -15.919  1.00  0.00     0.074 A 
ATOM     66  C   UNL     1      -3.269   4.781 -14.446  1.00  0.00     0.029 A 
ATOM     67  N   UNL     1      -4.851   5.387 -15.811  1.00  0.00    -0.354 N 
ATOM     68  N   UNL     1      -8.460   3.004 -16.344  1.00  0.00    -0.248 NA
ATOM     69  C   UNL     1      -9.069   5.196 -15.820  1.00  0.00     0.031 C 
ATOM     70  C   UNL     1      -3.676   3.670 -15.250  1.00  0.00     0.029 A 
ATOM     71  C   UNL     1      -4.894   4.018 -15.829  1.00  0.00     0.049 A 
ATOM     72  H   UNL     1      -5.194   5.996 -16.504  1.00  0.00     0.167 HD
ATOM     73  C   UNL     1      -7.309   3.796 -16.301  1.00  0.00     0.074 A 
ATOM     74  C   UNL     1      -7.761   5.142 -16.018  1.00  0.00     0.031 C 
ATOM     75  C   UNL     1      -6.045   3.283 -16.293  1.00  0.00     0.037 A 
BRANCH  62  76
ATOM     76  C   UNL     1      -4.131   8.223 -14.341  1.00  0.00     0.064 A 
ATOM     77  C   UNL     1      -4.461   8.761 -15.595  1.00  0.00     0.173 A 
ATOM     78  C   UNL     1      -3.118   8.838 -13.603  1.00  0.00     0.173 A 
ATOM     79  F   UNL     1      -5.427   8.191 -16.335  1.00  0.00    -0.203 F 
ATOM     80  C   UNL     1      -3.767   9.846 -16.116  1.00  0.00     0.198 A 
ATOM     81  C   UNL     1      -2.429   9.933 -14.123  1.00  0.00     0.198 A 
ATOM     82  F   UNL     1      -2.765   8.353 -12.403  1.00  0.00    -0.203 F 
ATOM     83  F   UNL     1      -4.069  10.305 -17.338  1.00  0.00    -0.200 F 
ATOM     84  C   UNL     1      -2.743  10.425 -15.385  1.00  0.00     0.200 A 
ATOM     85  F   UNL     1      -1.437  10.497 -13.419  1.00  0.00    -0.200 F 
ATOM     86  F   UNL     1      -2.049  11.449 -15.901  1.00  0.00    -0.200 F 
ENDBRANCH  62  76
BRANCH  63  87
ATOM     87  C   UNL     1     -11.998   4.046 -15.327  1.00  0.00     0.064 A 
ATOM     88  C   UNL     1     -13.073   3.599 -14.527  1.00  0.00     0.173 A 
ATOM     89  C   UNL     1     -12.271   5.133 -16.168  1.00  0.00     0.173 A 
ATOM     90  F   UNL     1     -12.941   2.498 -13.771  1.00  0.00    -0.203 F 
ATOM     91  C   UNL     1     -14.293   4.275 -14.478  1.00  0.00     0.198 A 
ATOM     92  C   UNL     1     -13.483   5.826 -16.102  1.00  0.00     0.198 A 
ATOM     93  F   UNL     1     -11.368   5.562 -17.060  1.00  0.00    -0.203 F 
ATOM     94  F   UNL     1     -15.270   3.838 -13.672  1.00  0.00    -0.200 F 
ATOM     95  C   UNL     1     -14.486   5.409 -15.245  1.00  0.00     0.200 A 
ATOM     96  F   UNL     1     -13.664   6.919 -16.857  1.00  0.00    -0.200 F 
ATOM     97  F   UNL     1     -15.634   6.095 -15.162  1.00  0.00    -0.200 F 
ENDBRANCH  63  87
BRANCH  75  98
ATOM     98  C   UNL     1      -5.949   1.814 -16.502  1.00  0.00     0.064 A 
ATOM     99  C   UNL     1      -6.186   1.261 -17.765  1.00  0.00     0.173 A 
ATOM    100  C   UNL     1      -5.593   0.948 -15.455  1.00  0.00     0.173 A 
ATOM    101  F   UNL     1      -6.527   2.050 -18.797  1.00  0.00    -0.203 F 
ATOM    102  C   UNL     1      -6.049  -0.106 -17.980  1.00  0.00     0.198 A 
ATOM    103  C   UNL     1      -5.431  -0.414 -15.679  1.00  0.00     0.198 A 
ATOM    104  F   UNL     1      -5.388   1.420 -14.215  1.00  0.00    -0.203 F 
ATOM    105  F   UNL     1      -6.279  -0.618 -19.197  1.00  0.00    -0.200 F 
ATOM    106  C   UNL     1      -5.657  -0.940 -16.942  1.00  0.00     0.200 A 
ATOM    107  F   UNL     1      -5.052  -1.219 -14.677  1.00  0.00    -0.200 F 
ATOM    108  F   UNL     1      -5.493  -2.252 -17.160  1.00  0.00    -0.200 F 
ENDBRANCH  75  98
ENDBRANCH  49  50
ENDBRANCH  42  44
ENDBRANCH  41  42
ENDBRANCH  40  41
ENDBRANCH  39  40
ENDBRANCH  38  39
ENDBRANCH  37  38
ENDBRANCH  36  37
ENDBRANCH   1  36
TORSDOF 22
