REMARK SMILES NC(=O)C[C@@H](CC(=O)OCCOCCOCCOC(=O)c1ccc(-c2c3nc(c(-c4c(F)c(F)c(F)c(F)c4F)c4ccc([nH]4)c(-c4c(F)c(F)c(F)c(F)c4F)c4nc(c(-c5c(F)c(F)c(F)c(F)c5F)c5ccc2[nH]5)C=C4)C=C3)cc1)c1cccc(Br)c1
REMARK SMILES IDX 13 1 12 2 11 3 10 4 9 5 7 6 8 7 6 8 5 9 4 10 2 11 1 12 3 15
REMARK SMILES IDX 84 16 85 17 90 18 86 19 88 20 87 21 89 22 14 23 15 24 16 25
REMARK SMILES IDX 17 26 18 27 19 28 20 29 21 30 22 31 83 32 23 33 82 34 24 35
REMARK SMILES IDX 25 36 26 37 76 38 27 39 81 40 75 41 77 42 28 43 80 44 74 45
REMARK SMILES IDX 73 46 29 48 61 49 41 50 60 51 42 52 45 53 59 54 78 55 43 56
REMARK SMILES IDX 44 57 58 59 79 60 46 61 30 62 31 63 39 64 32 65 33 66 37 67
REMARK SMILES IDX 40 68 34 69 35 70 38 71 36 72 62 73 63 74 71 75 64 76 65 77
REMARK SMILES IDX 69 78 72 79 66 80 67 81 70 82 68 83 47 84 48 85 56 86 49 87
REMARK SMILES IDX 50 88 54 89 57 90 51 91 52 92 55 93 53 94
REMARK H PARENT 1 13 1 14 77 47 45 58
REMARK Flexibility Score: inf
ROOT
ATOM      1  C   UNL     1       5.651  -2.007  -2.188  1.00  0.00     0.188 C 
ENDROOT
BRANCH   1   2
ATOM      2  O   UNL     1       5.999  -2.502  -0.898  1.00  0.00    -0.376 OA
BRANCH   2   3
ATOM      3  C   UNL     1       4.955  -2.855   0.003  1.00  0.00     0.202 C 
BRANCH   3   4
ATOM      4  C   UNL     1       4.092  -1.688   0.487  1.00  0.00     0.261 C 
BRANCH   4   5
ATOM      5  O   UNL     1       3.276  -1.139  -0.575  1.00  0.00    -0.463 OA
BRANCH   5   6
ATOM      6  C   UNL     1       3.244   0.209  -0.677  1.00  0.00     0.306 C 
ATOM      7  O   UNL     1       3.764   0.964   0.138  1.00  0.00    -0.252 OA
BRANCH   6   8
ATOM      8  C   UNL     1       2.618   0.743  -1.957  1.00  0.00     0.131 C 
BRANCH   8   9
ATOM      9  C   UNL     1       1.442   0.076  -2.729  1.00  0.00     0.039 C 
BRANCH   9  10
ATOM     10  C   UNL     1       0.572  -0.917  -1.939  1.00  0.00     0.108 C 
BRANCH  10  11
ATOM     11  C   UNL     1      -0.185  -0.205  -0.845  1.00  0.00     0.218 C 
ATOM     12  N   UNL     1       0.327  -0.331   0.406  1.00  0.00    -0.370 N 
ATOM     13  H   UNL     1      -0.118   0.108   1.167  1.00  0.00     0.159 HD
ATOM     14  H   UNL     1       1.143  -0.862   0.553  1.00  0.00     0.159 HD
ATOM     15  O   UNL     1      -1.174   0.484  -1.059  1.00  0.00    -0.275 OA
ENDBRANCH  10  11
ENDBRANCH   9  10
BRANCH   9  16
ATOM     16  C   UNL     1       1.829  -0.380  -4.147  1.00  0.00    -0.043 A 
ATOM     17  C   UNL     1       1.637  -1.689  -4.618  1.00  0.00     0.004 A 
ATOM     18  C   UNL     1       2.316   0.575  -5.065  1.00  0.00     0.019 A 
ATOM     19  C   UNL     1       1.945  -2.036  -5.939  1.00  0.00     0.001 A 
ATOM     20  C   UNL     1       2.615   0.224  -6.385  1.00  0.00     0.018 A 
ATOM     21  C   UNL     1       2.440  -1.083  -6.824  1.00  0.00     0.016 A 
ATOM     22  Br  UNL     1       3.292   1.526  -7.578  1.00  0.00    -0.051 Br
ENDBRANCH   9  16
ENDBRANCH   8   9
ENDBRANCH   6   8
ENDBRANCH   5   6
ENDBRANCH   4   5
ENDBRANCH   3   4
ENDBRANCH   2   3
ENDBRANCH   1   2
BRANCH   1  23
ATOM     23  C   UNL     1       4.411  -2.580  -2.882  1.00  0.00     0.188 C 
BRANCH  23  24
ATOM     24  O   UNL     1       4.225  -3.966  -2.634  1.00  0.00    -0.376 OA
BRANCH  24  25
ATOM     25  C   UNL     1       3.982  -4.738  -3.803  1.00  0.00     0.202 C 
BRANCH  25  26
ATOM     26  C   UNL     1       5.303  -5.129  -4.462  1.00  0.00     0.261 C 
BRANCH  26  27
ATOM     27  O   UNL     1       6.077  -3.989  -4.887  1.00  0.00    -0.460 OA
BRANCH  27  28
ATOM     28  C   UNL     1       5.673  -3.401  -6.035  1.00  0.00     0.338 C 
ATOM     29  O   UNL     1       4.757  -3.740  -6.758  1.00  0.00    -0.246 OA
BRANCH  28  30
ATOM     30  C   UNL     1       6.495  -2.195  -6.247  1.00  0.00     0.060 A 
ATOM     31  C   UNL     1       5.996  -0.938  -5.890  1.00  0.00     0.016 A 
ATOM     32  C   UNL     1       7.728  -2.310  -6.886  1.00  0.00     0.016 A 
ATOM     33  C   UNL     1       6.702   0.220  -6.220  1.00  0.00     0.010 A 
ATOM     34  C   UNL     1       8.438  -1.151  -7.207  1.00  0.00     0.010 A 
ATOM     35  C   UNL     1       7.913   0.122  -6.912  1.00  0.00    -0.014 A 
BRANCH  35  36
ATOM     36  C   UNL     1       8.579   1.323  -7.473  1.00  0.00     0.031 A 
ATOM     37  C   UNL     1       8.557   1.519  -8.963  1.00  0.00     0.074 A 
ATOM     38  C   UNL     1       9.222   2.204  -6.688  1.00  0.00     0.049 A 
ATOM     39  N   UNL     1       9.301   2.289  -9.713  1.00  0.00    -0.248 NA
ATOM     40  C   UNL     1       7.565   0.726  -9.707  1.00  0.00     0.031 C 
ATOM     41  C   UNL     1       9.238   2.188  -5.228  1.00  0.00     0.029 A 
ATOM     42  N   UNL     1      10.019   3.273  -7.023  1.00  0.00    -0.354 N 
ATOM     43  C   UNL     1       8.907   2.031 -11.020  1.00  0.00     0.074 A 
ATOM     44  C   UNL     1       7.850   1.046 -10.961  1.00  0.00     0.031 C 
ATOM     45  C   UNL     1      10.032   3.180  -4.790  1.00  0.00     0.029 A 
ATOM     46  C   UNL     1      10.636   3.850  -5.939  1.00  0.00     0.049 A 
ATOM     47  H   UNL     1      10.136   3.593  -7.946  1.00  0.00     0.167 HD
ATOM     48  C   UNL     1       9.400   2.564 -12.162  1.00  0.00     0.037 A 
ATOM     49  C   UNL     1      11.622   4.767  -5.887  1.00  0.00     0.037 A 
ATOM     50  C   UNL     1      10.423   3.575 -12.203  1.00  0.00     0.049 A 
ATOM     51  C   UNL     1      12.200   5.303  -7.172  1.00  0.00     0.074 A 
ATOM     52  C   UNL     1      10.993   4.184 -13.307  1.00  0.00     0.029 A 
ATOM     53  N   UNL     1      11.020   4.134 -11.083  1.00  0.00    -0.354 N 
ATOM     54  N   UNL     1      11.877   5.014  -8.410  1.00  0.00    -0.248 NA
ATOM     55  C   UNL     1      13.293   6.280  -7.054  1.00  0.00     0.031 C 
ATOM     56  C   UNL     1      11.962   5.086 -12.855  1.00  0.00     0.029 A 
ATOM     57  C   UNL     1      11.960   5.073 -11.470  1.00  0.00     0.049 A 
ATOM     58  H   UNL     1      10.806   3.898 -10.152  1.00  0.00     0.167 HD
ATOM     59  C   UNL     1      12.701   5.791  -9.213  1.00  0.00     0.074 A 
ATOM     60  C   UNL     1      13.537   6.569  -8.324  1.00  0.00     0.031 C 
ATOM     61  C   UNL     1      12.762   5.856 -10.566  1.00  0.00     0.037 A 
BRANCH  48  62
ATOM     62  C   UNL     1       8.876   2.038 -13.465  1.00  0.00     0.064 A 
ATOM     63  C   UNL     1       7.598   2.366 -13.940  1.00  0.00     0.173 A 
ATOM     64  C   UNL     1       9.694   1.236 -14.276  1.00  0.00     0.173 A 
ATOM     65  F   UNL     1       6.773   3.115 -13.194  1.00  0.00    -0.203 F 
ATOM     66  C   UNL     1       7.154   1.900 -15.175  1.00  0.00     0.198 A 
ATOM     67  C   UNL     1       9.257   0.794 -15.521  1.00  0.00     0.198 A 
ATOM     68  F   UNL     1      10.925   0.896 -13.868  1.00  0.00    -0.203 F 
ATOM     69  F   UNL     1       5.918   2.198 -15.597  1.00  0.00    -0.200 F 
ATOM     70  C   UNL     1       7.987   1.123 -15.968  1.00  0.00     0.200 A 
ATOM     71  F   UNL     1      10.067   0.053 -16.290  1.00  0.00    -0.200 F 
ATOM     72  F   UNL     1       7.562   0.688 -17.163  1.00  0.00    -0.200 F 
ENDBRANCH  48  62
BRANCH  49  73
ATOM     73  C   UNL     1      12.177   5.190  -4.573  1.00  0.00     0.064 A 
ATOM     74  C   UNL     1      12.003   6.498  -4.101  1.00  0.00     0.173 A 
ATOM     75  C   UNL     1      12.913   4.302  -3.775  1.00  0.00     0.173 A 
ATOM     76  F   UNL     1      11.334   7.394  -4.842  1.00  0.00    -0.203 F 
ATOM     77  C   UNL     1      12.557   6.906  -2.889  1.00  0.00     0.198 A 
ATOM     78  C   UNL     1      13.440   4.702  -2.548  1.00  0.00     0.198 A 
ATOM     79  F   UNL     1      13.117   3.041  -4.183  1.00  0.00    -0.203 F 
ATOM     80  F   UNL     1      12.418   8.176  -2.485  1.00  0.00    -0.200 F 
ATOM     81  C   UNL     1      13.269   6.005  -2.110  1.00  0.00     0.200 A 
ATOM     82  F   UNL     1      14.119   3.825  -1.796  1.00  0.00    -0.200 F 
ATOM     83  F   UNL     1      13.799   6.397  -0.944  1.00  0.00    -0.200 F 
ENDBRANCH  49  73
BRANCH  61  84
ATOM     84  C   UNL     1      13.718   6.841 -11.169  1.00  0.00     0.064 A 
ATOM     85  C   UNL     1      15.100   6.610 -11.189  1.00  0.00     0.173 A 
ATOM     86  C   UNL     1      13.233   8.003 -11.789  1.00  0.00     0.173 A 
ATOM     87  F   UNL     1      15.611   5.519 -10.598  1.00  0.00    -0.203 F 
ATOM     88  C   UNL     1      15.966   7.518 -11.793  1.00  0.00     0.198 A 
ATOM     89  C   UNL     1      14.099   8.895 -12.414  1.00  0.00     0.198 A 
ATOM     90  F   UNL     1      11.917   8.263 -11.803  1.00  0.00    -0.203 F 
ATOM     91  F   UNL     1      17.287   7.297 -11.771  1.00  0.00    -0.200 F 
ATOM     92  C   UNL     1      15.464   8.654 -12.412  1.00  0.00     0.200 A 
ATOM     93  F   UNL     1      13.612   9.985 -13.022  1.00  0.00    -0.200 F 
ATOM     94  F   UNL     1      16.299   9.520 -13.002  1.00  0.00    -0.200 F 
ENDBRANCH  61  84
ENDBRANCH  35  36
ENDBRANCH  28  30
ENDBRANCH  27  28
ENDBRANCH  26  27
ENDBRANCH  25  26
ENDBRANCH  24  25
ENDBRANCH  23  24
ENDBRANCH   1  23
TORSDOF 21
