REMARK SMILES O=C(Cn1c2ccccc2c(=O)c2ccccc21)N[C@@H](Cc1ccccc1)C(=O)OCCOCCOCCOC(=O)c1ccc(-c2c3nc(c(-c4c(F)c(F)c(F)c(F)c4F)c4ccc([nH]4)c(-c4c(F)c(F)c(F)c(F)c4F)c4nc(c(-c5c(F)c(F)c(F)c(F)c5F)c5ccc2[nH]5)C=C4)C=C3)cc1
REMARK SMILES IDX 34 1 33 2 32 3 31 4 30 5 28 6 29 7 20 8 19 9 1 10 2 11 3 13
REMARK SMILES IDX 4 14 5 15 18 16 6 17 10 18 13 19 17 20 7 21 9 22 11 23 14 24
REMARK SMILES IDX 16 25 8 26 12 27 15 28 21 29 22 30 23 31 27 32 24 33 26 34
REMARK SMILES IDX 25 35 35 36 36 37 37 38 38 39 39 40 40 41 41 42 42 43 43 44
REMARK SMILES IDX 104 45 44 46 103 47 45 48 46 49 47 50 97 51 48 52 102 53
REMARK SMILES IDX 96 54 98 55 49 56 101 57 95 58 94 59 50 61 82 62 62 63 81 64
REMARK SMILES IDX 63 65 66 66 80 67 99 68 64 69 65 70 79 72 100 73 67 74 51 75
REMARK SMILES IDX 52 76 60 77 53 78 54 79 58 80 61 81 55 82 56 83 59 84 57 85
REMARK SMILES IDX 83 86 84 87 92 88 85 89 86 90 90 91 93 92 87 93 88 94 91 95
REMARK SMILES IDX 89 96 68 97 69 98 77 99 70 100 71 101 75 102 78 103 72 104
REMARK SMILES IDX 73 105 76 106 74 107
REMARK H PARENT 19 12 98 60 66 71
REMARK Flexibility Score: inf
ROOT
ATOM      1  C   UNL     1       2.232  -1.389   4.655  1.00  0.00     0.188 C 
ENDROOT
BRANCH   1   2
ATOM      2  O   UNL     1       2.867  -2.365   5.476  1.00  0.00    -0.376 OA
BRANCH   2   3
ATOM      3  C   UNL     1       4.041  -3.007   4.987  1.00  0.00     0.202 C 
BRANCH   3   4
ATOM      4  C   UNL     1       3.837  -3.914   3.777  1.00  0.00     0.261 C 
BRANCH   4   5
ATOM      5  O   UNL     1       3.559  -3.151   2.587  1.00  0.00    -0.462 OA
BRANCH   5   6
ATOM      6  C   UNL     1       2.456  -3.511   1.877  1.00  0.00     0.329 C 
ATOM      7  O   UNL     1       1.700  -4.428   2.181  1.00  0.00    -0.250 OA
BRANCH   6   8
ATOM      8  C   UNL     1       2.344  -2.748   0.546  1.00  0.00     0.196 C 
BRANCH   8   9
ATOM      9  N   UNL     1       3.109  -1.490   0.423  1.00  0.00    -0.341 N 
ATOM     10  O   UNL     1       1.358  -0.039   0.300  1.00  0.00    -0.273 OA
ATOM     11  C   UNL     1       2.562  -0.250   0.150  1.00  0.00     0.240 C 
ATOM     12  H   UNL     1       4.084  -1.539   0.546  1.00  0.00     0.164 HD
BRANCH  11  13
ATOM     13  C   UNL     1       3.497   0.794  -0.527  1.00  0.00     0.222 C 
BRANCH  13  14
ATOM     14  N   UNL     1       4.304   1.663   0.373  1.00  0.00    -0.331 N 
ATOM     15  C   UNL     1       4.007   3.048   0.505  1.00  0.00     0.053 A 
ATOM     16  C   UNL     1       5.400   1.083   1.060  1.00  0.00     0.053 A 
ATOM     17  C   UNL     1       3.058   3.746  -0.265  1.00  0.00     0.027 A 
ATOM     18  C   UNL     1       4.728   3.834   1.436  1.00  0.00     0.046 A 
ATOM     19  C   UNL     1       6.030   1.770   2.108  1.00  0.00     0.046 A 
ATOM     20  C   UNL     1       5.953  -0.162   0.738  1.00  0.00     0.027 A 
ATOM     21  C   UNL     1       2.861   5.134  -0.128  1.00  0.00     0.002 A 
ATOM     22  C   UNL     1       4.532   5.220   1.577  1.00  0.00     0.014 A 
ATOM     23  C   UNL     1       5.712   3.190   2.329  1.00  0.00     0.197 A 
ATOM     24  C   UNL     1       7.010   1.168   2.915  1.00  0.00     0.014 A 
ATOM     25  C   UNL     1       6.907  -0.789   1.549  1.00  0.00     0.002 A 
ATOM     26  C   UNL     1       3.598   5.872   0.789  1.00  0.00     0.001 A 
ATOM     27  O   UNL     1       6.298   3.827   3.201  1.00  0.00    -0.288 OA
ATOM     28  C   UNL     1       7.413  -0.135   2.661  1.00  0.00     0.001 A 
ENDBRANCH  13  14
ENDBRANCH  11  13
ENDBRANCH   8   9
BRANCH   8  29
ATOM     29  C   UNL     1       2.764  -3.740  -0.570  1.00  0.00     0.072 C 
BRANCH  29  30
ATOM     30  C   UNL     1       4.221  -4.170  -0.493  1.00  0.00    -0.045 A 
ATOM     31  C   UNL     1       5.229  -3.369  -1.045  1.00  0.00     0.004 A 
ATOM     32  C   UNL     1       4.590  -5.341   0.186  1.00  0.00     0.004 A 
ATOM     33  C   UNL     1       6.575  -3.692  -0.868  1.00  0.00     0.000 A 
ATOM     34  C   UNL     1       5.938  -5.671   0.351  1.00  0.00     0.000 A 
ATOM     35  C   UNL     1       6.930  -4.838  -0.161  1.00  0.00     0.000 A 
ENDBRANCH  29  30
ENDBRANCH   8  29
ENDBRANCH   6   8
ENDBRANCH   5   6
ENDBRANCH   4   5
ENDBRANCH   3   4
ENDBRANCH   2   3
ENDBRANCH   1   2
BRANCH   1  36
ATOM     36  C   UNL     1       3.116  -0.426   3.851  1.00  0.00     0.188 C 
BRANCH  36  37
ATOM     37  O   UNL     1       4.369  -0.064   4.407  1.00  0.00    -0.376 OA
BRANCH  37  38
ATOM     38  C   UNL     1       4.372   0.528   5.699  1.00  0.00     0.202 C 
BRANCH  38  39
ATOM     39  C   UNL     1       4.047   2.018   5.670  1.00  0.00     0.261 C 
BRANCH  39  40
ATOM     40  O   UNL     1       2.623   2.175   5.575  1.00  0.00    -0.460 OA
BRANCH  40  41
ATOM     41  C   UNL     1       2.162   2.747   4.442  1.00  0.00     0.338 C 
ATOM     42  O   UNL     1       2.801   3.276   3.553  1.00  0.00    -0.246 OA
BRANCH  41  43
ATOM     43  C   UNL     1       0.730   2.441   4.331  1.00  0.00     0.060 A 
ATOM     44  C   UNL     1      -0.100   2.561   5.444  1.00  0.00     0.016 A 
ATOM     45  C   UNL     1       0.230   2.007   3.095  1.00  0.00     0.016 A 
ATOM     46  C   UNL     1      -1.450   2.264   5.314  1.00  0.00     0.010 A 
ATOM     47  C   UNL     1      -1.123   1.709   2.965  1.00  0.00     0.010 A 
ATOM     48  C   UNL     1      -1.969   1.862   4.070  1.00  0.00    -0.014 A 
BRANCH  48  49
ATOM     49  C   UNL     1      -3.434   1.797   3.915  1.00  0.00     0.031 A 
ATOM     50  C   UNL     1      -4.169   0.502   3.978  1.00  0.00     0.074 A 
ATOM     51  C   UNL     1      -4.084   2.967   3.788  1.00  0.00     0.049 A 
ATOM     52  N   UNL     1      -5.458   0.300   4.069  1.00  0.00    -0.248 NA
ATOM     53  C   UNL     1      -3.363  -0.726   3.932  1.00  0.00     0.031 C 
ATOM     54  C   UNL     1      -3.433   4.276   3.688  1.00  0.00     0.029 A 
ATOM     55  N   UNL     1      -5.422   3.255   3.760  1.00  0.00    -0.354 N 
ATOM     56  C   UNL     1      -5.620  -1.075   4.127  1.00  0.00     0.074 A 
ATOM     57  C   UNL     1      -4.301  -1.663   4.005  1.00  0.00     0.031 C 
ATOM     58  C   UNL     1      -4.372   5.231   3.661  1.00  0.00     0.029 A 
ATOM     59  C   UNL     1      -5.686   4.601   3.723  1.00  0.00     0.049 A 
ATOM     60  H   UNL     1      -6.124   2.564   3.764  1.00  0.00     0.167 HD
ATOM     61  C   UNL     1      -6.771  -1.768   4.288  1.00  0.00     0.037 A 
ATOM     62  C   UNL     1      -6.862   5.253   3.761  1.00  0.00     0.037 A 
ATOM     63  C   UNL     1      -8.073  -1.156   4.382  1.00  0.00     0.049 A 
ATOM     64  C   UNL     1      -8.123   4.452   3.903  1.00  0.00     0.074 A 
ATOM     65  C   UNL     1      -9.301  -1.764   4.571  1.00  0.00     0.029 A 
ATOM     66  N   UNL     1      -8.315   0.208   4.277  1.00  0.00    -0.354 N 
ATOM     67  N   UNL     1      -8.266   3.156   4.042  1.00  0.00    -0.248 NA
ATOM     68  C   UNL     1      -9.386   5.201   3.901  1.00  0.00     0.031 C 
ATOM     69  C   UNL     1     -10.290  -0.777   4.528  1.00  0.00     0.029 A 
ATOM     70  C   UNL     1      -9.676   0.456   4.366  1.00  0.00     0.049 A 
ATOM     71  H   UNL     1      -7.622   0.897   4.158  1.00  0.00     0.167 HD
ATOM     72  C   UNL     1      -9.630   2.933   4.157  1.00  0.00     0.074 A 
ATOM     73  C   UNL     1     -10.270   4.232   4.098  1.00  0.00     0.031 C 
ATOM     74  C   UNL     1     -10.292   1.758   4.295  1.00  0.00     0.037 A 
BRANCH  61  75
ATOM     75  C   UNL     1      -6.684  -3.262   4.386  1.00  0.00     0.064 A 
ATOM     76  C   UNL     1      -6.160  -3.887   5.529  1.00  0.00     0.173 A 
ATOM     77  C   UNL     1      -7.206  -4.080   3.373  1.00  0.00     0.173 A 
ATOM     78  F   UNL     1      -5.644  -3.151   6.524  1.00  0.00    -0.203 F 
ATOM     79  C   UNL     1      -6.154  -5.274   5.648  1.00  0.00     0.198 A 
ATOM     80  C   UNL     1      -7.221  -5.466   3.506  1.00  0.00     0.198 A 
ATOM     81  F   UNL     1      -7.726  -3.533   2.264  1.00  0.00    -0.203 F 
ATOM     82  F   UNL     1      -5.629  -5.850   6.739  1.00  0.00    -0.200 F 
ATOM     83  C   UNL     1      -6.693  -6.062   4.642  1.00  0.00     0.200 A 
ATOM     84  F   UNL     1      -7.756  -6.225   2.541  1.00  0.00    -0.200 F 
ATOM     85  F   UNL     1      -6.707  -7.396   4.768  1.00  0.00    -0.200 F 
ENDBRANCH  61  75
BRANCH  62  86
ATOM     86  C   UNL     1      -6.876   6.736   3.717  1.00  0.00     0.064 A 
ATOM     87  C   UNL     1      -7.239   7.488   4.842  1.00  0.00     0.173 A 
ATOM     88  C   UNL     1      -6.485   7.433   2.563  1.00  0.00     0.173 A 
ATOM     89  F   UNL     1      -7.631   6.867   5.964  1.00  0.00    -0.203 F 
ATOM     90  C   UNL     1      -7.219   8.881   4.812  1.00  0.00     0.198 A 
ATOM     91  C   UNL     1      -6.439   8.824   2.543  1.00  0.00     0.198 A 
ATOM     92  F   UNL     1      -6.119   6.758   1.463  1.00  0.00    -0.203 F 
ATOM     93  F   UNL     1      -7.600   9.577   5.892  1.00  0.00    -0.200 F 
ATOM     94  C   UNL     1      -6.811   9.547   3.666  1.00  0.00     0.200 A 
ATOM     95  F   UNL     1      -6.025   9.463   1.441  1.00  0.00    -0.200 F 
ATOM     96  F   UNL     1      -6.779  10.887   3.643  1.00  0.00    -0.200 F 
ENDBRANCH  62  86
BRANCH  74  97
ATOM     97  C   UNL     1     -11.788   1.822   4.385  1.00  0.00     0.064 A 
ATOM     98  C   UNL     1     -12.574   2.123   3.264  1.00  0.00     0.173 A 
ATOM     99  C   UNL     1     -12.444   1.515   5.587  1.00  0.00     0.173 A 
ATOM    100  F   UNL     1     -11.992   2.439   2.096  1.00  0.00    -0.203 F 
ATOM    101  C   UNL     1     -13.963   2.130   3.346  1.00  0.00     0.198 A 
ATOM    102  C   UNL     1     -13.834   1.493   5.657  1.00  0.00     0.198 A 
ATOM    103  F   UNL     1     -11.737   1.214   6.686  1.00  0.00    -0.203 F 
ATOM    104  F   UNL     1     -14.694   2.458   2.271  1.00  0.00    -0.200 F 
ATOM    105  C   UNL     1     -14.592   1.805   4.538  1.00  0.00     0.200 A 
ATOM    106  F   UNL     1     -14.440   1.164   6.806  1.00  0.00    -0.200 F 
ATOM    107  F   UNL     1     -15.930   1.796   4.611  1.00  0.00    -0.200 F 
ENDBRANCH  74  97
ENDBRANCH  48  49
ENDBRANCH  41  43
ENDBRANCH  40  41
ENDBRANCH  39  40
ENDBRANCH  38  39
ENDBRANCH  37  38
ENDBRANCH  36  37
ENDBRANCH   1  36
TORSDOF 22
