REMARK SMILES Cn1ncc(C(=O)OCCOCCOCCOC(=O)c2ccc(-c3c4nc(c(-c5c(F)c(F)c(F)c(F)c5F)c5ccc([nH]5)c(-c5c(F)c(F)c(F)c(F)c5F)c5nc(c(-c6c(F)c(F)c(F)c(F)c6F)c6ccc3[nH]6)C=C5)C=C4)cc2)c1C(=O)Nc1ccccn1
REMARK SMILES IDX 12 1 11 2 10 3 9 4 8 5 6 6 7 7 5 8 1 9 2 10 3 11 83 12 4 13
REMARK SMILES IDX 84 14 85 15 86 16 87 18 88 19 92 20 89 21 91 22 90 23 13 24
REMARK SMILES IDX 14 25 15 26 16 27 17 28 18 29 19 30 20 31 21 32 82 33 22 34
REMARK SMILES IDX 81 35 23 36 24 37 25 38 75 39 26 40 80 41 74 42 76 43 27 44
REMARK SMILES IDX 79 45 73 46 72 47 28 49 60 50 40 51 59 52 41 53 44 54 58 55
REMARK SMILES IDX 77 56 42 57 43 58 57 60 78 61 45 62 29 63 30 64 38 65 31 66
REMARK SMILES IDX 32 67 36 68 39 69 33 70 34 71 37 72 35 73 61 74 62 75 70 76
REMARK SMILES IDX 63 77 64 78 68 79 71 80 65 81 66 82 69 83 67 84 46 85 47 86
REMARK SMILES IDX 55 87 48 88 49 89 53 90 56 91 50 92 51 93 54 94 52 95
REMARK H PARENT 86 17 76 48 44 59
REMARK Flexibility Score: inf
ROOT
ATOM      1  C   UNL     1       4.128  -1.557  -1.645  1.00  0.00     0.188 C 
ENDROOT
BRANCH   1   2
ATOM      2  O   UNL     1       5.109  -2.502  -1.241  1.00  0.00    -0.376 OA
BRANCH   2   3
ATOM      3  C   UNL     1       4.712  -3.642  -0.482  1.00  0.00     0.202 C 
BRANCH   3   4
ATOM      4  C   UNL     1       4.019  -3.369   0.847  1.00  0.00     0.261 C 
BRANCH   4   5
ATOM      5  O   UNL     1       2.762  -2.723   0.617  1.00  0.00    -0.460 OA
BRANCH   5   6
ATOM      6  C   UNL     1       2.466  -1.722   1.490  1.00  0.00     0.342 C 
ATOM      7  O   UNL     1       3.105  -1.454   2.489  1.00  0.00    -0.246 OA
BRANCH   6   8
ATOM      8  C   UNL     1       1.417  -0.848   0.998  1.00  0.00     0.111 A 
ATOM      9  C   UNL     1      -1.722   0.658   1.206  1.00  0.00     0.174 C 
ATOM     10  N   UNL     1      -0.471   0.156   0.682  1.00  0.00    -0.262 N 
ATOM     11  N   UNL     1       0.449   1.100   0.377  1.00  0.00    -0.180 NA
ATOM     12  C   UNL     1       0.063  -1.118   0.750  1.00  0.00     0.140 A 
ATOM     13  C   UNL     1       1.593   0.518   0.721  1.00  0.00     0.151 A 
BRANCH  12  14
ATOM     14  C   UNL     1      -0.558  -2.429   0.825  1.00  0.00     0.275 C 
ATOM     15  O   UNL     1       0.094  -3.405   1.210  1.00  0.00    -0.267 OA
ATOM     16  N   UNL     1      -1.880  -2.692   0.595  1.00  0.00    -0.305 N 
ATOM     17  H   UNL     1      -2.130  -3.607   0.859  1.00  0.00     0.171 HD
BRANCH  16  18
ATOM     18  C   UNL     1      -2.949  -1.985   0.082  1.00  0.00     0.132 A 
ATOM     19  C   UNL     1      -2.888  -1.179  -1.043  1.00  0.00     0.047 A 
ATOM     20  N   UNL     1      -4.073  -2.142   0.811  1.00  0.00    -0.239 NA
ATOM     21  C   UNL     1      -4.022  -0.434  -1.378  1.00  0.00     0.005 A 
ATOM     22  C   UNL     1      -5.141  -1.383   0.491  1.00  0.00     0.113 A 
ATOM     23  C   UNL     1      -5.160  -0.511  -0.579  1.00  0.00     0.020 A 
ENDBRANCH  16  18
ENDBRANCH  12  14
ENDBRANCH   6   8
ENDBRANCH   5   6
ENDBRANCH   4   5
ENDBRANCH   3   4
ENDBRANCH   2   3
ENDBRANCH   1   2
BRANCH   1  24
ATOM     24  C   UNL     1       2.825  -2.014  -2.337  1.00  0.00     0.188 C 
BRANCH  24  25
ATOM     25  O   UNL     1       2.718  -3.312  -2.898  1.00  0.00    -0.376 OA
BRANCH  25  26
ATOM     26  C   UNL     1       3.759  -3.795  -3.736  1.00  0.00     0.202 C 
BRANCH  26  27
ATOM     27  C   UNL     1       3.997  -3.054  -5.048  1.00  0.00     0.261 C 
BRANCH  27  28
ATOM     28  O   UNL     1       4.457  -1.712  -4.825  1.00  0.00    -0.460 OA
BRANCH  28  29
ATOM     29  C   UNL     1       3.688  -0.746  -5.378  1.00  0.00     0.338 C 
ATOM     30  O   UNL     1       2.700  -0.887  -6.076  1.00  0.00    -0.246 OA
BRANCH  29  31
ATOM     31  C   UNL     1       4.129   0.571  -4.888  1.00  0.00     0.060 A 
ATOM     32  C   UNL     1       3.171   1.397  -4.287  1.00  0.00     0.016 A 
ATOM     33  C   UNL     1       5.436   1.019  -5.090  1.00  0.00     0.016 A 
ATOM     34  C   UNL     1       3.506   2.700  -3.929  1.00  0.00     0.010 A 
ATOM     35  C   UNL     1       5.765   2.332  -4.746  1.00  0.00     0.010 A 
ATOM     36  C   UNL     1       4.792   3.187  -4.199  1.00  0.00    -0.014 A 
BRANCH  36  37
ATOM     37  C   UNL     1       5.068   4.635  -4.064  1.00  0.00     0.031 A 
ATOM     38  C   UNL     1       4.910   5.516  -5.271  1.00  0.00     0.074 A 
ATOM     39  C   UNL     1       5.441   5.159  -2.885  1.00  0.00     0.049 A 
ATOM     40  N   UNL     1       5.128   6.800  -5.398  1.00  0.00    -0.248 NA
ATOM     41  C   UNL     1       4.442   4.860  -6.503  1.00  0.00     0.031 C 
ATOM     42  C   UNL     1       5.592   4.412  -1.639  1.00  0.00     0.029 A 
ATOM     43  N   UNL     1       5.769   6.449  -2.551  1.00  0.00    -0.354 N 
ATOM     44  C   UNL     1       4.822   7.105  -6.717  1.00  0.00     0.074 A 
ATOM     45  C   UNL     1       4.428   5.870  -7.360  1.00  0.00     0.031 C 
ATOM     46  C   UNL     1       6.001   5.255  -0.675  1.00  0.00     0.029 A 
ATOM     47  C   UNL     1       6.163   6.592  -1.245  1.00  0.00     0.049 A 
ATOM     48  H   UNL     1       5.725   7.199  -3.187  1.00  0.00     0.167 HD
ATOM     49  C   UNL     1       4.858   8.309  -7.334  1.00  0.00     0.037 A 
ATOM     50  C   UNL     1       6.623   7.678  -0.594  1.00  0.00     0.037 A 
ATOM     51  C   UNL     1       5.259   9.535  -6.699  1.00  0.00     0.049 A 
ATOM     52  C   UNL     1       6.730   8.991  -1.326  1.00  0.00     0.074 A 
ATOM     53  C   UNL     1       5.313  10.809  -7.236  1.00  0.00     0.029 A 
ATOM     54  N   UNL     1       5.686   9.636  -5.383  1.00  0.00    -0.354 N 
ATOM     55  N   UNL     1       6.408   9.279  -2.564  1.00  0.00    -0.248 NA
ATOM     56  C   UNL     1       7.267  10.130  -0.567  1.00  0.00     0.031 C 
ATOM     57  C   UNL     1       5.813  11.675  -6.257  1.00  0.00     0.029 A 
ATOM     58  C   UNL     1       6.031  10.946  -5.098  1.00  0.00     0.049 A 
ATOM     59  H   UNL     1       5.736   8.886  -4.746  1.00  0.00     0.167 HD
ATOM     60  C   UNL     1       6.679  10.631  -2.725  1.00  0.00     0.074 A 
ATOM     61  C   UNL     1       7.182  11.111  -1.455  1.00  0.00     0.031 C 
ATOM     62  C   UNL     1       6.524  11.407  -3.826  1.00  0.00     0.037 A 
BRANCH  49  63
ATOM     63  C   UNL     1       4.472   8.352  -8.781  1.00  0.00     0.064 A 
ATOM     64  C   UNL     1       3.135   8.237  -9.186  1.00  0.00     0.173 A 
ATOM     65  C   UNL     1       5.447   8.540  -9.771  1.00  0.00     0.173 A 
ATOM     66  F   UNL     1       2.168   8.040  -8.277  1.00  0.00    -0.203 F 
ATOM     67  C   UNL     1       2.789   8.289 -10.534  1.00  0.00     0.198 A 
ATOM     68  C   UNL     1       5.096   8.615 -11.116  1.00  0.00     0.198 A 
ATOM     69  F   UNL     1       6.740   8.656  -9.433  1.00  0.00    -0.203 F 
ATOM     70  F   UNL     1       1.509   8.140 -10.902  1.00  0.00    -0.200 F 
ATOM     71  C   UNL     1       3.769   8.484 -11.496  1.00  0.00     0.200 A 
ATOM     72  F   UNL     1       6.042   8.810 -12.045  1.00  0.00    -0.200 F 
ATOM     73  F   UNL     1       3.434   8.539 -12.793  1.00  0.00    -0.200 F 
ENDBRANCH  49  63
BRANCH  50  74
ATOM     74  C   UNL     1       7.035   7.571   0.828  1.00  0.00     0.064 A 
ATOM     75  C   UNL     1       6.289   8.183   1.844  1.00  0.00     0.173 A 
ATOM     76  C   UNL     1       8.198   6.878   1.196  1.00  0.00     0.173 A 
ATOM     77  F   UNL     1       5.186   8.881   1.536  1.00  0.00    -0.203 F 
ATOM     78  C   UNL     1       6.700   8.121   3.174  1.00  0.00     0.198 A 
ATOM     79  C   UNL     1       8.595   6.796   2.528  1.00  0.00     0.198 A 
ATOM     80  F   UNL     1       8.949   6.282   0.258  1.00  0.00    -0.203 F 
ATOM     81  F   UNL     1       5.995   8.754   4.121  1.00  0.00    -0.200 F 
ATOM     82  C   UNL     1       7.850   7.424   3.515  1.00  0.00     0.200 A 
ATOM     83  F   UNL     1       9.703   6.119   2.854  1.00  0.00    -0.200 F 
ATOM     84  F   UNL     1       8.247   7.368   4.794  1.00  0.00    -0.200 F 
ENDBRANCH  50  74
BRANCH  62  85
ATOM     85  C   UNL     1       6.877  12.859  -3.701  1.00  0.00     0.064 A 
ATOM     86  C   UNL     1       8.211  13.288  -3.649  1.00  0.00     0.173 A 
ATOM     87  C   UNL     1       5.870  13.836  -3.682  1.00  0.00     0.173 A 
ATOM     88  F   UNL     1       9.208  12.391  -3.650  1.00  0.00    -0.203 F 
ATOM     89  C   UNL     1       8.523  14.642  -3.564  1.00  0.00     0.198 A 
ATOM     90  C   UNL     1       6.186  15.190  -3.621  1.00  0.00     0.198 A 
ATOM     91  F   UNL     1       4.578  13.476  -3.735  1.00  0.00    -0.203 F 
ATOM     92  F   UNL     1       9.804  15.028  -3.477  1.00  0.00    -0.200 F 
ATOM     93  C   UNL     1       7.512  15.591  -3.557  1.00  0.00     0.200 A 
ATOM     94  F   UNL     1       5.209  16.106  -3.627  1.00  0.00    -0.200 F 
ATOM     95  F   UNL     1       7.815  16.895  -3.483  1.00  0.00    -0.200 F 
ENDBRANCH  62  85
ENDBRANCH  36  37
ENDBRANCH  29  31
ENDBRANCH  28  29
ENDBRANCH  27  28
ENDBRANCH  26  27
ENDBRANCH  25  26
ENDBRANCH  24  25
ENDBRANCH   1  24
TORSDOF 19
