REMARK SMILES CSc1nc(O)nc(C)c1C(=O)N1C[C@@H](O)C[C@@H]1C(=O)OCCOCCOCCOC(=O)c1ccc(-c2c3nc(c(-c4c(F)c(F)c(F)c(F)c4F)c4ccc([nH]4)c(-c4c(F)c(F)c(F)c(F)c4F)c4nc(c(-c5c(F)c(F)c(F)c(F)c5F)c5ccc2[nH]5)C=C4)C=C3)cc1
REMARK SMILES IDX 25 1 24 2 23 3 22 4 21 5 19 6 20 7 18 8 13 9 14 10 15 11
REMARK SMILES IDX 17 12 11 13 12 14 10 15 3 16 4 17 5 18 8 19 7 20 9 21 2 22
REMARK SMILES IDX 1 23 6 24 16 26 26 28 27 29 28 30 29 31 30 32 31 33 32 34
REMARK SMILES IDX 33 35 34 36 95 37 35 38 94 39 36 40 37 41 38 42 88 43 39 44
REMARK SMILES IDX 93 45 87 46 89 47 40 48 92 49 86 50 85 51 41 53 73 54 53 55
REMARK SMILES IDX 72 56 54 57 57 58 71 59 90 60 55 61 56 62 70 64 91 65 58 66
REMARK SMILES IDX 42 67 43 68 51 69 44 70 45 71 49 72 52 73 46 74 47 75 50 76
REMARK SMILES IDX 48 77 74 78 75 79 83 80 76 81 77 82 81 83 84 84 78 85 79 86
REMARK SMILES IDX 82 87 80 88 59 89 60 90 68 91 61 92 62 93 66 94 69 95 63 96
REMARK SMILES IDX 64 97 67 98 65 99
REMARK H PARENT 6 25 16 27 89 52 57 63
REMARK Flexibility Score: inf
ROOT
ATOM      1  C   UNL     1       3.815  -3.517   0.954  1.00  0.00     0.188 C 
ENDROOT
BRANCH   1   2
ATOM      2  O   UNL     1       4.871  -4.026   1.764  1.00  0.00    -0.376 OA
BRANCH   2   3
ATOM      3  C   UNL     1       4.768  -5.367   2.227  1.00  0.00     0.202 C 
BRANCH   3   4
ATOM      4  C   UNL     1       3.515  -5.690   3.042  1.00  0.00     0.261 C 
BRANCH   4   5
ATOM      5  O   UNL     1       2.291  -5.314   2.373  1.00  0.00    -0.462 OA
BRANCH   5   6
ATOM      6  C   UNL     1       1.172  -5.550   3.083  1.00  0.00     0.329 C 
ATOM      7  O   UNL     1       1.183  -6.152   4.157  1.00  0.00    -0.250 OA
BRANCH   6   8
ATOM      8  C   UNL     1      -0.129  -4.905   2.537  1.00  0.00     0.198 C 
ATOM      9  N   UNL     1      -0.401  -4.091   1.289  1.00  0.00    -0.322 N 
ATOM     10  C   UNL     1      -1.362  -3.089   1.698  1.00  0.00     0.152 C 
ATOM     11  C   UNL     1      -0.948  -2.661   3.078  1.00  0.00     0.136 C 
ATOM     12  C   UNL     1      -0.585  -3.982   3.712  1.00  0.00     0.071 C 
BRANCH   9  13
ATOM     13  C   UNL     1      -0.638  -4.691   0.024  1.00  0.00     0.259 C 
ATOM     14  O   UNL     1      -0.955  -5.878  -0.034  1.00  0.00    -0.269 OA
BRANCH  13  15
ATOM     15  C   UNL     1      -0.321  -3.957  -1.277  1.00  0.00     0.093 A 
ATOM     16  C   UNL     1      -0.702  -2.676  -1.692  1.00  0.00     0.116 A 
ATOM     17  N   UNL     1      -0.172  -2.038  -2.769  1.00  0.00    -0.188 NA
ATOM     18  C   UNL     1       0.660  -2.736  -3.522  1.00  0.00     0.315 A 
ATOM     19  C   UNL     1       0.465  -4.616  -2.240  1.00  0.00     0.058 A 
ATOM     20  N   UNL     1       1.001  -3.999  -3.333  1.00  0.00    -0.200 NA
ATOM     21  C   UNL     1       0.707  -6.101  -2.243  1.00  0.00     0.068 C 
BRANCH  16  22
ATOM     22  S   UNL     1      -2.150  -1.778  -1.149  1.00  0.00    -0.109 SA
ATOM     23  C   UNL     1      -1.330  -0.264  -0.556  1.00  0.00     0.092 C 
ENDBRANCH  16  22
BRANCH  18  24
ATOM     24  O   UNL     1       1.256  -2.095  -4.561  1.00  0.00    -0.479 OA
ATOM     25  H   UNL     1       1.050  -1.199  -4.739  1.00  0.00     0.297 HD
ENDBRANCH  18  24
ENDBRANCH  13  15
ENDBRANCH   9  13
BRANCH  11  26
ATOM     26  O   UNL     1      -1.966  -1.976   3.778  1.00  0.00    -0.391 OA
ATOM     27  H   UNL     1      -2.754  -2.539   3.837  1.00  0.00     0.211 HD
ENDBRANCH  11  26
ENDBRANCH   6   8
ENDBRANCH   5   6
ENDBRANCH   4   5
ENDBRANCH   3   4
ENDBRANCH   2   3
ENDBRANCH   1   2
BRANCH   1  28
ATOM     28  C   UNL     1       3.187  -4.436  -0.117  1.00  0.00     0.188 C 
BRANCH  28  29
ATOM     29  O   UNL     1       4.041  -5.492  -0.511  1.00  0.00    -0.376 OA
BRANCH  29  30
ATOM     30  C   UNL     1       4.417  -5.509  -1.877  1.00  0.00     0.202 C 
BRANCH  30  31
ATOM     31  C   UNL     1       5.278  -4.325  -2.323  1.00  0.00     0.261 C 
BRANCH  31  32
ATOM     32  O   UNL     1       4.691  -3.040  -2.018  1.00  0.00    -0.460 OA
BRANCH  32  33
ATOM     33  C   UNL     1       4.155  -2.319  -3.014  1.00  0.00     0.338 C 
ATOM     34  O   UNL     1       4.077  -2.643  -4.203  1.00  0.00    -0.246 OA
BRANCH  33  35
ATOM     35  C   UNL     1       3.650  -1.030  -2.485  1.00  0.00     0.060 A 
ATOM     36  C   UNL     1       2.817  -0.984  -1.361  1.00  0.00     0.016 A 
ATOM     37  C   UNL     1       3.926   0.154  -3.172  1.00  0.00     0.016 A 
ATOM     38  C   UNL     1       2.257   0.216  -0.930  1.00  0.00     0.010 A 
ATOM     39  C   UNL     1       3.368   1.364  -2.734  1.00  0.00     0.010 A 
ATOM     40  C   UNL     1       2.506   1.401  -1.624  1.00  0.00    -0.014 A 
BRANCH  40  41
ATOM     41  C   UNL     1       1.750   2.631  -1.275  1.00  0.00     0.031 A 
ATOM     42  C   UNL     1       0.720   3.152  -2.240  1.00  0.00     0.074 A 
ATOM     43  C   UNL     1       1.883   3.234  -0.079  1.00  0.00     0.049 A 
ATOM     44  N   UNL     1       0.092   4.300  -2.240  1.00  0.00    -0.248 NA
ATOM     45  C   UNL     1       0.326   2.248  -3.333  1.00  0.00     0.031 C 
ATOM     46  C   UNL     1       2.705   2.750   1.029  1.00  0.00     0.029 A 
ATOM     47  N   UNL     1       1.311   4.383   0.407  1.00  0.00    -0.354 N 
ATOM     48  C   UNL     1      -0.736   4.275  -3.353  1.00  0.00     0.074 A 
ATOM     49  C   UNL     1      -0.548   2.992  -3.995  1.00  0.00     0.031 C 
ATOM     50  C   UNL     1       2.569   3.584   2.073  1.00  0.00     0.029 A 
ATOM     51  C   UNL     1       1.732   4.714   1.675  1.00  0.00     0.049 A 
ATOM     52  H   UNL     1       0.660   4.918  -0.102  1.00  0.00     0.167 HD
ATOM     53  C   UNL     1      -1.571   5.242  -3.800  1.00  0.00     0.037 A 
ATOM     54  C   UNL     1       1.520   5.829   2.404  1.00  0.00     0.037 A 
ATOM     55  C   UNL     1      -1.783   6.503  -3.143  1.00  0.00     0.049 A 
ATOM     56  C   UNL     1       0.725   6.960   1.812  1.00  0.00     0.074 A 
ATOM     57  C   UNL     1      -2.567   7.568  -3.552  1.00  0.00     0.029 A 
ATOM     58  N   UNL     1      -1.222   6.864  -1.929  1.00  0.00    -0.354 N 
ATOM     59  N   UNL     1       0.061   7.006   0.683  1.00  0.00    -0.248 NA
ATOM     60  C   UNL     1       0.685   8.217   2.579  1.00  0.00     0.031 C 
ATOM     61  C   UNL     1      -2.451   8.587  -2.602  1.00  0.00     0.029 A 
ATOM     62  C   UNL     1      -1.629   8.141  -1.581  1.00  0.00     0.049 A 
ATOM     63  H   UNL     1      -0.623   6.295  -1.392  1.00  0.00     0.167 HD
ATOM     64  C   UNL     1      -0.479   8.283   0.606  1.00  0.00     0.074 A 
ATOM     65  C   UNL     1      -0.083   8.980   1.812  1.00  0.00     0.031 C 
ATOM     66  C   UNL     1      -1.229   8.829  -0.382  1.00  0.00     0.037 A 
BRANCH  53  67
ATOM     67  C   UNL     1      -2.282   5.001  -5.095  1.00  0.00     0.064 A 
ATOM     68  C   UNL     1      -3.404   4.167  -5.179  1.00  0.00     0.173 A 
ATOM     69  C   UNL     1      -1.871   5.678  -6.254  1.00  0.00     0.173 A 
ATOM     70  F   UNL     1      -3.823   3.489  -4.100  1.00  0.00    -0.203 F 
ATOM     71  C   UNL     1      -4.090   4.015  -6.381  1.00  0.00     0.198 A 
ATOM     72  C   UNL     1      -2.572   5.542  -7.447  1.00  0.00     0.198 A 
ATOM     73  F   UNL     1      -0.804   6.490  -6.219  1.00  0.00    -0.203 F 
ATOM     74  F   UNL     1      -5.150   3.198  -6.449  1.00  0.00    -0.200 F 
ATOM     75  C   UNL     1      -3.680   4.710  -7.511  1.00  0.00     0.200 A 
ATOM     76  F   UNL     1      -2.182   6.224  -8.533  1.00  0.00    -0.200 F 
ATOM     77  F   UNL     1      -4.354   4.579  -8.662  1.00  0.00    -0.200 F 
ENDBRANCH  53  67
BRANCH  54  78
ATOM     78  C   UNL     1       2.138   5.964   3.748  1.00  0.00     0.064 A 
ATOM     79  C   UNL     1       1.350   6.021   4.903  1.00  0.00     0.173 A 
ATOM     80  C   UNL     1       3.535   6.056   3.903  1.00  0.00     0.173 A 
ATOM     81  F   UNL     1       0.015   5.976   4.806  1.00  0.00    -0.203 F 
ATOM     82  C   UNL     1       1.932   6.164   6.166  1.00  0.00     0.198 A 
ATOM     83  C   UNL     1       4.112   6.167   5.162  1.00  0.00     0.198 A 
ATOM     84  F   UNL     1       4.330   6.024   2.828  1.00  0.00    -0.203 F 
ATOM     85  F   UNL     1       1.153   6.253   7.251  1.00  0.00    -0.200 F 
ATOM     86  C   UNL     1       3.309   6.226   6.295  1.00  0.00     0.200 A 
ATOM     87  F   UNL     1       5.445   6.218   5.284  1.00  0.00    -0.200 F 
ATOM     88  F   UNL     1       3.867   6.352   7.505  1.00  0.00    -0.200 F 
ENDBRANCH  54  78
BRANCH  66  89
ATOM     89  C   UNL     1      -1.688  10.247  -0.208  1.00  0.00     0.064 A 
ATOM     90  C   UNL     1      -0.804  11.324  -0.364  1.00  0.00     0.173 A 
ATOM     91  C   UNL     1      -3.038  10.534   0.044  1.00  0.00     0.173 A 
ATOM     92  F   UNL     1       0.499  11.101  -0.592  1.00  0.00    -0.203 F 
ATOM     93  C   UNL     1      -1.254  12.638  -0.264  1.00  0.00     0.198 A 
ATOM     94  C   UNL     1      -3.489  11.849   0.119  1.00  0.00     0.198 A 
ATOM     95  F   UNL     1      -3.924   9.538   0.194  1.00  0.00    -0.203 F 
ATOM     96  F   UNL     1      -0.387  13.653  -0.387  1.00  0.00    -0.200 F 
ATOM     97  C   UNL     1      -2.597  12.899  -0.032  1.00  0.00     0.200 A 
ATOM     98  F   UNL     1      -4.789  12.100   0.329  1.00  0.00    -0.200 F 
ATOM     99  F   UNL     1      -3.030  14.165   0.049  1.00  0.00    -0.200 F 
ENDBRANCH  66  89
ENDBRANCH  40  41
ENDBRANCH  33  35
ENDBRANCH  32  33
ENDBRANCH  31  32
ENDBRANCH  30  31
ENDBRANCH  29  30
ENDBRANCH  28  29
ENDBRANCH   1  28
TORSDOF 22
