REMARK SMILES COc1cc(OC)cc(-c2ccc(C(=O)OCCOCCOCCOC(=O)c3ccc(-c4c5nc(c(-c6c(F)c(F)c(F)c(F)c6F)c6ccc([nH]6)c(-c6c(F)c(F)c(F)c(F)c6F)c6nc(c(-c7c(F)c(F)c(F)c(F)c7F)c7ccc4[nH]7)C=C6)C=C5)cc3)o2)c1
REMARK SMILES IDX 20 1 19 2 18 3 17 4 16 5 14 6 15 7 13 8 10 9 11 10 91 11
REMARK SMILES IDX 12 12 9 13 3 14 4 15 92 16 5 17 8 18 2 19 1 20 6 21 7 22
REMARK SMILES IDX 21 23 22 24 23 25 24 26 25 27 26 28 27 29 28 30 29 31 90 32
REMARK SMILES IDX 30 33 89 34 31 35 32 36 33 37 83 38 34 39 88 40 82 41 84 42
REMARK SMILES IDX 35 43 87 44 81 45 80 46 36 48 68 49 48 50 67 51 49 52 52 53
REMARK SMILES IDX 66 54 85 55 50 56 51 57 65 59 86 60 53 61 37 62 38 63 46 64
REMARK SMILES IDX 39 65 40 66 44 67 47 68 41 69 42 70 45 71 43 72 69 73 70 74
REMARK SMILES IDX 78 75 71 76 72 77 76 78 79 79 73 80 74 81 77 82 75 83 54 84
REMARK SMILES IDX 55 85 63 86 56 87 57 88 61 89 64 90 58 91 59 92 62 93 60 94
REMARK H PARENT 84 47 52 58
REMARK Flexibility Score: inf
ROOT
ATOM      1  C   UNL     1       6.610   1.191   7.846  1.00  0.00     0.188 C 
ENDROOT
BRANCH   1   2
ATOM      2  O   UNL     1       7.509   0.200   8.331  1.00  0.00    -0.376 OA
BRANCH   2   3
ATOM      3  C   UNL     1       8.695  -0.092   7.605  1.00  0.00     0.202 C 
BRANCH   3   4
ATOM      4  C   UNL     1       8.511  -0.780   6.251  1.00  0.00     0.261 C 
BRANCH   4   5
ATOM      5  O   UNL     1       7.838   0.066   5.306  1.00  0.00    -0.457 OA
BRANCH   5   6
ATOM      6  C   UNL     1       6.631  -0.383   4.847  1.00  0.00     0.374 C 
ATOM      7  O   UNL     1       6.160  -1.488   5.088  1.00  0.00    -0.242 OA
BRANCH   6   8
ATOM      8  C   UNL     1       5.959   0.683   4.139  1.00  0.00     0.212 A 
ATOM      9  C   UNL     1       4.176   1.766   3.427  1.00  0.00     0.135 A 
ATOM     10  C   UNL     1       5.258   2.544   3.084  1.00  0.00     0.052 A 
ATOM     11  O   UNL     1       4.590   0.631   4.053  1.00  0.00    -0.449 OA
ATOM     12  C   UNL     1       6.406   1.847   3.538  1.00  0.00     0.059 A 
BRANCH   9  13
ATOM     13  C   UNL     1       2.747   1.886   3.217  1.00  0.00     0.025 A 
ATOM     14  C   UNL     1       0.819   1.444   1.819  1.00  0.00     0.123 A 
ATOM     15  C   UNL     1       0.033   2.189   2.699  1.00  0.00     0.092 A 
ATOM     16  C   UNL     1       2.178   1.296   2.080  1.00  0.00     0.058 A 
ATOM     17  C   UNL     1       0.583   2.776   3.841  1.00  0.00     0.123 A 
ATOM     18  C   UNL     1       1.944   2.616   4.107  1.00  0.00     0.058 A 
BRANCH  14  19
ATOM     19  O   UNL     1       0.153   0.946   0.733  1.00  0.00    -0.497 OA
ATOM     20  C   UNL     1       0.840  -0.030  -0.041  1.00  0.00     0.278 C 
ENDBRANCH  14  19
BRANCH  17  21
ATOM     21  O   UNL     1      -0.317   3.477   4.596  1.00  0.00    -0.497 OA
ATOM     22  C   UNL     1       0.191   4.230   5.687  1.00  0.00     0.278 C 
ENDBRANCH  17  21
ENDBRANCH   9  13
ENDBRANCH   6   8
ENDBRANCH   5   6
ENDBRANCH   4   5
ENDBRANCH   3   4
ENDBRANCH   2   3
ENDBRANCH   1   2
BRANCH   1  23
ATOM     23  C   UNL     1       7.164   2.481   7.214  1.00  0.00     0.188 C 
BRANCH  23  24
ATOM     24  O   UNL     1       8.472   2.823   7.651  1.00  0.00    -0.376 OA
BRANCH  24  25
ATOM     25  C   UNL     1       8.585   4.048   8.362  1.00  0.00     0.202 C 
BRANCH  25  26
ATOM     26  C   UNL     1       8.263   3.879   9.848  1.00  0.00     0.261 C 
BRANCH  26  27
ATOM     27  O   UNL     1       6.907   3.487  10.116  1.00  0.00    -0.460 OA
BRANCH  27  28
ATOM     28  C   UNL     1       5.944   4.374   9.785  1.00  0.00     0.338 C 
ATOM     29  O   UNL     1       6.088   5.474   9.285  1.00  0.00    -0.246 OA
BRANCH  28  30
ATOM     30  C   UNL     1       4.638   3.720   9.986  1.00  0.00     0.060 A 
ATOM     31  C   UNL     1       3.731   3.687   8.921  1.00  0.00     0.016 A 
ATOM     32  C   UNL     1       4.310   3.151  11.220  1.00  0.00     0.016 A 
ATOM     33  C   UNL     1       2.477   3.106   9.102  1.00  0.00     0.010 A 
ATOM     34  C   UNL     1       3.047   2.585  11.402  1.00  0.00     0.010 A 
ATOM     35  C   UNL     1       2.114   2.586  10.353  1.00  0.00    -0.014 A 
BRANCH  35  36
ATOM     36  C   UNL     1       0.709   2.192  10.612  1.00  0.00     0.031 A 
ATOM     37  C   UNL     1      -0.217   3.197  11.237  1.00  0.00     0.074 A 
ATOM     38  C   UNL     1       0.258   0.966  10.297  1.00  0.00     0.049 A 
ATOM     39  N   UNL     1      -1.474   3.072  11.581  1.00  0.00    -0.248 NA
ATOM     40  C   UNL     1       0.353   4.526  11.511  1.00  0.00     0.031 C 
ATOM     41  C   UNL     1       1.041  -0.085   9.655  1.00  0.00     0.029 A 
ATOM     42  N   UNL     1      -0.979   0.401  10.486  1.00  0.00    -0.354 N 
ATOM     43  C   UNL     1      -1.843   4.301  12.111  1.00  0.00     0.074 A 
ATOM     44  C   UNL     1      -0.673   5.151  12.068  1.00  0.00     0.031 C 
ATOM     45  C   UNL     1       0.267  -1.175   9.506  1.00  0.00     0.029 A 
ATOM     46  C   UNL     1      -1.056  -0.904  10.069  1.00  0.00     0.049 A 
ATOM     47  H   UNL     1      -1.739   0.885  10.883  1.00  0.00     0.167 HD
ATOM     48  C   UNL     1      -3.050   4.689  12.585  1.00  0.00     0.037 A 
ATOM     49  C   UNL     1      -2.076  -1.782  10.148  1.00  0.00     0.037 A 
ATOM     50  C   UNL     1      -4.214   3.846  12.637  1.00  0.00     0.049 A 
ATOM     51  C   UNL     1      -3.383  -1.352  10.763  1.00  0.00     0.074 A 
ATOM     52  C   UNL     1      -5.489   4.160  13.073  1.00  0.00     0.029 A 
ATOM     53  N   UNL     1      -4.238   2.514  12.252  1.00  0.00    -0.354 N 
ATOM     54  N   UNL     1      -3.736  -0.178  11.226  1.00  0.00    -0.248 NA
ATOM     55  C   UNL     1      -4.433  -2.377  10.869  1.00  0.00     0.031 C 
ATOM     56  C   UNL     1      -6.274   3.004  12.995  1.00  0.00     0.029 A 
ATOM     57  C   UNL     1      -5.499   1.982  12.470  1.00  0.00     0.049 A 
ATOM     58  H   UNL     1      -3.473   2.019  11.879  1.00  0.00     0.167 HD
ATOM     59  C   UNL     1      -5.054  -0.312  11.645  1.00  0.00     0.074 A 
ATOM     60  C   UNL     1      -5.440  -1.682  11.382  1.00  0.00     0.031 C 
ATOM     61  C   UNL     1      -5.872   0.619  12.195  1.00  0.00     0.037 A 
BRANCH  48  62
ATOM     62  C   UNL     1      -3.160   6.087  13.112  1.00  0.00     0.064 A 
ATOM     63  C   UNL     1      -3.174   7.196  12.254  1.00  0.00     0.173 A 
ATOM     64  C   UNL     1      -3.261   6.319  14.492  1.00  0.00     0.173 A 
ATOM     65  F   UNL     1      -3.060   7.026  10.928  1.00  0.00    -0.203 F 
ATOM     66  C   UNL     1      -3.259   8.490  12.761  1.00  0.00     0.198 A 
ATOM     67  C   UNL     1      -3.370   7.612  14.993  1.00  0.00     0.198 A 
ATOM     68  F   UNL     1      -3.251   5.290  15.352  1.00  0.00    -0.203 F 
ATOM     69  F   UNL     1      -3.223   9.539  11.927  1.00  0.00    -0.200 F 
ATOM     70  C   UNL     1      -3.362   8.697  14.129  1.00  0.00     0.200 A 
ATOM     71  F   UNL     1      -3.474   7.811  16.314  1.00  0.00    -0.200 F 
ATOM     72  F   UNL     1      -3.442   9.943  14.615  1.00  0.00    -0.200 F 
ENDBRANCH  48  62
BRANCH  49  73
ATOM     73  C   UNL     1      -1.908  -3.164   9.632  1.00  0.00     0.064 A 
ATOM     74  C   UNL     1      -2.582  -3.587   8.478  1.00  0.00     0.173 A 
ATOM     75  C   UNL     1      -1.097  -4.096  10.295  1.00  0.00     0.173 A 
ATOM     76  F   UNL     1      -3.397  -2.740   7.831  1.00  0.00    -0.203 F 
ATOM     77  C   UNL     1      -2.460  -4.894   8.013  1.00  0.00     0.198 A 
ATOM     78  C   UNL     1      -0.958  -5.397   9.816  1.00  0.00     0.198 A 
ATOM     79  F   UNL     1      -0.442  -3.743  11.411  1.00  0.00    -0.203 F 
ATOM     80  F   UNL     1      -3.150  -5.286   6.933  1.00  0.00    -0.200 F 
ATOM     81  C   UNL     1      -1.644  -5.796   8.679  1.00  0.00     0.200 A 
ATOM     82  F   UNL     1      -0.169  -6.266  10.463  1.00  0.00    -0.200 F 
ATOM     83  F   UNL     1      -1.530  -7.055   8.234  1.00  0.00    -0.200 F 
ENDBRANCH  49  73
BRANCH  61  84
ATOM     84  C   UNL     1      -7.277   0.202  12.515  1.00  0.00     0.064 A 
ATOM     85  C   UNL     1      -7.569  -0.620  13.613  1.00  0.00     0.173 A 
ATOM     86  C   UNL     1      -8.350   0.670  11.740  1.00  0.00     0.173 A 
ATOM     87  F   UNL     1      -6.577  -1.104  14.376  1.00  0.00    -0.203 F 
ATOM     88  C   UNL     1      -8.882  -0.973  13.913  1.00  0.00     0.198 A 
ATOM     89  C   UNL     1      -9.663   0.334  12.057  1.00  0.00     0.198 A 
ATOM     90  F   UNL     1      -8.124   1.464  10.683  1.00  0.00    -0.203 F 
ATOM     91  F   UNL     1      -9.135  -1.790  14.945  1.00  0.00    -0.200 F 
ATOM     92  C   UNL     1      -9.928  -0.491  13.140  1.00  0.00     0.200 A 
ATOM     93  F   UNL     1     -10.673   0.811  11.316  1.00  0.00    -0.200 F 
ATOM     94  F   UNL     1     -11.191  -0.826  13.435  1.00  0.00    -0.200 F 
ENDBRANCH  61  84
ENDBRANCH  35  36
ENDBRANCH  28  30
ENDBRANCH  27  28
ENDBRANCH  26  27
ENDBRANCH  25  26
ENDBRANCH  24  25
ENDBRANCH  23  24
ENDBRANCH   1  23
TORSDOF 20
