REMARK SMILES CC(C)(C)OC(=O)N1C[C@@H](C(=O)OCCOCCOCCOC(=O)c2ccc(-c3c4nc(c(-c5c(F)c(F)c(F)c(F)c5F)c5ccc([nH]5)c(-c5c(F)c(F)c(F)c(F)c5F)c5nc(c(-c6c(F)c(F)c(F)c(F)c6F)c6ccc3[nH]6)C=C5)C=C4)cc2)[C@H](c2cccc([N+](=O)[O-])c2)C1
REMARK SMILES IDX 17 1 16 2 15 3 14 4 13 5 11 6 12 7 10 8 8 9 9 10 98 11 88 12
REMARK SMILES IDX 6 13 7 14 5 15 2 16 1 17 3 18 4 19 89 20 90 21 97 22 91 23
REMARK SMILES IDX 93 24 92 25 94 26 95 27 96 28 18 29 19 30 20 31 21 32 22 33
REMARK SMILES IDX 23 34 24 35 25 36 26 37 87 38 27 39 86 40 28 41 29 42 30 43
REMARK SMILES IDX 80 44 31 45 85 46 79 47 81 48 32 49 84 50 78 51 77 52 33 54
REMARK SMILES IDX 65 55 45 56 64 57 46 58 49 59 63 60 82 61 47 62 48 63 62 65
REMARK SMILES IDX 83 66 50 67 34 68 35 69 43 70 36 71 37 72 41 73 44 74 38 75
REMARK SMILES IDX 39 76 42 77 40 78 66 79 67 80 75 81 68 82 69 83 73 84 76 85
REMARK SMILES IDX 70 86 71 87 74 88 72 89 51 90 52 91 60 92 53 93 54 94 58 95
REMARK SMILES IDX 61 96 55 97 56 98 59 99 57 100
REMARK H PARENT 81 53 49 64
REMARK Flexibility Score: inf
ROOT
ATOM      1  C   UNL     1       5.324   3.799  -5.526  1.00  0.00     0.188 C 
ENDROOT
BRANCH   1   2
ATOM      2  O   UNL     1       5.679   5.062  -6.087  1.00  0.00    -0.376 OA
BRANCH   2   3
ATOM      3  C   UNL     1       5.853   6.193  -5.251  1.00  0.00     0.202 C 
BRANCH   3   4
ATOM      4  C   UNL     1       4.572   6.888  -4.770  1.00  0.00     0.261 C 
BRANCH   4   5
ATOM      5  O   UNL     1       3.541   6.053  -4.200  1.00  0.00    -0.463 OA
BRANCH   5   6
ATOM      6  C   UNL     1       2.701   5.479  -5.104  1.00  0.00     0.311 C 
ATOM      7  O   UNL     1       2.861   5.534  -6.317  1.00  0.00    -0.252 OA
BRANCH   6   8
ATOM      8  C   UNL     1       1.496   4.826  -4.447  1.00  0.00     0.128 C 
ATOM      9  N   UNL     1       0.551   2.684  -4.125  1.00  0.00    -0.307 N 
ATOM     10  C   UNL     1       1.766   3.432  -3.892  1.00  0.00     0.139 C 
ATOM     11  C   UNL     1      -0.228   3.250  -5.204  1.00  0.00     0.132 C 
ATOM     12  C   UNL     1       0.376   4.629  -5.515  1.00  0.00     0.055 C 
BRANCH   9  13
ATOM     13  C   UNL     1       0.180   1.480  -3.565  1.00  0.00     0.410 C 
ATOM     14  O   UNL     1      -0.688   0.775  -4.065  1.00  0.00    -0.224 OA
BRANCH  13  15
ATOM     15  O   UNL     1       0.831   1.197  -2.405  1.00  0.00    -0.444 OA
BRANCH  15  16
ATOM     16  C   UNL     1       0.434   0.032  -1.615  1.00  0.00     0.106 C 
ATOM     17  C   UNL     1       1.106   0.208  -0.243  1.00  0.00     0.056 C 
ATOM     18  C   UNL     1       0.965  -1.252  -2.261  1.00  0.00     0.056 C 
ATOM     19  C   UNL     1      -1.084  -0.052  -1.371  1.00  0.00     0.056 C 
ENDBRANCH  15  16
ENDBRANCH  13  15
ENDBRANCH   9  13
BRANCH  12  20
ATOM     20  C   UNL     1      -0.525   5.859  -5.583  1.00  0.00    -0.035 A 
ATOM     21  C   UNL     1      -1.899   5.838  -5.316  1.00  0.00     0.004 A 
ATOM     22  C   UNL     1       0.052   7.101  -5.926  1.00  0.00     0.089 A 
ATOM     23  C   UNL     1      -2.661   7.014  -5.359  1.00  0.00     0.007 A 
ATOM     24  C   UNL     1      -0.701   8.280  -5.927  1.00  0.00     0.269 A 
ATOM     25  C   UNL     1      -2.066   8.241  -5.650  1.00  0.00     0.085 A 
BRANCH  24  26
ATOM     26  N   UNL     1      -0.035   9.562  -6.186  1.00  0.00     0.062 N 
ATOM     27  O   UNL     1      -0.750  10.561  -6.348  1.00  0.00    -0.258 OA
ATOM     28  O   UNL     1       1.205   9.575  -6.205  1.00  0.00    -0.258 OA
ENDBRANCH  24  26
ENDBRANCH  12  20
ENDBRANCH   6   8
ENDBRANCH   5   6
ENDBRANCH   4   5
ENDBRANCH   3   4
ENDBRANCH   2   3
ENDBRANCH   1   2
BRANCH   1  29
ATOM     29  C   UNL     1       5.261   3.611  -4.000  1.00  0.00     0.188 C 
BRANCH  29  30
ATOM     30  O   UNL     1       6.389   4.186  -3.369  1.00  0.00    -0.376 OA
BRANCH  30  31
ATOM     31  C   UNL     1       7.173   3.325  -2.573  1.00  0.00     0.202 C 
BRANCH  31  32
ATOM     32  C   UNL     1       8.023   2.318  -3.359  1.00  0.00     0.261 C 
BRANCH  32  33
ATOM     33  O   UNL     1       7.380   1.661  -4.468  1.00  0.00    -0.460 OA
BRANCH  33  34
ATOM     34  C   UNL     1       6.540   0.634  -4.189  1.00  0.00     0.338 C 
ATOM     35  O   UNL     1       6.243   0.216  -3.095  1.00  0.00    -0.246 OA
BRANCH  34  36
ATOM     36  C   UNL     1       5.888   0.212  -5.458  1.00  0.00     0.060 A 
ATOM     37  C   UNL     1       4.488   0.222  -5.547  1.00  0.00     0.016 A 
ATOM     38  C   UNL     1       6.652  -0.220  -6.544  1.00  0.00     0.016 A 
ATOM     39  C   UNL     1       3.850  -0.234  -6.709  1.00  0.00     0.010 A 
ATOM     40  C   UNL     1       6.013  -0.693  -7.697  1.00  0.00     0.010 A 
ATOM     41  C   UNL     1       4.608  -0.736  -7.776  1.00  0.00    -0.014 A 
BRANCH  41  42
ATOM     42  C   UNL     1       3.964  -1.497  -8.882  1.00  0.00     0.031 A 
ATOM     43  C   UNL     1       3.990  -3.002  -8.819  1.00  0.00     0.074 A 
ATOM     44  C   UNL     1       3.383  -0.891  -9.933  1.00  0.00     0.049 A 
ATOM     45  N   UNL     1       3.627  -3.887  -9.713  1.00  0.00    -0.248 NA
ATOM     46  C   UNL     1       4.505  -3.586  -7.570  1.00  0.00     0.031 C 
ATOM     47  C   UNL     1       3.226   0.551 -10.100  1.00  0.00     0.029 A 
ATOM     48  N   UNL     1       2.827  -1.425 -11.073  1.00  0.00    -0.354 N 
ATOM     49  C   UNL     1       3.883  -5.128  -9.142  1.00  0.00     0.074 A 
ATOM     50  C   UNL     1       4.459  -4.881  -7.838  1.00  0.00     0.031 C 
ATOM     51  C   UNL     1       2.627   0.789 -11.281  1.00  0.00     0.029 A 
ATOM     52  C   UNL     1       2.400  -0.480 -11.974  1.00  0.00     0.049 A 
ATOM     53  H   UNL     1       2.744  -2.394 -11.228  1.00  0.00     0.167 HD
ATOM     54  C   UNL     1       3.654  -6.362  -9.653  1.00  0.00     0.037 A 
ATOM     55  C   UNL     1       1.914  -0.624 -13.224  1.00  0.00     0.037 A 
ATOM     56  C   UNL     1       3.088  -6.612 -10.952  1.00  0.00     0.049 A 
ATOM     57  C   UNL     1       1.768  -2.006 -13.817  1.00  0.00     0.074 A 
ATOM     58  C   UNL     1       2.823  -7.827 -11.559  1.00  0.00     0.029 A 
ATOM     59  N   UNL     1       2.706  -5.626 -11.850  1.00  0.00    -0.354 N 
ATOM     60  N   UNL     1       2.012  -3.174 -13.275  1.00  0.00    -0.248 NA
ATOM     61  C   UNL     1       1.282  -2.086 -15.204  1.00  0.00     0.031 C 
ATOM     62  C   UNL     1       2.335  -7.577 -12.846  1.00  0.00     0.029 A 
ATOM     63  C   UNL     1       2.232  -6.206 -13.016  1.00  0.00     0.049 A 
ATOM     64  H   UNL     1       2.763  -4.657 -11.683  1.00  0.00     0.167 HD
ATOM     65  C   UNL     1       1.671  -4.123 -14.233  1.00  0.00     0.074 A 
ATOM     66  C   UNL     1       1.198  -3.395 -15.391  1.00  0.00     0.031 C 
ATOM     67  C   UNL     1       1.741  -5.475 -14.157  1.00  0.00     0.037 A 
BRANCH  54  68
ATOM     68  C   UNL     1       4.057  -7.540  -8.812  1.00  0.00     0.064 A 
ATOM     69  C   UNL     1       3.381  -7.869  -7.627  1.00  0.00     0.173 A 
ATOM     70  C   UNL     1       5.128  -8.358  -9.204  1.00  0.00     0.173 A 
ATOM     71  F   UNL     1       2.360  -7.112  -7.199  1.00  0.00    -0.203 F 
ATOM     72  C   UNL     1       3.786  -8.950  -6.847  1.00  0.00     0.198 A 
ATOM     73  C   UNL     1       5.507  -9.459  -8.440  1.00  0.00     0.198 A 
ATOM     74  F   UNL     1       5.806  -8.093 -10.331  1.00  0.00    -0.203 F 
ATOM     75  F   UNL     1       3.166  -9.207  -5.688  1.00  0.00    -0.200 F 
ATOM     76  C   UNL     1       4.844  -9.747  -7.258  1.00  0.00     0.200 A 
ATOM     77  F   UNL     1       6.520 -10.237  -8.846  1.00  0.00    -0.200 F 
ATOM     78  F   UNL     1       5.232 -10.787  -6.507  1.00  0.00    -0.200 F 
ENDBRANCH  54  68
BRANCH  55  79
ATOM     79  C   UNL     1       1.537   0.575 -14.024  1.00  0.00     0.064 A 
ATOM     80  C   UNL     1       0.201   0.812 -14.382  1.00  0.00     0.173 A 
ATOM     81  C   UNL     1       2.503   1.482 -14.483  1.00  0.00     0.173 A 
ATOM     82  F   UNL     1      -0.756  -0.046 -13.999  1.00  0.00    -0.203 F 
ATOM     83  C   UNL     1      -0.150   1.898 -15.182  1.00  0.00     0.198 A 
ATOM     84  C   UNL     1       2.146   2.586 -15.257  1.00  0.00     0.198 A 
ATOM     85  F   UNL     1       3.796   1.296 -14.182  1.00  0.00    -0.203 F 
ATOM     86  F   UNL     1      -1.426   2.067 -15.555  1.00  0.00    -0.200 F 
ATOM     87  C   UNL     1       0.822   2.788 -15.613  1.00  0.00     0.200 A 
ATOM     88  F   UNL     1       3.088   3.447 -15.666  1.00  0.00    -0.200 F 
ATOM     89  F   UNL     1       0.484   3.832 -16.382  1.00  0.00    -0.200 F 
ENDBRANCH  55  79
BRANCH  67  90
ATOM     90  C   UNL     1       1.238  -6.271 -15.331  1.00  0.00     0.064 A 
ATOM     91  C   UNL     1       1.926  -6.314 -16.552  1.00  0.00     0.173 A 
ATOM     92  C   UNL     1       0.074  -7.048 -15.209  1.00  0.00     0.173 A 
ATOM     93  F   UNL     1       3.037  -5.583 -16.727  1.00  0.00    -0.203 F 
ATOM     94  C   UNL     1       1.456  -7.085 -17.614  1.00  0.00     0.198 A 
ATOM     95  C   UNL     1      -0.375  -7.843 -16.260  1.00  0.00     0.198 A 
ATOM     96  F   UNL     1      -0.619  -7.052 -14.060  1.00  0.00    -0.203 F 
ATOM     97  F   UNL     1       2.105  -7.074 -18.786  1.00  0.00    -0.200 F 
ATOM     98  C   UNL     1       0.312  -7.855 -17.464  1.00  0.00     0.200 A 
ATOM     99  F   UNL     1      -1.470  -8.600 -16.107  1.00  0.00    -0.200 F 
ATOM    100  F   UNL     1      -0.132  -8.605 -18.483  1.00  0.00    -0.200 F 
ENDBRANCH  67  90
ENDBRANCH  41  42
ENDBRANCH  34  36
ENDBRANCH  33  34
ENDBRANCH  32  33
ENDBRANCH  31  32
ENDBRANCH  30  31
ENDBRANCH  29  30
ENDBRANCH   1  29
TORSDOF 22
