REMARK SMILES [NH3+]C[C@@H]1CC[C@H](C(=O)N[C@@H](Cc2ccccc2)C(=O)OCCOCCOCCOC(=O)c2ccc(-c3c4nc(c(-c5c(F)c(F)c(F)c(F)c5F)c5ccc([nH]5)c(-c5c(F)c(F)c(F)c(F)c5F)c5nc(c(-c6c(F)c(F)c(F)c(F)c6F)c6ccc3[nH]6)C=C5)C=C4)cc2)O1
REMARK SMILES IDX 24 1 23 2 22 3 21 4 20 5 18 6 19 7 10 8 9 9 7 10 8 11 6 13
REMARK SMILES IDX 3 14 4 15 95 16 5 17 2 18 1 19 11 23 12 24 13 25 17 26 14 27
REMARK SMILES IDX 16 28 15 29 25 30 26 31 27 32 28 33 29 34 30 35 31 36 32 37
REMARK SMILES IDX 33 38 94 39 34 40 93 41 35 42 36 43 37 44 87 45 38 46 92 47
REMARK SMILES IDX 86 48 88 49 39 50 91 51 85 52 84 53 40 55 72 56 52 57 71 58
REMARK SMILES IDX 53 59 56 60 70 61 89 62 54 63 55 64 69 66 90 67 57 68 41 69
REMARK SMILES IDX 42 70 50 71 43 72 44 73 48 74 51 75 45 76 46 77 49 78 47 79
REMARK SMILES IDX 73 80 74 81 82 82 75 83 76 84 80 85 83 86 77 87 78 88 81 89
REMARK SMILES IDX 79 90 58 91 59 92 67 93 60 94 61 95 65 96 68 97 62 98 63 99
REMARK SMILES IDX 66 100 64 101
REMARK H PARENT 9 12 1 20 1 21 1 22 88 54 56 65
REMARK Flexibility Score: inf
ROOT
ATOM      1  C   UNL     1       1.598  -3.095  -1.167  1.00  0.00     0.188 C 
ENDROOT
BRANCH   1   2
ATOM      2  O   UNL     1       1.274  -3.334  -2.518  1.00  0.00    -0.376 OA
BRANCH   2   3
ATOM      3  C   UNL     1       1.780  -2.473  -3.527  1.00  0.00     0.202 C 
BRANCH   3   4
ATOM      4  C   UNL     1       2.337  -1.065  -3.253  1.00  0.00     0.261 C 
BRANCH   4   5
ATOM      5  O   UNL     1       3.057  -0.877  -2.021  1.00  0.00    -0.462 OA
BRANCH   5   6
ATOM      6  C   UNL     1       2.600   0.123  -1.228  1.00  0.00     0.329 C 
ATOM      7  O   UNL     1       1.639   0.839  -1.511  1.00  0.00    -0.250 OA
BRANCH   6   8
ATOM      8  C   UNL     1       3.416   0.394   0.054  1.00  0.00     0.196 C 
BRANCH   8   9
ATOM      9  N   UNL     1       4.311  -0.556   0.729  1.00  0.00    -0.340 N 
ATOM     10  C   UNL     1       4.223  -1.099   1.979  1.00  0.00     0.249 C 
ATOM     11  O   UNL     1       5.208  -1.698   2.418  1.00  0.00    -0.272 OA
ATOM     12  H   UNL     1       5.090  -0.844   0.200  1.00  0.00     0.164 HD
BRANCH  10  13
ATOM     13  C   UNL     1       2.941  -0.993   2.817  1.00  0.00     0.207 C 
ATOM     14  C   UNL     1       0.706  -0.462   2.571  1.00  0.00     0.174 C 
ATOM     15  C   UNL     1       1.372   0.823   3.039  1.00  0.00     0.041 C 
ATOM     16  O   UNL     1       1.771  -1.260   2.031  1.00  0.00    -0.359 OA
ATOM     17  C   UNL     1       2.726   0.339   3.528  1.00  0.00     0.045 C 
BRANCH  14  18
ATOM     18  C   UNL     1      -0.449  -0.361   1.556  1.00  0.00     0.291 C 
BRANCH  18  19
ATOM     19  N   UNL     1      -0.453   0.751   0.613  1.00  0.00    -0.355 N 
ATOM     20  H   UNL     1      -1.273   0.683   0.010  1.00  0.00     0.344 HD
ATOM     21  H   UNL     1       0.392   0.715   0.042  1.00  0.00     0.344 HD
ATOM     22  H   UNL     1      -0.480   1.632   1.126  1.00  0.00     0.344 HD
ENDBRANCH  18  19
ENDBRANCH  14  18
ENDBRANCH  10  13
ENDBRANCH   8   9
BRANCH   8  23
ATOM     23  C   UNL     1       4.146   1.727  -0.148  1.00  0.00     0.072 C 
BRANCH  23  24
ATOM     24  C   UNL     1       5.152   1.807  -1.277  1.00  0.00    -0.045 A 
ATOM     25  C   UNL     1       5.796   0.700  -1.852  1.00  0.00     0.004 A 
ATOM     26  C   UNL     1       5.474   3.083  -1.761  1.00  0.00     0.004 A 
ATOM     27  C   UNL     1       6.728   0.862  -2.877  1.00  0.00     0.000 A 
ATOM     28  C   UNL     1       6.397   3.244  -2.793  1.00  0.00     0.000 A 
ATOM     29  C   UNL     1       7.027   2.134  -3.349  1.00  0.00     0.000 A 
ENDBRANCH  23  24
ENDBRANCH   8  23
ENDBRANCH   6   8
ENDBRANCH   5   6
ENDBRANCH   4   5
ENDBRANCH   3   4
ENDBRANCH   2   3
ENDBRANCH   1   2
BRANCH   1  30
ATOM     30  C   UNL     1       3.048  -3.340  -0.713  1.00  0.00     0.188 C 
BRANCH  30  31
ATOM     31  O   UNL     1       4.074  -3.618  -1.642  1.00  0.00    -0.376 OA
BRANCH  31  32
ATOM     32  C   UNL     1       3.991  -4.805  -2.414  1.00  0.00     0.202 C 
BRANCH  32  33
ATOM     33  C   UNL     1       3.490  -6.136  -1.828  1.00  0.00     0.261 C 
BRANCH  33  34
ATOM     34  O   UNL     1       2.381  -6.049  -0.918  1.00  0.00    -0.460 OA
BRANCH  34  35
ATOM     35  C   UNL     1       2.656  -6.387   0.364  1.00  0.00     0.338 C 
ATOM     36  O   UNL     1       3.718  -6.819   0.809  1.00  0.00    -0.246 OA
BRANCH  35  37
ATOM     37  C   UNL     1       1.542  -5.986   1.241  1.00  0.00     0.060 A 
ATOM     38  C   UNL     1       1.750  -4.958   2.174  1.00  0.00     0.016 A 
ATOM     39  C   UNL     1       0.324  -6.662   1.196  1.00  0.00     0.016 A 
ATOM     40  C   UNL     1       0.744  -4.609   3.073  1.00  0.00     0.010 A 
ATOM     41  C   UNL     1      -0.671  -6.336   2.124  1.00  0.00     0.010 A 
ATOM     42  C   UNL     1      -0.456  -5.328   3.083  1.00  0.00    -0.014 A 
BRANCH  42  43
ATOM     43  C   UNL     1      -1.396  -5.176   4.220  1.00  0.00     0.031 A 
ATOM     44  C   UNL     1      -1.302  -6.151   5.360  1.00  0.00     0.074 A 
ATOM     45  C   UNL     1      -2.302  -4.185   4.262  1.00  0.00     0.049 A 
ATOM     46  N   UNL     1      -2.071  -6.286   6.410  1.00  0.00    -0.248 NA
ATOM     47  C   UNL     1      -0.183  -7.106   5.302  1.00  0.00     0.031 C 
ATOM     48  C   UNL     1      -2.449  -3.132   3.263  1.00  0.00     0.029 A 
ATOM     49  N   UNL     1      -3.279  -3.913   5.188  1.00  0.00    -0.354 N 
ATOM     50  C   UNL     1      -1.538  -7.347   7.130  1.00  0.00     0.074 A 
ATOM     51  C   UNL     1      -0.396  -7.835   6.386  1.00  0.00     0.031 C 
ATOM     52  C   UNL     1      -3.462  -2.326   3.627  1.00  0.00     0.029 A 
ATOM     53  C   UNL     1      -4.067  -2.839   4.856  1.00  0.00     0.049 A 
ATOM     54  H   UNL     1      -3.403  -4.438   6.011  1.00  0.00     0.167 HD
ATOM     55  C   UNL     1      -1.961  -7.868   8.307  1.00  0.00     0.037 A 
ATOM     56  C   UNL     1      -5.169  -2.352   5.460  1.00  0.00     0.037 A 
ATOM     57  C   UNL     1      -3.106  -7.395   9.039  1.00  0.00     0.049 A 
ATOM     58  C   UNL     1      -5.697  -3.029   6.702  1.00  0.00     0.074 A 
ATOM     59  C   UNL     1      -3.625  -7.867  10.231  1.00  0.00     0.029 A 
ATOM     60  N   UNL     1      -3.920  -6.345   8.637  1.00  0.00    -0.354 N 
ATOM     61  N   UNL     1      -5.200  -4.037   7.376  1.00  0.00    -0.248 NA
ATOM     62  C   UNL     1      -6.952  -2.501   7.259  1.00  0.00     0.031 C 
ATOM     63  C   UNL     1      -4.784  -7.139  10.523  1.00  0.00     0.029 A 
ATOM     64  C   UNL     1      -4.952  -6.171   9.546  1.00  0.00     0.049 A 
ATOM     65  H   UNL     1      -3.784  -5.803   7.827  1.00  0.00     0.167 HD
ATOM     66  C   UNL     1      -6.056  -4.240   8.453  1.00  0.00     0.074 A 
ATOM     67  C   UNL     1      -7.101  -3.244   8.347  1.00  0.00     0.031 C 
ATOM     68  C   UNL     1      -5.981  -5.166   9.441  1.00  0.00     0.037 A 
BRANCH  55  69
ATOM     69  C   UNL     1      -1.198  -9.044   8.844  1.00  0.00     0.064 A 
ATOM     70  C   UNL     1       0.112  -8.918   9.331  1.00  0.00     0.173 A 
ATOM     71  C   UNL     1      -1.784 -10.319   8.863  1.00  0.00     0.173 A 
ATOM     72  F   UNL     1       0.724  -7.724   9.320  1.00  0.00    -0.203 F 
ATOM     73  C   UNL     1       0.821 -10.031   9.775  1.00  0.00     0.198 A 
ATOM     74  C   UNL     1      -1.084 -11.423   9.341  1.00  0.00     0.198 A 
ATOM     75  F   UNL     1      -3.036 -10.496   8.414  1.00  0.00    -0.203 F 
ATOM     76  F   UNL     1       2.094  -9.896  10.173  1.00  0.00    -0.200 F 
ATOM     77  C   UNL     1       0.222 -11.281   9.785  1.00  0.00     0.200 A 
ATOM     78  F   UNL     1      -1.671 -12.628   9.362  1.00  0.00    -0.200 F 
ATOM     79  F   UNL     1       0.906 -12.351  10.210  1.00  0.00    -0.200 F 
ENDBRANCH  55  69
BRANCH  56  80
ATOM     80  C   UNL     1      -5.871  -1.168   4.896  1.00  0.00     0.064 A 
ATOM     81  C   UNL     1      -5.907   0.045   5.597  1.00  0.00     0.173 A 
ATOM     82  C   UNL     1      -6.551  -1.233   3.671  1.00  0.00     0.173 A 
ATOM     83  F   UNL     1      -5.299   0.148   6.788  1.00  0.00    -0.203 F 
ATOM     84  C   UNL     1      -6.608   1.143   5.102  1.00  0.00     0.198 A 
ATOM     85  C   UNL     1      -7.227  -0.125   3.163  1.00  0.00     0.198 A 
ATOM     86  F   UNL     1      -6.558  -2.373   2.966  1.00  0.00    -0.203 F 
ATOM     87  F   UNL     1      -6.668   2.274   5.818  1.00  0.00    -0.200 F 
ATOM     88  C   UNL     1      -7.262   1.059   3.883  1.00  0.00     0.200 A 
ATOM     89  F   UNL     1      -7.852  -0.209   1.980  1.00  0.00    -0.200 F 
ATOM     90  F   UNL     1      -7.937   2.115   3.408  1.00  0.00    -0.200 F 
ENDBRANCH  56  80
BRANCH  68  91
ATOM     91  C   UNL     1      -7.023  -5.117  10.524  1.00  0.00     0.064 A 
ATOM     92  C   UNL     1      -8.357  -5.483  10.289  1.00  0.00     0.173 A 
ATOM     93  C   UNL     1      -6.669  -4.740  11.829  1.00  0.00     0.173 A 
ATOM     94  F   UNL     1      -8.753  -5.837   9.057  1.00  0.00    -0.203 F 
ATOM     95  C   UNL     1      -9.302  -5.447  11.313  1.00  0.00     0.198 A 
ATOM     96  C   UNL     1      -7.608  -4.738  12.858  1.00  0.00     0.198 A 
ATOM     97  F   UNL     1      -5.406  -4.387  12.113  1.00  0.00    -0.203 F 
ATOM     98  F   UNL     1     -10.580  -5.753  11.053  1.00  0.00    -0.200 F 
ATOM     99  C   UNL     1      -8.925  -5.084  12.597  1.00  0.00     0.200 A 
ATOM    100  F   UNL     1      -7.238  -4.402  14.101  1.00  0.00    -0.200 F 
ATOM    101  F   UNL     1      -9.833  -5.060  13.583  1.00  0.00    -0.200 F 
ENDBRANCH  68  91
ENDBRANCH  42  43
ENDBRANCH  35  37
ENDBRANCH  34  35
ENDBRANCH  33  34
ENDBRANCH  32  33
ENDBRANCH  31  32
ENDBRANCH  30  31
ENDBRANCH   1  30
TORSDOF 23
