REMARK SMILES CC(C)(C)c1cc2c(cc1Cl)C=C(C(=O)OCCOCCOCCOC(=O)c1ccc(-c3c4nc(c(-c5c(F)c(F)c(F)c(F)c5F)c5ccc([nH]5)c(-c5c(F)c(F)c(F)c(F)c5F)c5nc(c(-c6c(F)c(F)c(F)c(F)c6F)c6ccc3[nH]6)C=C5)C=C4)cc1)[C@@H](C(F)(F)F)O2
REMARK SMILES IDX 21 1 20 2 19 3 18 4 17 5 16 6 14 7 15 8 13 9 5 10 6 11 10 12
REMARK SMILES IDX 7 13 9 14 11 15 8 16 96 17 12 18 91 19 2 20 1 21 3 22 4 23
REMARK SMILES IDX 92 24 93 25 94 26 95 27 22 28 23 29 24 30 25 31 26 32 27 33
REMARK SMILES IDX 28 34 29 35 90 36 30 37 89 38 31 39 32 40 33 41 83 42 34 43
REMARK SMILES IDX 88 44 82 45 84 46 35 47 87 48 81 49 80 50 36 52 68 53 48 54
REMARK SMILES IDX 67 55 49 56 52 57 66 58 85 59 50 60 51 61 65 63 86 64 53 65
REMARK SMILES IDX 37 66 38 67 46 68 39 69 40 70 44 71 47 72 41 73 42 74 45 75
REMARK SMILES IDX 43 76 69 77 70 78 78 79 71 80 72 81 76 82 79 83 73 84 74 85
REMARK SMILES IDX 77 86 75 87 54 88 55 89 63 90 56 91 57 92 61 93 64 94 58 95
REMARK SMILES IDX 59 96 62 97 60 98
REMARK H PARENT 84 51 52 62
REMARK Flexibility Score: inf
ROOT
ATOM      1  C   UNL     1      -0.154   6.756   6.461  1.00  0.00     0.188 C 
ENDROOT
BRANCH   1   2
ATOM      2  C   UNL     1       1.073   6.528   7.369  1.00  0.00     0.188 C 
BRANCH   2   3
ATOM      3  O   UNL     1       1.515   7.548   8.235  1.00  0.00    -0.376 OA
BRANCH   3   4
ATOM      4  C   UNL     1       2.052   8.761   7.737  1.00  0.00     0.202 C 
BRANCH   4   5
ATOM      5  C   UNL     1       2.730   8.913   6.367  1.00  0.00     0.261 C 
BRANCH   5   6
ATOM      6  O   UNL     1       2.207   8.107   5.307  1.00  0.00    -0.460 OA
BRANCH   6   7
ATOM      7  C   UNL     1       3.057   7.162   4.837  1.00  0.00     0.338 C 
ATOM      8  O   UNL     1       4.199   6.953   5.211  1.00  0.00    -0.246 OA
BRANCH   7   9
ATOM      9  C   UNL     1       2.341   6.275   3.900  1.00  0.00     0.087 C 
ATOM     10  C   UNL     1       0.862   2.276   1.166  1.00  0.00    -0.020 A 
ATOM     11  C   UNL     1       0.636   3.682   1.132  1.00  0.00     0.053 A 
ATOM     12  C   UNL     1       1.530   1.793   2.310  1.00  0.00     0.045 A 
ATOM     13  C   UNL     1       1.135   4.557   2.102  1.00  0.00     0.128 A 
ATOM     14  C   UNL     1       2.028   2.677   3.285  1.00  0.00     0.032 A 
ATOM     15  Cl  UNL     1       1.811   0.130   2.684  1.00  0.00    -0.084 Cl
ATOM     16  C   UNL     1       1.867   4.056   3.164  1.00  0.00     0.019 A 
ATOM     17  O   UNL     1       0.872   5.884   1.919  1.00  0.00    -0.475 OA
ATOM     18  C   UNL     1       2.498   4.961   4.104  1.00  0.00     0.027 C 
ATOM     19  C   UNL     1       1.497   6.861   2.800  1.00  0.00     0.316 C 
BRANCH  10  20
ATOM     20  C   UNL     1       0.369   1.459  -0.056  1.00  0.00    -0.012 C 
ATOM     21  C   UNL     1       0.786  -0.025  -0.141  1.00  0.00     0.016 C 
ATOM     22  C   UNL     1       0.920   2.099  -1.361  1.00  0.00     0.016 C 
ATOM     23  C   UNL     1      -1.174   1.491  -0.096  1.00  0.00     0.016 C 
ENDBRANCH  10  20
BRANCH  19  24
ATOM     24  C   UNL     1       2.283   7.861   1.940  1.00  0.00     0.430 C 
ATOM     25  F   UNL     1       1.522   8.349   0.931  1.00  0.00    -0.167 F 
ATOM     26  F   UNL     1       2.697   8.927   2.665  1.00  0.00    -0.167 F 
ATOM     27  F   UNL     1       3.380   7.297   1.387  1.00  0.00    -0.167 F 
ENDBRANCH  19  24
ENDBRANCH   7   9
ENDBRANCH   6   7
ENDBRANCH   5   6
ENDBRANCH   4   5
ENDBRANCH   3   4
ENDBRANCH   2   3
ENDBRANCH   1   2
BRANCH   1  28
ATOM     28  O   UNL     1      -0.793   8.013   6.412  1.00  0.00    -0.376 OA
BRANCH  28  29
ATOM     29  C   UNL     1      -1.368   8.562   7.588  1.00  0.00     0.202 C 
BRANCH  29  30
ATOM     30  C   UNL     1      -2.102   7.713   8.639  1.00  0.00     0.261 C 
BRANCH  30  31
ATOM     31  O   UNL     1      -1.481   6.469   8.984  1.00  0.00    -0.460 OA
BRANCH  31  32
ATOM     32  C   UNL     1      -2.165   5.354   8.606  1.00  0.00     0.338 C 
ATOM     33  O   UNL     1      -3.224   5.298   8.023  1.00  0.00    -0.246 OA
BRANCH  32  34
ATOM     34  C   UNL     1      -1.299   4.177   8.832  1.00  0.00     0.060 A 
ATOM     35  C   UNL     1      -0.841   3.864  10.110  1.00  0.00     0.016 A 
ATOM     36  C   UNL     1      -0.946   3.383   7.731  1.00  0.00     0.016 A 
ATOM     37  C   UNL     1      -0.046   2.729  10.290  1.00  0.00     0.010 A 
ATOM     38  C   UNL     1      -0.136   2.260   7.910  1.00  0.00     0.010 A 
ATOM     39  C   UNL     1       0.298   1.912   9.197  1.00  0.00    -0.014 A 
BRANCH  39  40
ATOM     40  C   UNL     1       0.940   0.597   9.439  1.00  0.00     0.031 A 
ATOM     41  C   UNL     1       2.403   0.367   9.225  1.00  0.00     0.074 A 
ATOM     42  C   UNL     1       0.155  -0.407   9.873  1.00  0.00     0.049 A 
ATOM     43  N   UNL     1       3.115  -0.695   9.513  1.00  0.00    -0.248 NA
ATOM     44  C   UNL     1       3.168   1.457   8.605  1.00  0.00     0.031 C 
ATOM     45  C   UNL     1      -1.291  -0.307  10.074  1.00  0.00     0.029 A 
ATOM     46  N   UNL     1       0.456  -1.695  10.235  1.00  0.00    -0.354 N 
ATOM     47  C   UNL     1       4.417  -0.394   9.139  1.00  0.00     0.074 A 
ATOM     48  C   UNL     1       4.387   0.931   8.551  1.00  0.00     0.031 C 
ATOM     49  C   UNL     1      -1.746  -1.470  10.561  1.00  0.00     0.029 A 
ATOM     50  C   UNL     1      -0.630  -2.404  10.684  1.00  0.00     0.049 A 
ATOM     51  H   UNL     1       1.363  -2.075  10.178  1.00  0.00     0.167 HD
ATOM     52  C   UNL     1       5.531  -1.149   9.297  1.00  0.00     0.037 A 
ATOM     53  C   UNL     1      -0.719  -3.661  11.158  1.00  0.00     0.037 A 
ATOM     54  C   UNL     1       5.545  -2.475   9.867  1.00  0.00     0.049 A 
ATOM     55  C   UNL     1       0.527  -4.491  11.283  1.00  0.00     0.074 A 
ATOM     56  C   UNL     1       6.633  -3.300  10.102  1.00  0.00     0.029 A 
ATOM     57  N   UNL     1       4.420  -3.179  10.274  1.00  0.00    -0.354 N 
ATOM     58  N   UNL     1       1.767  -4.163  11.014  1.00  0.00    -0.248 NA
ATOM     59  C   UNL     1       0.364  -5.862  11.785  1.00  0.00     0.031 C 
ATOM     60  C   UNL     1       6.162  -4.520  10.597  1.00  0.00     0.029 A 
ATOM     61  C   UNL     1       4.786  -4.437  10.730  1.00  0.00     0.049 A 
ATOM     62  H   UNL     1       3.498  -2.836  10.244  1.00  0.00     0.167 HD
ATOM     63  C   UNL     1       2.534  -5.273  11.338  1.00  0.00     0.074 A 
ATOM     64  C   UNL     1       1.622  -6.280  11.837  1.00  0.00     0.031 C 
ATOM     65  C   UNL     1       3.875  -5.435  11.232  1.00  0.00     0.037 A 
BRANCH  52  66
ATOM     66  C   UNL     1       6.848  -0.564   8.873  1.00  0.00     0.064 A 
ATOM     67  C   UNL     1       7.449   0.475   9.600  1.00  0.00     0.173 A 
ATOM     68  C   UNL     1       7.570  -1.117   7.804  1.00  0.00     0.173 A 
ATOM     69  F   UNL     1       6.803   1.038  10.632  1.00  0.00    -0.203 F 
ATOM     70  C   UNL     1       8.716   0.946   9.265  1.00  0.00     0.198 A 
ATOM     71  C   UNL     1       8.849  -0.663   7.490  1.00  0.00     0.198 A 
ATOM     72  F   UNL     1       7.050  -2.124   7.085  1.00  0.00    -0.203 F 
ATOM     73  F   UNL     1       9.260   1.954   9.961  1.00  0.00    -0.200 F 
ATOM     74  C   UNL     1       9.419   0.370   8.218  1.00  0.00     0.200 A 
ATOM     75  F   UNL     1       9.536  -1.236   6.491  1.00  0.00    -0.200 F 
ATOM     76  F   UNL     1      10.649   0.807   7.914  1.00  0.00    -0.200 F 
ENDBRANCH  52  66
BRANCH  53  77
ATOM     77  C   UNL     1      -2.038  -4.178  11.603  1.00  0.00     0.064 A 
ATOM     78  C   UNL     1      -2.302  -4.393  12.962  1.00  0.00     0.173 A 
ATOM     79  C   UNL     1      -3.071  -4.425  10.688  1.00  0.00     0.173 A 
ATOM     80  F   UNL     1      -1.340  -4.184  13.873  1.00  0.00    -0.203 F 
ATOM     81  C   UNL     1      -3.549  -4.845  13.388  1.00  0.00     0.198 A 
ATOM     82  C   UNL     1      -4.326  -4.848  11.118  1.00  0.00     0.198 A 
ATOM     83  F   UNL     1      -2.870  -4.224   9.377  1.00  0.00    -0.203 F 
ATOM     84  F   UNL     1      -3.767  -5.072  14.691  1.00  0.00    -0.200 F 
ATOM     85  C   UNL     1      -4.563  -5.062  12.467  1.00  0.00     0.200 A 
ATOM     86  F   UNL     1      -5.309  -5.038  10.226  1.00  0.00    -0.200 F 
ATOM     87  F   UNL     1      -5.767  -5.480  12.880  1.00  0.00    -0.200 F 
ENDBRANCH  53  77
BRANCH  65  88
ATOM     88  C   UNL     1       4.459  -6.745  11.680  1.00  0.00     0.064 A 
ATOM     89  C   UNL     1       4.281  -7.922  10.938  1.00  0.00     0.173 A 
ATOM     90  C   UNL     1       5.278  -6.805  12.819  1.00  0.00     0.173 A 
ATOM     91  F   UNL     1       3.496  -7.922   9.851  1.00  0.00    -0.203 F 
ATOM     92  C   UNL     1       4.893  -9.112  11.325  1.00  0.00     0.198 A 
ATOM     93  C   UNL     1       5.912  -7.989  13.185  1.00  0.00     0.198 A 
ATOM     94  F   UNL     1       5.486  -5.707  13.561  1.00  0.00    -0.203 F 
ATOM     95  F   UNL     1       4.684 -10.231  10.618  1.00  0.00    -0.200 F 
ATOM     96  C   UNL     1       5.718  -9.141  12.440  1.00  0.00     0.200 A 
ATOM     97  F   UNL     1       6.722  -8.011  14.253  1.00  0.00    -0.200 F 
ATOM     98  F   UNL     1       6.325 -10.282  12.796  1.00  0.00    -0.200 F 
ENDBRANCH  65  88
ENDBRANCH  39  40
ENDBRANCH  32  34
ENDBRANCH  31  32
ENDBRANCH  30  31
ENDBRANCH  29  30
ENDBRANCH  28  29
ENDBRANCH   1  28
TORSDOF 19
