REMARK SMILES CCOc1cnc(C(=O)c2[nH]c3cc(Cl)ccc3c2CC(=O)OCCOCCOCCOC(=O)c2ccc(-c3c4nc(c(-c5c(F)c(F)c(F)c(F)c5F)c5ccc([nH]5)c(-c5c(F)c(F)c(F)c(F)c5F)c5nc(c(-c6c(F)c(F)c(F)c(F)c6F)c6ccc3[nH]6)C=C5)C=C4)cc2)cc1CC
REMARK SMILES IDX 26 1 25 2 24 3 23 4 21 5 22 6 20 7 19 8 10 9 11 10 12 11
REMARK SMILES IDX 18 13 13 14 17 15 14 16 16 17 15 18 8 19 9 20 7 21 4 22 5 23
REMARK SMILES IDX 99 24 6 25 98 26 3 27 2 28 1 29 100 30 101 31 27 32 28 33
REMARK SMILES IDX 29 34 30 35 31 36 32 37 33 38 34 39 35 40 36 41 97 42 37 43
REMARK SMILES IDX 96 44 38 45 39 46 40 47 90 48 41 49 95 50 89 51 91 52 42 53
REMARK SMILES IDX 94 54 88 55 87 56 43 58 75 59 55 60 74 61 56 62 59 63 73 64
REMARK SMILES IDX 92 65 57 66 58 67 72 69 93 70 60 71 44 72 45 73 53 74 46 75
REMARK SMILES IDX 47 76 51 77 54 78 48 79 49 80 52 81 50 82 76 83 77 84 85 85
REMARK SMILES IDX 78 86 79 87 83 88 86 89 80 90 81 91 84 92 82 93 61 94 62 95
REMARK SMILES IDX 70 96 63 97 64 98 68 99 71 100 65 101 66 102 69 103 67 104
REMARK H PARENT 11 12 91 57 59 68
REMARK Flexibility Score: inf
ROOT
ATOM      1  O   UNL     1       9.858  -3.147   5.595  1.00  0.00    -0.376 OA
ENDROOT
BRANCH   1   2
ATOM      2  C   UNL     1      11.058  -2.475   5.238  1.00  0.00     0.202 C 
BRANCH   2   3
ATOM      3  C   UNL     1      11.476  -2.594   3.772  1.00  0.00     0.261 C 
BRANCH   3   4
ATOM      4  O   UNL     1      10.612  -1.863   2.869  1.00  0.00    -0.463 OA
BRANCH   4   5
ATOM      5  C   UNL     1      10.168  -2.553   1.787  1.00  0.00     0.310 C 
ATOM      6  O   UNL     1      10.470  -3.725   1.563  1.00  0.00    -0.252 OA
BRANCH   5   7
ATOM      7  C   UNL     1       9.336  -1.778   0.785  1.00  0.00     0.161 C 
BRANCH   7   8
ATOM      8  C   UNL     1       8.770  -0.419   1.127  1.00  0.00     0.000 A 
ATOM      9  C   UNL     1       7.493  -0.130   1.622  1.00  0.00     0.093 A 
ATOM     10  N   UNL     1       7.441   1.231   1.826  1.00  0.00    -0.351 N 
ATOM     11  C   UNL     1       8.435   1.844   1.111  1.00  0.00     0.048 A 
ATOM     12  H   UNL     1       6.787   1.693   2.400  1.00  0.00     0.167 HD
ATOM     13  C   UNL     1       9.312   0.842   0.699  1.00  0.00     0.004 A 
ATOM     14  C   UNL     1       8.599   3.195   0.784  1.00  0.00     0.047 A 
ATOM     15  C   UNL     1      10.426   1.214  -0.081  1.00  0.00     0.012 A 
ATOM     16  C   UNL     1       9.677   3.521  -0.040  1.00  0.00     0.043 A 
ATOM     17  C   UNL     1      10.582   2.553  -0.465  1.00  0.00     0.021 A 
ATOM     18  Cl  UNL     1       9.866   5.150  -0.567  1.00  0.00    -0.084 Cl
BRANCH   9  19
ATOM     19  C   UNL     1       6.401  -1.043   1.905  1.00  0.00     0.227 C 
ATOM     20  O   UNL     1       6.603  -2.235   2.132  1.00  0.00    -0.285 OA
BRANCH  19  21
ATOM     21  C   UNL     1       4.984  -0.540   1.881  1.00  0.00     0.113 A 
ATOM     22  C   UNL     1       2.297  -0.004   1.775  1.00  0.00     0.140 A 
ATOM     23  C   UNL     1       2.865  -0.786   2.762  1.00  0.00     0.158 A 
ATOM     24  C   UNL     1       3.143   0.660   0.887  1.00  0.00    -0.002 A 
ATOM     25  N   UNL     1       4.181  -1.061   2.833  1.00  0.00    -0.249 NA
ATOM     26  C   UNL     1       4.514   0.345   0.914  1.00  0.00     0.040 A 
BRANCH  22  27
ATOM     27  O   UNL     1       0.940   0.112   1.693  1.00  0.00    -0.492 OA
BRANCH  27  28
ATOM     28  C   UNL     1       0.372  -1.026   1.012  1.00  0.00     0.226 C 
ATOM     29  C   UNL     1       0.029  -0.658  -0.422  1.00  0.00     0.049 C 
ENDBRANCH  27  28
ENDBRANCH  22  27
BRANCH  24  30
ATOM     30  C   UNL     1       2.623   1.712  -0.058  1.00  0.00     0.036 C 
ATOM     31  C   UNL     1       3.078   3.101   0.368  1.00  0.00     0.009 C 
ENDBRANCH  24  30
ENDBRANCH  19  21
ENDBRANCH   9  19
ENDBRANCH   7   8
ENDBRANCH   5   7
ENDBRANCH   4   5
ENDBRANCH   3   4
ENDBRANCH   2   3
ENDBRANCH   1   2
BRANCH   1  32
ATOM     32  C   UNL     1       8.641  -2.688   5.022  1.00  0.00     0.188 C 
BRANCH  32  33
ATOM     33  C   UNL     1       8.406  -1.170   4.901  1.00  0.00     0.188 C 
BRANCH  33  34
ATOM     34  O   UNL     1       8.963  -0.303   5.881  1.00  0.00    -0.376 OA
BRANCH  34  35
ATOM     35  C   UNL     1       8.726  -0.622   7.247  1.00  0.00     0.202 C 
BRANCH  35  36
ATOM     36  C   UNL     1       7.261  -0.532   7.657  1.00  0.00     0.261 C 
BRANCH  36  37
ATOM     37  O   UNL     1       6.528  -1.664   7.153  1.00  0.00    -0.460 OA
BRANCH  37  38
ATOM     38  C   UNL     1       5.283  -1.379   6.713  1.00  0.00     0.338 C 
ATOM     39  O   UNL     1       4.720  -0.297   6.731  1.00  0.00    -0.246 OA
BRANCH  38  40
ATOM     40  C   UNL     1       4.638  -2.582   6.164  1.00  0.00     0.060 A 
ATOM     41  C   UNL     1       4.960  -3.002   4.879  1.00  0.00     0.016 A 
ATOM     42  C   UNL     1       3.529  -3.117   6.812  1.00  0.00     0.016 A 
ATOM     43  C   UNL     1       4.085  -3.829   4.174  1.00  0.00     0.010 A 
ATOM     44  C   UNL     1       2.704  -4.023   6.136  1.00  0.00     0.010 A 
ATOM     45  C   UNL     1       2.925  -4.325   4.779  1.00  0.00    -0.014 A 
BRANCH  45  46
ATOM     46  C   UNL     1       1.889  -5.048   3.984  1.00  0.00     0.031 A 
ATOM     47  C   UNL     1       0.475  -4.516   3.922  1.00  0.00     0.074 A 
ATOM     48  C   UNL     1       2.200  -6.154   3.279  1.00  0.00     0.049 A 
ATOM     49  N   UNL     1      -0.608  -5.074   3.438  1.00  0.00    -0.248 NA
ATOM     50  C   UNL     1       0.250  -3.165   4.461  1.00  0.00     0.031 C 
ATOM     51  C   UNL     1       3.541  -6.721   3.133  1.00  0.00     0.029 A 
ATOM     52  N   UNL     1       1.400  -7.009   2.558  1.00  0.00    -0.354 N 
ATOM     53  C   UNL     1      -1.636  -4.161   3.643  1.00  0.00     0.074 A 
ATOM     54  C   UNL     1      -1.053  -3.004   4.284  1.00  0.00     0.031 C 
ATOM     55  C   UNL     1       3.474  -7.820   2.367  1.00  0.00     0.029 A 
ATOM     56  C   UNL     1       2.076  -8.098   2.063  1.00  0.00     0.049 A 
ATOM     57  H   UNL     1       0.439  -6.856   2.410  1.00  0.00     0.167 HD
ATOM     58  C   UNL     1      -2.953  -4.284   3.346  1.00  0.00     0.037 A 
ATOM     59  C   UNL     1       1.620  -9.233   1.499  1.00  0.00     0.037 A 
ATOM     60  C   UNL     1      -3.540  -5.453   2.746  1.00  0.00     0.049 A 
ATOM     61  C   UNL     1       0.138  -9.425   1.336  1.00  0.00     0.074 A 
ATOM     62  C   UNL     1      -4.871  -5.707   2.465  1.00  0.00     0.029 A 
ATOM     63  N   UNL     1      -2.826  -6.574   2.348  1.00  0.00    -0.354 N 
ATOM     64  N   UNL     1      -0.839  -8.591   1.597  1.00  0.00    -0.248 NA
ATOM     65  C   UNL     1      -0.307 -10.730   0.828  1.00  0.00     0.031 C 
ATOM     66  C   UNL     1      -4.970  -7.005   1.954  1.00  0.00     0.029 A 
ATOM     67  C   UNL     1      -3.693  -7.536   1.857  1.00  0.00     0.049 A 
ATOM     68  H   UNL     1      -1.849  -6.671   2.406  1.00  0.00     0.167 HD
ATOM     69  C   UNL     1      -2.010  -9.259   1.266  1.00  0.00     0.074 A 
ATOM     70  C   UNL     1      -1.621 -10.564   0.774  1.00  0.00     0.031 C 
ATOM     71  C   UNL     1      -3.292  -8.828   1.363  1.00  0.00     0.037 A 
BRANCH  58  72
ATOM     72  C   UNL     1      -3.861  -3.156   3.744  1.00  0.00     0.064 A 
ATOM     73  C   UNL     1      -3.881  -1.938   3.050  1.00  0.00     0.173 A 
ATOM     74  C   UNL     1      -4.738  -3.307   4.830  1.00  0.00     0.173 A 
ATOM     75  F   UNL     1      -3.053  -1.738   2.013  1.00  0.00    -0.203 F 
ATOM     76  C   UNL     1      -4.729  -0.904   3.443  1.00  0.00     0.198 A 
ATOM     77  C   UNL     1      -5.602  -2.281   5.205  1.00  0.00     0.198 A 
ATOM     78  F   UNL     1      -4.761  -4.454   5.526  1.00  0.00    -0.203 F 
ATOM     79  F   UNL     1      -4.702   0.267   2.792  1.00  0.00    -0.200 F 
ATOM     80  C   UNL     1      -5.591  -1.078   4.516  1.00  0.00     0.200 A 
ATOM     81  F   UNL     1      -6.440  -2.456   6.235  1.00  0.00    -0.200 F 
ATOM     82  F   UNL     1      -6.407  -0.083   4.892  1.00  0.00    -0.200 F 
ENDBRANCH  58  72
BRANCH  59  83
ATOM     83  C   UNL     1       2.577 -10.310   1.128  1.00  0.00     0.064 A 
ATOM     84  C   UNL     1       2.774 -10.677  -0.210  1.00  0.00     0.173 A 
ATOM     85  C   UNL     1       3.317 -10.995   2.106  1.00  0.00     0.173 A 
ATOM     86  F   UNL     1       2.067 -10.078  -1.179  1.00  0.00    -0.203 F 
ATOM     87  C   UNL     1       3.671 -11.687  -0.554  1.00  0.00     0.198 A 
ATOM     88  C   UNL     1       4.238 -11.979   1.759  1.00  0.00     0.198 A 
ATOM     89  F   UNL     1       3.157 -10.693   3.403  1.00  0.00    -0.203 F 
ATOM     90  F   UNL     1       3.809 -12.048  -1.837  1.00  0.00    -0.200 F 
ATOM     91  C   UNL     1       4.410 -12.329   0.429  1.00  0.00     0.200 A 
ATOM     92  F   UNL     1       4.957 -12.587   2.712  1.00  0.00    -0.200 F 
ATOM     93  F   UNL     1       5.279 -13.293   0.096  1.00  0.00    -0.200 F 
ENDBRANCH  59  83
BRANCH  71  94
ATOM     94  C   UNL     1      -4.367  -9.758   0.885  1.00  0.00     0.064 A 
ATOM     95  C   UNL     1      -4.727 -10.905   1.607  1.00  0.00     0.173 A 
ATOM     96  C   UNL     1      -5.071  -9.476  -0.296  1.00  0.00     0.173 A 
ATOM     97  F   UNL     1      -4.072 -11.226   2.733  1.00  0.00    -0.203 F 
ATOM     98  C   UNL     1      -5.737 -11.748   1.153  1.00  0.00     0.198 A 
ATOM     99  C   UNL     1      -6.100 -10.304  -0.731  1.00  0.00     0.198 A 
ATOM    100  F   UNL     1      -4.768  -8.387  -1.019  1.00  0.00    -0.203 F 
ATOM    101  F   UNL     1      -6.035 -12.863   1.834  1.00  0.00    -0.200 F 
ATOM    102  C   UNL     1      -6.428 -11.443  -0.011  1.00  0.00     0.200 A 
ATOM    103  F   UNL     1      -6.775 -10.000  -1.849  1.00  0.00    -0.200 F 
ATOM    104  F   UNL     1      -7.406 -12.251  -0.443  1.00  0.00    -0.200 F 
ENDBRANCH  71  94
ENDBRANCH  45  46
ENDBRANCH  38  40
ENDBRANCH  37  38
ENDBRANCH  36  37
ENDBRANCH  35  36
ENDBRANCH  34  35
ENDBRANCH  33  34
ENDBRANCH  32  33
ENDBRANCH   1  32
TORSDOF 23
