REMARK SMILES CN1C(=O)C2=NC(N3CCC(C(=O)OCCOCCOCCOC(=O)c4ccc(-c5c6nc(c(-c7c(F)c(F)c(F)c(F)c7F)c7ccc([nH]7)c(-c7c(F)c(F)c(F)c(F)c7F)c7nc(c(-c8c(F)c(F)c(F)c(F)c8F)c8ccc5[nH]8)C=C7)C=C6)cc4)CC3)=[NH+][C@H]2N(C)C1=O
REMARK SMILES IDX 19 1 18 2 17 3 16 4 15 5 14 6 12 7 13 8 11 9 1 10 2 11 3 12
REMARK SMILES IDX 95 13 4 14 5 15 93 16 96 17 6 18 92 19 94 20 7 21 91 22 8 23
REMARK SMILES IDX 9 25 90 26 10 27 89 28 20 29 21 30 22 31 23 32 24 33 25 34
REMARK SMILES IDX 26 35 27 36 88 37 28 38 87 39 29 40 30 41 31 42 81 43 32 44
REMARK SMILES IDX 86 45 80 46 82 47 33 48 85 49 79 50 78 51 34 53 66 54 46 55
REMARK SMILES IDX 65 56 47 57 50 58 64 59 83 60 48 61 49 62 63 64 84 65 51 66
REMARK SMILES IDX 35 67 36 68 44 69 37 70 38 71 42 72 45 73 39 74 40 75 43 76
REMARK SMILES IDX 41 77 67 78 68 79 76 80 69 81 70 82 74 83 77 84 71 85 72 86
REMARK SMILES IDX 75 87 73 88 52 89 53 90 61 91 54 92 55 93 59 94 62 95 56 96
REMARK SMILES IDX 57 97 60 98 58 99
REMARK H PARENT 91 24 82 52 50 63
REMARK Flexibility Score: inf
ROOT
ATOM      1  C   UNL     1      -8.197   6.461   1.314  1.00  0.00     0.188 C 
ENDROOT
BRANCH   1   2
ATOM      2  C   UNL     1      -7.831   7.920   1.030  1.00  0.00     0.188 C 
BRANCH   2   3
ATOM      3  O   UNL     1      -8.287   8.418  -0.229  1.00  0.00    -0.376 OA
BRANCH   3   4
ATOM      4  C   UNL     1      -8.075   7.572  -1.356  1.00  0.00     0.202 C 
BRANCH   4   5
ATOM      5  C   UNL     1      -6.626   7.468  -1.853  1.00  0.00     0.261 C 
BRANCH   5   6
ATOM      6  O   UNL     1      -5.687   7.093  -0.826  1.00  0.00    -0.463 OA
BRANCH   6   7
ATOM      7  C   UNL     1      -4.811   8.050  -0.435  1.00  0.00     0.309 C 
ATOM      8  O   UNL     1      -4.685   9.140  -0.983  1.00  0.00    -0.252 OA
BRANCH   7   9
ATOM      9  C   UNL     1      -4.027   7.698   0.823  1.00  0.00     0.105 C 
ATOM     10  C   UNL     1       1.004   0.175   0.405  1.00  0.00     0.159 C 
ATOM     11  N   UNL     1       0.799   1.500   0.947  1.00  0.00    -0.261 N 
ATOM     12  C   UNL     1      -0.520   1.869   1.235  1.00  0.00     0.298 C 
ATOM     13  C   UNL     1       1.921   2.238   1.365  1.00  0.00     0.329 C 
ATOM     14  O   UNL     1      -1.492   1.130   1.251  1.00  0.00    -0.265 OA
ATOM     15  C   UNL     1      -0.675   3.319   1.544  1.00  0.00     0.242 C 
ATOM     16  N   UNL     1       1.579   3.443   1.974  1.00  0.00    -0.288 N 
ATOM     17  O   UNL     1       3.074   1.824   1.329  1.00  0.00    -0.248 OA
ATOM     18  N   UNL     1      -1.685   3.989   1.978  1.00  0.00    -0.065 NA
ATOM     19  C   UNL     1       0.516   4.142   1.323  1.00  0.00     0.321 C 
ATOM     20  C   UNL     1       1.765   3.515   3.411  1.00  0.00     0.153 C 
ATOM     21  C   UNL     1      -1.194   5.276   2.074  1.00  0.00     0.389 C 
ATOM     22  N   UNL     1       0.088   5.425   1.852  1.00  0.00    -0.246 N 
ATOM     23  N   UNL     1      -2.018   6.334   2.351  1.00  0.00    -0.262 N 
ATOM     24  H   UNL     1       0.637   6.226   2.009  1.00  0.00     0.262 HD
ATOM     25  C   UNL     1      -1.712   7.662   1.818  1.00  0.00     0.201 C 
ATOM     26  C   UNL     1      -3.417   6.141   2.710  1.00  0.00     0.201 C 
ATOM     27  C   UNL     1      -2.528   7.872   0.542  1.00  0.00     0.053 C 
ATOM     28  C   UNL     1      -4.290   6.327   1.466  1.00  0.00     0.053 C 
ENDBRANCH   7   9
ENDBRANCH   6   7
ENDBRANCH   5   6
ENDBRANCH   4   5
ENDBRANCH   3   4
ENDBRANCH   2   3
ENDBRANCH   1   2
BRANCH   1  29
ATOM     29  O   UNL     1      -7.344   5.537   0.655  1.00  0.00    -0.376 OA
BRANCH  29  30
ATOM     30  C   UNL     1      -7.797   4.297   0.118  1.00  0.00     0.202 C 
BRANCH  30  31
ATOM     31  C   UNL     1      -9.130   3.625   0.467  1.00  0.00     0.261 C 
BRANCH  31  32
ATOM     32  O   UNL     1      -9.827   4.165   1.563  1.00  0.00    -0.460 OA
BRANCH  32  33
ATOM     33  C   UNL     1      -9.215   4.152   2.756  1.00  0.00     0.338 C 
ATOM     34  O   UNL     1      -8.169   3.595   3.061  1.00  0.00    -0.246 OA
BRANCH  33  35
ATOM     35  C   UNL     1     -10.072   4.950   3.642  1.00  0.00     0.060 A 
ATOM     36  C   UNL     1      -9.874   4.811   5.010  1.00  0.00     0.016 A 
ATOM     37  C   UNL     1     -11.179   5.649   3.113  1.00  0.00     0.016 A 
ATOM     38  C   UNL     1     -10.937   5.093   5.831  1.00  0.00     0.010 A 
ATOM     39  C   UNL     1     -12.242   5.920   3.927  1.00  0.00     0.010 A 
ATOM     40  C   UNL     1     -12.139   5.517   5.248  1.00  0.00    -0.014 A 
BRANCH  40  41
ATOM     41  C   UNL     1     -13.322   5.475   6.067  1.00  0.00     0.031 A 
ATOM     42  C   UNL     1     -13.412   6.591   7.017  1.00  0.00     0.074 A 
ATOM     43  C   UNL     1     -14.237   4.501   5.924  1.00  0.00     0.049 A 
ATOM     44  N   UNL     1     -13.303   6.534   8.300  1.00  0.00    -0.248 NA
ATOM     45  C   UNL     1     -13.464   7.952   6.463  1.00  0.00     0.031 C 
ATOM     46  C   UNL     1     -14.365   3.526   4.836  1.00  0.00     0.029 A 
ATOM     47  N   UNL     1     -15.319   4.238   6.702  1.00  0.00    -0.354 N 
ATOM     48  C   UNL     1     -13.479   7.839   8.736  1.00  0.00     0.074 A 
ATOM     49  C   UNL     1     -13.381   8.682   7.574  1.00  0.00     0.031 C 
ATOM     50  C   UNL     1     -15.578   2.933   4.915  1.00  0.00     0.029 A 
ATOM     51  C   UNL     1     -16.250   3.394   6.118  1.00  0.00     0.049 A 
ATOM     52  H   UNL     1     -15.432   4.616   7.604  1.00  0.00     0.167 HD
ATOM     53  C   UNL     1     -13.987   8.080   9.972  1.00  0.00     0.037 A 
ATOM     54  C   UNL     1     -17.511   3.176   6.567  1.00  0.00     0.037 A 
ATOM     55  C   UNL     1     -13.810   6.943  10.843  1.00  0.00     0.049 A 
ATOM     56  C   UNL     1     -17.558   3.602   7.990  1.00  0.00     0.074 A 
ATOM     57  C   UNL     1     -12.715   6.228  11.292  1.00  0.00     0.029 A 
ATOM     58  N   UNL     1     -14.900   6.151  11.105  1.00  0.00    -0.354 N 
ATOM     59  N   UNL     1     -16.966   2.969   8.964  1.00  0.00    -0.248 NA
ATOM     60  C   UNL     1     -17.915   4.985   8.277  1.00  0.00     0.031 C 
ATOM     61  C   UNL     1     -13.156   4.873  11.375  1.00  0.00     0.029 A 
ATOM     62  C   UNL     1     -14.502   4.842  11.013  1.00  0.00     0.049 A 
ATOM     63  H   UNL     1     -15.807   6.467  11.322  1.00  0.00     0.167 HD
ATOM     64  C   UNL     1     -16.488   3.970   9.797  1.00  0.00     0.074 A 
ATOM     65  C   UNL     1     -17.196   5.177   9.386  1.00  0.00     0.031 C 
ATOM     66  C   UNL     1     -15.358   3.780  10.539  1.00  0.00     0.037 A 
BRANCH  53  67
ATOM     67  C   UNL     1     -15.005   9.161  10.235  1.00  0.00     0.064 A 
ATOM     68  C   UNL     1     -15.399   9.408  11.563  1.00  0.00     0.173 A 
ATOM     69  C   UNL     1     -15.828   9.737   9.239  1.00  0.00     0.173 A 
ATOM     70  F   UNL     1     -14.701   8.894  12.587  1.00  0.00    -0.203 F 
ATOM     71  C   UNL     1     -16.576  10.095  11.865  1.00  0.00     0.198 A 
ATOM     72  C   UNL     1     -16.969  10.472   9.546  1.00  0.00     0.198 A 
ATOM     73  F   UNL     1     -15.640   9.520   7.932  1.00  0.00    -0.203 F 
ATOM     74  F   UNL     1     -16.984  10.181  13.138  1.00  0.00    -0.200 F 
ATOM     75  C   UNL     1     -17.364  10.620  10.857  1.00  0.00     0.200 A 
ATOM     76  F   UNL     1     -17.727  10.955   8.552  1.00  0.00    -0.200 F 
ATOM     77  F   UNL     1     -18.527  11.218  11.141  1.00  0.00    -0.200 F 
ENDBRANCH  53  67
BRANCH  54  78
ATOM     78  C   UNL     1     -18.739   2.929   5.777  1.00  0.00     0.064 A 
ATOM     79  C   UNL     1     -19.912   2.471   6.400  1.00  0.00     0.173 A 
ATOM     80  C   UNL     1     -18.877   3.402   4.457  1.00  0.00     0.173 A 
ATOM     81  F   UNL     1     -19.877   2.041   7.670  1.00  0.00    -0.203 F 
ATOM     82  C   UNL     1     -21.152   2.518   5.756  1.00  0.00     0.198 A 
ATOM     83  C   UNL     1     -20.113   3.437   3.811  1.00  0.00     0.198 A 
ATOM     84  F   UNL     1     -17.837   3.933   3.800  1.00  0.00    -0.203 F 
ATOM     85  F   UNL     1     -22.259   2.140   6.410  1.00  0.00    -0.200 F 
ATOM     86  C   UNL     1     -21.253   3.011   4.466  1.00  0.00     0.200 A 
ATOM     87  F   UNL     1     -20.201   3.949   2.575  1.00  0.00    -0.200 F 
ATOM     88  F   UNL     1     -22.449   3.118   3.871  1.00  0.00    -0.200 F 
ENDBRANCH  54  78
BRANCH  66  89
ATOM     89  C   UNL     1     -14.847   2.372  10.668  1.00  0.00     0.064 A 
ATOM     90  C   UNL     1     -14.423   1.583   9.584  1.00  0.00     0.173 A 
ATOM     91  C   UNL     1     -14.692   1.837  11.954  1.00  0.00     0.173 A 
ATOM     92  F   UNL     1     -14.434   2.064   8.334  1.00  0.00    -0.203 F 
ATOM     93  C   UNL     1     -13.932   0.293   9.779  1.00  0.00     0.198 A 
ATOM     94  C   UNL     1     -14.162   0.564  12.148  1.00  0.00     0.198 A 
ATOM     95  F   UNL     1     -15.024   2.566  13.031  1.00  0.00    -0.203 F 
ATOM     96  F   UNL     1     -13.564  -0.452   8.726  1.00  0.00    -0.200 F 
ATOM     97  C   UNL     1     -13.799  -0.213  11.061  1.00  0.00     0.200 A 
ATOM     98  F   UNL     1     -13.988   0.098  13.393  1.00  0.00    -0.200 F 
ATOM     99  F   UNL     1     -13.298  -1.442  11.251  1.00  0.00    -0.200 F 
ENDBRANCH  66  89
ENDBRANCH  40  41
ENDBRANCH  33  35
ENDBRANCH  32  33
ENDBRANCH  31  32
ENDBRANCH  30  31
ENDBRANCH  29  30
ENDBRANCH   1  29
TORSDOF 17
