REMARK SMILES COc1cc(S(=O)(=O)Nc2cccc(C(=O)OCCOCCOCCOC(=O)c3ccc(-c4c5nc(c(-c6c(F)c(F)c(F)c(F)c6F)c6ccc([nH]6)c(-c6c(F)c(F)c(F)c(F)c6F)c6nc(c(-c7c(F)c(F)c(F)c(F)c7F)c7ccc4[nH]7)C=C6)C=C5)cc3)c2)c(OC)cc1C
REMARK SMILES IDX 21 1 20 2 19 3 18 4 17 5 15 6 16 7 14 8 10 9 11 10 92 11
REMARK SMILES IDX 12 12 13 13 9 14 6 16 7 17 8 18 5 19 3 20 4 21 97 22 96 23
REMARK SMILES IDX 98 24 93 25 2 26 1 27 94 28 95 29 22 30 23 31 24 32 25 33
REMARK SMILES IDX 26 34 27 35 28 36 29 37 30 38 91 39 31 40 90 41 32 42 33 43
REMARK SMILES IDX 34 44 84 45 35 46 89 47 83 48 85 49 36 50 88 51 82 52 81 53
REMARK SMILES IDX 37 55 69 56 49 57 68 58 50 59 53 60 67 61 86 62 51 63 52 64
REMARK SMILES IDX 66 66 87 67 54 68 38 69 39 70 47 71 40 72 41 73 45 74 48 75
REMARK SMILES IDX 42 76 43 77 46 78 44 79 70 80 71 81 79 82 72 83 73 84 77 85
REMARK SMILES IDX 80 86 74 87 75 88 78 89 76 90 55 91 56 92 64 93 57 94 58 95
REMARK SMILES IDX 62 96 65 97 59 98 60 99 63 100 61 101
REMARK H PARENT 9 15 85 54 53 65
REMARK Flexibility Score: inf
ROOT
ATOM      1  C   UNL     1       3.674  13.049   4.398  1.00  0.00     0.188 C 
ENDROOT
BRANCH   1   2
ATOM      2  O   UNL     1       4.621  11.989   4.625  1.00  0.00    -0.376 OA
BRANCH   2   3
ATOM      3  C   UNL     1       5.840  11.724   3.913  1.00  0.00     0.202 C 
BRANCH   3   4
ATOM      4  C   UNL     1       6.255  10.510   2.735  1.00  0.00     0.261 C 
BRANCH   4   5
ATOM      5  O   UNL     1       5.422   9.780   1.343  1.00  0.00    -0.460 OA
BRANCH   5   6
ATOM      6  C   UNL     1       4.429   8.757   1.026  1.00  0.00     0.338 C 
ATOM      7  O   UNL     1       4.060   7.830   1.749  1.00  0.00    -0.246 OA
BRANCH   6   8
ATOM      8  C   UNL     1       3.504   8.599  -0.137  1.00  0.00     0.062 A 
ATOM      9  C   UNL     1       1.316   7.473  -0.707  1.00  0.00     0.050 A 
ATOM     10  C   UNL     1       1.829   7.190  -1.959  1.00  0.00     0.027 A 
ATOM     11  C   UNL     1       2.134   8.222   0.162  1.00  0.00     0.042 A 
ATOM     12  C   UNL     1       3.165   7.536  -2.266  1.00  0.00     0.003 A 
ATOM     13  C   UNL     1       4.011   8.201  -1.355  1.00  0.00     0.016 A 
BRANCH   9  14
ATOM     14  N   UNL     1       0.033   7.025  -0.227  1.00  0.00    -0.279 N 
ATOM     15  H   UNL     1      -0.452   7.633   0.376  1.00  0.00     0.180 HD
BRANCH  14  16
ATOM     16  S   UNL     1      -0.723   5.554  -0.600  1.00  0.00     0.265 S 
ATOM     17  O   UNL     1      -1.047   5.574  -2.013  1.00  0.00    -0.201 OA
ATOM     18  O   UNL     1      -1.778   5.393   0.384  1.00  0.00    -0.201 OA
BRANCH  16  19
ATOM     19  C   UNL     1       0.382   4.184  -0.364  1.00  0.00     0.133 A 
ATOM     20  C   UNL     1       0.927   1.877  -0.901  1.00  0.00     0.123 A 
ATOM     21  C   UNL     1       0.011   2.936  -0.896  1.00  0.00     0.073 A 
ATOM     22  C   UNL     1       2.265   2.116  -0.579  1.00  0.00    -0.005 A 
ATOM     23  C   UNL     1       2.589   3.339   0.012  1.00  0.00     0.055 A 
ATOM     24  C   UNL     1       3.359   1.104  -0.746  1.00  0.00     0.048 C 
ATOM     25  C   UNL     1       1.615   4.309   0.256  1.00  0.00     0.139 A 
BRANCH  20  26
ATOM     26  O   UNL     1       0.467   0.642  -1.274  1.00  0.00    -0.496 OA
ATOM     27  C   UNL     1       0.598  -0.307  -0.206  1.00  0.00     0.278 C 
ENDBRANCH  20  26
BRANCH  25  28
ATOM     28  O   UNL     1       1.801   5.324   1.146  1.00  0.00    -0.495 OA
ATOM     29  C   UNL     1       2.836   5.116   2.105  1.00  0.00     0.278 C 
ENDBRANCH  25  28
ENDBRANCH  16  19
ENDBRANCH  14  16
ENDBRANCH   9  14
ENDBRANCH   6   8
ENDBRANCH   5   6
ENDBRANCH   4   5
ENDBRANCH   3   4
ENDBRANCH   2   3
ENDBRANCH   1   2
BRANCH   1  30
ATOM     30  C   UNL     1       3.958  14.227   3.492  1.00  0.00     0.188 C 
BRANCH  30  31
ATOM     31  O   UNL     1       4.915  13.836   2.541  1.00  0.00    -0.376 OA
BRANCH  31  32
ATOM     32  C   UNL     1       5.380  14.838   1.671  1.00  0.00     0.202 C 
BRANCH  32  33
ATOM     33  C   UNL     1       4.277  15.376   0.744  1.00  0.00     0.261 C 
BRANCH  33  34
ATOM     34  O   UNL     1       3.616  14.292   0.035  1.00  0.00    -0.460 OA
BRANCH  34  35
ATOM     35  C   UNL     1       2.318  13.937   0.384  1.00  0.00     0.338 C 
ATOM     36  O   UNL     1       1.437  14.710   0.625  1.00  0.00    -0.246 OA
BRANCH  35  37
ATOM     37  C   UNL     1       2.281  12.446   0.708  1.00  0.00     0.060 A 
ATOM     38  C   UNL     1       1.355  11.763   1.522  1.00  0.00     0.016 A 
ATOM     39  C   UNL     1       3.482  11.861   0.645  1.00  0.00     0.016 A 
ATOM     40  C   UNL     1       1.775  10.667   2.425  1.00  0.00     0.010 A 
ATOM     41  C   UNL     1       3.825  11.273   1.852  1.00  0.00     0.010 A 
ATOM     42  C   UNL     1       3.118  10.400   2.697  1.00  0.00    -0.014 A 
BRANCH  42  43
ATOM     43  C   UNL     1       3.818   9.404   3.870  1.00  0.00     0.031 A 
ATOM     44  C   UNL     1       4.948   8.097   3.814  1.00  0.00     0.074 A 
ATOM     45  C   UNL     1       3.439   9.651   5.143  1.00  0.00     0.049 A 
ATOM     46  N   UNL     1       4.789   6.945   4.451  1.00  0.00    -0.248 NA
ATOM     47  C   UNL     1       6.161   7.874   2.904  1.00  0.00     0.031 C 
ATOM     48  C   UNL     1       4.044   9.168   6.385  1.00  0.00     0.029 A 
ATOM     49  N   UNL     1       2.397  10.476   5.588  1.00  0.00    -0.354 N 
ATOM     50  C   UNL     1       5.841   6.087   4.045  1.00  0.00     0.074 A 
ATOM     51  C   UNL     1       6.290   6.569   2.822  1.00  0.00     0.031 C 
ATOM     52  C   UNL     1       3.209   9.440   7.405  1.00  0.00     0.029 A 
ATOM     53  C   UNL     1       1.985   9.960   6.821  1.00  0.00     0.049 A 
ATOM     54  H   UNL     1       2.029  11.263   5.125  1.00  0.00     0.167 HD
ATOM     55  C   UNL     1       6.581   5.284   4.863  1.00  0.00     0.037 A 
ATOM     56  C   UNL     1       0.736   9.435   6.939  1.00  0.00     0.037 A 
ATOM     57  C   UNL     1       5.965   5.344   6.159  1.00  0.00     0.049 A 
ATOM     58  C   UNL     1       0.833   7.976   7.304  1.00  0.00     0.074 A 
ATOM     59  C   UNL     1       6.199   6.132   7.270  1.00  0.00     0.029 A 
ATOM     60  N   UNL     1       4.664   4.889   6.243  1.00  0.00    -0.354 N 
ATOM     61  N   UNL     1       1.861   7.217   7.020  1.00  0.00    -0.248 NA
ATOM     62  C   UNL     1      -0.160   7.295   8.122  1.00  0.00     0.031 C 
ATOM     63  C   UNL     1       4.970   6.211   7.988  1.00  0.00     0.029 A 
ATOM     64  C   UNL     1       4.027   5.434   7.332  1.00  0.00     0.049 A 
ATOM     65  H   UNL     1       4.250   4.260   5.610  1.00  0.00     0.167 HD
ATOM     66  C   UNL     1       1.720   6.010   7.649  1.00  0.00     0.074 A 
ATOM     67  C   UNL     1       0.435   6.106   8.315  1.00  0.00     0.031 C 
ATOM     68  C   UNL     1       2.664   5.025   7.610  1.00  0.00     0.037 A 
BRANCH  55  69
ATOM     69  C   UNL     1       8.014   4.764   4.563  1.00  0.00     0.064 A 
ATOM     70  C   UNL     1       8.841   4.350   5.628  1.00  0.00     0.173 A 
ATOM     71  C   UNL     1       8.666   4.681   3.300  1.00  0.00     0.173 A 
ATOM     72  F   UNL     1       8.360   4.262   6.875  1.00  0.00    -0.203 F 
ATOM     73  C   UNL     1      10.192   3.992   5.461  1.00  0.00     0.198 A 
ATOM     74  C   UNL     1      10.032   4.398   3.140  1.00  0.00     0.198 A 
ATOM     75  F   UNL     1       8.014   4.767   2.139  1.00  0.00    -0.203 F 
ATOM     76  F   UNL     1      10.908   3.589   6.519  1.00  0.00    -0.200 F 
ATOM     77  C   UNL     1      10.798   4.052   4.223  1.00  0.00     0.200 A 
ATOM     78  F   UNL     1      10.582   4.438   1.915  1.00  0.00    -0.200 F 
ATOM     79  F   UNL     1      12.091   3.735   4.068  1.00  0.00    -0.200 F 
ENDBRANCH  55  69
BRANCH  56  80
ATOM     80  C   UNL     1      -0.269  10.138   6.074  1.00  0.00     0.064 A 
ATOM     81  C   UNL     1      -0.384  11.543   6.230  1.00  0.00     0.173 A 
ATOM     82  C   UNL     1      -0.787   9.597   4.892  1.00  0.00     0.173 A 
ATOM     83  F   UNL     1       0.084  12.132   7.344  1.00  0.00    -0.203 F 
ATOM     84  C   UNL     1      -0.832  12.370   5.200  1.00  0.00     0.198 A 
ATOM     85  C   UNL     1      -1.289  10.431   3.877  1.00  0.00     0.198 A 
ATOM     86  F   UNL     1      -0.677   8.286   4.640  1.00  0.00    -0.203 F 
ATOM     87  F   UNL     1      -0.746  13.704   5.324  1.00  0.00    -0.200 F 
ATOM     88  C   UNL     1      -1.266  11.814   4.014  1.00  0.00     0.200 A 
ATOM     89  F   UNL     1      -1.633   9.903   2.692  1.00  0.00    -0.200 F 
ATOM     90  F   UNL     1      -1.580  12.605   2.977  1.00  0.00    -0.200 F 
ENDBRANCH  56  80
BRANCH  68  91
ATOM     91  C   UNL     1       2.402   3.551   7.846  1.00  0.00     0.064 A 
ATOM     92  C   UNL     1       1.127   2.971   7.764  1.00  0.00     0.173 A 
ATOM     93  C   UNL     1       3.476   2.627   7.962  1.00  0.00     0.173 A 
ATOM     94  F   UNL     1       0.036   3.700   7.500  1.00  0.00    -0.203 F 
ATOM     95  C   UNL     1       0.931   1.595   7.880  1.00  0.00     0.198 A 
ATOM     96  C   UNL     1       3.282   1.249   7.968  1.00  0.00     0.198 A 
ATOM     97  F   UNL     1       4.756   3.022   8.030  1.00  0.00    -0.203 F 
ATOM     98  F   UNL     1      -0.316   1.107   7.874  1.00  0.00    -0.200 F 
ATOM     99  C   UNL     1       2.007   0.734   7.960  1.00  0.00     0.200 A 
ATOM    100  F   UNL     1       4.343   0.429   7.955  1.00  0.00    -0.200 F 
ATOM    101  F   UNL     1       1.814  -0.590   8.005  1.00  0.00    -0.200 F 
ENDBRANCH  68  91
ENDBRANCH  42  43
ENDBRANCH  35  37
ENDBRANCH  34  35
ENDBRANCH  33  34
ENDBRANCH  32  33
ENDBRANCH  31  32
ENDBRANCH  30  31
ENDBRANCH   1  30
TORSDOF 22
