REMARK SMILES CCC1CN(c2cc(F)ccc2C(=O)OCCOCCOCCOC(=O)c2ccc(-c3c4nc(c(-c5c(F)c(F)c(F)c(F)c5F)c5ccc([nH]5)c(-c5c(F)c(F)c(F)c(F)c5F)c5nc(c(-c6c(F)c(F)c(F)c(F)c6F)c6ccc3[nH]6)C=C5)C=C4)cc2)C1
REMARK SMILES IDX 19 1 18 2 17 3 16 4 15 5 13 6 14 7 12 8 6 9 7 10 8 11 11 12
REMARK SMILES IDX 9 13 10 14 5 15 3 16 4 17 90 18 2 19 1 20 20 21 21 22 22 23
REMARK SMILES IDX 23 24 24 25 25 26 26 27 27 28 28 29 89 30 29 31 88 32 30 33
REMARK SMILES IDX 31 34 32 35 82 36 33 37 87 38 81 39 83 40 34 41 86 42 80 43
REMARK SMILES IDX 79 44 35 46 67 47 47 48 66 49 48 50 51 51 65 52 84 53 49 54
REMARK SMILES IDX 50 55 64 57 85 58 52 59 36 60 37 61 45 62 38 63 39 64 43 65
REMARK SMILES IDX 46 66 40 67 41 68 44 69 42 70 68 71 69 72 77 73 70 74 71 75
REMARK SMILES IDX 75 76 78 77 72 78 73 79 76 80 74 81 53 82 54 83 62 84 55 85
REMARK SMILES IDX 56 86 60 87 63 88 57 89 58 90 61 91 59 92
REMARK H PARENT 83 45 51 56
REMARK Flexibility Score: inf
ROOT
ATOM      1  C   UNL     1       2.909   7.398   2.449  1.00  0.00     0.188 C 
ENDROOT
BRANCH   1   2
ATOM      2  O   UNL     1       2.009   7.425   3.544  1.00  0.00    -0.376 OA
BRANCH   2   3
ATOM      3  C   UNL     1       0.832   6.625   3.477  1.00  0.00     0.202 C 
BRANCH   3   4
ATOM      4  C   UNL     1      -0.002   6.642   2.195  1.00  0.00     0.261 C 
BRANCH   4   5
ATOM      5  O   UNL     1       0.769   6.204   1.066  1.00  0.00    -0.460 OA
BRANCH   5   6
ATOM      6  C   UNL     1       0.488   6.804  -0.114  1.00  0.00     0.340 C 
ATOM      7  O   UNL     1      -0.407   7.607  -0.321  1.00  0.00    -0.246 OA
BRANCH   6   8
ATOM      8  C   UNL     1       1.591   6.562  -1.074  1.00  0.00     0.083 A 
ATOM      9  C   UNL     1       2.091   5.291  -1.426  1.00  0.00     0.054 A 
ATOM     10  C   UNL     1       3.198   5.259  -2.298  1.00  0.00     0.066 A 
ATOM     11  C   UNL     1       3.774   6.426  -2.794  1.00  0.00     0.125 A 
ATOM     12  C   UNL     1       2.198   7.739  -1.569  1.00  0.00     0.021 A 
ATOM     13  F   UNL     1       4.809   6.342  -3.640  1.00  0.00    -0.207 F 
ATOM     14  C   UNL     1       3.290   7.669  -2.429  1.00  0.00     0.040 A 
BRANCH   9  15
ATOM     15  N   UNL     1       1.561   4.067  -0.993  1.00  0.00    -0.370 N 
ATOM     16  C   UNL     1       0.741   2.207  -0.744  1.00  0.00     0.028 C 
ATOM     17  C   UNL     1       0.296   3.658  -0.483  1.00  0.00     0.122 C 
ATOM     18  C   UNL     1       2.164   2.780  -0.852  1.00  0.00     0.122 C 
BRANCH  16  19
ATOM     19  C   UNL     1       0.459   1.196   0.356  1.00  0.00     0.004 C 
ATOM     20  C   UNL     1       1.067  -0.153   0.006  1.00  0.00     0.004 C 
ENDBRANCH  16  19
ENDBRANCH   9  15
ENDBRANCH   6   8
ENDBRANCH   5   6
ENDBRANCH   4   5
ENDBRANCH   3   4
ENDBRANCH   2   3
ENDBRANCH   1   2
BRANCH   1  21
ATOM     21  C   UNL     1       3.584   6.072   2.035  1.00  0.00     0.188 C 
BRANCH  21  22
ATOM     22  O   UNL     1       3.217   4.858   2.648  1.00  0.00    -0.376 OA
BRANCH  22  23
ATOM     23  C   UNL     1       3.553   4.581   3.997  1.00  0.00     0.202 C 
BRANCH  23  24
ATOM     24  C   UNL     1       4.731   5.209   4.757  1.00  0.00     0.261 C 
BRANCH  24  25
ATOM     25  O   UNL     1       5.096   6.543   4.399  1.00  0.00    -0.460 OA
BRANCH  25  26
ATOM     26  C   UNL     1       6.296   6.653   3.777  1.00  0.00     0.338 C 
ATOM     27  O   UNL     1       7.066   5.760   3.475  1.00  0.00    -0.246 OA
BRANCH  26  28
ATOM     28  C   UNL     1       6.485   8.048   3.349  1.00  0.00     0.060 A 
ATOM     29  C   UNL     1       6.591   8.318   1.978  1.00  0.00     0.016 A 
ATOM     30  C   UNL     1       6.615   9.065   4.294  1.00  0.00     0.016 A 
ATOM     31  C   UNL     1       6.859   9.615   1.547  1.00  0.00     0.010 A 
ATOM     32  C   UNL     1       6.907  10.359   3.861  1.00  0.00     0.010 A 
ATOM     33  C   UNL     1       7.061  10.631   2.489  1.00  0.00    -0.014 A 
BRANCH  33  34
ATOM     34  C   UNL     1       7.621  11.934   2.064  1.00  0.00     0.031 A 
ATOM     35  C   UNL     1       9.104  12.141   2.169  1.00  0.00     0.074 A 
ATOM     36  C   UNL     1       6.829  12.912   1.594  1.00  0.00     0.049 A 
ATOM     37  N   UNL     1       9.811  13.219   1.950  1.00  0.00    -0.248 NA
ATOM     38  C   UNL     1       9.900  10.971   2.580  1.00  0.00     0.031 C 
ATOM     39  C   UNL     1       5.386  12.809   1.395  1.00  0.00     0.029 A 
ATOM     40  N   UNL     1       7.134  14.194   1.210  1.00  0.00    -0.354 N 
ATOM     41  C   UNL     1      11.128  12.861   2.200  1.00  0.00     0.074 A 
ATOM     42  C   UNL     1      11.124  11.474   2.612  1.00  0.00     0.031 C 
ATOM     43  C   UNL     1       4.926  13.986   0.936  1.00  0.00     0.029 A 
ATOM     44  C   UNL     1       6.037  14.934   0.847  1.00  0.00     0.049 A 
ATOM     45  H   UNL     1       8.053  14.549   1.196  1.00  0.00     0.167 HD
ATOM     46  C   UNL     1      12.241  13.621   2.089  1.00  0.00     0.037 A 
ATOM     47  C   UNL     1       5.942  16.235   0.507  1.00  0.00     0.037 A 
ATOM     48  C   UNL     1      12.241  15.000   1.682  1.00  0.00     0.049 A 
ATOM     49  C   UNL     1       7.186  17.086   0.475  1.00  0.00     0.074 A 
ATOM     50  C   UNL     1      13.318  15.855   1.538  1.00  0.00     0.029 A 
ATOM     51  N   UNL     1      11.104  15.726   1.358  1.00  0.00    -0.354 N 
ATOM     52  N   UNL     1       8.429  16.744   0.714  1.00  0.00    -0.248 NA
ATOM     53  C   UNL     1       7.013  18.506   0.132  1.00  0.00     0.031 C 
ATOM     54  C   UNL     1      12.830  17.113   1.175  1.00  0.00     0.029 A 
ATOM     55  C   UNL     1      11.454  17.026   1.035  1.00  0.00     0.049 A 
ATOM     56  H   UNL     1      10.186  15.370   1.357  1.00  0.00     0.167 HD
ATOM     57  C   UNL     1       9.187  17.892   0.520  1.00  0.00     0.074 A 
ATOM     58  C   UNL     1       8.266  18.942   0.141  1.00  0.00     0.031 C 
ATOM     59  C   UNL     1      10.527  18.057   0.642  1.00  0.00     0.037 A 
BRANCH  46  60
ATOM     60  C   UNL     1      13.556  12.986   2.429  1.00  0.00     0.064 A 
ATOM     61  C   UNL     1      14.255  13.376   3.581  1.00  0.00     0.173 A 
ATOM     62  C   UNL     1      14.153  12.038   1.585  1.00  0.00     0.173 A 
ATOM     63  F   UNL     1      13.727  14.280   4.419  1.00  0.00    -0.203 F 
ATOM     64  C   UNL     1      15.512  12.850   3.867  1.00  0.00     0.198 A 
ATOM     65  C   UNL     1      15.398  11.494   1.889  1.00  0.00     0.198 A 
ATOM     66  F   UNL     1      13.516  11.621   0.480  1.00  0.00    -0.203 F 
ATOM     67  F   UNL     1      16.175  13.261   4.957  1.00  0.00    -0.200 F 
ATOM     68  C   UNL     1      16.080  11.908   3.023  1.00  0.00     0.200 A 
ATOM     69  F   UNL     1      15.935  10.566   1.086  1.00  0.00    -0.200 F 
ATOM     70  F   UNL     1      17.287  11.396   3.305  1.00  0.00    -0.200 F 
ENDBRANCH  46  60
BRANCH  47  71
ATOM     71  C   UNL     1       4.615  16.812   0.170  1.00  0.00     0.064 A 
ATOM     72  C   UNL     1       3.624  16.983   1.149  1.00  0.00     0.173 A 
ATOM     73  C   UNL     1       4.308  17.194  -1.142  1.00  0.00     0.173 A 
ATOM     74  F   UNL     1       3.870  16.638   2.421  1.00  0.00    -0.203 F 
ATOM     75  C   UNL     1       2.370  17.496   0.822  1.00  0.00     0.198 A 
ATOM     76  C   UNL     1       3.063  17.730  -1.464  1.00  0.00     0.198 A 
ATOM     77  F   UNL     1       5.232  17.074  -2.107  1.00  0.00    -0.203 F 
ATOM     78  F   UNL     1       1.432  17.622   1.770  1.00  0.00    -0.200 F 
ATOM     79  C   UNL     1       2.092  17.872  -0.483  1.00  0.00     0.200 A 
ATOM     80  F   UNL     1       2.807  18.118  -2.720  1.00  0.00    -0.200 F 
ATOM     81  F   UNL     1       0.891  18.378  -0.795  1.00  0.00    -0.200 F 
ENDBRANCH  47  71
BRANCH  59  82
ATOM     82  C   UNL     1      11.104  19.407   0.329  1.00  0.00     0.064 A 
ATOM     83  C   UNL     1      11.902  19.586  -0.812  1.00  0.00     0.173 A 
ATOM     84  C   UNL     1      10.959  20.491   1.206  1.00  0.00     0.173 A 
ATOM     85  F   UNL     1      12.081  18.576  -1.677  1.00  0.00    -0.203 F 
ATOM     86  C   UNL     1      12.553  20.793  -1.050  1.00  0.00     0.198 A 
ATOM     87  C   UNL     1      11.589  21.706   0.950  1.00  0.00     0.198 A 
ATOM     88  F   UNL     1      10.198  20.373   2.305  1.00  0.00    -0.203 F 
ATOM     89  F   UNL     1      13.346  20.926  -2.122  1.00  0.00    -0.200 F 
ATOM     90  C   UNL     1      12.395  21.852  -0.169  1.00  0.00     0.200 A 
ATOM     91  F   UNL     1      11.420  22.736   1.791  1.00  0.00    -0.200 F 
ATOM     92  F   UNL     1      13.021  23.015  -0.399  1.00  0.00    -0.200 F 
ENDBRANCH  59  82
ENDBRANCH  33  34
ENDBRANCH  26  28
ENDBRANCH  25  26
ENDBRANCH  24  25
ENDBRANCH  23  24
ENDBRANCH  22  23
ENDBRANCH  21  22
ENDBRANCH   1  21
TORSDOF 19
