REMARK SMILES O=C(N[C@H](C(=O)OCCOCCOCCOC(=O)c1ccc(-c2c3nc(c(-c4c(F)c(F)c(F)c(F)c4F)c4ccc([nH]4)c(-c4c(F)c(F)c(F)c(F)c4F)c4nc(c(-c5c(F)c(F)c(F)c(F)c5F)c5ccc2[nH]5)C=C4)C=C3)cc1)c1ccccc1F)c1ccc(C[NH+]2CCCCC2)cc1
REMARK SMILES IDX 11 1 10 2 9 3 8 4 7 5 5 6 6 7 4 8 3 9 1 10 2 11 89 13 90 14
REMARK SMILES IDX 101 15 91 16 100 17 92 18 93 19 94 20 95 21 99 22 96 24
REMARK SMILES IDX 98 25 97 26 82 27 83 28 87 29 84 30 86 31 88 32 85 33 12 34
REMARK SMILES IDX 13 35 14 36 15 37 16 38 17 39 18 40 19 41 20 42 81 43 21 44
REMARK SMILES IDX 80 45 22 46 23 47 24 48 74 49 25 50 79 51 73 52 75 53 26 54
REMARK SMILES IDX 78 55 72 56 71 57 27 59 59 60 39 61 58 62 40 63 43 64 57 65
REMARK SMILES IDX 76 66 41 67 42 68 56 70 77 71 44 72 28 73 29 74 37 75 30 76
REMARK SMILES IDX 31 77 35 78 38 79 32 80 33 81 36 82 34 83 60 84 61 85 69 86
REMARK SMILES IDX 62 87 63 88 67 89 70 90 64 91 65 92 68 93 66 94 45 95 46 96
REMARK SMILES IDX 54 97 47 98 48 99 52 100 55 101 49 102 50 103 53 104 51 105
REMARK H PARENT 3 12 94 23 75 58 43 69
REMARK Flexibility Score: inf
ROOT
ATOM      1  C   UNL     1       1.928   1.206  -1.268  1.00  0.00     0.188 C 
ENDROOT
BRANCH   1   2
ATOM      2  O   UNL     1       0.947   0.592  -0.436  1.00  0.00    -0.376 OA
BRANCH   2   3
ATOM      3  C   UNL     1       1.187   0.474   0.959  1.00  0.00     0.202 C 
BRANCH   3   4
ATOM      4  C   UNL     1       1.842  -0.834   1.400  1.00  0.00     0.261 C 
BRANCH   4   5
ATOM      5  O   UNL     1       3.241  -0.957   1.095  1.00  0.00    -0.461 OA
BRANCH   5   6
ATOM      6  C   UNL     1       3.489  -1.468  -0.141  1.00  0.00     0.333 C 
ATOM      7  O   UNL     1       2.660  -1.522  -1.036  1.00  0.00    -0.249 OA
BRANCH   6   8
ATOM      8  C   UNL     1       4.861  -2.127  -0.248  1.00  0.00     0.226 C 
BRANCH   8   9
ATOM      9  N   UNL     1       4.783  -3.567   0.071  1.00  0.00    -0.335 N 
ATOM     10  O   UNL     1       4.198  -5.732  -0.058  1.00  0.00    -0.269 OA
ATOM     11  C   UNL     1       3.927  -4.566  -0.334  1.00  0.00     0.252 C 
ATOM     12  H   UNL     1       5.479  -3.871   0.696  1.00  0.00     0.165 HD
BRANCH  11  13
ATOM     13  C   UNL     1       2.638  -4.279  -1.000  1.00  0.00     0.039 A 
ATOM     14  C   UNL     1       2.562  -3.998  -2.365  1.00  0.00     0.014 A 
ATOM     15  C   UNL     1       1.473  -4.279  -0.223  1.00  0.00     0.014 A 
ATOM     16  C   UNL     1       1.334  -3.624  -2.931  1.00  0.00     0.010 A 
ATOM     17  C   UNL     1       0.247  -3.908  -0.795  1.00  0.00     0.010 A 
ATOM     18  C   UNL     1       0.164  -3.555  -2.152  1.00  0.00     0.006 A 
BRANCH  18  19
ATOM     19  C   UNL     1      -1.169  -3.185  -2.782  1.00  0.00     0.299 C 
BRANCH  19  20
ATOM     20  N   UNL     1      -1.538  -1.767  -2.909  1.00  0.00    -0.331 N 
ATOM     21  C   UNL     1      -1.841  -1.108  -1.639  1.00  0.00     0.262 C 
ATOM     22  C   UNL     1      -0.619  -0.972  -3.724  1.00  0.00     0.262 C 
ATOM     23  H   UNL     1      -2.415  -1.806  -3.429  1.00  0.00     0.348 HD
ATOM     24  C   UNL     1      -2.477   0.271  -1.871  1.00  0.00     0.062 C 
ATOM     25  C   UNL     1      -1.248   0.383  -4.065  1.00  0.00     0.062 C 
ATOM     26  C   UNL     1      -1.660   1.145  -2.814  1.00  0.00     0.012 C 
ENDBRANCH  19  20
ENDBRANCH  18  19
ENDBRANCH  11  13
ENDBRANCH   8   9
BRANCH   8  27
ATOM     27  C   UNL     1       5.558  -1.814  -1.565  1.00  0.00     0.021 A 
ATOM     28  C   UNL     1       5.962  -2.793  -2.484  1.00  0.00     0.009 A 
ATOM     29  C   UNL     1       5.826  -0.475  -1.888  1.00  0.00     0.129 A 
ATOM     30  C   UNL     1       6.556  -2.438  -3.700  1.00  0.00     0.001 A 
ATOM     31  C   UNL     1       6.448  -0.115  -3.082  1.00  0.00     0.039 A 
ATOM     32  F   UNL     1       5.476   0.497  -1.033  1.00  0.00    -0.207 F 
ATOM     33  C   UNL     1       6.799  -1.100  -4.000  1.00  0.00     0.003 A 
ENDBRANCH   8  27
ENDBRANCH   6   8
ENDBRANCH   5   6
ENDBRANCH   4   5
ENDBRANCH   3   4
ENDBRANCH   2   3
ENDBRANCH   1   2
BRANCH   1  34
ATOM     34  C   UNL     1       2.731   2.359  -0.675  1.00  0.00     0.188 C 
BRANCH  34  35
ATOM     35  O   UNL     1       1.981   3.404  -0.063  1.00  0.00    -0.376 OA
BRANCH  35  36
ATOM     36  C   UNL     1       0.739   3.768  -0.662  1.00  0.00     0.202 C 
BRANCH  36  37
ATOM     37  C   UNL     1       0.846   4.541  -1.981  1.00  0.00     0.261 C 
BRANCH  37  38
ATOM     38  O   UNL     1       1.109   3.686  -3.116  1.00  0.00    -0.460 OA
BRANCH  38  39
ATOM     39  C   UNL     1       2.338   3.795  -3.662  1.00  0.00     0.338 C 
ATOM     40  O   UNL     1       3.243   4.542  -3.305  1.00  0.00    -0.246 OA
BRANCH  39  41
ATOM     41  C   UNL     1       2.547   2.787  -4.719  1.00  0.00     0.060 A 
ATOM     42  C   UNL     1       3.681   1.972  -4.625  1.00  0.00     0.016 A 
ATOM     43  C   UNL     1       1.754   2.755  -5.869  1.00  0.00     0.016 A 
ATOM     44  C   UNL     1       4.072   1.185  -5.708  1.00  0.00     0.010 A 
ATOM     45  C   UNL     1       2.150   1.961  -6.956  1.00  0.00     0.010 A 
ATOM     46  C   UNL     1       3.341   1.213  -6.902  1.00  0.00    -0.014 A 
BRANCH  46  47
ATOM     47  C   UNL     1       3.940   0.637  -8.138  1.00  0.00     0.031 A 
ATOM     48  C   UNL     1       4.554   1.572  -9.149  1.00  0.00     0.074 A 
ATOM     49  C   UNL     1       4.014  -0.691  -8.340  1.00  0.00     0.049 A 
ATOM     50  N   UNL     1       5.060   1.313 -10.330  1.00  0.00    -0.248 NA
ATOM     51  C   UNL     1       4.614   2.993  -8.771  1.00  0.00     0.031 C 
ATOM     52  C   UNL     1       3.550  -1.717  -7.409  1.00  0.00     0.029 A 
ATOM     53  N   UNL     1       4.511  -1.403  -9.406  1.00  0.00    -0.354 N 
ATOM     54  C   UNL     1       5.472   2.537 -10.842  1.00  0.00     0.074 A 
ATOM     55  C   UNL     1       5.148   3.541  -9.852  1.00  0.00     0.031 C 
ATOM     56  C   UNL     1       3.772  -2.928  -7.950  1.00  0.00     0.029 A 
ATOM     57  C   UNL     1       4.351  -2.761  -9.284  1.00  0.00     0.049 A 
ATOM     58  H   UNL     1       4.941  -0.979 -10.184  1.00  0.00     0.167 HD
ATOM     59  C   UNL     1       6.071   2.803 -12.028  1.00  0.00     0.037 A 
ATOM     60  C   UNL     1       4.610  -3.752 -10.161  1.00  0.00     0.037 A 
ATOM     61  C   UNL     1       6.418   1.809 -13.009  1.00  0.00     0.049 A 
ATOM     62  C   UNL     1       5.190  -3.423 -11.514  1.00  0.00     0.074 A 
ATOM     63  C   UNL     1       7.026   1.986 -14.240  1.00  0.00     0.029 A 
ATOM     64  N   UNL     1       6.187   0.449 -12.870  1.00  0.00    -0.354 N 
ATOM     65  N   UNL     1       5.553  -2.262 -12.002  1.00  0.00    -0.248 NA
ATOM     66  C   UNL     1       5.390  -4.547 -12.443  1.00  0.00     0.031 C 
ATOM     67  C   UNL     1       7.121   0.739 -14.865  1.00  0.00     0.029 A 
ATOM     68  C   UNL     1       6.620  -0.222 -14.002  1.00  0.00     0.049 A 
ATOM     69  H   UNL     1       5.777   0.023 -12.083  1.00  0.00     0.167 HD
ATOM     70  C   UNL     1       6.046  -2.518 -13.277  1.00  0.00     0.074 A 
ATOM     71  C   UNL     1       5.949  -3.947 -13.484  1.00  0.00     0.031 C 
ATOM     72  C   UNL     1       6.533  -1.646 -14.194  1.00  0.00     0.037 A 
BRANCH  59  73
ATOM     73  C   UNL     1       6.357   4.240 -12.351  1.00  0.00     0.064 A 
ATOM     74  C   UNL     1       7.384   4.952 -11.716  1.00  0.00     0.173 A 
ATOM     75  C   UNL     1       5.609   4.902 -13.337  1.00  0.00     0.173 A 
ATOM     76  F   UNL     1       8.117   4.369 -10.756  1.00  0.00    -0.203 F 
ATOM     77  C   UNL     1       7.636   6.284 -12.039  1.00  0.00     0.198 A 
ATOM     78  C   UNL     1       5.881   6.224 -13.677  1.00  0.00     0.198 A 
ATOM     79  F   UNL     1       4.618   4.263 -13.977  1.00  0.00    -0.203 F 
ATOM     80  F   UNL     1       8.592   6.960 -11.388  1.00  0.00    -0.200 F 
ATOM     81  C   UNL     1       6.889   6.916 -13.023  1.00  0.00     0.200 A 
ATOM     82  F   UNL     1       5.167   6.829 -14.636  1.00  0.00    -0.200 F 
ATOM     83  F   UNL     1       7.137   8.195 -13.336  1.00  0.00    -0.200 F 
ENDBRANCH  59  73
BRANCH  60  84
ATOM     84  C   UNL     1       4.284  -5.161  -9.810  1.00  0.00     0.064 A 
ATOM     85  C   UNL     1       5.293  -6.119  -9.640  1.00  0.00     0.173 A 
ATOM     86  C   UNL     1       2.953  -5.586  -9.683  1.00  0.00     0.173 A 
ATOM     87  F   UNL     1       6.580  -5.769  -9.784  1.00  0.00    -0.203 F 
ATOM     88  C   UNL     1       4.982  -7.452  -9.374  1.00  0.00     0.198 A 
ATOM     89  C   UNL     1       2.645  -6.912  -9.387  1.00  0.00     0.198 A 
ATOM     90  F   UNL     1       1.950  -4.711  -9.847  1.00  0.00    -0.203 F 
ATOM     91  F   UNL     1       5.964  -8.358  -9.269  1.00  0.00    -0.200 F 
ATOM     92  C   UNL     1       3.659  -7.846  -9.242  1.00  0.00     0.200 A 
ATOM     93  F   UNL     1       1.365  -7.286  -9.254  1.00  0.00    -0.200 F 
ATOM     94  F   UNL     1       3.361  -9.127  -8.989  1.00  0.00    -0.200 F 
ENDBRANCH  60  84
BRANCH  72  95
ATOM     95  C   UNL     1       7.040  -2.209 -15.491  1.00  0.00     0.064 A 
ATOM     96  C   UNL     1       6.168  -2.707 -16.471  1.00  0.00     0.173 A 
ATOM     97  C   UNL     1       8.414  -2.204 -15.778  1.00  0.00     0.173 A 
ATOM     98  F   UNL     1       4.847  -2.747 -16.240  1.00  0.00    -0.203 F 
ATOM     99  C   UNL     1       6.655  -3.198 -17.680  1.00  0.00     0.198 A 
ATOM    100  C   UNL     1       8.895  -2.669 -17.000  1.00  0.00     0.198 A 
ATOM    101  F   UNL     1       9.291  -1.731 -14.880  1.00  0.00    -0.203 F 
ATOM    102  F   UNL     1       5.806  -3.708 -18.584  1.00  0.00    -0.200 F 
ATOM    103  C   UNL     1       8.015  -3.172 -17.947  1.00  0.00     0.200 A 
ATOM    104  F   UNL     1      10.209  -2.629 -17.261  1.00  0.00    -0.200 F 
ATOM    105  F   UNL     1       8.480  -3.637 -19.114  1.00  0.00    -0.200 F 
ENDBRANCH  72  95
ENDBRANCH  46  47
ENDBRANCH  39  41
ENDBRANCH  38  39
ENDBRANCH  37  38
ENDBRANCH  36  37
ENDBRANCH  35  36
ENDBRANCH  34  35
ENDBRANCH   1  34
TORSDOF 22
