REMARK SMILES Cc1ccc(C)c(N2C(=O)S[C@H](CC(=O)Nc3ccc(C(=O)OCCOCCOCCOC(=O)c4ccc(-c5c6nc(c(-c7c(F)c(F)c(F)c(F)c7F)c7ccc([nH]7)c(-c7c(F)c(F)c(F)c(F)c7F)c7nc(c(-c8c(F)c(F)c(F)c(F)c8F)c8ccc5[nH]8)C=C7)C=C6)cc4)c(O)c3)C2=O)c1
REMARK SMILES IDX 27 1 26 2 25 3 24 4 23 5 21 6 22 7 20 8 17 9 18 10 100 11
REMARK SMILES IDX 19 12 98 13 16 14 14 15 15 16 13 18 12 19 8 20 9 21 101 22
REMARK SMILES IDX 10 23 11 24 102 25 7 26 1 27 2 28 3 29 103 30 4 31 5 32 6 33
REMARK SMILES IDX 99 34 28 36 29 37 30 38 31 39 32 40 33 41 34 42 35 43 36 44
REMARK SMILES IDX 97 45 37 46 96 47 38 48 39 49 40 50 90 51 41 52 95 53 89 54
REMARK SMILES IDX 91 55 42 56 94 57 88 58 87 59 43 61 75 62 55 63 74 64 56 65
REMARK SMILES IDX 59 66 73 67 92 68 57 69 58 70 72 72 93 73 60 74 44 75 45 76
REMARK SMILES IDX 53 77 46 78 47 79 51 80 54 81 48 82 49 83 52 84 50 85 76 86
REMARK SMILES IDX 77 87 85 88 78 89 79 90 83 91 86 92 80 93 81 94 84 95 82 96
REMARK SMILES IDX 61 97 62 98 70 99 63 100 64 101 68 102 71 103 65 104 66 105
REMARK SMILES IDX 69 106 67 107
REMARK H PARENT 16 17 99 35 91 60 59 71
REMARK Flexibility Score: inf
ROOT
ATOM      1  C   UNL     1       1.975   1.984  -2.959  1.00  0.00     0.188 C 
ENDROOT
BRANCH   1   2
ATOM      2  O   UNL     1       1.986   1.738  -4.368  1.00  0.00    -0.376 OA
BRANCH   2   3
ATOM      3  C   UNL     1       2.324   2.857  -5.189  1.00  0.00     0.202 C 
BRANCH   3   4
ATOM      4  C   UNL     1       1.175   3.838  -5.493  1.00  0.00     0.261 C 
BRANCH   4   5
ATOM      5  O   UNL     1       0.562   4.440  -4.330  1.00  0.00    -0.460 OA
BRANCH   5   6
ATOM      6  C   UNL     1      -0.622   5.064  -4.569  1.00  0.00     0.341 C 
ATOM      7  O   UNL     1      -1.252   5.026  -5.613  1.00  0.00    -0.246 OA
BRANCH   6   8
ATOM      8  C   UNL     1      -1.159   5.733  -3.357  1.00  0.00     0.101 A 
ATOM      9  C   UNL     1      -2.250   6.707  -0.948  1.00  0.00     0.044 A 
ATOM     10  C   UNL     1      -2.953   5.812  -1.745  1.00  0.00     0.027 A 
ATOM     11  C   UNL     1      -1.111   7.297  -1.469  1.00  0.00     0.073 A 
ATOM     12  C   UNL     1      -2.396   5.285  -2.912  1.00  0.00     0.022 A 
ATOM     13  C   UNL     1      -0.593   6.828  -2.690  1.00  0.00     0.132 A 
BRANCH   9  14
ATOM     14  N   UNL     1      -2.743   7.048   0.321  1.00  0.00    -0.326 N 
ATOM     15  C   UNL     1      -3.212   6.152   1.264  1.00  0.00     0.226 C 
ATOM     16  O   UNL     1      -4.103   6.468   2.049  1.00  0.00    -0.275 OA
ATOM     17  H   UNL     1      -2.755   8.003   0.559  1.00  0.00     0.169 HD
BRANCH  15  18
ATOM     18  C   UNL     1      -2.412   4.864   1.448  1.00  0.00     0.125 C 
BRANCH  18  19
ATOM     19  C   UNL     1      -3.173   3.545   1.346  1.00  0.00     0.156 C 
ATOM     20  N   UNL     1      -1.581   1.949   0.528  1.00  0.00    -0.240 N 
ATOM     21  C   UNL     1      -2.077   2.422  -0.664  1.00  0.00     0.293 C 
ATOM     22  C   UNL     1      -2.227   2.389   1.675  1.00  0.00     0.248 C 
ATOM     23  O   UNL     1      -1.579   2.383  -1.765  1.00  0.00    -0.261 OA
ATOM     24  S   UNL     1      -3.658   3.125  -0.352  1.00  0.00    -0.050 SA
ATOM     25  O   UNL     1      -2.095   1.940   2.808  1.00  0.00    -0.273 OA
BRANCH  20  26
ATOM     26  C   UNL     1      -0.800   0.773   0.494  1.00  0.00     0.056 A 
ATOM     27  C   UNL     1       2.880  -0.250   0.254  1.00  0.00     0.044 C 
ATOM     28  C   UNL     1       1.381  -0.291   0.293  1.00  0.00    -0.049 A 
ATOM     29  C   UNL     1       0.746  -1.524   0.116  1.00  0.00     0.004 A 
ATOM     30  C   UNL     1       0.602   0.863   0.481  1.00  0.00     0.030 A 
ATOM     31  C   UNL     1      -0.643  -1.615   0.131  1.00  0.00     0.006 A 
ATOM     32  C   UNL     1      -1.434  -0.474   0.310  1.00  0.00    -0.027 A 
ATOM     33  C   UNL     1      -2.927  -0.663   0.272  1.00  0.00     0.046 C 
ENDBRANCH  20  26
ENDBRANCH  18  19
ENDBRANCH  15  18
ENDBRANCH   9  14
BRANCH  13  34
ATOM     34  O   UNL     1       0.434   7.569  -3.187  1.00  0.00    -0.507 OA
ATOM     35  H   UNL     1       0.837   7.327  -3.997  1.00  0.00     0.293 HD
ENDBRANCH  13  34
ENDBRANCH   6   8
ENDBRANCH   5   6
ENDBRANCH   4   5
ENDBRANCH   3   4
ENDBRANCH   2   3
ENDBRANCH   1   2
BRANCH   1  36
ATOM     36  C   UNL     1       3.373   2.052  -2.319  1.00  0.00     0.188 C 
BRANCH  36  37
ATOM     37  O   UNL     1       4.062   3.218  -2.736  1.00  0.00    -0.376 OA
BRANCH  37  38
ATOM     38  C   UNL     1       5.446   3.269  -2.456  1.00  0.00     0.202 C 
BRANCH  38  39
ATOM     39  C   UNL     1       5.882   3.237  -0.985  1.00  0.00     0.261 C 
BRANCH  39  40
ATOM     40  O   UNL     1       5.030   3.726   0.088  1.00  0.00    -0.460 OA
BRANCH  40  41
ATOM     41  C   UNL     1       4.190   4.779   0.168  1.00  0.00     0.338 C 
ATOM     42  O   UNL     1       3.416   4.927   1.106  1.00  0.00    -0.246 OA
BRANCH  41  43
ATOM     43  C   UNL     1       4.101   5.650  -1.002  1.00  0.00     0.060 A 
ATOM     44  C   UNL     1       2.902   5.577  -1.687  1.00  0.00     0.016 A 
ATOM     45  C   UNL     1       5.199   6.347  -1.526  1.00  0.00     0.016 A 
ATOM     46  C   UNL     1       2.902   5.990  -3.000  1.00  0.00     0.010 A 
ATOM     47  C   UNL     1       5.157   6.802  -2.853  1.00  0.00     0.010 A 
ATOM     48  C   UNL     1       4.024   6.541  -3.619  1.00  0.00    -0.014 A 
BRANCH  48  49
ATOM     49  C   UNL     1       3.793   6.935  -5.016  1.00  0.00     0.031 A 
ATOM     50  C   UNL     1       2.830   8.063  -5.150  1.00  0.00     0.074 A 
ATOM     51  C   UNL     1       4.290   6.315  -6.108  1.00  0.00     0.049 A 
ATOM     52  N   UNL     1       1.699   8.082  -5.791  1.00  0.00    -0.248 NA
ATOM     53  C   UNL     1       3.084   9.257  -4.327  1.00  0.00     0.031 C 
ATOM     54  C   UNL     1       5.315   5.275  -6.149  1.00  0.00     0.029 A 
ATOM     55  N   UNL     1       4.029   6.545  -7.439  1.00  0.00    -0.354 N 
ATOM     56  C   UNL     1       1.216   9.375  -5.625  1.00  0.00     0.074 A 
ATOM     57  C   UNL     1       2.009   9.993  -4.593  1.00  0.00     0.031 C 
ATOM     58  C   UNL     1       5.752   5.133  -7.420  1.00  0.00     0.029 A 
ATOM     59  C   UNL     1       4.989   6.011  -8.294  1.00  0.00     0.049 A 
ATOM     60  H   UNL     1       3.239   7.039  -7.757  1.00  0.00     0.167 HD
ATOM     61  C   UNL     1       0.348   9.957  -6.490  1.00  0.00     0.037 A 
ATOM     62  C   UNL     1       5.222   6.342  -9.591  1.00  0.00     0.037 A 
ATOM     63  C   UNL     1      -0.415   9.026  -7.260  1.00  0.00     0.049 A 
ATOM     64  C   UNL     1       4.004   6.979 -10.140  1.00  0.00     0.074 A 
ATOM     65  C   UNL     1      -1.361   8.061  -6.981  1.00  0.00     0.029 A 
ATOM     66  N   UNL     1      -0.076   8.840  -8.574  1.00  0.00    -0.354 N 
ATOM     67  N   UNL     1       2.909   6.346 -10.449  1.00  0.00    -0.248 NA
ATOM     68  C   UNL     1       3.882   8.423 -10.021  1.00  0.00     0.031 C 
ATOM     69  C   UNL     1      -1.219   7.079  -8.005  1.00  0.00     0.029 A 
ATOM     70  C   UNL     1      -0.203   7.505  -8.855  1.00  0.00     0.049 A 
ATOM     71  H   UNL     1       0.209   9.540  -9.204  1.00  0.00     0.167 HD
ATOM     72  C   UNL     1       1.897   7.236 -10.132  1.00  0.00     0.074 A 
ATOM     73  C   UNL     1       2.554   8.527  -9.978  1.00  0.00     0.031 C 
ATOM     74  C   UNL     1       0.666   6.790  -9.755  1.00  0.00     0.037 A 
BRANCH  61  75
ATOM     75  C   UNL     1       0.495  11.409  -6.836  1.00  0.00     0.064 A 
ATOM     76  C   UNL     1      -0.566  12.137  -7.391  1.00  0.00     0.173 A 
ATOM     77  C   UNL     1       1.756  12.049  -6.836  1.00  0.00     0.173 A 
ATOM     78  F   UNL     1      -1.778  11.579  -7.525  1.00  0.00    -0.203 F 
ATOM     79  C   UNL     1      -0.377  13.432  -7.883  1.00  0.00     0.198 A 
ATOM     80  C   UNL     1       1.926  13.360  -7.257  1.00  0.00     0.198 A 
ATOM     81  F   UNL     1       2.879  11.386  -6.522  1.00  0.00    -0.203 F 
ATOM     82  F   UNL     1      -1.388  14.068  -8.488  1.00  0.00    -0.200 F 
ATOM     83  C   UNL     1       0.862  14.049  -7.795  1.00  0.00     0.200 A 
ATOM     84  F   UNL     1       3.142  13.920  -7.193  1.00  0.00    -0.200 F 
ATOM     85  F   UNL     1       1.045  15.284  -8.279  1.00  0.00    -0.200 F 
ENDBRANCH  61  75
BRANCH  62  86
ATOM     86  C   UNL     1       6.528   6.432 -10.302  1.00  0.00     0.064 A 
ATOM     87  C   UNL     1       6.596   6.582 -11.700  1.00  0.00     0.173 A 
ATOM     88  C   UNL     1       7.730   6.656  -9.601  1.00  0.00     0.173 A 
ATOM     89  F   UNL     1       5.492   6.446 -12.450  1.00  0.00    -0.203 F 
ATOM     90  C   UNL     1       7.782   6.952 -12.347  1.00  0.00     0.198 A 
ATOM     91  C   UNL     1       8.915   7.008 -10.248  1.00  0.00     0.198 A 
ATOM     92  F   UNL     1       7.764   6.638  -8.262  1.00  0.00    -0.203 F 
ATOM     93  F   UNL     1       7.789   7.153 -13.672  1.00  0.00    -0.200 F 
ATOM     94  C   UNL     1       8.939   7.171 -11.619  1.00  0.00     0.200 A 
ATOM     95  F   UNL     1      10.015   7.253  -9.523  1.00  0.00    -0.200 F 
ATOM     96  F   UNL     1      10.060   7.580 -12.227  1.00  0.00    -0.200 F 
ENDBRANCH  62  86
BRANCH  74  97
ATOM     97  C   UNL     1       0.296   5.376 -10.093  1.00  0.00     0.064 A 
ATOM     98  C   UNL     1       0.961   4.239  -9.604  1.00  0.00     0.173 A 
ATOM     99  C   UNL     1      -0.854   5.172 -10.870  1.00  0.00     0.173 A 
ATOM    100  F   UNL     1       2.017   4.352  -8.783  1.00  0.00    -0.203 F 
ATOM    101  C   UNL     1       0.513   2.956  -9.922  1.00  0.00     0.198 A 
ATOM    102  C   UNL     1      -1.319   3.892 -11.153  1.00  0.00     0.198 A 
ATOM    103  F   UNL     1      -1.548   6.224 -11.333  1.00  0.00    -0.203 F 
ATOM    104  F   UNL     1       1.178   1.882  -9.470  1.00  0.00    -0.200 F 
ATOM    105  C   UNL     1      -0.629   2.784 -10.689  1.00  0.00     0.200 A 
ATOM    106  F   UNL     1      -2.444   3.733 -11.865  1.00  0.00    -0.200 F 
ATOM    107  F   UNL     1      -1.075   1.551 -10.969  1.00  0.00    -0.200 F 
ENDBRANCH  74  97
ENDBRANCH  48  49
ENDBRANCH  41  43
ENDBRANCH  40  41
ENDBRANCH  39  40
ENDBRANCH  38  39
ENDBRANCH  37  38
ENDBRANCH  36  37
ENDBRANCH   1  36
TORSDOF 22
