REMARK SMILES O=C(OCCOCCOCCOC(=O)c1[nH]nc2c1CCC2)c1ccc(-c2c3nc(c(-c4c(F)c(F)c(F)c(F)c4F)c4ccc([nH]4)c(-c4c(F)c(F)c(F)c(F)c4F)c4nc(c(-c5c(F)c(F)c(F)c(F)c5F)c5ccc2[nH]5)C=C4)C=C3)cc1
REMARK SMILES IDX 7 1 6 2 5 3 4 4 3 5 2 6 1 7 23 8 24 9 85 10 25 11 84 12
REMARK SMILES IDX 26 13 27 14 28 15 78 16 29 17 83 18 77 19 79 20 30 21 82 22
REMARK SMILES IDX 76 23 75 24 31 26 63 27 43 28 62 29 44 30 47 31 61 32 80 33
REMARK SMILES IDX 45 34 46 35 60 37 81 38 48 39 32 40 33 41 41 42 34 43 35 44
REMARK SMILES IDX 39 45 42 46 36 47 37 48 40 49 38 50 64 51 65 52 73 53 66 54
REMARK SMILES IDX 67 55 71 56 74 57 68 58 69 59 72 60 70 61 49 62 50 63 58 64
REMARK SMILES IDX 51 65 52 66 56 67 59 68 53 69 54 70 57 71 55 72 8 73 9 74
REMARK SMILES IDX 10 75 11 76 12 77 13 78 14 79 15 80 16 81 19 82 17 83 18 85
REMARK SMILES IDX 20 86 22 87 21 88
REMARK H PARENT 79 25 47 36 16 84
REMARK Flexibility Score: inf
ROOT
ATOM      1  C   UNL     1       3.617  -0.592  -1.685  1.00  0.00     0.188 C 
ENDROOT
BRANCH   1   2
ATOM      2  O   UNL     1       4.880  -0.950  -1.134  1.00  0.00    -0.376 OA
BRANCH   2   3
ATOM      3  C   UNL     1       5.292  -0.197  -0.004  1.00  0.00     0.202 C 
BRANCH   3   4
ATOM      4  C   UNL     1       4.863  -0.851   1.307  1.00  0.00     0.261 C 
BRANCH   4   5
ATOM      5  O   UNL     1       3.462  -1.177   1.403  1.00  0.00    -0.460 OA
BRANCH   5   6
ATOM      6  C   UNL     1       2.367  -0.444   1.669  1.00  0.00     0.338 C 
ATOM      7  O   UNL     1       1.311  -1.023   1.918  1.00  0.00    -0.246 OA
BRANCH   6   8
ATOM      8  C   UNL     1       2.320   1.037   1.555  1.00  0.00     0.060 A 
ATOM      9  C   UNL     1       3.393   1.895   1.794  1.00  0.00     0.016 A 
ATOM     10  C   UNL     1       1.055   1.596   1.281  1.00  0.00     0.016 A 
ATOM     11  C   UNL     1       3.205   3.276   1.790  1.00  0.00     0.010 A 
ATOM     12  C   UNL     1       0.856   2.974   1.303  1.00  0.00     0.010 A 
ATOM     13  C   UNL     1       1.929   3.812   1.601  1.00  0.00    -0.014 A 
BRANCH  13  14
ATOM     14  C   UNL     1       1.752   5.235   1.880  1.00  0.00     0.031 A 
ATOM     15  C   UNL     1       2.267   6.242   0.914  1.00  0.00     0.074 A 
ATOM     16  C   UNL     1       1.086   5.656   2.974  1.00  0.00     0.049 A 
ATOM     17  N   UNL     1       3.086   7.222   1.145  1.00  0.00    -0.248 NA
ATOM     18  C   UNL     1       1.790   6.172  -0.472  1.00  0.00     0.031 C 
ATOM     19  C   UNL     1       0.271   4.852   3.888  1.00  0.00     0.029 A 
ATOM     20  N   UNL     1       0.925   6.931   3.442  1.00  0.00    -0.354 N 
ATOM     21  C   UNL     1       3.114   7.987  -0.019  1.00  0.00     0.074 A 
ATOM     22  C   UNL     1       2.344   7.266  -1.002  1.00  0.00     0.031 C 
ATOM     23  C   UNL     1      -0.456   5.677   4.670  1.00  0.00     0.029 A 
ATOM     24  C   UNL     1      -0.066   7.050   4.400  1.00  0.00     0.049 A 
ATOM     25  H   UNL     1       1.464   7.692   3.127  1.00  0.00     0.167 HD
ATOM     26  C   UNL     1       3.638   9.244  -0.058  1.00  0.00     0.037 A 
ATOM     27  C   UNL     1      -0.585   8.194   4.899  1.00  0.00     0.037 A 
ATOM     28  C   UNL     1       4.528   9.511   1.035  1.00  0.00     0.049 A 
ATOM     29  C   UNL     1       0.377   9.294   4.664  1.00  0.00     0.074 A 
ATOM     30  C   UNL     1       5.707   8.957   1.494  1.00  0.00     0.029 A 
ATOM     31  N   UNL     1       4.131  10.380   2.018  1.00  0.00    -0.354 N 
ATOM     32  N   UNL     1       1.507   9.442   5.295  1.00  0.00    -0.248 NA
ATOM     33  C   UNL     1       0.217  10.112   3.471  1.00  0.00     0.031 C 
ATOM     34  C   UNL     1       5.705   9.168   2.903  1.00  0.00     0.029 A 
ATOM     35  C   UNL     1       4.515   9.827   3.212  1.00  0.00     0.049 A 
ATOM     36  H   UNL     1       3.662  11.236   1.891  1.00  0.00     0.167 HD
ATOM     37  C   UNL     1       2.345  10.051   4.376  1.00  0.00     0.074 A 
ATOM     38  C   UNL     1       1.464  10.567   3.339  1.00  0.00     0.031 C 
ATOM     39  C   UNL     1       3.691   9.827   4.396  1.00  0.00     0.037 A 
BRANCH  26  40
ATOM     40  C   UNL     1       3.142  10.341  -0.964  1.00  0.00     0.064 A 
ATOM     41  C   UNL     1       3.929  11.489  -1.181  1.00  0.00     0.173 A 
ATOM     42  C   UNL     1       1.802  10.424  -1.394  1.00  0.00     0.173 A 
ATOM     43  F   UNL     1       5.204  11.531  -0.767  1.00  0.00    -0.203 F 
ATOM     44  C   UNL     1       3.399  12.649  -1.754  1.00  0.00     0.198 A 
ATOM     45  C   UNL     1       1.289  11.566  -2.010  1.00  0.00     0.198 A 
ATOM     46  F   UNL     1       0.924   9.444  -1.138  1.00  0.00    -0.203 F 
ATOM     47  F   UNL     1       4.155  13.752  -1.846  1.00  0.00    -0.200 F 
ATOM     48  C   UNL     1       2.080  12.686  -2.168  1.00  0.00     0.200 A 
ATOM     49  F   UNL     1       0.002  11.595  -2.382  1.00  0.00    -0.200 F 
ATOM     50  F   UNL     1       1.558  13.812  -2.674  1.00  0.00    -0.200 F 
ENDBRANCH  26  40
BRANCH  27  51
ATOM     51  C   UNL     1      -1.958   8.422   5.398  1.00  0.00     0.064 A 
ATOM     52  C   UNL     1      -2.259   9.497   6.247  1.00  0.00     0.173 A 
ATOM     53  C   UNL     1      -3.055   7.718   4.862  1.00  0.00     0.173 A 
ATOM     54  F   UNL     1      -1.275  10.255   6.753  1.00  0.00    -0.203 F 
ATOM     55  C   UNL     1      -3.580   9.847   6.541  1.00  0.00     0.198 A 
ATOM     56  C   UNL     1      -4.371   8.056   5.170  1.00  0.00     0.198 A 
ATOM     57  F   UNL     1      -2.873   6.742   3.961  1.00  0.00    -0.203 F 
ATOM     58  F   UNL     1      -3.831  10.914   7.313  1.00  0.00    -0.200 F 
ATOM     59  C   UNL     1      -4.634   9.127   6.002  1.00  0.00     0.200 A 
ATOM     60  F   UNL     1      -5.380   7.373   4.613  1.00  0.00    -0.200 F 
ATOM     61  F   UNL     1      -5.900   9.489   6.250  1.00  0.00    -0.200 F 
ENDBRANCH  27  51
BRANCH  39  62
ATOM     62  C   UNL     1       4.280   9.228   5.636  1.00  0.00     0.064 A 
ATOM     63  C   UNL     1       3.971   7.936   6.092  1.00  0.00     0.173 A 
ATOM     64  C   UNL     1       5.288   9.932   6.310  1.00  0.00     0.173 A 
ATOM     65  F   UNL     1       3.100   7.162   5.430  1.00  0.00    -0.203 F 
ATOM     66  C   UNL     1       4.604   7.398   7.211  1.00  0.00     0.198 A 
ATOM     67  C   UNL     1       5.944   9.377   7.406  1.00  0.00     0.198 A 
ATOM     68  F   UNL     1       5.669  11.143   5.875  1.00  0.00    -0.203 F 
ATOM     69  F   UNL     1       4.284   6.168   7.637  1.00  0.00    -0.200 F 
ATOM     70  C   UNL     1       5.593   8.117   7.864  1.00  0.00     0.200 A 
ATOM     71  F   UNL     1       6.936  10.053   8.002  1.00  0.00    -0.200 F 
ATOM     72  F   UNL     1       6.229   7.583   8.916  1.00  0.00    -0.200 F 
ENDBRANCH  39  62
ENDBRANCH  13  14
ENDBRANCH   6   8
ENDBRANCH   5   6
ENDBRANCH   4   5
ENDBRANCH   3   4
ENDBRANCH   2   3
ENDBRANCH   1   2
BRANCH   1  73
ATOM     73  C   UNL     1       2.556  -1.708  -1.625  1.00  0.00     0.188 C 
BRANCH  73  74
ATOM     74  O   UNL     1       2.801  -3.031  -2.087  1.00  0.00    -0.376 OA
BRANCH  74  75
ATOM     75  C   UNL     1       4.122  -3.469  -2.339  1.00  0.00     0.202 C 
BRANCH  75  76
ATOM     76  C   UNL     1       4.495  -3.366  -3.822  1.00  0.00     0.261 C 
BRANCH  76  77
ATOM     77  O   UNL     1       4.174  -2.101  -4.426  1.00  0.00    -0.459 OA
BRANCH  77  78
ATOM     78  C   UNL     1       2.905  -1.998  -4.917  1.00  0.00     0.356 C 
ATOM     79  O   UNL     1       2.058  -2.877  -4.917  1.00  0.00    -0.244 OA
BRANCH  78  80
ATOM     80  C   UNL     1       2.662  -0.653  -5.341  1.00  0.00     0.146 A 
ATOM     81  N   UNL     1       1.581   0.084  -4.901  1.00  0.00    -0.271 N 
ATOM     82  C   UNL     1       3.274   0.166  -6.253  1.00  0.00     0.008 A 
ATOM     83  N   UNL     1       1.511   1.339  -5.416  1.00  0.00    -0.180 NA
ATOM     84  H   UNL     1       0.916  -0.271  -4.267  1.00  0.00     0.190 HD
ATOM     85  C   UNL     1       2.533   1.344  -6.259  1.00  0.00     0.066 A 
ATOM     86  C   UNL     1       4.335   0.168  -7.271  1.00  0.00     0.040 C 
ATOM     87  C   UNL     1       2.974   2.310  -7.279  1.00  0.00     0.059 C 
ATOM     88  C   UNL     1       4.299   1.648  -7.792  1.00  0.00     0.011 C 
ENDBRANCH  78  80
ENDBRANCH  77  78
ENDBRANCH  76  77
ENDBRANCH  75  76
ENDBRANCH  74  75
ENDBRANCH  73  74
ENDBRANCH   1  73
TORSDOF 17
