REMARK SMILES C[C@]1(C(=O)N2CCC(CC(=O)OCCOCCOCCOC(=O)c3ccc(-c4c5nc(c(-c6c(F)c(F)c(F)c(F)c6F)c6ccc([nH]6)c(-c6c(F)c(F)c(F)c(F)c6F)c6nc(c(-c7c(F)c(F)c(F)c(F)c7F)c7ccc4[nH]7)C=C6)C=C5)cc3)CC2)CCC[NH2+]C1
REMARK SMILES IDX 16 1 15 2 14 3 13 4 12 5 10 6 11 7 9 8 8 9 3 10 4 11 5 12
REMARK SMILES IDX 6 13 88 14 7 15 87 16 2 17 1 18 89 19 93 20 90 21 92 22
REMARK SMILES IDX 91 23 17 26 18 27 19 28 20 29 21 30 22 31 23 32 24 33 25 34
REMARK SMILES IDX 86 35 26 36 85 37 27 38 28 39 29 40 79 41 30 42 84 43 78 44
REMARK SMILES IDX 80 45 31 46 83 47 77 48 76 49 32 51 64 52 44 53 63 54 45 55
REMARK SMILES IDX 48 56 62 57 81 58 46 59 47 60 61 62 82 63 49 64 33 65 34 66
REMARK SMILES IDX 42 67 35 68 36 69 40 70 43 71 37 72 38 73 41 74 39 75 65 76
REMARK SMILES IDX 66 77 74 78 67 79 68 80 72 81 75 82 69 83 70 84 73 85 71 86
REMARK SMILES IDX 50 87 51 88 59 89 52 90 53 91 57 92 60 93 54 94 55 95 58 96
REMARK SMILES IDX 56 97
REMARK H PARENT 92 24 92 25 80 50 48 61
REMARK Flexibility Score: inf
ROOT
ATOM      1  C   UNL     1       2.087   0.733   8.124  1.00  0.00     0.188 C 
ENDROOT
BRANCH   1   2
ATOM      2  O   UNL     1       1.211   1.364   9.046  1.00  0.00    -0.376 OA
BRANCH   2   3
ATOM      3  C   UNL     1      -0.156   1.472   8.655  1.00  0.00     0.202 C 
BRANCH   3   4
ATOM      4  C   UNL     1      -0.458   2.335   7.419  1.00  0.00     0.261 C 
BRANCH   4   5
ATOM      5  O   UNL     1       0.359   2.029   6.270  1.00  0.00    -0.463 OA
BRANCH   5   6
ATOM      6  C   UNL     1       1.185   3.020   5.851  1.00  0.00     0.306 C 
ATOM      7  O   UNL     1       1.210   4.151   6.329  1.00  0.00    -0.252 OA
BRANCH   6   8
ATOM      8  C   UNL     1       2.148   2.631   4.743  1.00  0.00     0.126 C 
BRANCH   8   9
ATOM      9  C   UNL     1       2.214   1.211   4.124  1.00  0.00     0.003 C 
ATOM     10  C   UNL     1       1.261   0.113   0.140  1.00  0.00     0.234 C 
ATOM     11  O   UNL     1       1.702  -0.838  -0.510  1.00  0.00    -0.274 OA
ATOM     12  N   UNL     1       1.604   0.257   1.470  1.00  0.00    -0.342 N 
ATOM     13  C   UNL     1       3.006   0.267   1.831  1.00  0.00     0.120 C 
ATOM     14  C   UNL     1       0.755  -0.239   2.528  1.00  0.00     0.120 C 
ATOM     15  C   UNL     1       3.224   1.285   2.940  1.00  0.00     0.026 C 
ATOM     16  C   UNL     1       0.818   0.686   3.740  1.00  0.00     0.026 C 
BRANCH  10  17
ATOM     17  C   UNL     1       0.461   1.278  -0.528  1.00  0.00     0.095 C 
ATOM     18  C   UNL     1       0.372   0.936  -2.041  1.00  0.00     0.028 C 
ATOM     19  C   UNL     1      -0.991   1.453  -0.037  1.00  0.00     0.028 C 
ATOM     20  C   UNL     1       1.241   2.605  -0.402  1.00  0.00     0.277 C 
ATOM     21  C   UNL     1      -1.173   2.333   1.195  1.00  0.00     0.063 C 
ATOM     22  N   UNL     1       1.130   3.242   0.913  1.00  0.00    -0.345 N 
ATOM     23  C   UNL     1      -0.254   3.549   1.248  1.00  0.00     0.260 C 
ATOM     24  H   UNL     1       1.508   2.610   1.619  1.00  0.00     0.346 HD
ATOM     25  H   UNL     1       1.653   4.117   0.887  1.00  0.00     0.346 HD
ENDBRANCH  10  17
ENDBRANCH   8   9
ENDBRANCH   6   8
ENDBRANCH   5   6
ENDBRANCH   4   5
ENDBRANCH   3   4
ENDBRANCH   2   3
ENDBRANCH   1   2
BRANCH   1  26
ATOM     26  C   UNL     1       1.718  -0.678   7.666  1.00  0.00     0.188 C 
BRANCH  26  27
ATOM     27  O   UNL     1       0.379  -0.892   7.242  1.00  0.00    -0.376 OA
BRANCH  27  28
ATOM     28  C   UNL     1       0.091  -2.198   6.728  1.00  0.00     0.202 C 
BRANCH  28  29
ATOM     29  C   UNL     1       0.534  -3.404   7.585  1.00  0.00     0.261 C 
BRANCH  29  30
ATOM     30  O   UNL     1       1.951  -3.495   7.862  1.00  0.00    -0.460 OA
BRANCH  30  31
ATOM     31  C   UNL     1       2.813  -3.436   6.821  1.00  0.00     0.338 C 
ATOM     32  O   UNL     1       2.530  -3.539   5.639  1.00  0.00    -0.246 OA
BRANCH  31  33
ATOM     33  C   UNL     1       4.128  -2.937   7.322  1.00  0.00     0.060 A 
ATOM     34  C   UNL     1       4.858  -2.055   6.509  1.00  0.00     0.016 A 
ATOM     35  C   UNL     1       4.609  -3.253   8.597  1.00  0.00     0.016 A 
ATOM     36  C   UNL     1       6.080  -1.530   6.945  1.00  0.00     0.010 A 
ATOM     37  C   UNL     1       5.839  -2.737   9.028  1.00  0.00     0.010 A 
ATOM     38  C   UNL     1       6.601  -1.901   8.191  1.00  0.00    -0.014 A 
BRANCH  38  39
ATOM     39  C   UNL     1       8.021  -1.603   8.527  1.00  0.00     0.031 A 
ATOM     40  C   UNL     1       9.041  -2.693   8.316  1.00  0.00     0.074 A 
ATOM     41  C   UNL     1       8.422  -0.401   8.981  1.00  0.00     0.049 A 
ATOM     42  N   UNL     1      10.322  -2.706   8.588  1.00  0.00    -0.248 NA
ATOM     43  C   UNL     1       8.544  -3.940   7.712  1.00  0.00     0.031 C 
ATOM     44  C   UNL     1       7.563   0.762   9.182  1.00  0.00     0.029 A 
ATOM     45  N   UNL     1       9.671   0.034   9.362  1.00  0.00    -0.354 N 
ATOM     46  C   UNL     1      10.779  -3.956   8.191  1.00  0.00     0.074 A 
ATOM     47  C   UNL     1       9.635  -4.689   7.694  1.00  0.00     0.031 C 
ATOM     48  C   UNL     1       8.307   1.777   9.660  1.00  0.00     0.029 A 
ATOM     49  C   UNL     1       9.688   1.325   9.834  1.00  0.00     0.049 A 
ATOM     50  H   UNL     1      10.478  -0.527   9.303  1.00  0.00     0.167 HD
ATOM     51  C   UNL     1      12.040  -4.450   8.223  1.00  0.00     0.037 A 
ATOM     52  C   UNL     1      10.697   2.047  10.367  1.00  0.00     0.037 A 
ATOM     53  C   UNL     1      13.184  -3.733   8.718  1.00  0.00     0.049 A 
ATOM     54  C   UNL     1      12.074   1.435  10.488  1.00  0.00     0.074 A 
ATOM     55  C   UNL     1      14.500  -4.157   8.794  1.00  0.00     0.029 A 
ATOM     56  N   UNL     1      13.150  -2.444   9.226  1.00  0.00    -0.354 N 
ATOM     57  N   UNL     1      12.499   0.258  10.098  1.00  0.00    -0.248 NA
ATOM     58  C   UNL     1      13.114   2.259  11.127  1.00  0.00     0.031 C 
ATOM     59  C   UNL     1      15.252  -3.145   9.398  1.00  0.00     0.029 A 
ATOM     60  C   UNL     1      14.418  -2.066   9.639  1.00  0.00     0.049 A 
ATOM     61  H   UNL     1      12.344  -1.881   9.285  1.00  0.00     0.167 HD
ATOM     62  C   UNL     1      13.856   0.218  10.405  1.00  0.00     0.074 A 
ATOM     63  C   UNL     1      14.188   1.492  11.003  1.00  0.00     0.031 C 
ATOM     64  C   UNL     1      14.746  -0.786  10.209  1.00  0.00     0.037 A 
BRANCH  51  65
ATOM     65  C   UNL     1      12.249  -5.849   7.722  1.00  0.00     0.064 A 
ATOM     66  C   UNL     1      12.161  -6.162   6.357  1.00  0.00     0.173 A 
ATOM     67  C   UNL     1      12.587  -6.879   8.612  1.00  0.00     0.173 A 
ATOM     68  F   UNL     1      11.825  -5.216   5.467  1.00  0.00    -0.203 F 
ATOM     69  C   UNL     1      12.385  -7.460   5.905  1.00  0.00     0.198 A 
ATOM     70  C   UNL     1      12.841  -8.168   8.153  1.00  0.00     0.198 A 
ATOM     71  F   UNL     1      12.686  -6.631   9.927  1.00  0.00    -0.203 F 
ATOM     72  F   UNL     1      12.254  -7.746   4.603  1.00  0.00    -0.200 F 
ATOM     73  C   UNL     1      12.734  -8.459   6.802  1.00  0.00     0.200 A 
ATOM     74  F   UNL     1      13.192  -9.129   9.019  1.00  0.00    -0.200 F 
ATOM     75  F   UNL     1      12.963  -9.705   6.364  1.00  0.00    -0.200 F 
ENDBRANCH  51  65
BRANCH  52  76
ATOM     76  C   UNL     1      10.458   3.433  10.860  1.00  0.00     0.064 A 
ATOM     77  C   UNL     1      11.089   4.535  10.263  1.00  0.00     0.173 A 
ATOM     78  C   UNL     1       9.656   3.677  11.985  1.00  0.00     0.173 A 
ATOM     79  F   UNL     1      11.895   4.353   9.206  1.00  0.00    -0.203 F 
ATOM     80  C   UNL     1      10.953   5.819  10.790  1.00  0.00     0.198 A 
ATOM     81  C   UNL     1       9.494   4.966  12.491  1.00  0.00     0.198 A 
ATOM     82  F   UNL     1       9.040   2.660  12.604  1.00  0.00    -0.203 F 
ATOM     83  F   UNL     1      11.626   6.840  10.242  1.00  0.00    -0.200 F 
ATOM     84  C   UNL     1      10.152   6.034  11.901  1.00  0.00     0.200 A 
ATOM     85  F   UNL     1       8.714   5.170  13.561  1.00  0.00    -0.200 F 
ATOM     86  F   UNL     1      10.031   7.266  12.414  1.00  0.00    -0.200 F 
ENDBRANCH  52  76
BRANCH  64  87
ATOM     87  C   UNL     1      16.181  -0.534  10.584  1.00  0.00     0.064 A 
ATOM     88  C   UNL     1      16.593  -0.432  11.921  1.00  0.00     0.173 A 
ATOM     89  C   UNL     1      17.167  -0.444   9.588  1.00  0.00     0.173 A 
ATOM     90  F   UNL     1      15.692  -0.500  12.912  1.00  0.00    -0.203 F 
ATOM     91  C   UNL     1      17.931  -0.219  12.245  1.00  0.00     0.198 A 
ATOM     92  C   UNL     1      18.508  -0.266   9.916  1.00  0.00     0.198 A 
ATOM     93  F   UNL     1      16.832  -0.546   8.293  1.00  0.00    -0.203 F 
ATOM     94  F   UNL     1      18.294  -0.074  13.527  1.00  0.00    -0.200 F 
ATOM     95  C   UNL     1      18.889  -0.145  11.244  1.00  0.00     0.200 A 
ATOM     96  F   UNL     1      19.433  -0.213   8.947  1.00  0.00    -0.200 F 
ATOM     97  F   UNL     1      20.177   0.049  11.558  1.00  0.00    -0.200 F 
ENDBRANCH  64  87
ENDBRANCH  38  39
ENDBRANCH  31  33
ENDBRANCH  30  31
ENDBRANCH  29  30
ENDBRANCH  28  29
ENDBRANCH  27  28
ENDBRANCH  26  27
ENDBRANCH   1  26
TORSDOF 19
