REMARK SMILES O=C(CN1C(=O)N[C@@](CCC(=O)OCCOCCOCCOC(=O)c2ccc(-c3c4nc(c(-c5c(F)c(F)c(F)c(F)c5F)c5ccc([nH]5)c(-c5c(F)c(F)c(F)c(F)c5F)c5nc(c(-c6c(F)c(F)c(F)c(F)c6F)c6ccc3[nH]6)C=C5)C=C4)cc2)(c2ccccc2)C1=O)Nc1cccc(F)c1
REMARK SMILES IDX 16 1 15 2 14 3 13 4 11 5 12 6 10 7 9 8 8 9 4 10 5 11 94 12
REMARK SMILES IDX 6 13 7 14 95 15 3 17 2 18 1 19 96 20 97 22 98 23 103 24
REMARK SMILES IDX 99 25 101 26 100 27 102 28 88 29 89 30 93 31 90 32 92 33
REMARK SMILES IDX 91 34 17 35 18 36 19 37 20 38 21 39 22 40 23 41 24 42 25 43
REMARK SMILES IDX 26 44 87 45 27 46 86 47 28 48 29 49 30 50 80 51 31 52 85 53
REMARK SMILES IDX 79 54 81 55 32 56 84 57 78 58 77 59 33 61 65 62 45 63 64 64
REMARK SMILES IDX 46 65 49 66 63 67 82 68 47 69 48 70 62 72 83 73 50 74 34 75
REMARK SMILES IDX 35 76 43 77 36 78 37 79 41 80 44 81 38 82 39 83 42 84 40 85
REMARK SMILES IDX 66 86 67 87 75 88 68 89 69 90 73 91 76 92 70 93 71 94 74 95
REMARK SMILES IDX 72 96 51 97 52 98 60 99 53 100 54 101 58 102 61 103 55 104
REMARK SMILES IDX 56 105 59 106 57 107
REMARK H PARENT 7 16 96 21 81 60 49 71
REMARK Flexibility Score: inf
ROOT
ATOM      1  O   UNL     1       6.345  -1.738   8.105  1.00  0.00    -0.376 OA
ENDROOT
BRANCH   1   2
ATOM      2  C   UNL     1       5.362  -0.743   8.368  1.00  0.00     0.202 C 
BRANCH   2   3
ATOM      3  C   UNL     1       5.773   0.710   8.059  1.00  0.00     0.261 C 
BRANCH   3   4
ATOM      4  O   UNL     1       5.839   1.031   6.650  1.00  0.00    -0.463 OA
BRANCH   4   5
ATOM      5  C   UNL     1       7.068   1.183   6.103  1.00  0.00     0.305 C 
ATOM      6  O   UNL     1       8.122   1.038   6.712  1.00  0.00    -0.252 OA
BRANCH   5   7
ATOM      7  C   UNL     1       7.024   1.619   4.649  1.00  0.00     0.126 C 
BRANCH   7   8
ATOM      8  C   UNL     1       6.231   0.784   3.632  1.00  0.00     0.055 C 
BRANCH   8   9
ATOM      9  C   UNL     1       4.796   1.244   3.229  1.00  0.00     0.147 C 
ATOM     10  N   UNL     1       3.874   1.509   1.050  1.00  0.00    -0.252 N 
ATOM     11  C   UNL     1       4.142   2.749   1.542  1.00  0.00     0.325 C 
ATOM     12  C   UNL     1       4.473   0.584   1.855  1.00  0.00     0.261 C 
ATOM     13  O   UNL     1       3.920   3.825   1.017  1.00  0.00    -0.248 OA
ATOM     14  N   UNL     1       4.760   2.616   2.768  1.00  0.00    -0.319 N 
ATOM     15  O   UNL     1       4.675  -0.588   1.555  1.00  0.00    -0.271 OA
ATOM     16  H   UNL     1       5.135   3.372   3.275  1.00  0.00     0.166 HD
BRANCH  10  17
ATOM     17  C   UNL     1       3.316   1.261  -0.267  1.00  0.00     0.230 C 
BRANCH  17  18
ATOM     18  C   UNL     1       2.222   0.180  -0.315  1.00  0.00     0.244 C 
ATOM     19  O   UNL     1       1.054   0.465  -0.570  1.00  0.00    -0.273 OA
ATOM     20  N   UNL     1       2.708  -1.100  -0.111  1.00  0.00    -0.324 N 
ATOM     21  H   UNL     1       3.614  -1.161   0.269  1.00  0.00     0.170 HD
BRANCH  20  22
ATOM     22  C   UNL     1       2.070  -2.325  -0.378  1.00  0.00     0.044 A 
ATOM     23  C   UNL     1       2.656  -3.481   0.159  1.00  0.00     0.026 A 
ATOM     24  C   UNL     1       0.940  -2.446  -1.185  1.00  0.00     0.065 A 
ATOM     25  C   UNL     1       2.112  -4.743  -0.093  1.00  0.00     0.005 A 
ATOM     26  C   UNL     1       0.416  -3.712  -1.445  1.00  0.00     0.125 A 
ATOM     27  C   UNL     1       0.987  -4.859  -0.904  1.00  0.00     0.039 A 
ATOM     28  F   UNL     1      -0.651  -3.830  -2.246  1.00  0.00    -0.207 F 
ENDBRANCH  20  22
ENDBRANCH  17  18
ENDBRANCH  10  17
BRANCH   9  29
ATOM     29  C   UNL     1       3.614   0.962   4.165  1.00  0.00    -0.013 A 
ATOM     30  C   UNL     1       3.686  -0.032   5.132  1.00  0.00     0.007 A 
ATOM     31  C   UNL     1       2.361   1.596   4.030  1.00  0.00     0.007 A 
ATOM     32  C   UNL     1       2.613  -0.341   5.974  1.00  0.00     0.000 A 
ATOM     33  C   UNL     1       1.272   1.270   4.850  1.00  0.00     0.000 A 
ATOM     34  C   UNL     1       1.403   0.310   5.838  1.00  0.00     0.000 A 
ENDBRANCH   9  29
ENDBRANCH   8   9
ENDBRANCH   7   8
ENDBRANCH   5   7
ENDBRANCH   4   5
ENDBRANCH   3   4
ENDBRANCH   2   3
ENDBRANCH   1   2
BRANCH   1  35
ATOM     35  C   UNL     1       6.564  -2.062   6.739  1.00  0.00     0.188 C 
BRANCH  35  36
ATOM     36  C   UNL     1       5.722  -3.225   6.211  1.00  0.00     0.188 C 
BRANCH  36  37
ATOM     37  O   UNL     1       4.524  -2.841   5.538  1.00  0.00    -0.376 OA
BRANCH  37  38
ATOM     38  C   UNL     1       3.385  -3.677   5.758  1.00  0.00     0.202 C 
BRANCH  38  39
ATOM     39  C   UNL     1       3.365  -5.061   5.091  1.00  0.00     0.261 C 
BRANCH  39  40
ATOM     40  O   UNL     1       4.650  -5.680   5.080  1.00  0.00    -0.460 OA
BRANCH  40  41
ATOM     41  C   UNL     1       5.365  -5.484   3.943  1.00  0.00     0.338 C 
ATOM     42  O   UNL     1       4.962  -5.035   2.882  1.00  0.00    -0.246 OA
BRANCH  41  43
ATOM     43  C   UNL     1       6.797  -5.686   4.266  1.00  0.00     0.060 A 
ATOM     44  C   UNL     1       7.735  -4.843   3.648  1.00  0.00     0.016 A 
ATOM     45  C   UNL     1       7.200  -6.577   5.268  1.00  0.00     0.016 A 
ATOM     46  C   UNL     1       9.082  -4.920   3.997  1.00  0.00     0.010 A 
ATOM     47  C   UNL     1       8.547  -6.663   5.609  1.00  0.00     0.010 A 
ATOM     48  C   UNL     1       9.495  -5.870   4.940  1.00  0.00    -0.014 A 
BRANCH  48  49
ATOM     49  C   UNL     1      10.919  -6.262   5.007  1.00  0.00     0.031 A 
ATOM     50  C   UNL     1      11.327  -7.458   4.190  1.00  0.00     0.074 A 
ATOM     51  C   UNL     1      11.809  -5.605   5.770  1.00  0.00     0.049 A 
ATOM     52  N   UNL     1      12.471  -8.086   4.144  1.00  0.00    -0.248 NA
ATOM     53  C   UNL     1      10.290  -8.034   3.313  1.00  0.00     0.031 C 
ATOM     54  C   UNL     1      11.530  -4.417   6.573  1.00  0.00     0.029 A 
ATOM     55  N   UNL     1      13.135  -5.869   6.005  1.00  0.00    -0.354 N 
ATOM     56  C   UNL     1      12.281  -9.138   3.257  1.00  0.00     0.074 A 
ATOM     57  C   UNL     1      10.912  -9.082   2.801  1.00  0.00     0.031 C 
ATOM     58  C   UNL     1      12.650  -4.066   7.233  1.00  0.00     0.029 A 
ATOM     59  C   UNL     1      13.709  -5.027   6.926  1.00  0.00     0.049 A 
ATOM     60  H   UNL     1      13.628  -6.594   5.556  1.00  0.00     0.167 HD
ATOM     61  C   UNL     1      13.176 -10.068   2.857  1.00  0.00     0.037 A 
ATOM     62  C   UNL     1      14.940  -5.061   7.474  1.00  0.00     0.037 A 
ATOM     63  C   UNL     1      14.540 -10.104   3.302  1.00  0.00     0.049 A 
ATOM     64  C   UNL     1      15.902  -6.145   7.044  1.00  0.00     0.074 A 
ATOM     65  C   UNL     1      15.545 -10.974   2.922  1.00  0.00     0.029 A 
ATOM     66  N   UNL     1      15.086  -9.235   4.234  1.00  0.00    -0.354 N 
ATOM     67  N   UNL     1      15.736  -7.106   6.166  1.00  0.00    -0.248 NA
ATOM     68  C   UNL     1      17.227  -6.147   7.681  1.00  0.00     0.031 C 
ATOM     69  C   UNL     1      16.683 -10.674   3.675  1.00  0.00     0.029 A 
ATOM     70  C   UNL     1      16.407  -9.571   4.468  1.00  0.00     0.049 A 
ATOM     71  H   UNL     1      14.605  -8.491   4.664  1.00  0.00     0.167 HD
ATOM     72  C   UNL     1      16.942  -7.796   6.117  1.00  0.00     0.074 A 
ATOM     73  C   UNL     1      17.837  -7.135   7.043  1.00  0.00     0.031 C 
ATOM     74  C   UNL     1      17.284  -8.879   5.376  1.00  0.00     0.037 A 
BRANCH  61  75
ATOM     75  C   UNL     1      12.708 -11.139   1.919  1.00  0.00     0.064 A 
ATOM     76  C   UNL     1      12.419 -10.874   0.573  1.00  0.00     0.173 A 
ATOM     77  C   UNL     1      12.612 -12.466   2.365  1.00  0.00     0.173 A 
ATOM     78  F   UNL     1      12.472  -9.618   0.105  1.00  0.00    -0.203 F 
ATOM     79  C   UNL     1      12.047 -11.899  -0.292  1.00  0.00     0.198 A 
ATOM     80  C   UNL     1      12.270 -13.492   1.490  1.00  0.00     0.198 A 
ATOM     81  F   UNL     1      12.870 -12.770   3.646  1.00  0.00    -0.203 F 
ATOM     82  F   UNL     1      11.744 -11.620  -1.568  1.00  0.00    -0.200 F 
ATOM     83  C   UNL     1      11.986 -13.208   0.163  1.00  0.00     0.200 A 
ATOM     84  F   UNL     1      12.222 -14.757   1.930  1.00  0.00    -0.200 F 
ATOM     85  F   UNL     1      11.651 -14.197  -0.677  1.00  0.00    -0.200 F 
ENDBRANCH  61  75
BRANCH  62  86
ATOM     86  C   UNL     1      15.340  -4.069   8.511  1.00  0.00     0.064 A 
ATOM     87  C   UNL     1      16.387  -3.163   8.285  1.00  0.00     0.173 A 
ATOM     88  C   UNL     1      14.737  -4.059   9.778  1.00  0.00     0.173 A 
ATOM     89  F   UNL     1      17.017  -3.150   7.101  1.00  0.00    -0.203 F 
ATOM     90  C   UNL     1      16.843  -2.319   9.297  1.00  0.00     0.198 A 
ATOM     91  C   UNL     1      15.169  -3.187  10.777  1.00  0.00     0.198 A 
ATOM     92  F   UNL     1      13.735  -4.906  10.054  1.00  0.00    -0.203 F 
ATOM     93  F   UNL     1      17.898  -1.522   9.076  1.00  0.00    -0.200 F 
ATOM     94  C   UNL     1      16.232  -2.330  10.541  1.00  0.00     0.200 A 
ATOM     95  F   UNL     1      14.569  -3.195  11.975  1.00  0.00    -0.200 F 
ATOM     96  F   UNL     1      16.680  -1.528  11.517  1.00  0.00    -0.200 F 
ENDBRANCH  62  86
BRANCH  74  97
ATOM     97  C   UNL     1      18.696  -9.379   5.484  1.00  0.00     0.064 A 
ATOM     98  C   UNL     1      19.171 -10.016   6.639  1.00  0.00     0.173 A 
ATOM     99  C   UNL     1      19.569  -9.265   4.390  1.00  0.00     0.173 A 
ATOM    100  F   UNL     1      18.379 -10.143   7.715  1.00  0.00    -0.203 F 
ATOM    101  C   UNL     1      20.477 -10.493   6.706  1.00  0.00     0.198 A 
ATOM    102  C   UNL     1      20.861  -9.776   4.447  1.00  0.00     0.198 A 
ATOM    103  F   UNL     1      19.160  -8.676   3.256  1.00  0.00    -0.203 F 
ATOM    104  F   UNL     1      20.927 -11.050   7.839  1.00  0.00    -0.200 F 
ATOM    105  C   UNL     1      21.318 -10.381   5.608  1.00  0.00     0.200 A 
ATOM    106  F   UNL     1      21.663  -9.687   3.377  1.00  0.00    -0.200 F 
ATOM    107  F   UNL     1      22.571 -10.851   5.671  1.00  0.00    -0.200 F 
ENDBRANCH  74  97
ENDBRANCH  48  49
ENDBRANCH  41  43
ENDBRANCH  40  41
ENDBRANCH  39  40
ENDBRANCH  38  39
ENDBRANCH  37  38
ENDBRANCH  36  37
ENDBRANCH  35  36
ENDBRANCH   1  35
TORSDOF 23
