REMARK SMILES Cc1cc(Br)cc2c1O[C@H](C(F)(F)F)C(C(=O)OCCOCCOCCOC(=O)c1ccc(-c3c4nc(c(-c5c(F)c(F)c(F)c(F)c5F)c5ccc([nH]5)c(-c5c(F)c(F)c(F)c(F)c5F)c5nc(c(-c6c(F)c(F)c(F)c(F)c6F)c6ccc3[nH]6)C=C5)C=C4)cc1)=C2
REMARK SMILES IDX 23 1 22 2 21 3 20 4 19 5 18 6 16 7 17 8 15 9 1 10 2 11 3 12
REMARK SMILES IDX 8 13 4 14 7 15 9 16 5 17 6 18 93 19 10 20 11 21 12 22 13 23
REMARK SMILES IDX 14 24 24 25 25 26 26 27 27 28 28 29 29 30 30 31 31 32 92 33
REMARK SMILES IDX 32 34 91 35 33 36 34 37 35 38 85 39 36 40 90 41 84 42 86 43
REMARK SMILES IDX 37 44 89 45 83 46 82 47 38 49 70 50 50 51 69 52 51 53 54 54
REMARK SMILES IDX 68 55 87 56 52 57 53 58 67 60 88 61 55 62 39 63 40 64 48 65
REMARK SMILES IDX 41 66 42 67 46 68 49 69 43 70 44 71 47 72 45 73 71 74 72 75
REMARK SMILES IDX 80 76 73 77 74 78 78 79 81 80 75 81 76 82 79 83 77 84 56 85
REMARK SMILES IDX 57 86 65 87 58 88 59 89 63 90 66 91 60 92 61 93 64 94 62 95
REMARK H PARENT 86 48 54 59
REMARK Flexibility Score: inf
ROOT
ATOM      1  C   UNL     1       2.796  -5.682   3.777  1.00  0.00     0.188 C 
ENDROOT
BRANCH   1   2
ATOM      2  C   UNL     1       1.777  -6.309   4.751  1.00  0.00     0.188 C 
BRANCH   2   3
ATOM      3  O   UNL     1       1.692  -7.710   4.859  1.00  0.00    -0.376 OA
BRANCH   3   4
ATOM      4  C   UNL     1       1.184  -8.502   3.800  1.00  0.00     0.202 C 
BRANCH   4   5
ATOM      5  C   UNL     1       0.288  -7.985   2.662  1.00  0.00     0.261 C 
BRANCH   5   6
ATOM      6  O   UNL     1       0.470  -6.623   2.264  1.00  0.00    -0.460 OA
BRANCH   6   7
ATOM      7  C   UNL     1      -0.558  -5.793   2.562  1.00  0.00     0.338 C 
ATOM      8  O   UNL     1      -1.601  -6.092   3.119  1.00  0.00    -0.246 OA
BRANCH   7   9
ATOM      9  C   UNL     1      -0.171  -4.400   2.261  1.00  0.00     0.087 C 
ATOM     10  C   UNL     1       1.073   0.009  -0.025  1.00  0.00     0.048 C 
ATOM     11  C   UNL     1       0.547  -0.396   1.324  1.00  0.00    -0.007 A 
ATOM     12  C   UNL     1       0.211   0.593   2.260  1.00  0.00     0.023 A 
ATOM     13  C   UNL     1       0.398  -1.749   1.672  1.00  0.00     0.130 A 
ATOM     14  C   UNL     1      -0.278   0.233   3.515  1.00  0.00     0.019 A 
ATOM     15  C   UNL     1      -0.137  -2.101   2.917  1.00  0.00     0.019 A 
ATOM     16  O   UNL     1       0.796  -2.672   0.747  1.00  0.00    -0.475 OA
ATOM     17  Br  UNL     1      -0.740   1.576   4.763  1.00  0.00    -0.051 Br
ATOM     18  C   UNL     1      -0.454  -1.107   3.849  1.00  0.00     0.027 A 
ATOM     19  C   UNL     1      -0.428  -3.493   3.212  1.00  0.00     0.027 C 
ATOM     20  C   UNL     1       0.481  -4.076   0.946  1.00  0.00     0.316 C 
BRANCH  20  21
ATOM     21  C   UNL     1      -0.352  -4.556  -0.249  1.00  0.00     0.430 C 
ATOM     22  F   UNL     1       0.224  -4.205  -1.424  1.00  0.00    -0.167 F 
ATOM     23  F   UNL     1      -0.476  -5.904  -0.265  1.00  0.00    -0.167 F 
ATOM     24  F   UNL     1      -1.599  -4.034  -0.236  1.00  0.00    -0.167 F 
ENDBRANCH  20  21
ENDBRANCH   7   9
ENDBRANCH   6   7
ENDBRANCH   5   6
ENDBRANCH   4   5
ENDBRANCH   3   4
ENDBRANCH   2   3
ENDBRANCH   1   2
BRANCH   1  25
ATOM     25  O   UNL     1       3.530  -6.501   2.895  1.00  0.00    -0.376 OA
BRANCH  25  26
ATOM     26  C   UNL     1       4.430  -7.465   3.418  1.00  0.00     0.202 C 
BRANCH  26  27
ATOM     27  C   UNL     1       5.223  -7.280   4.727  1.00  0.00     0.261 C 
BRANCH  27  28
ATOM     28  O   UNL     1       4.553  -6.614   5.805  1.00  0.00    -0.460 OA
BRANCH  28  29
ATOM     29  C   UNL     1       5.035  -5.383   6.125  1.00  0.00     0.338 C 
ATOM     30  O   UNL     1       5.952  -4.786   5.603  1.00  0.00    -0.246 OA
BRANCH  29  31
ATOM     31  C   UNL     1       4.122  -4.769   7.111  1.00  0.00     0.060 A 
ATOM     32  C   UNL     1       3.340  -3.673   6.719  1.00  0.00     0.016 A 
ATOM     33  C   UNL     1       4.041  -5.270   8.410  1.00  0.00     0.016 A 
ATOM     34  C   UNL     1       2.456  -3.087   7.625  1.00  0.00     0.010 A 
ATOM     35  C   UNL     1       3.177  -4.662   9.325  1.00  0.00     0.010 A 
ATOM     36  C   UNL     1       2.390  -3.561   8.941  1.00  0.00    -0.014 A 
BRANCH  36  37
ATOM     37  C   UNL     1       1.608  -2.809   9.952  1.00  0.00     0.031 A 
ATOM     38  C   UNL     1       2.327  -1.832  10.838  1.00  0.00     0.074 A 
ATOM     39  C   UNL     1       0.276  -2.966  10.060  1.00  0.00     0.049 A 
ATOM     40  N   UNL     1       1.851  -1.060  11.781  1.00  0.00    -0.248 NA
ATOM     41  C   UNL     1       3.779  -1.705  10.630  1.00  0.00     0.031 C 
ATOM     42  C   UNL     1      -0.537  -3.858   9.237  1.00  0.00     0.029 A 
ATOM     43  N   UNL     1      -0.627  -2.376  10.911  1.00  0.00    -0.354 N 
ATOM     44  C   UNL     1       2.939  -0.351  12.269  1.00  0.00     0.074 A 
ATOM     45  C   UNL     1       4.108  -0.815  11.555  1.00  0.00     0.031 C 
ATOM     46  C   UNL     1      -1.822  -3.752   9.619  1.00  0.00     0.029 A 
ATOM     47  C   UNL     1      -1.919  -2.807  10.732  1.00  0.00     0.049 A 
ATOM     48  H   UNL     1      -0.371  -1.706  11.586  1.00  0.00     0.167 HD
ATOM     49  C   UNL     1       2.958   0.618  13.213  1.00  0.00     0.037 A 
ATOM     50  C   UNL     1      -3.046  -2.480  11.397  1.00  0.00     0.037 A 
ATOM     51  C   UNL     1       1.796   1.073  13.929  1.00  0.00     0.049 A 
ATOM     52  C   UNL     1      -2.982  -1.469  12.515  1.00  0.00     0.074 A 
ATOM     53  C   UNL     1       1.717   2.054  14.901  1.00  0.00     0.029 A 
ATOM     54  N   UNL     1       0.514   0.574  13.755  1.00  0.00    -0.354 N 
ATOM     55  N   UNL     1      -1.956  -0.776  12.946  1.00  0.00    -0.248 NA
ATOM     56  C   UNL     1      -4.233  -1.191  13.240  1.00  0.00     0.031 C 
ATOM     57  C   UNL     1       0.399   2.108  15.358  1.00  0.00     0.029 A 
ATOM     58  C   UNL     1      -0.358   1.208  14.624  1.00  0.00     0.049 A 
ATOM     59  H   UNL     1       0.262  -0.125  13.110  1.00  0.00     0.167 HD
ATOM     60  C   UNL     1      -2.441   0.041  13.960  1.00  0.00     0.074 A 
ATOM     61  C   UNL     1      -3.856  -0.237  14.082  1.00  0.00     0.031 C 
ATOM     62  C   UNL     1      -1.771   0.942  14.719  1.00  0.00     0.037 A 
BRANCH  49  63
ATOM     63  C   UNL     1       4.276   1.259  13.533  1.00  0.00     0.064 A 
ATOM     64  C   UNL     1       4.904   2.127  12.628  1.00  0.00     0.173 A 
ATOM     65  C   UNL     1       4.878   1.066  14.785  1.00  0.00     0.173 A 
ATOM     66  F   UNL     1       4.374   2.336  11.413  1.00  0.00    -0.203 F 
ATOM     67  C   UNL     1       6.094   2.768  12.960  1.00  0.00     0.198 A 
ATOM     68  C   UNL     1       6.052   1.733  15.125  1.00  0.00     0.198 A 
ATOM     69  F   UNL     1       4.315   0.251  15.689  1.00  0.00    -0.203 F 
ATOM     70  F   UNL     1       6.694   3.566  12.066  1.00  0.00    -0.200 F 
ATOM     71  C   UNL     1       6.661   2.579  14.211  1.00  0.00     0.200 A 
ATOM     72  F   UNL     1       6.589   1.563  16.341  1.00  0.00    -0.200 F 
ATOM     73  F   UNL     1       7.795   3.214  14.537  1.00  0.00    -0.200 F 
ENDBRANCH  49  63
BRANCH  50  74
ATOM     74  C   UNL     1      -4.341  -3.100  11.008  1.00  0.00     0.064 A 
ATOM     75  C   UNL     1      -5.360  -2.333  10.426  1.00  0.00     0.173 A 
ATOM     76  C   UNL     1      -4.589  -4.467  11.206  1.00  0.00     0.173 A 
ATOM     77  F   UNL     1      -5.183  -1.016  10.241  1.00  0.00    -0.203 F 
ATOM     78  C   UNL     1      -6.579  -2.905  10.065  1.00  0.00     0.198 A 
ATOM     79  C   UNL     1      -5.797  -5.044  10.818  1.00  0.00     0.198 A 
ATOM     80  F   UNL     1      -3.651  -5.246  11.764  1.00  0.00    -0.203 F 
ATOM     81  F   UNL     1      -7.549  -2.140   9.548  1.00  0.00    -0.200 F 
ATOM     82  C   UNL     1      -6.793  -4.262  10.253  1.00  0.00     0.200 A 
ATOM     83  F   UNL     1      -5.995  -6.358  10.992  1.00  0.00    -0.200 F 
ATOM     84  F   UNL     1      -7.961  -4.814   9.897  1.00  0.00    -0.200 F 
ENDBRANCH  50  74
BRANCH  62  85
ATOM     85  C   UNL     1      -2.541   1.738  15.734  1.00  0.00     0.064 A 
ATOM     86  C   UNL     1      -2.985   1.163  16.933  1.00  0.00     0.173 A 
ATOM     87  C   UNL     1      -2.710   3.122  15.566  1.00  0.00     0.173 A 
ATOM     88  F   UNL     1      -2.856  -0.156  17.139  1.00  0.00    -0.203 F 
ATOM     89  C   UNL     1      -3.564   1.946  17.929  1.00  0.00     0.198 A 
ATOM     90  C   UNL     1      -3.261   3.906  16.575  1.00  0.00     0.198 A 
ATOM     91  F   UNL     1      -2.291   3.722  14.441  1.00  0.00    -0.203 F 
ATOM     92  F   UNL     1      -3.992   1.375  19.063  1.00  0.00    -0.200 F 
ATOM     93  C   UNL     1      -3.686   3.318  17.756  1.00  0.00     0.200 A 
ATOM     94  F   UNL     1      -3.358   5.233  16.415  1.00  0.00    -0.200 F 
ATOM     95  F   UNL     1      -4.209   4.074  18.732  1.00  0.00    -0.200 F 
ENDBRANCH  62  85
ENDBRANCH  36  37
ENDBRANCH  29  31
ENDBRANCH  28  29
ENDBRANCH  27  28
ENDBRANCH  26  27
ENDBRANCH  25  26
ENDBRANCH   1  25
TORSDOF 18
