REMARK SMILES Cc1ccc([C@@H]2[C@H](C(=O)OCCOCCOCCOC(=O)c3ccc(-c4c5nc(c(-c6c(F)c(F)c(F)c(F)c6F)c6ccc([nH]6)c(-c6c(F)c(F)c(F)c(F)c6F)c6nc(c(-c7c(F)c(F)c(F)c(F)c7F)c7ccc4[nH]7)C=C6)C=C5)cc3)c3ccccc3C(=O)N2c2ccccc2)cc1
REMARK SMILES IDX 15 1 14 2 13 3 12 4 11 5 10 6 8 7 9 8 7 9 6 10 93 11 85 12
REMARK SMILES IDX 91 13 86 14 90 15 92 16 87 17 89 18 88 19 5 20 1 21 2 22
REMARK SMILES IDX 3 23 101 24 4 25 100 26 94 27 95 28 99 29 96 30 98 31 97 32
REMARK SMILES IDX 16 33 17 34 18 35 19 36 20 37 21 38 22 39 23 40 84 41 24 42
REMARK SMILES IDX 83 43 25 44 26 45 27 46 77 47 28 48 82 49 76 50 78 51 29 52
REMARK SMILES IDX 81 53 75 54 74 55 30 57 62 58 42 59 61 60 43 61 46 62 60 63
REMARK SMILES IDX 79 64 44 65 45 66 59 68 80 69 47 70 31 71 32 72 40 73 33 74
REMARK SMILES IDX 34 75 38 76 41 77 35 78 36 79 39 80 37 81 63 82 64 83 72 84
REMARK SMILES IDX 65 85 66 86 70 87 73 88 67 89 68 90 71 91 69 92 48 93 49 94
REMARK SMILES IDX 57 95 50 96 51 97 55 98 58 99 52 100 53 101 56 102 54 103
REMARK H PARENT 78 56 46 67
REMARK Flexibility Score: inf
ROOT
ATOM      1  C   UNL     1      -6.813  -6.455   1.753  1.00  0.00     0.188 C 
ENDROOT
BRANCH   1   2
ATOM      2  C   UNL     1      -5.696  -6.073   0.787  1.00  0.00     0.188 C 
BRANCH   2   3
ATOM      3  O   UNL     1      -4.525  -6.853   0.932  1.00  0.00    -0.376 OA
BRANCH   3   4
ATOM      4  C   UNL     1      -3.396  -6.147   1.456  1.00  0.00     0.202 C 
BRANCH   4   5
ATOM      5  C   UNL     1      -3.696  -4.861   2.274  1.00  0.00     0.261 C 
BRANCH   5   6
ATOM      6  O   UNL     1      -3.447  -3.300   1.895  1.00  0.00    -0.463 OA
BRANCH   6   7
ATOM      7  C   UNL     1      -2.492  -2.278   2.128  1.00  0.00     0.316 C 
ATOM      8  O   UNL     1      -1.308  -2.475   1.828  1.00  0.00    -0.251 OA
BRANCH   7   9
ATOM      9  C   UNL     1      -2.830  -0.774   2.517  1.00  0.00     0.157 C 
ATOM     10  C   UNL     1      -2.893   0.141   1.270  1.00  0.00     0.140 C 
ATOM     11  N   UNL     1      -4.144  -0.150   0.546  1.00  0.00    -0.300 N 
ATOM     12  C   UNL     1      -4.029  -0.310   3.374  1.00  0.00    -0.019 A 
ATOM     13  C   UNL     1      -5.275   0.321   1.252  1.00  0.00     0.259 C 
ATOM     14  C   UNL     1      -3.975  -0.295   4.787  1.00  0.00     0.005 A 
ATOM     15  C   UNL     1      -5.209   0.155   2.747  1.00  0.00     0.044 A 
ATOM     16  O   UNL     1      -6.294   0.781   0.733  1.00  0.00    -0.269 OA
ATOM     17  C   UNL     1      -5.125  -0.020   5.540  1.00  0.00     0.000 A 
ATOM     18  C   UNL     1      -6.345   0.451   3.512  1.00  0.00     0.014 A 
ATOM     19  C   UNL     1      -6.314   0.326   4.901  1.00  0.00     0.001 A 
BRANCH  10  20
ATOM     20  C   UNL     1      -1.556   0.572   0.665  1.00  0.00    -0.024 A 
ATOM     21  C   UNL     1       2.666   1.089  -0.106  1.00  0.00     0.044 C 
ATOM     22  C   UNL     1       1.176   1.065   0.056  1.00  0.00    -0.051 A 
ATOM     23  C   UNL     1       0.369   0.305  -0.791  1.00  0.00     0.004 A 
ATOM     24  C   UNL     1       0.573   1.734   1.114  1.00  0.00     0.004 A 
ATOM     25  C   UNL     1      -0.992   0.103  -0.515  1.00  0.00     0.006 A 
ATOM     26  C   UNL     1      -0.766   1.476   1.422  1.00  0.00     0.006 A 
ENDBRANCH  10  20
BRANCH  11  27
ATOM     27  C   UNL     1      -4.359  -1.323  -0.274  1.00  0.00     0.045 A 
ATOM     28  C   UNL     1      -5.654  -1.758  -0.615  1.00  0.00     0.026 A 
ATOM     29  C   UNL     1      -3.333  -2.211  -0.556  1.00  0.00     0.026 A 
ATOM     30  C   UNL     1      -5.898  -3.019  -1.180  1.00  0.00     0.002 A 
ATOM     31  C   UNL     1      -3.604  -3.513  -0.964  1.00  0.00     0.002 A 
ATOM     32  C   UNL     1      -4.858  -3.904  -1.366  1.00  0.00     0.000 A 
ENDBRANCH  11  27
ENDBRANCH   7   9
ENDBRANCH   6   7
ENDBRANCH   5   6
ENDBRANCH   4   5
ENDBRANCH   3   4
ENDBRANCH   2   3
ENDBRANCH   1   2
BRANCH   1  33
ATOM     33  O   UNL     1      -6.398  -6.588   3.115  1.00  0.00    -0.376 OA
BRANCH  33  34
ATOM     34  C   UNL     1      -7.374  -7.288   3.909  1.00  0.00     0.202 C 
BRANCH  34  35
ATOM     35  C   UNL     1      -8.630  -6.455   4.199  1.00  0.00     0.261 C 
BRANCH  35  36
ATOM     36  O   UNL     1      -8.301  -5.539   5.258  1.00  0.00    -0.460 OA
BRANCH  36  37
ATOM     37  C   UNL     1      -7.955  -4.321   4.793  1.00  0.00     0.338 C 
ATOM     38  O   UNL     1      -8.630  -3.639   4.036  1.00  0.00    -0.246 OA
BRANCH  37  39
ATOM     39  C   UNL     1      -6.519  -4.076   5.093  1.00  0.00     0.060 A 
ATOM     40  C   UNL     1      -5.904  -3.196   4.256  1.00  0.00     0.016 A 
ATOM     41  C   UNL     1      -5.700  -4.782   5.988  1.00  0.00     0.016 A 
ATOM     42  C   UNL     1      -4.508  -3.119   4.283  1.00  0.00     0.010 A 
ATOM     43  C   UNL     1      -4.268  -4.707   5.924  1.00  0.00     0.010 A 
ATOM     44  C   UNL     1      -3.603  -3.908   4.989  1.00  0.00    -0.014 A 
BRANCH  44  45
ATOM     45  C   UNL     1      -2.040  -3.995   4.761  1.00  0.00     0.031 A 
ATOM     46  C   UNL     1      -1.264  -3.321   5.839  1.00  0.00     0.074 A 
ATOM     47  C   UNL     1      -1.193  -4.611   3.809  1.00  0.00     0.049 A 
ATOM     48  N   UNL     1       0.016  -3.123   5.821  1.00  0.00    -0.248 NA
ATOM     49  C   UNL     1      -1.901  -2.703   7.012  1.00  0.00     0.031 C 
ATOM     50  C   UNL     1      -0.061  -5.478   4.162  1.00  0.00     0.029 A 
ATOM     51  N   UNL     1      -1.169  -4.802   2.383  1.00  0.00    -0.354 N 
ATOM     52  C   UNL     1       0.335  -2.990   7.150  1.00  0.00     0.074 A 
ATOM     53  C   UNL     1      -0.822  -2.366   7.722  1.00  0.00     0.031 C 
ATOM     54  C   UNL     1       0.554  -5.958   3.059  1.00  0.00     0.029 A 
ATOM     55  C   UNL     1      -0.021  -5.388   1.849  1.00  0.00     0.049 A 
ATOM     56  H   UNL     1      -1.925  -4.533   1.813  1.00  0.00     0.167 HD
ATOM     57  C   UNL     1       1.309  -3.807   7.652  1.00  0.00     0.037 A 
ATOM     58  C   UNL     1       0.606  -5.054   0.661  1.00  0.00     0.037 A 
ATOM     59  C   UNL     1       2.187  -4.358   6.594  1.00  0.00     0.049 A 
ATOM     60  C   UNL     1       1.943  -4.404   0.994  1.00  0.00     0.074 A 
ATOM     61  C   UNL     1       2.671  -5.610   6.241  1.00  0.00     0.029 A 
ATOM     62  N   UNL     1       2.565  -3.535   5.538  1.00  0.00    -0.354 N 
ATOM     63  N   UNL     1       2.495  -4.544   2.162  1.00  0.00    -0.248 NA
ATOM     64  C   UNL     1       2.689  -3.447   0.166  1.00  0.00     0.031 C 
ATOM     65  C   UNL     1       3.431  -5.488   5.037  1.00  0.00     0.029 A 
ATOM     66  C   UNL     1       3.417  -4.161   4.657  1.00  0.00     0.049 A 
ATOM     67  H   UNL     1       2.256  -2.606   5.433  1.00  0.00     0.167 HD
ATOM     68  C   UNL     1       3.441  -3.583   2.341  1.00  0.00     0.074 A 
ATOM     69  C   UNL     1       3.557  -2.934   1.054  1.00  0.00     0.031 C 
ATOM     70  C   UNL     1       3.986  -3.377   3.570  1.00  0.00     0.037 A 
BRANCH  57  71
ATOM     71  C   UNL     1       1.325  -4.312   9.098  1.00  0.00     0.064 A 
ATOM     72  C   UNL     1       2.377  -5.145   9.539  1.00  0.00     0.173 A 
ATOM     73  C   UNL     1       0.312  -4.119  10.072  1.00  0.00     0.173 A 
ATOM     74  F   UNL     1       3.439  -5.398   8.764  1.00  0.00    -0.203 F 
ATOM     75  C   UNL     1       2.388  -5.759  10.797  1.00  0.00     0.198 A 
ATOM     76  C   UNL     1       0.358  -4.679  11.352  1.00  0.00     0.198 A 
ATOM     77  F   UNL     1      -0.804  -3.425   9.846  1.00  0.00    -0.203 F 
ATOM     78  F   UNL     1       3.381  -6.601  11.114  1.00  0.00    -0.200 F 
ATOM     79  C   UNL     1       1.385  -5.516  11.710  1.00  0.00     0.200 A 
ATOM     80  F   UNL     1      -0.630  -4.416  12.221  1.00  0.00    -0.200 F 
ATOM     81  F   UNL     1       1.402  -6.089  12.920  1.00  0.00    -0.200 F 
ENDBRANCH  57  71
BRANCH  58  82
ATOM     82  C   UNL     1      -0.098  -4.846  -0.674  1.00  0.00     0.064 A 
ATOM     83  C   UNL     1      -0.767  -5.925  -1.296  1.00  0.00     0.173 A 
ATOM     84  C   UNL     1      -0.150  -3.642  -1.404  1.00  0.00     0.173 A 
ATOM     85  F   UNL     1      -0.753  -7.135  -0.718  1.00  0.00    -0.203 F 
ATOM     86  C   UNL     1      -1.508  -5.785  -2.491  1.00  0.00     0.198 A 
ATOM     87  C   UNL     1      -0.860  -3.501  -2.617  1.00  0.00     0.198 A 
ATOM     88  F   UNL     1       0.425  -2.539  -0.920  1.00  0.00    -0.203 F 
ATOM     89  F   UNL     1      -2.244  -6.808  -2.950  1.00  0.00    -0.200 F 
ATOM     90  C   UNL     1      -1.565  -4.566  -3.146  1.00  0.00     0.200 A 
ATOM     91  F   UNL     1      -0.952  -2.294  -3.198  1.00  0.00    -0.200 F 
ATOM     92  F   UNL     1      -2.381  -4.391  -4.197  1.00  0.00    -0.200 F 
ENDBRANCH  58  82
BRANCH  70  93
ATOM     93  C   UNL     1       5.098  -2.414   3.860  1.00  0.00     0.064 A 
ATOM     94  C   UNL     1       6.157  -2.200   2.967  1.00  0.00     0.173 A 
ATOM     95  C   UNL     1       5.229  -1.807   5.130  1.00  0.00     0.173 A 
ATOM     96  F   UNL     1       6.185  -2.793   1.766  1.00  0.00    -0.203 F 
ATOM     97  C   UNL     1       7.252  -1.405   3.308  1.00  0.00     0.198 A 
ATOM     98  C   UNL     1       6.350  -1.069   5.489  1.00  0.00     0.198 A 
ATOM     99  F   UNL     1       4.275  -1.898   6.066  1.00  0.00    -0.203 F 
ATOM    100  F   UNL     1       8.221  -1.193   2.408  1.00  0.00    -0.200 F 
ATOM    101  C   UNL     1       7.357  -0.857   4.574  1.00  0.00     0.200 A 
ATOM    102  F   UNL     1       6.446  -0.574   6.731  1.00  0.00    -0.200 F 
ATOM    103  F   UNL     1       8.430  -0.132   4.913  1.00  0.00    -0.200 F 
ENDBRANCH  70  93
ENDBRANCH  44  45
ENDBRANCH  37  39
ENDBRANCH  36  37
ENDBRANCH  35  36
ENDBRANCH  34  35
ENDBRANCH  33  34
ENDBRANCH   1  33
TORSDOF 19
