REMARK SMILES Cc1cccc(-c2cc(C[C@]3(C(=O)OCCOCCOCCOC(=O)c4ccc(-c5c6nc(c(-c7c(F)c(F)c(F)c(F)c7F)c7ccc([nH]7)c(-c7c(F)c(F)c(F)c(F)c7F)c7nc(c(-c8c(F)c(F)c(F)c(F)c8F)c8ccc5[nH]8)C=C7)C=C6)cc4)CCCN(C(=O)C(C)C)C3)on2)c1
REMARK SMILES IDX 18 1 17 2 16 3 15 4 14 5 12 6 13 7 11 8 89 9 98 10 90 11
REMARK SMILES IDX 92 12 91 13 10 14 9 15 7 16 8 17 100 18 99 19 6 20 1 21 2 22
REMARK SMILES IDX 3 23 101 24 4 25 5 26 93 27 94 28 95 29 96 30 97 31 19 32
REMARK SMILES IDX 20 33 21 34 22 35 23 36 24 37 25 38 26 39 27 40 88 41 28 42
REMARK SMILES IDX 87 43 29 44 30 45 31 46 81 47 32 48 86 49 80 50 82 51 33 52
REMARK SMILES IDX 85 53 79 54 78 55 34 57 66 58 46 59 65 60 47 61 50 62 64 63
REMARK SMILES IDX 83 64 48 65 49 66 63 68 84 69 51 70 35 71 36 72 44 73 37 74
REMARK SMILES IDX 38 75 42 76 45 77 39 78 40 79 43 80 41 81 67 82 68 83 76 84
REMARK SMILES IDX 69 85 70 86 74 87 77 88 71 89 72 90 75 91 73 92 52 93 53 94
REMARK SMILES IDX 61 95 54 96 55 97 59 98 62 99 56 100 57 101 60 102 58 103
REMARK H PARENT 82 56 50 67
REMARK Flexibility Score: inf
ROOT
ATOM      1  C   UNL     1      -5.161  11.606  -2.218  1.00  0.00     0.188 C 
ENDROOT
BRANCH   1   2
ATOM      2  O   UNL     1      -5.942  10.768  -3.087  1.00  0.00    -0.376 OA
BRANCH   2   3
ATOM      3  C   UNL     1      -7.110  10.032  -2.706  1.00  0.00     0.202 C 
BRANCH   3   4
ATOM      4  C   UNL     1      -7.438   8.362  -2.573  1.00  0.00     0.261 C 
BRANCH   4   5
ATOM      5  O   UNL     1      -6.548   6.887  -2.031  1.00  0.00    -0.463 OA
BRANCH   5   6
ATOM      6  C   UNL     1      -5.355   6.079  -2.248  1.00  0.00     0.314 C 
ATOM      7  O   UNL     1      -4.544   6.180  -3.175  1.00  0.00    -0.252 OA
BRANCH   6   8
ATOM      8  C   UNL     1      -4.945   4.904  -1.375  1.00  0.00     0.093 C 
ATOM      9  C   UNL     1      -5.777   4.838  -0.103  1.00  0.00     0.023 C 
ATOM     10  C   UNL     1      -5.151   3.737  -2.389  1.00  0.00     0.138 C 
ATOM     11  C   UNL     1      -6.018   3.415   0.390  1.00  0.00     0.023 C 
ATOM     12  N   UNL     1      -5.323   2.466  -1.726  1.00  0.00    -0.341 N 
ATOM     13  C   UNL     1      -6.407   2.494  -0.761  1.00  0.00     0.119 C 
BRANCH   8  14
ATOM     14  C   UNL     1      -3.368   5.057  -1.100  1.00  0.00     0.099 C 
BRANCH  14  15
ATOM     15  C   UNL     1      -2.575   3.938  -0.474  1.00  0.00     0.138 A 
ATOM     16  C   UNL     1      -1.192   2.310   0.196  1.00  0.00     0.114 A 
ATOM     17  C   UNL     1      -1.640   3.034  -0.947  1.00  0.00     0.077 A 
ATOM     18  N   UNL     1      -1.782   2.800   1.299  1.00  0.00    -0.080 NA
ATOM     19  O   UNL     1      -2.616   3.826   0.881  1.00  0.00    -0.361 OA
BRANCH  16  20
ATOM     20  C   UNL     1      -0.340   1.113   0.241  1.00  0.00     0.004 A 
ATOM     21  C   UNL     1       3.290  -0.064  -0.155  1.00  0.00     0.044 C 
ATOM     22  C   UNL     1       1.800  -0.054   0.037  1.00  0.00    -0.050 A 
ATOM     23  C   UNL     1       1.150  -1.283   0.217  1.00  0.00     0.003 A 
ATOM     24  C   UNL     1       1.048   1.143   0.033  1.00  0.00     0.014 A 
ATOM     25  C   UNL     1      -0.218  -1.320   0.446  1.00  0.00     0.001 A 
ATOM     26  C   UNL     1      -0.943  -0.130   0.480  1.00  0.00     0.010 A 
ENDBRANCH  16  20
ENDBRANCH  14  15
ENDBRANCH   8  14
BRANCH  12  27
ATOM     27  C   UNL     1      -4.434   1.447  -2.010  1.00  0.00     0.225 C 
ATOM     28  O   UNL     1      -3.604   1.554  -2.921  1.00  0.00    -0.275 OA
BRANCH  27  29
ATOM     29  C   UNL     1      -4.476   0.132  -1.242  1.00  0.00     0.072 C 
ATOM     30  C   UNL     1      -4.503   0.253   0.275  1.00  0.00     0.018 C 
ATOM     31  C   UNL     1      -5.571  -0.767  -1.791  1.00  0.00     0.018 C 
ENDBRANCH  27  29
ENDBRANCH  12  27
ENDBRANCH   6   8
ENDBRANCH   5   6
ENDBRANCH   4   5
ENDBRANCH   3   4
ENDBRANCH   2   3
ENDBRANCH   1   2
BRANCH   1  32
ATOM     32  C   UNL     1      -5.751  12.219  -0.955  1.00  0.00     0.188 C 
BRANCH  32  33
ATOM     33  O   UNL     1      -6.551  11.255  -0.302  1.00  0.00    -0.376 OA
BRANCH  33  34
ATOM     34  C   UNL     1      -7.326  11.736   0.779  1.00  0.00     0.202 C 
BRANCH  34  35
ATOM     35  C   UNL     1      -6.500  11.827   2.068  1.00  0.00     0.261 C 
BRANCH  35  36
ATOM     36  O   UNL     1      -5.929  10.537   2.395  1.00  0.00    -0.460 OA
BRANCH  36  37
ATOM     37  C   UNL     1      -4.569  10.392   2.173  1.00  0.00     0.338 C 
ATOM     38  O   UNL     1      -3.719  11.064   2.669  1.00  0.00    -0.246 OA
BRANCH  37  39
ATOM     39  C   UNL     1      -4.361   9.411   1.048  1.00  0.00     0.060 A 
ATOM     40  C   UNL     1      -3.281   9.409   0.156  1.00  0.00     0.016 A 
ATOM     41  C   UNL     1      -5.442   8.708   0.661  1.00  0.00     0.016 A 
ATOM     42  C   UNL     1      -3.406   8.930  -1.222  1.00  0.00     0.010 A 
ATOM     43  C   UNL     1      -5.573   8.503  -0.710  1.00  0.00     0.010 A 
ATOM     44  C   UNL     1      -4.633   8.588  -1.810  1.00  0.00    -0.014 A 
BRANCH  44  45
ATOM     45  C   UNL     1      -4.895   8.438  -3.570  1.00  0.00     0.031 A 
ATOM     46  C   UNL     1      -5.882   7.339  -4.608  1.00  0.00     0.074 A 
ATOM     47  C   UNL     1      -4.071   9.168  -4.365  1.00  0.00     0.049 A 
ATOM     48  N   UNL     1      -5.519   6.934  -5.817  1.00  0.00    -0.248 NA
ATOM     49  C   UNL     1      -7.130   6.507  -4.315  1.00  0.00     0.031 C 
ATOM     50  C   UNL     1      -4.106   9.305  -5.821  1.00  0.00     0.029 A 
ATOM     51  N   UNL     1      -2.907   9.861  -4.005  1.00  0.00    -0.354 N 
ATOM     52  C   UNL     1      -6.452   6.024  -6.344  1.00  0.00     0.074 A 
ATOM     53  C   UNL     1      -7.432   5.794  -5.373  1.00  0.00     0.031 C 
ATOM     54  C   UNL     1      -2.889   9.677  -6.246  1.00  0.00     0.029 A 
ATOM     55  C   UNL     1      -2.026   9.713  -5.085  1.00  0.00     0.049 A 
ATOM     56  H   UNL     1      -2.742  10.351  -3.167  1.00  0.00     0.167 HD
ATOM     57  C   UNL     1      -6.435   5.494  -7.591  1.00  0.00     0.037 A 
ATOM     58  C   UNL     1      -0.807   9.130  -4.953  1.00  0.00     0.037 A 
ATOM     59  C   UNL     1      -5.269   5.938  -8.280  1.00  0.00     0.049 A 
ATOM     60  C   UNL     1      -0.548   8.046  -5.966  1.00  0.00     0.074 A 
ATOM     61  C   UNL     1      -5.014   7.063  -9.037  1.00  0.00     0.029 A 
ATOM     62  N   UNL     1      -4.051   5.430  -7.872  1.00  0.00    -0.354 N 
ATOM     63  N   UNL     1      -1.469   7.452  -6.674  1.00  0.00    -0.248 NA
ATOM     64  C   UNL     1       0.785   7.543  -6.255  1.00  0.00     0.031 C 
ATOM     65  C   UNL     1      -3.609   7.216  -9.108  1.00  0.00     0.029 A 
ATOM     66  C   UNL     1      -3.027   6.153  -8.439  1.00  0.00     0.049 A 
ATOM     67  H   UNL     1      -3.933   4.664  -7.264  1.00  0.00     0.167 HD
ATOM     68  C   UNL     1      -0.894   6.496  -7.482  1.00  0.00     0.074 A 
ATOM     69  C   UNL     1       0.522   6.623  -7.197  1.00  0.00     0.031 C 
ATOM     70  C   UNL     1      -1.657   5.692  -8.289  1.00  0.00     0.037 A 
BRANCH  57  71
ATOM     71  C   UNL     1      -7.682   4.863  -8.189  1.00  0.00     0.064 A 
ATOM     72  C   UNL     1      -8.181   5.338  -9.414  1.00  0.00     0.173 A 
ATOM     73  C   UNL     1      -8.517   3.937  -7.522  1.00  0.00     0.173 A 
ATOM     74  F   UNL     1      -7.448   6.149 -10.186  1.00  0.00    -0.203 F 
ATOM     75  C   UNL     1      -9.474   5.039  -9.859  1.00  0.00     0.198 A 
ATOM     76  C   UNL     1      -9.838   3.697  -7.928  1.00  0.00     0.198 A 
ATOM     77  F   UNL     1      -8.089   3.287  -6.427  1.00  0.00    -0.203 F 
ATOM     78  F   UNL     1      -9.912   5.549 -11.018  1.00  0.00    -0.200 F 
ATOM     79  C   UNL     1     -10.321   4.265  -9.089  1.00  0.00     0.200 A 
ATOM     80  F   UNL     1     -10.653   2.957  -7.160  1.00  0.00    -0.200 F 
ATOM     81  F   UNL     1     -11.594   4.070  -9.465  1.00  0.00    -0.200 F 
ENDBRANCH  57  71
BRANCH  58  82
ATOM     82  C   UNL     1      -0.210   9.243  -3.590  1.00  0.00     0.064 A 
ATOM     83  C   UNL     1      -0.093  10.530  -3.014  1.00  0.00     0.173 A 
ATOM     84  C   UNL     1      -0.052   8.147  -2.732  1.00  0.00     0.173 A 
ATOM     85  F   UNL     1      -0.249  11.625  -3.778  1.00  0.00    -0.203 F 
ATOM     86  C   UNL     1       0.058  10.710  -1.641  1.00  0.00     0.198 A 
ATOM     87  C   UNL     1       0.127   8.332  -1.354  1.00  0.00     0.198 A 
ATOM     88  F   UNL     1      -0.182   6.897  -3.197  1.00  0.00    -0.203 F 
ATOM     89  F   UNL     1       0.008  11.945  -1.118  1.00  0.00    -0.200 F 
ATOM     90  C   UNL     1       0.157   9.610  -0.809  1.00  0.00     0.200 A 
ATOM     91  F   UNL     1       0.156   7.271  -0.535  1.00  0.00    -0.200 F 
ATOM     92  F   UNL     1       0.194   9.779   0.520  1.00  0.00    -0.200 F 
ENDBRANCH  58  82
BRANCH  70  93
ATOM     93  C   UNL     1      -1.275   4.426  -9.062  1.00  0.00     0.064 A 
ATOM     94  C   UNL     1      -0.029   3.787  -9.019  1.00  0.00     0.173 A 
ATOM     95  C   UNL     1      -2.251   3.731  -9.842  1.00  0.00     0.173 A 
ATOM     96  F   UNL     1       0.988   4.260  -8.299  1.00  0.00    -0.203 F 
ATOM     97  C   UNL     1       0.229   2.588  -9.698  1.00  0.00     0.198 A 
ATOM     98  C   UNL     1      -2.012   2.503 -10.460  1.00  0.00     0.198 A 
ATOM     99  F   UNL     1      -3.490   4.202 -10.036  1.00  0.00    -0.203 F 
ATOM    100  F   UNL     1       1.458   2.057  -9.647  1.00  0.00    -0.200 F 
ATOM    101  C   UNL     1      -0.764   1.935 -10.398  1.00  0.00     0.200 A 
ATOM    102  F   UNL     1      -3.008   1.879 -11.105  1.00  0.00    -0.200 F 
ATOM    103  F   UNL     1      -0.521   0.766 -11.004  1.00  0.00    -0.200 F 
ENDBRANCH  70  93
ENDBRANCH  44  45
ENDBRANCH  37  39
ENDBRANCH  36  37
ENDBRANCH  35  36
ENDBRANCH  34  35
ENDBRANCH  33  34
ENDBRANCH  32  33
ENDBRANCH   1  32
TORSDOF 22
