REMARK SMILES Cc1cc(C)cc(CSc2cc(C(=O)OCCOCCOCCOC(=O)c3ccc(-c4c5nc(c(-c6c(F)c(F)c(F)c(F)c6F)c6ccc([nH]6)c(-c6c(F)c(F)c(F)c(F)c6F)c6nc(c(-c7c(F)c(F)c(F)c(F)c7F)c7ccc4[nH]7)C=C6)C=C5)cc3)cc(Cl)n2)c1
REMARK SMILES IDX 19 1 18 2 17 3 16 4 15 5 13 6 14 7 12 8 10 9 11 10 93 11
REMARK SMILES IDX 91 12 90 13 92 14 9 15 8 16 7 17 1 18 2 19 3 20 94 21 4 22
REMARK SMILES IDX 5 23 6 24 20 25 21 26 22 27 23 28 24 29 25 30 26 31 27 32
REMARK SMILES IDX 28 33 89 34 29 35 88 36 30 37 31 38 32 39 82 40 33 41 87 42
REMARK SMILES IDX 81 43 83 44 34 45 86 46 80 47 79 48 35 50 67 51 47 52 66 53
REMARK SMILES IDX 48 54 51 55 65 56 84 57 49 58 50 59 64 61 85 62 52 63 36 64
REMARK SMILES IDX 37 65 45 66 38 67 39 68 43 69 46 70 40 71 41 72 44 73 42 74
REMARK SMILES IDX 68 75 69 76 77 77 70 78 71 79 75 80 78 81 72 82 73 83 76 84
REMARK SMILES IDX 74 85 53 86 54 87 62 88 55 89 56 90 60 91 63 92 57 93 58 94
REMARK SMILES IDX 61 95 59 96
REMARK H PARENT 83 49 51 60
REMARK Flexibility Score: inf
ROOT
ATOM      1  C   UNL     1       0.943  -6.146   6.639  1.00  0.00     0.188 C 
ENDROOT
BRANCH   1   2
ATOM      2  O   UNL     1       1.889  -6.819   7.444  1.00  0.00    -0.376 OA
BRANCH   2   3
ATOM      3  C   UNL     1       2.979  -6.114   8.014  1.00  0.00     0.202 C 
BRANCH   3   4
ATOM      4  C   UNL     1       3.763  -5.044   7.239  1.00  0.00     0.261 C 
BRANCH   4   5
ATOM      5  O   UNL     1       2.965  -4.098   6.514  1.00  0.00    -0.460 OA
BRANCH   5   6
ATOM      6  C   UNL     1       3.129  -4.105   5.168  1.00  0.00     0.338 C 
ATOM      7  O   UNL     1       3.898  -4.791   4.518  1.00  0.00    -0.246 OA
BRANCH   6   8
ATOM      8  C   UNL     1       2.059  -3.305   4.542  1.00  0.00     0.065 A 
ATOM      9  C   UNL     1       0.272  -3.204   2.968  1.00  0.00     0.099 A 
ATOM     10  C   UNL     1       1.354  -3.890   3.487  1.00  0.00     0.051 A 
ATOM     11  N   UNL     1      -0.112  -1.998   3.429  1.00  0.00    -0.230 NA
ATOM     12  C   UNL     1       0.618  -1.448   4.419  1.00  0.00     0.131 A 
ATOM     13  C   UNL     1       1.697  -2.054   5.026  1.00  0.00     0.056 A 
ATOM     14  Cl  UNL     1       0.083   0.102   4.917  1.00  0.00    -0.062 Cl
BRANCH   9  15
ATOM     15  S   UNL     1      -0.755  -3.959   1.731  1.00  0.00    -0.102 SA
BRANCH  15  16
ATOM     16  C   UNL     1       0.023  -3.285   0.228  1.00  0.00     0.112 C 
BRANCH  16  17
ATOM     17  C   UNL     1       0.008  -1.780   0.130  1.00  0.00    -0.037 A 
ATOM     18  C   UNL     1       2.507   1.101   0.006  1.00  0.00     0.044 C 
ATOM     19  C   UNL     1       1.219   0.333   0.020  1.00  0.00    -0.051 A 
ATOM     20  C   UNL     1      -0.001   1.018  -0.025  1.00  0.00     0.006 A 
ATOM     21  C   UNL     1       1.215  -1.064   0.099  1.00  0.00     0.008 A 
ATOM     22  C   UNL     1      -1.216   0.324  -0.003  1.00  0.00    -0.051 A 
ATOM     23  C   UNL     1      -2.510   1.082  -0.031  1.00  0.00     0.044 C 
ATOM     24  C   UNL     1      -1.203  -1.074   0.067  1.00  0.00     0.008 A 
ENDBRANCH  16  17
ENDBRANCH  15  16
ENDBRANCH   9  15
ENDBRANCH   6   8
ENDBRANCH   5   6
ENDBRANCH   4   5
ENDBRANCH   3   4
ENDBRANCH   2   3
ENDBRANCH   1   2
BRANCH   1  25
ATOM     25  C   UNL     1       0.157  -4.935   7.182  1.00  0.00     0.188 C 
BRANCH  25  26
ATOM     26  O   UNL     1       0.493  -4.400   8.439  1.00  0.00    -0.376 OA
BRANCH  26  27
ATOM     27  C   UNL     1       0.137  -5.074   9.635  1.00  0.00     0.202 C 
BRANCH  27  28
ATOM     28  C   UNL     1      -0.925  -6.180   9.760  1.00  0.00     0.261 C 
BRANCH  28  29
ATOM     29  O   UNL     1      -1.197  -6.971   8.602  1.00  0.00    -0.460 OA
BRANCH  29  30
ATOM     30  C   UNL     1      -2.410  -6.758   8.031  1.00  0.00     0.338 C 
ATOM     31  O   UNL     1      -3.259  -5.951   8.359  1.00  0.00    -0.246 OA
BRANCH  30  32
ATOM     32  C   UNL     1      -2.498  -7.579   6.814  1.00  0.00     0.060 A 
ATOM     33  C   UNL     1      -2.501  -6.952   5.560  1.00  0.00     0.016 A 
ATOM     34  C   UNL     1      -2.612  -8.964   6.923  1.00  0.00     0.016 A 
ATOM     35  C   UNL     1      -2.620  -7.716   4.399  1.00  0.00     0.010 A 
ATOM     36  C   UNL     1      -2.759  -9.724   5.764  1.00  0.00     0.010 A 
ATOM     37  C   UNL     1      -2.785  -9.103   4.501  1.00  0.00    -0.014 A 
BRANCH  37  38
ATOM     38  C   UNL     1      -3.174  -9.915   3.326  1.00  0.00     0.031 A 
ATOM     39  C   UNL     1      -4.626 -10.251   3.152  1.00  0.00     0.074 A 
ATOM     40  C   UNL     1      -2.254 -10.404   2.478  1.00  0.00     0.049 A 
ATOM     41  N   UNL     1      -5.192 -11.114   2.350  1.00  0.00    -0.248 NA
ATOM     42  C   UNL     1      -5.567  -9.522   4.018  1.00  0.00     0.031 C 
ATOM     43  C   UNL     1      -0.826 -10.102   2.512  1.00  0.00     0.029 A 
ATOM     44  N   UNL     1      -2.390 -11.293   1.439  1.00  0.00    -0.354 N 
ATOM     45  C   UNL     1      -6.550 -11.049   2.630  1.00  0.00     0.074 A 
ATOM     46  C   UNL     1      -6.723 -10.076   3.686  1.00  0.00     0.031 C 
ATOM     47  C   UNL     1      -0.208 -10.822   1.558  1.00  0.00     0.029 A 
ATOM     48  C   UNL     1      -1.192 -11.670   0.885  1.00  0.00     0.049 A 
ATOM     49  H   UNL     1      -3.260 -11.626   1.123  1.00  0.00     0.167 HD
ATOM     50  C   UNL     1      -7.560 -11.745   2.057  1.00  0.00     0.037 A 
ATOM     51  C   UNL     1      -0.921 -12.626  -0.027  1.00  0.00     0.037 A 
ATOM     52  C   UNL     1      -7.375 -12.715   1.012  1.00  0.00     0.049 A 
ATOM     53  C   UNL     1      -2.053 -13.452  -0.590  1.00  0.00     0.074 A 
ATOM     54  C   UNL     1      -8.331 -13.469   0.356  1.00  0.00     0.029 A 
ATOM     55  N   UNL     1      -6.146 -13.070   0.477  1.00  0.00    -0.354 N 
ATOM     56  N   UNL     1      -3.336 -13.387  -0.330  1.00  0.00    -0.248 NA
ATOM     57  C   UNL     1      -1.697 -14.491  -1.569  1.00  0.00     0.031 C 
ATOM     58  C   UNL     1      -7.676 -14.323  -0.534  1.00  0.00     0.029 A 
ATOM     59  C   UNL     1      -6.318 -14.051  -0.485  1.00  0.00     0.049 A 
ATOM     60  H   UNL     1      -5.280 -12.684   0.742  1.00  0.00     0.167 HD
ATOM     61  C   UNL     1      -3.943 -14.337  -1.144  1.00  0.00     0.074 A 
ATOM     62  C   UNL     1      -2.887 -14.972  -1.902  1.00  0.00     0.031 C 
ATOM     63  C   UNL     1      -5.257 -14.647  -1.258  1.00  0.00     0.037 A 
BRANCH  50  64
ATOM     64  C   UNL     1      -8.947 -11.511   2.578  1.00  0.00     0.064 A 
ATOM     65  C   UNL     1      -9.629 -10.306   2.354  1.00  0.00     0.173 A 
ATOM     66  C   UNL     1      -9.616 -12.522   3.286  1.00  0.00     0.173 A 
ATOM     67  F   UNL     1      -9.030  -9.303   1.696  1.00  0.00    -0.203 F 
ATOM     68  C   UNL     1     -10.918 -10.112   2.844  1.00  0.00     0.198 A 
ATOM     69  C   UNL     1     -10.917 -12.336   3.744  1.00  0.00     0.198 A 
ATOM     70  F   UNL     1      -9.011 -13.695   3.525  1.00  0.00    -0.203 F 
ATOM     71  F   UNL     1     -11.531  -8.934   2.662  1.00  0.00    -0.200 F 
ATOM     72  C   UNL     1     -11.563 -11.129   3.531  1.00  0.00     0.200 A 
ATOM     73  F   UNL     1     -11.543 -13.326   4.395  1.00  0.00    -0.200 F 
ATOM     74  F   UNL     1     -12.808 -10.944   3.993  1.00  0.00    -0.200 F 
ENDBRANCH  50  64
BRANCH  51  75
ATOM     75  C   UNL     1       0.482 -12.876  -0.451  1.00  0.00     0.064 A 
ATOM     76  C   UNL     1       0.899 -12.597  -1.760  1.00  0.00     0.173 A 
ATOM     77  C   UNL     1       1.428 -13.419   0.431  1.00  0.00     0.173 A 
ATOM     78  F   UNL     1       0.025 -12.103  -2.650  1.00  0.00    -0.203 F 
ATOM     79  C   UNL     1       2.201 -12.870  -2.176  1.00  0.00     0.198 A 
ATOM     80  C   UNL     1       2.738 -13.662   0.024  1.00  0.00     0.198 A 
ATOM     81  F   UNL     1       1.081 -13.708   1.694  1.00  0.00    -0.203 F 
ATOM     82  F   UNL     1       2.557 -12.642  -3.447  1.00  0.00    -0.200 F 
ATOM     83  C   UNL     1       3.121 -13.396  -1.282  1.00  0.00     0.200 A 
ATOM     84  F   UNL     1       3.627 -14.160   0.894  1.00  0.00    -0.200 F 
ATOM     85  F   UNL     1       4.373 -13.657  -1.682  1.00  0.00    -0.200 F 
ENDBRANCH  51  75
BRANCH  63  86
ATOM     86  C   UNL     1      -5.656 -15.661  -2.291  1.00  0.00     0.064 A 
ATOM     87  C   UNL     1      -5.416 -17.031  -2.121  1.00  0.00     0.173 A 
ATOM     88  C   UNL     1      -6.383 -15.256  -3.423  1.00  0.00     0.173 A 
ATOM     89  F   UNL     1      -4.716 -17.469  -1.064  1.00  0.00    -0.203 F 
ATOM     90  C   UNL     1      -5.884 -17.959  -3.050  1.00  0.00     0.198 A 
ATOM     91  C   UNL     1      -6.875 -16.187  -4.332  1.00  0.00     0.198 A 
ATOM     92  F   UNL     1      -6.646 -13.956  -3.627  1.00  0.00    -0.203 F 
ATOM     93  F   UNL     1      -5.621 -19.262  -2.883  1.00  0.00    -0.200 F 
ATOM     94  C   UNL     1      -6.623 -17.538  -4.146  1.00  0.00     0.200 A 
ATOM     95  F   UNL     1      -7.604 -15.779  -5.379  1.00  0.00    -0.200 F 
ATOM     96  F   UNL     1      -7.093 -18.434  -5.024  1.00  0.00    -0.200 F 
ENDBRANCH  63  86
ENDBRANCH  37  38
ENDBRANCH  30  32
ENDBRANCH  29  30
ENDBRANCH  28  29
ENDBRANCH  27  28
ENDBRANCH  26  27
ENDBRANCH  25  26
ENDBRANCH   1  25
TORSDOF 20
