REMARK SMILES CC[C@H]1CC(=O)N(CCn2cc(C(=O)OCCOCCOCCOC(=O)c3ccc(-c4c5nc(c(-c6c(F)c(F)c(F)c(F)c6F)c6ccc([nH]6)c(-c6c(F)c(F)c(F)c(F)c6F)c6nc(c(-c7c(F)c(F)c(F)c(F)c7F)c7ccc4[nH]7)C=C6)C=C5)cc3)nn2)C1
REMARK SMILES IDX 19 1 18 2 17 3 16 4 15 5 13 6 14 7 12 8 10 9 11 10 91 11
REMARK SMILES IDX 90 12 9 13 8 14 7 15 3 16 4 17 92 18 5 19 6 20 2 21 1 22
REMARK SMILES IDX 20 23 21 24 22 25 23 26 24 27 25 28 26 29 27 30 28 31 89 32
REMARK SMILES IDX 29 33 88 34 30 35 31 36 32 37 82 38 33 39 87 40 81 41 83 42
REMARK SMILES IDX 34 43 86 44 80 45 79 46 35 48 67 49 47 50 66 51 48 52 51 53
REMARK SMILES IDX 65 54 84 55 49 56 50 57 64 59 85 60 52 61 36 62 37 63 45 64
REMARK SMILES IDX 38 65 39 66 43 67 46 68 40 69 41 70 44 71 42 72 68 73 69 74
REMARK SMILES IDX 77 75 70 76 71 77 75 78 78 79 72 80 73 81 76 82 74 83 53 84
REMARK SMILES IDX 54 85 62 86 55 87 56 88 60 89 63 90 57 91 58 92 61 93 59 94
REMARK H PARENT 83 47 51 58
REMARK Flexibility Score: inf
ROOT
ATOM      1  C   UNL     1       4.294  -3.229   0.723  1.00  0.00     0.188 C 
ENDROOT
BRANCH   1   2
ATOM      2  O   UNL     1       5.351  -2.368   1.062  1.00  0.00    -0.376 OA
BRANCH   2   3
ATOM      3  C   UNL     1       6.038  -1.614   0.076  1.00  0.00     0.202 C 
BRANCH   3   4
ATOM      4  C   UNL     1       5.838  -1.729  -1.446  1.00  0.00     0.261 C 
BRANCH   4   5
ATOM      5  O   UNL     1       4.597  -2.275  -1.894  1.00  0.00    -0.458 OA
BRANCH   5   6
ATOM      6  C   UNL     1       4.652  -3.462  -2.591  1.00  0.00     0.360 C 
ATOM      7  O   UNL     1       5.691  -4.063  -2.842  1.00  0.00    -0.244 OA
BRANCH   6   8
ATOM      8  C   UNL     1       3.322  -3.929  -2.959  1.00  0.00     0.190 A 
ATOM      9  N   UNL     1       1.177  -3.975  -3.348  1.00  0.00    -0.250 N 
ATOM     10  C   UNL     1       2.134  -3.293  -2.681  1.00  0.00     0.147 A 
ATOM     11  N   UNL     1       1.709  -5.111  -3.851  1.00  0.00    -0.066 NA
ATOM     12  N   UNL     1       3.025  -5.082  -3.634  1.00  0.00    -0.123 NA
BRANCH   9  13
ATOM     13  C   UNL     1      -0.164  -3.576  -3.735  1.00  0.00     0.167 C 
BRANCH  13  14
ATOM     14  C   UNL     1      -0.930  -2.533  -2.892  1.00  0.00     0.143 C 
BRANCH  14  15
ATOM     15  N   UNL     1      -0.570  -1.124  -3.093  1.00  0.00    -0.341 N 
ATOM     16  C   UNL     1       0.454   0.956  -2.649  1.00  0.00     0.017 C 
ATOM     17  C   UNL     1      -0.440   1.088  -3.885  1.00  0.00     0.105 C 
ATOM     18  C   UNL     1       0.599  -0.542  -2.517  1.00  0.00     0.123 C 
ATOM     19  C   UNL     1      -1.224  -0.215  -3.911  1.00  0.00     0.222 C 
ATOM     20  O   UNL     1      -2.216  -0.433  -4.585  1.00  0.00    -0.275 OA
BRANCH  16  21
ATOM     21  C   UNL     1       1.832   1.620  -2.786  1.00  0.00     0.002 C 
ATOM     22  C   UNL     1       2.741   1.320  -1.599  1.00  0.00     0.004 C 
ENDBRANCH  16  21
ENDBRANCH  14  15
ENDBRANCH  13  14
ENDBRANCH   9  13
ENDBRANCH   6   8
ENDBRANCH   5   6
ENDBRANCH   4   5
ENDBRANCH   3   4
ENDBRANCH   2   3
ENDBRANCH   1   2
BRANCH   1  23
ATOM     23  C   UNL     1       2.870  -2.645   0.646  1.00  0.00     0.188 C 
BRANCH  23  24
ATOM     24  O   UNL     1       2.581  -1.260   0.549  1.00  0.00    -0.376 OA
BRANCH  24  25
ATOM     25  C   UNL     1       3.164  -0.282   1.401  1.00  0.00     0.202 C 
BRANCH  25  26
ATOM     26  C   UNL     1       3.220  -0.423   2.914  1.00  0.00     0.261 C 
BRANCH  26  27
ATOM     27  O   UNL     1       3.516  -1.734   3.321  1.00  0.00    -0.460 OA
BRANCH  27  28
ATOM     28  C   UNL     1       2.415  -2.470   3.558  1.00  0.00     0.338 C 
ATOM     29  O   UNL     1       1.249  -2.146   3.415  1.00  0.00    -0.246 OA
BRANCH  28  30
ATOM     30  C   UNL     1       2.848  -3.766   4.076  1.00  0.00     0.060 A 
ATOM     31  C   UNL     1       1.832  -4.701   4.283  1.00  0.00     0.016 A 
ATOM     32  C   UNL     1       4.084  -3.813   4.728  1.00  0.00     0.016 A 
ATOM     33  C   UNL     1       1.920  -5.477   5.406  1.00  0.00     0.010 A 
ATOM     34  C   UNL     1       4.143  -4.538   5.879  1.00  0.00     0.010 A 
ATOM     35  C   UNL     1       3.016  -5.272   6.245  1.00  0.00    -0.014 A 
BRANCH  35  36
ATOM     36  C   UNL     1       2.989  -5.861   7.556  1.00  0.00     0.031 A 
ATOM     37  C   UNL     1       3.486  -7.245   7.545  1.00  0.00     0.074 A 
ATOM     38  C   UNL     1       2.674  -5.116   8.631  1.00  0.00     0.049 A 
ATOM     39  N   UNL     1       2.815  -8.328   7.744  1.00  0.00    -0.248 NA
ATOM     40  C   UNL     1       4.851  -7.465   7.033  1.00  0.00     0.031 C 
ATOM     41  C   UNL     1       2.476  -3.662   8.685  1.00  0.00     0.029 A 
ATOM     42  N   UNL     1       2.585  -5.487   9.934  1.00  0.00    -0.354 N 
ATOM     43  C   UNL     1       3.746  -9.350   7.600  1.00  0.00     0.074 A 
ATOM     44  C   UNL     1       4.870  -8.790   6.908  1.00  0.00     0.031 C 
ATOM     45  C   UNL     1       2.516  -3.257   9.974  1.00  0.00     0.029 A 
ATOM     46  C   UNL     1       2.627  -4.427  10.828  1.00  0.00     0.049 A 
ATOM     47  H   UNL     1       2.498  -6.425  10.219  1.00  0.00     0.167 HD
ATOM     48  C   UNL     1       3.677 -10.450   8.394  1.00  0.00     0.037 A 
ATOM     49  C   UNL     1       2.833  -4.530  12.163  1.00  0.00     0.037 A 
ATOM     50  C   UNL     1       2.369 -10.562   8.991  1.00  0.00     0.049 A 
ATOM     51  C   UNL     1       2.575  -5.942  12.541  1.00  0.00     0.074 A 
ATOM     52  C   UNL     1       1.091 -10.805   8.535  1.00  0.00     0.029 A 
ATOM     53  N   UNL     1       2.254 -10.011  10.241  1.00  0.00    -0.354 N 
ATOM     54  N   UNL     1       1.394  -6.496  12.523  1.00  0.00    -0.248 NA
ATOM     55  C   UNL     1       3.695  -6.875  12.586  1.00  0.00     0.031 C 
ATOM     56  C   UNL     1       0.219 -10.134   9.444  1.00  0.00     0.029 A 
ATOM     57  C   UNL     1       0.990  -9.527  10.436  1.00  0.00     0.049 A 
ATOM     58  H   UNL     1       2.979  -9.971  10.906  1.00  0.00     0.167 HD
ATOM     59  C   UNL     1       1.625  -7.804  12.130  1.00  0.00     0.074 A 
ATOM     60  C   UNL     1       3.049  -8.021  12.351  1.00  0.00     0.031 C 
ATOM     61  C   UNL     1       0.701  -8.467  11.376  1.00  0.00     0.037 A 
BRANCH  48  62
ATOM     62  C   UNL     1       4.892 -11.104   9.026  1.00  0.00     0.064 A 
ATOM     63  C   UNL     1       4.690 -12.269   9.792  1.00  0.00     0.173 A 
ATOM     64  C   UNL     1       6.157 -10.491   9.187  1.00  0.00     0.173 A 
ATOM     65  F   UNL     1       3.526 -12.933   9.728  1.00  0.00    -0.203 F 
ATOM     66  C   UNL     1       5.636 -12.721  10.715  1.00  0.00     0.198 A 
ATOM     67  C   UNL     1       7.119 -10.976  10.069  1.00  0.00     0.198 A 
ATOM     68  F   UNL     1       6.491  -9.339   8.598  1.00  0.00    -0.203 F 
ATOM     69  F   UNL     1       5.340 -13.752  11.517  1.00  0.00    -0.200 F 
ATOM     70  C   UNL     1       6.846 -12.069  10.860  1.00  0.00     0.200 A 
ATOM     71  F   UNL     1       8.278 -10.316  10.205  1.00  0.00    -0.200 F 
ATOM     72  F   UNL     1       7.726 -12.457  11.791  1.00  0.00    -0.200 F 
ENDBRANCH  48  62
BRANCH  49  73
ATOM     73  C   UNL     1       3.501  -3.579  13.080  1.00  0.00     0.064 A 
ATOM     74  C   UNL     1       3.340  -3.688  14.471  1.00  0.00     0.173 A 
ATOM     75  C   UNL     1       4.523  -2.719  12.633  1.00  0.00     0.173 A 
ATOM     76  F   UNL     1       2.416  -4.515  14.979  1.00  0.00    -0.203 F 
ATOM     77  C   UNL     1       4.174  -3.004  15.361  1.00  0.00     0.198 A 
ATOM     78  C   UNL     1       5.347  -2.029  13.523  1.00  0.00     0.198 A 
ATOM     79  F   UNL     1       4.806  -2.605  11.328  1.00  0.00    -0.203 F 
ATOM     80  F   UNL     1       4.034  -3.188  16.682  1.00  0.00    -0.200 F 
ATOM     81  C   UNL     1       5.184  -2.184  14.886  1.00  0.00     0.200 A 
ATOM     82  F   UNL     1       6.343  -1.266  13.050  1.00  0.00    -0.200 F 
ATOM     83  F   UNL     1       6.024  -1.580  15.738  1.00  0.00    -0.200 F 
ENDBRANCH  49  73
BRANCH  61  84
ATOM     84  C   UNL     1      -0.695  -7.918  11.389  1.00  0.00     0.064 A 
ATOM     85  C   UNL     1      -1.061  -6.677  10.841  1.00  0.00     0.173 A 
ATOM     86  C   UNL     1      -1.715  -8.726  11.905  1.00  0.00     0.173 A 
ATOM     87  F   UNL     1      -0.152  -5.891  10.249  1.00  0.00    -0.203 F 
ATOM     88  C   UNL     1      -2.386  -6.247  10.859  1.00  0.00     0.198 A 
ATOM     89  C   UNL     1      -3.042  -8.312  11.886  1.00  0.00     0.198 A 
ATOM     90  F   UNL     1      -1.425  -9.942  12.395  1.00  0.00    -0.203 F 
ATOM     91  F   UNL     1      -2.710  -5.047  10.354  1.00  0.00    -0.200 F 
ATOM     92  C   UNL     1      -3.375  -7.067  11.376  1.00  0.00     0.200 A 
ATOM     93  F   UNL     1      -4.000  -9.128  12.344  1.00  0.00    -0.200 F 
ATOM     94  F   UNL     1      -4.655  -6.669  11.362  1.00  0.00    -0.200 F 
ENDBRANCH  61  84
ENDBRANCH  35  36
ENDBRANCH  28  30
ENDBRANCH  27  28
ENDBRANCH  26  27
ENDBRANCH  25  26
ENDBRANCH  24  25
ENDBRANCH  23  24
ENDBRANCH   1  23
TORSDOF 21
