REMARK SMILES CC(C)C[C@H](NC(=O)[C@H](Cc1ccccc1)NC(=O)CNC(=O)C[NH3+])C(=O)OCCOCCOCCOC(=O)c1ccc(-c2c3nc(c(-c4c(F)c(F)c(F)c(F)c4F)c4ccc([nH]4)c(-c4c(F)c(F)c(F)c(F)c4F)c4nc(c(-c5c(F)c(F)c(F)c(F)c5F)c5ccc2[nH]5)C=C4)C=C3)cc1
REMARK SMILES IDX 30 1 29 2 28 3 26 4 27 5 5 6 4 7 2 8 1 9 3 10 6 11 7 12 8 14
REMARK SMILES IDX 9 15 17 16 18 17 19 19 20 20 21 21 22 22 23 24 24 25 25 26
REMARK SMILES IDX 10 30 11 31 12 32 16 33 13 34 15 35 14 36 31 37 32 38 33 39
REMARK SMILES IDX 34 40 35 41 36 42 37 43 38 44 39 45 40 46 41 47 102 48 42 49
REMARK SMILES IDX 101 50 43 51 44 52 45 53 95 54 46 55 100 56 94 57 96 58
REMARK SMILES IDX 47 59 99 60 93 61 92 62 48 64 80 65 60 66 79 67 61 68 64 69
REMARK SMILES IDX 78 70 97 71 62 72 63 73 77 75 98 76 65 77 49 78 50 79 58 80
REMARK SMILES IDX 51 81 52 82 56 83 59 84 53 85 54 86 57 87 55 88 81 89 82 90
REMARK SMILES IDX 90 91 83 92 84 93 88 94 91 95 85 96 86 97 89 98 87 99 66 100
REMARK SMILES IDX 67 101 75 102 68 103 69 104 73 105 76 106 70 107 71 108
REMARK SMILES IDX 74 109 72 110
REMARK H PARENT 6 13 17 18 21 23 25 27 25 28 25 29 96 63 64 74
REMARK Flexibility Score: inf
ROOT
ATOM      1  C   UNL     1       6.467   0.790  -6.321  1.00  0.00     0.202 C 
ENDROOT
BRANCH   1   2
ATOM      2  C   UNL     1       6.458  -0.476  -5.439  1.00  0.00     0.261 C 
BRANCH   2   3
ATOM      3  O   UNL     1       5.327  -0.755  -4.607  1.00  0.00    -0.462 OA
BRANCH   3   4
ATOM      4  C   UNL     1       5.369  -0.149  -3.394  1.00  0.00     0.328 C 
ATOM      5  O   UNL     1       6.218   0.684  -3.091  1.00  0.00    -0.250 OA
BRANCH   4   6
ATOM      6  C   UNL     1       4.415  -0.788  -2.362  1.00  0.00     0.192 C 
BRANCH   6   7
ATOM      7  C   UNL     1       5.300  -1.928  -1.804  1.00  0.00     0.040 C 
BRANCH   7   8
ATOM      8  C   UNL     1       6.629  -1.473  -1.105  1.00  0.00    -0.015 C 
ATOM      9  C   UNL     1       6.603  -0.175  -0.275  1.00  0.00     0.007 C 
ATOM     10  C   UNL     1       7.196  -2.594  -0.232  1.00  0.00     0.007 C 
ENDBRANCH   7   8
ENDBRANCH   6   7
BRANCH   6  11
ATOM     11  N   UNL     1       3.075  -1.236  -2.834  1.00  0.00    -0.341 N 
ATOM     12  C   UNL     1       1.789  -0.930  -2.400  1.00  0.00     0.243 C 
ATOM     13  H   UNL     1       3.104  -1.863  -3.592  1.00  0.00     0.164 HD
ATOM     14  O   UNL     1       0.892  -0.974  -3.250  1.00  0.00    -0.273 OA
BRANCH  12  15
ATOM     15  C   UNL     1       1.442  -0.475  -0.940  1.00  0.00     0.175 C 
BRANCH  15  16
ATOM     16  N   UNL     1       1.293   0.977  -0.813  1.00  0.00    -0.342 N 
ATOM     17  C   UNL     1       1.943   1.788   0.074  1.00  0.00     0.240 C 
ATOM     18  H   UNL     1       0.661   1.412  -1.430  1.00  0.00     0.164 HD
ATOM     19  O   UNL     1       1.485   2.912   0.290  1.00  0.00    -0.273 OA
BRANCH  17  20
ATOM     20  C   UNL     1       3.233   1.304   0.768  1.00  0.00     0.216 C 
BRANCH  20  21
ATOM     21  N   UNL     1       3.126   0.476   1.965  1.00  0.00    -0.342 N 
ATOM     22  C   UNL     1       3.471  -0.823   2.239  1.00  0.00     0.275 C 
ATOM     23  H   UNL     1       2.724   0.945   2.732  1.00  0.00     0.164 HD
ATOM     24  O   UNL     1       3.466  -1.193   3.416  1.00  0.00    -0.268 OA
BRANCH  22  25
ATOM     25  C   UNL     1       3.918  -1.784   1.145  1.00  0.00     0.360 C 
BRANCH  25  26
ATOM     26  N   UNL     1       2.880  -2.693   0.658  1.00  0.00    -0.350 N 
ATOM     27  H   UNL     1       2.573  -3.298   1.420  1.00  0.00     0.344 HD
ATOM     28  H   UNL     1       3.255  -3.263  -0.100  1.00  0.00     0.344 HD
ATOM     29  H   UNL     1       2.087  -2.150   0.315  1.00  0.00     0.344 HD
ENDBRANCH  25  26
ENDBRANCH  22  25
ENDBRANCH  20  21
ENDBRANCH  17  20
ENDBRANCH  15  16
BRANCH  15  30
ATOM     30  C   UNL     1       0.133  -1.176  -0.407  1.00  0.00     0.070 C 
BRANCH  30  31
ATOM     31  C   UNL     1       0.077  -1.500   1.088  1.00  0.00    -0.045 A 
ATOM     32  C   UNL     1       0.001  -2.841   1.511  1.00  0.00     0.004 A 
ATOM     33  C   UNL     1       0.167  -0.512   2.078  1.00  0.00     0.004 A 
ATOM     34  C   UNL     1       0.190  -3.191   2.854  1.00  0.00     0.000 A 
ATOM     35  C   UNL     1       0.351  -0.862   3.424  1.00  0.00     0.000 A 
ATOM     36  C   UNL     1       0.404  -2.201   3.805  1.00  0.00     0.000 A 
ENDBRANCH  30  31
ENDBRANCH  15  30
ENDBRANCH  12  15
ENDBRANCH   6  11
ENDBRANCH   4   6
ENDBRANCH   3   4
ENDBRANCH   2   3
ENDBRANCH   1   2
BRANCH   1  37
ATOM     37  O   UNL     1       5.391   1.697  -6.470  1.00  0.00    -0.376 OA
BRANCH  37  38
ATOM     38  C   UNL     1       4.477   1.911  -5.421  1.00  0.00     0.188 C 
BRANCH  38  39
ATOM     39  C   UNL     1       3.257   0.970  -5.450  1.00  0.00     0.188 C 
BRANCH  39  40
ATOM     40  O   UNL     1       3.262  -0.143  -6.322  1.00  0.00    -0.376 OA
BRANCH  40  41
ATOM     41  C   UNL     1       3.444   0.082  -7.716  1.00  0.00     0.202 C 
BRANCH  41  42
ATOM     42  C   UNL     1       2.964   1.360  -8.449  1.00  0.00     0.261 C 
BRANCH  42  43
ATOM     43  O   UNL     1       2.890   2.582  -7.696  1.00  0.00    -0.460 OA
BRANCH  43  44
ATOM     44  C   UNL     1       1.645   2.973  -7.309  1.00  0.00     0.338 C 
ATOM     45  O   UNL     1       0.592   2.449  -7.591  1.00  0.00    -0.246 OA
BRANCH  44  46
ATOM     46  C   UNL     1       1.776   4.027  -6.267  1.00  0.00     0.060 A 
ATOM     47  C   UNL     1       1.300   3.757  -4.972  1.00  0.00     0.016 A 
ATOM     48  C   UNL     1       2.347   5.264  -6.559  1.00  0.00     0.016 A 
ATOM     49  C   UNL     1       1.361   4.730  -3.975  1.00  0.00     0.010 A 
ATOM     50  C   UNL     1       2.366   6.258  -5.572  1.00  0.00     0.010 A 
ATOM     51  C   UNL     1       1.834   6.008  -4.291  1.00  0.00    -0.014 A 
BRANCH  51  52
ATOM     52  C   UNL     1       1.508   7.145  -3.393  1.00  0.00     0.031 A 
ATOM     53  C   UNL     1       0.277   7.952  -3.709  1.00  0.00     0.074 A 
ATOM     54  C   UNL     1       2.252   7.452  -2.318  1.00  0.00     0.049 A 
ATOM     55  N   UNL     1      -0.192   9.030  -3.134  1.00  0.00    -0.248 NA
ATOM     56  C   UNL     1      -0.532   7.476  -4.844  1.00  0.00     0.031 C 
ATOM     57  C   UNL     1       3.426   6.715  -1.861  1.00  0.00     0.029 A 
ATOM     58  N   UNL     1       2.124   8.481  -1.418  1.00  0.00    -0.354 N 
ATOM     59  C   UNL     1      -1.336   9.368  -3.846  1.00  0.00     0.074 A 
ATOM     60  C   UNL     1      -1.471   8.404  -4.915  1.00  0.00     0.031 C 
ATOM     61  C   UNL     1       3.921   7.323  -0.768  1.00  0.00     0.029 A 
ATOM     62  C   UNL     1       3.118   8.510  -0.471  1.00  0.00     0.049 A 
ATOM     63  H   UNL     1       1.390   9.136  -1.448  1.00  0.00     0.167 HD
ATOM     64  C   UNL     1      -2.201  10.386  -3.626  1.00  0.00     0.037 A 
ATOM     65  C   UNL     1       3.358   9.406   0.507  1.00  0.00     0.037 A 
ATOM     66  C   UNL     1      -2.063  11.347  -2.563  1.00  0.00     0.049 A 
ATOM     67  C   UNL     1       2.430  10.584   0.683  1.00  0.00     0.074 A 
ATOM     68  C   UNL     1      -2.891  12.408  -2.246  1.00  0.00     0.029 A 
ATOM     69  N   UNL     1      -1.018  11.367  -1.649  1.00  0.00    -0.354 N 
ATOM     70  N   UNL     1       1.345  10.895   0.017  1.00  0.00    -0.248 NA
ATOM     71  C   UNL     1       2.764  11.534   1.754  1.00  0.00     0.031 C 
ATOM     72  C   UNL     1      -2.312  13.112  -1.185  1.00  0.00     0.029 A 
ATOM     73  C   UNL     1      -1.164  12.443  -0.788  1.00  0.00     0.049 A 
ATOM     74  H   UNL     1      -0.283  10.714  -1.618  1.00  0.00     0.167 HD
ATOM     75  C   UNL     1       0.843  12.047   0.613  1.00  0.00     0.074 A 
ATOM     76  C   UNL     1       1.743  12.378   1.697  1.00  0.00     0.031 C 
ATOM     77  C   UNL     1      -0.268  12.759   0.296  1.00  0.00     0.037 A 
BRANCH  64  78
ATOM     78  C   UNL     1      -3.342  10.537  -4.592  1.00  0.00     0.064 A 
ATOM     79  C   UNL     1      -4.381   9.596  -4.673  1.00  0.00     0.173 A 
ATOM     80  C   UNL     1      -3.389  11.638  -5.462  1.00  0.00     0.173 A 
ATOM     81  F   UNL     1      -4.378   8.516  -3.876  1.00  0.00    -0.203 F 
ATOM     82  C   UNL     1      -5.396   9.728  -5.617  1.00  0.00     0.198 A 
ATOM     83  C   UNL     1      -4.426  11.786  -6.378  1.00  0.00     0.198 A 
ATOM     84  F   UNL     1      -2.425  12.570  -5.427  1.00  0.00    -0.203 F 
ATOM     85  F   UNL     1      -6.336   8.778  -5.725  1.00  0.00    -0.200 F 
ATOM     86  C   UNL     1      -5.421  10.825  -6.465  1.00  0.00     0.200 A 
ATOM     87  F   UNL     1      -4.456  12.856  -7.185  1.00  0.00    -0.200 F 
ATOM     88  F   UNL     1      -6.397  10.949  -7.374  1.00  0.00    -0.200 F 
ENDBRANCH  64  78
BRANCH  65  89
ATOM     89  C   UNL     1       4.528   9.225   1.407  1.00  0.00     0.064 A 
ATOM     90  C   UNL     1       4.355   8.923   2.765  1.00  0.00     0.173 A 
ATOM     91  C   UNL     1       5.842   9.363   0.934  1.00  0.00     0.173 A 
ATOM     92  F   UNL     1       3.119   8.813   3.274  1.00  0.00    -0.203 F 
ATOM     93  C   UNL     1       5.448   8.778   3.617  1.00  0.00     0.198 A 
ATOM     94  C   UNL     1       6.935   9.188   1.780  1.00  0.00     0.198 A 
ATOM     95  F   UNL     1       6.064   9.659  -0.355  1.00  0.00    -0.203 F 
ATOM     96  F   UNL     1       5.252   8.534   4.920  1.00  0.00    -0.200 F 
ATOM     97  C   UNL     1       6.737   8.902   3.123  1.00  0.00     0.200 A 
ATOM     98  F   UNL     1       8.179   9.299   1.296  1.00  0.00    -0.200 F 
ATOM     99  F   UNL     1       7.788   8.755   3.940  1.00  0.00    -0.200 F 
ENDBRANCH  65  89
BRANCH  77 100
ATOM    100  C   UNL     1      -0.615  13.936   1.168  1.00  0.00     0.064 A 
ATOM    101  C   UNL     1       0.153  15.109   1.179  1.00  0.00     0.173 A 
ATOM    102  C   UNL     1      -1.762  13.899   1.977  1.00  0.00     0.173 A 
ATOM    103  F   UNL     1       1.266  15.196   0.434  1.00  0.00    -0.203 F 
ATOM    104  C   UNL     1      -0.195  16.187   1.992  1.00  0.00     0.198 A 
ATOM    105  C   UNL     1      -2.128  14.991   2.759  1.00  0.00     0.198 A 
ATOM    106  F   UNL     1      -2.541  12.806   1.998  1.00  0.00    -0.203 F 
ATOM    107  F   UNL     1       0.586  17.275   2.029  1.00  0.00    -0.200 F 
ATOM    108  C   UNL     1      -1.339  16.130   2.774  1.00  0.00     0.200 A 
ATOM    109  F   UNL     1      -3.244  14.940   3.499  1.00  0.00    -0.200 F 
ATOM    110  F   UNL     1      -1.676  17.170   3.549  1.00  0.00    -0.200 F 
ENDBRANCH  77 100
ENDBRANCH  51  52
ENDBRANCH  44  46
ENDBRANCH  43  44
ENDBRANCH  42  43
ENDBRANCH  41  42
ENDBRANCH  40  41
ENDBRANCH  39  40
ENDBRANCH  38  39
ENDBRANCH  37  38
ENDBRANCH   1  37
TORSDOF 28
