REMARK SMILES O=C(CCCN1C(=O)C(=O)/C(=C(\[O-])c2ccccc2)[C@H]1c1ccc([N+](=O)[O-])cc1)OCCOCCOCCOC(=O)c1ccc(-c2c3nc(c(-c4c(F)c(F)c(F)c(F)c4F)c4ccc([nH]4)c(-c4c(F)c(F)c(F)c(F)c4F)c4nc(c(-c5c(F)c(F)c(F)c(F)c5F)c5ccc2[nH]5)C=C4)C=C3)cc1
REMARK SMILES IDX 33 1 32 2 31 3 30 4 2 5 1 6 3 7 4 8 5 9 6 10 7 11 20 12 8 13
REMARK SMILES IDX 9 14 11 15 10 16 12 17 13 18 21 19 22 20 29 21 23 22 28 23
REMARK SMILES IDX 24 24 25 25 26 26 27 27 14 28 15 29 19 30 16 31 18 32 17 33
REMARK SMILES IDX 34 34 35 35 36 36 37 37 38 38 39 39 40 40 41 41 42 42 43 43
REMARK SMILES IDX 104 44 44 45 103 46 45 47 46 48 47 49 97 50 48 51 102 52
REMARK SMILES IDX 96 53 98 54 49 55 101 56 95 57 94 58 50 60 82 61 62 62 81 63
REMARK SMILES IDX 63 64 66 65 80 66 99 67 64 68 65 69 79 71 100 72 67 73 51 74
REMARK SMILES IDX 52 75 60 76 53 77 54 78 58 79 61 80 55 81 56 82 59 83 57 84
REMARK SMILES IDX 83 85 84 86 92 87 85 88 86 89 90 90 93 91 87 92 88 93 91 94
REMARK SMILES IDX 89 95 68 96 69 97 77 98 70 99 71 100 75 101 78 102 72 103
REMARK SMILES IDX 73 104 76 105 74 106
REMARK H PARENT 98 59 66 70
REMARK Flexibility Score: inf
ROOT
ATOM      1  O   UNL     1       2.773   0.104  -1.408  1.00  0.00    -0.376 OA
ENDROOT
BRANCH   1   2
ATOM      2  C   UNL     1       3.543  -0.892  -0.779  1.00  0.00     0.202 C 
BRANCH   2   3
ATOM      3  C   UNL     1       3.399  -1.143   0.716  1.00  0.00     0.261 C 
BRANCH   3   4
ATOM      4  O   UNL     1       2.490  -0.343   1.459  1.00  0.00    -0.463 OA
BRANCH   4   5
ATOM      5  C   UNL     1       2.444   0.994   1.536  1.00  0.00     0.305 C 
ATOM      6  O   UNL     1       1.454   1.513   2.053  1.00  0.00    -0.252 OA
BRANCH   5   7
ATOM      7  C   UNL     1       3.571   1.848   0.998  1.00  0.00     0.124 C 
BRANCH   7   8
ATOM      8  C   UNL     1       4.858   1.961   1.815  1.00  0.00     0.033 C 
BRANCH   8   9
ATOM      9  C   UNL     1       6.002   0.938   1.620  1.00  0.00     0.121 C 
BRANCH   9  10
ATOM     10  N   UNL     1       6.499   0.671   0.267  1.00  0.00    -0.325 N 
ATOM     11  C   UNL     1       6.663   1.670  -0.678  1.00  0.00     0.295 C 
ATOM     12  C   UNL     1       6.974  -0.646  -0.208  1.00  0.00     0.150 C 
ATOM     13  O   UNL     1       6.473   2.858  -0.578  1.00  0.00    -0.265 OA
ATOM     14  C   UNL     1       7.083   0.981  -1.975  1.00  0.00     0.248 C 
ATOM     15  C   UNL     1       7.172  -0.470  -1.700  1.00  0.00     0.025 C 
ATOM     16  O   UNL     1       7.265   1.510  -3.051  1.00  0.00    -0.283 OA
ATOM     17  C   UNL     1       7.348  -1.346  -2.709  1.00  0.00    -0.092 C 
ATOM     18  O   UNL     1       7.501  -0.945  -4.028  1.00  0.00    -0.872 OA
BRANCH  12  19
ATOM     19  C   UNL     1       8.130  -1.294   0.548  1.00  0.00    -0.020 A 
ATOM     20  C   UNL     1       9.384  -1.535  -0.047  1.00  0.00     0.013 A 
ATOM     21  C   UNL     1       7.874  -1.886   1.802  1.00  0.00     0.013 A 
ATOM     22  C   UNL     1      10.296  -2.428   0.528  1.00  0.00     0.086 A 
ATOM     23  C   UNL     1       8.795  -2.747   2.403  1.00  0.00     0.086 A 
ATOM     24  C   UNL     1       9.989  -3.045   1.743  1.00  0.00     0.269 A 
BRANCH  24  25
ATOM     25  N   UNL     1      10.897  -4.052   2.304  1.00  0.00     0.062 N 
ATOM     26  O   UNL     1      11.836  -4.439   1.595  1.00  0.00    -0.258 OA
ATOM     27  O   UNL     1      10.659  -4.464   3.448  1.00  0.00    -0.258 OA
ENDBRANCH  24  25
ENDBRANCH  12  19
BRANCH  17  28
ATOM     28  C   UNL     1       7.446  -2.815  -2.568  1.00  0.00    -0.033 A 
ATOM     29  C   UNL     1       8.532  -3.485  -3.156  1.00  0.00     0.007 A 
ATOM     30  C   UNL     1       6.454  -3.584  -1.947  1.00  0.00     0.007 A 
ATOM     31  C   UNL     1       8.618  -4.880  -3.132  1.00  0.00     0.001 A 
ATOM     32  C   UNL     1       6.528  -4.981  -1.941  1.00  0.00     0.001 A 
ATOM     33  C   UNL     1       7.609  -5.628  -2.533  1.00  0.00     0.000 A 
ENDBRANCH  17  28
ENDBRANCH   9  10
ENDBRANCH   8   9
ENDBRANCH   7   8
ENDBRANCH   5   7
ENDBRANCH   4   5
ENDBRANCH   3   4
ENDBRANCH   2   3
ENDBRANCH   1   2
BRANCH   1  34
ATOM     34  C   UNL     1       1.431  -0.267  -1.651  1.00  0.00     0.188 C 
BRANCH  34  35
ATOM     35  C   UNL     1       1.196  -1.196  -2.858  1.00  0.00     0.188 C 
BRANCH  35  36
ATOM     36  O   UNL     1       1.925  -2.410  -2.933  1.00  0.00    -0.376 OA
BRANCH  36  37
ATOM     37  C   UNL     1       3.179  -2.508  -3.612  1.00  0.00     0.202 C 
BRANCH  37  38
ATOM     38  C   UNL     1       3.683  -1.573  -4.718  1.00  0.00     0.261 C 
BRANCH  38  39
ATOM     39  O   UNL     1       3.454  -0.181  -4.499  1.00  0.00    -0.460 OA
BRANCH  39  40
ATOM     40  C   UNL     1       2.670   0.384  -5.449  1.00  0.00     0.338 C 
ATOM     41  O   UNL     1       2.142  -0.157  -6.405  1.00  0.00    -0.246 OA
BRANCH  40  42
ATOM     42  C   UNL     1       2.386   1.776  -5.105  1.00  0.00     0.060 A 
ATOM     43  C   UNL     1       1.133   2.078  -4.559  1.00  0.00     0.016 A 
ATOM     44  C   UNL     1       3.268   2.780  -5.501  1.00  0.00     0.016 A 
ATOM     45  C   UNL     1       0.744   3.401  -4.424  1.00  0.00     0.010 A 
ATOM     46  C   UNL     1       2.866   4.109  -5.388  1.00  0.00     0.010 A 
ATOM     47  C   UNL     1       1.590   4.416  -4.883  1.00  0.00    -0.014 A 
BRANCH  47  48
ATOM     48  C   UNL     1       1.051   5.783  -4.997  1.00  0.00     0.031 A 
ATOM     49  C   UNL     1       0.471   6.218  -6.310  1.00  0.00     0.074 A 
ATOM     50  C   UNL     1       1.042   6.591  -3.926  1.00  0.00     0.049 A 
ATOM     51  N   UNL     1      -0.029   7.377  -6.652  1.00  0.00    -0.248 NA
ATOM     52  C   UNL     1       0.443   5.209  -7.382  1.00  0.00     0.031 C 
ATOM     53  C   UNL     1       1.524   6.230  -2.594  1.00  0.00     0.029 A 
ATOM     54  N   UNL     1       0.615   7.886  -3.795  1.00  0.00    -0.354 N 
ATOM     55  C   UNL     1      -0.424   7.238  -7.976  1.00  0.00     0.074 A 
ATOM     56  C   UNL     1      -0.090   5.892  -8.384  1.00  0.00     0.031 C 
ATOM     57  C   UNL     1       1.386   7.291  -1.782  1.00  0.00     0.029 A 
ATOM     58  C   UNL     1       0.843   8.410  -2.548  1.00  0.00     0.049 A 
ATOM     59  H   UNL     1       0.186   8.390  -4.524  1.00  0.00     0.167 HD
ATOM     60  C   UNL     1      -1.015   8.159  -8.772  1.00  0.00     0.037 A 
ATOM     61  C   UNL     1       0.661   9.665  -2.098  1.00  0.00     0.037 A 
ATOM     62  C   UNL     1      -1.328   9.498  -8.349  1.00  0.00     0.049 A 
ATOM     63  C   UNL     1       0.088  10.695  -3.038  1.00  0.00     0.074 A 
ATOM     64  C   UNL     1      -1.932  10.512  -9.070  1.00  0.00     0.029 A 
ATOM     65  N   UNL     1      -1.046  10.012  -7.090  1.00  0.00    -0.354 N 
ATOM     66  N   UNL     1      -0.307  10.558  -4.282  1.00  0.00    -0.248 NA
ATOM     67  C   UNL     1      -0.069  12.056  -2.509  1.00  0.00     0.031 C 
ATOM     68  C   UNL     1      -1.955  11.659  -8.271  1.00  0.00     0.029 A 
ATOM     69  C   UNL     1      -1.434  11.340  -7.026  1.00  0.00     0.049 A 
ATOM     70  H   UNL     1      -0.632   9.508  -6.353  1.00  0.00     0.167 HD
ATOM     71  C   UNL     1      -0.789  11.801  -4.671  1.00  0.00     0.074 A 
ATOM     72  C   UNL     1      -0.653  12.675  -3.525  1.00  0.00     0.031 C 
ATOM     73  C   UNL     1      -1.298  12.187  -5.868  1.00  0.00     0.037 A 
BRANCH  60  74
ATOM     74  C   UNL     1      -1.322   7.767 -10.188  1.00  0.00     0.064 A 
ATOM     75  C   UNL     1      -2.337   6.851 -10.501  1.00  0.00     0.173 A 
ATOM     76  C   UNL     1      -0.621   8.357 -11.251  1.00  0.00     0.173 A 
ATOM     77  F   UNL     1      -3.027   6.245  -9.522  1.00  0.00    -0.203 F 
ATOM     78  C   UNL     1      -2.627   6.528 -11.825  1.00  0.00     0.198 A 
ATOM     79  C   UNL     1      -0.935   8.056 -12.573  1.00  0.00     0.198 A 
ATOM     80  F   UNL     1       0.359   9.240 -11.008  1.00  0.00    -0.203 F 
ATOM     81  F   UNL     1      -3.575   5.620 -12.099  1.00  0.00    -0.200 F 
ATOM     82  C   UNL     1      -1.934   7.138 -12.859  1.00  0.00     0.200 A 
ATOM     83  F   UNL     1      -0.273   8.658 -13.571  1.00  0.00    -0.200 F 
ATOM     84  F   UNL     1      -2.225   6.839 -14.132  1.00  0.00    -0.200 F 
ENDBRANCH  60  74
BRANCH  61  85
ATOM     85  C   UNL     1       1.052  10.027  -0.710  1.00  0.00     0.064 A 
ATOM     86  C   UNL     1       0.096  10.429   0.232  1.00  0.00     0.173 A 
ATOM     87  C   UNL     1       2.397  10.016  -0.308  1.00  0.00     0.173 A 
ATOM     88  F   UNL     1      -1.201  10.479  -0.109  1.00  0.00    -0.203 F 
ATOM     89  C   UNL     1       0.471  10.837   1.510  1.00  0.00     0.198 A 
ATOM     90  C   UNL     1       2.768  10.389   0.981  1.00  0.00     0.198 A 
ATOM     91  F   UNL     1       3.354   9.642  -1.170  1.00  0.00    -0.203 F 
ATOM     92  F   UNL     1      -0.457  11.281   2.369  1.00  0.00    -0.200 F 
ATOM     93  C   UNL     1       1.806  10.813   1.885  1.00  0.00     0.200 A 
ATOM     94  F   UNL     1       4.057  10.352   1.343  1.00  0.00    -0.200 F 
ATOM     95  F   UNL     1       2.167  11.212   3.112  1.00  0.00    -0.200 F 
ENDBRANCH  61  85
BRANCH  73  96
ATOM     96  C   UNL     1      -1.789  13.603  -5.982  1.00  0.00     0.064 A 
ATOM     97  C   UNL     1      -0.910  14.695  -5.980  1.00  0.00     0.173 A 
ATOM     98  C   UNL     1      -3.160  13.864  -6.137  1.00  0.00     0.173 A 
ATOM     99  F   UNL     1       0.408  14.501  -5.822  1.00  0.00    -0.203 F 
ATOM    100  C   UNL     1      -1.387  15.998  -6.095  1.00  0.00     0.198 A 
ATOM    101  C   UNL     1      -3.629  15.165  -6.291  1.00  0.00     0.198 A 
ATOM    102  F   UNL     1      -4.044  12.855  -6.158  1.00  0.00    -0.203 F 
ATOM    103  F   UNL     1      -0.534  17.029  -6.031  1.00  0.00    -0.200 F 
ATOM    104  C   UNL     1      -2.744  16.231  -6.259  1.00  0.00     0.200 A 
ATOM    105  F   UNL     1      -4.939  15.386  -6.471  1.00  0.00    -0.200 F 
ATOM    106  F   UNL     1      -3.200  17.485  -6.380  1.00  0.00    -0.200 F 
ENDBRANCH  73  96
ENDBRANCH  47  48
ENDBRANCH  40  42
ENDBRANCH  39  40
ENDBRANCH  38  39
ENDBRANCH  37  38
ENDBRANCH  36  37
ENDBRANCH  35  36
ENDBRANCH  34  35
ENDBRANCH   1  34
TORSDOF 23
