REMARK SMILES CCOc1cc(NC(=O)c2c(C(=O)OCCOCCOCCOC(=O)c3ccc(-c4c5nc(c(-c6c(F)c(F)c(F)c(F)c6F)c6ccc([nH]6)c(-c6c(F)c(F)c(F)c(F)c6F)c6nc(c(-c7c(F)c(F)c(F)c(F)c7F)c7ccc4[nH]7)C=C6)C=C5)cc3)cnn2C)ccc1OC(F)F
REMARK SMILES IDX 18 1 17 2 16 3 15 4 14 5 12 6 13 7 11 8 10 9 91 10 89 11
REMARK SMILES IDX 90 12 92 13 8 14 7 15 9 17 6 18 4 19 5 20 95 21 94 22 93 23
REMARK SMILES IDX 3 24 2 25 1 26 96 27 97 28 98 29 99 30 19 31 20 32 21 33
REMARK SMILES IDX 22 34 23 35 24 36 25 37 26 38 27 39 88 40 28 41 87 42 29 43
REMARK SMILES IDX 30 44 31 45 81 46 32 47 86 48 80 49 82 50 33 51 85 52 79 53
REMARK SMILES IDX 78 54 34 56 66 57 46 58 65 59 47 60 50 61 64 62 83 63 48 64
REMARK SMILES IDX 49 65 63 67 84 68 51 69 35 70 36 71 44 72 37 73 38 74 42 75
REMARK SMILES IDX 45 76 39 77 40 78 43 79 41 80 67 81 68 82 76 83 69 84 70 85
REMARK SMILES IDX 74 86 77 87 71 88 72 89 75 90 73 91 52 92 53 93 61 94 54 95
REMARK SMILES IDX 55 96 59 97 62 98 56 99 57 100 60 101 58 102
REMARK H PARENT 7 16 82 55 50 66
REMARK Flexibility Score: inf
ROOT
ATOM      1  C   UNL     1       0.140   7.549   3.411  1.00  0.00     0.188 C 
ENDROOT
BRANCH   1   2
ATOM      2  O   UNL     1       0.214   8.811   4.065  1.00  0.00    -0.376 OA
BRANCH   2   3
ATOM      3  C   UNL     1       1.468   9.325   4.486  1.00  0.00     0.202 C 
BRANCH   3   4
ATOM      4  C   UNL     1       2.172   8.587   5.627  1.00  0.00     0.261 C 
BRANCH   4   5
ATOM      5  O   UNL     1       2.319   7.178   5.391  1.00  0.00    -0.460 OA
BRANCH   5   6
ATOM      6  C   UNL     1       1.556   6.369   6.183  1.00  0.00     0.342 C 
ATOM      7  O   UNL     1       0.817   6.765   7.066  1.00  0.00    -0.246 OA
BRANCH   6   8
ATOM      8  C   UNL     1       1.593   4.961   5.805  1.00  0.00     0.111 A 
ATOM      9  C   UNL     1       2.574   4.195   5.173  1.00  0.00     0.140 A 
ATOM     10  N   UNL     1       2.127   2.900   5.308  1.00  0.00    -0.262 N 
ATOM     11  C   UNL     1       0.541   4.053   6.056  1.00  0.00     0.151 A 
ATOM     12  N   UNL     1       0.834   2.813   5.673  1.00  0.00    -0.180 NA
ATOM     13  C   UNL     1       2.885   1.671   5.236  1.00  0.00     0.174 C 
BRANCH   9  14
ATOM     14  C   UNL     1       3.881   4.601   4.734  1.00  0.00     0.274 C 
ATOM     15  N   UNL     1       4.478   4.115   3.595  1.00  0.00    -0.321 N 
ATOM     16  H   UNL     1       5.426   4.377   3.550  1.00  0.00     0.170 HD
ATOM     17  O   UNL     1       4.562   5.379   5.405  1.00  0.00    -0.267 OA
BRANCH  15  18
ATOM     18  C   UNL     1       4.107   3.346   2.474  1.00  0.00     0.045 A 
ATOM     19  C   UNL     1       2.596   2.152   0.969  1.00  0.00     0.163 A 
ATOM     20  C   UNL     1       2.820   2.929   2.131  1.00  0.00     0.076 A 
ATOM     21  C   UNL     1       3.649   1.867   0.092  1.00  0.00     0.168 A 
ATOM     22  C   UNL     1       4.930   2.303   0.429  1.00  0.00     0.053 A 
ATOM     23  C   UNL     1       5.158   3.014   1.608  1.00  0.00     0.030 A 
BRANCH  19  24
ATOM     24  O   UNL     1       1.321   1.772   0.642  1.00  0.00    -0.490 OA
BRANCH  24  25
ATOM     25  C   UNL     1       0.705   0.944   1.639  1.00  0.00     0.226 C 
ATOM     26  C   UNL     1      -0.245  -0.025   0.950  1.00  0.00     0.049 C 
ENDBRANCH  24  25
ENDBRANCH  19  24
BRANCH  21  27
ATOM     27  O   UNL     1       3.595   1.268  -1.133  1.00  0.00    -0.431 OA
BRANCH  27  28
ATOM     28  C   UNL     1       2.663   0.222  -1.359  1.00  0.00     0.542 C 
ATOM     29  F   UNL     1       2.582  -0.589  -0.278  1.00  0.00    -0.167 F 
ATOM     30  F   UNL     1       1.442   0.726  -1.643  1.00  0.00    -0.167 F 
ENDBRANCH  27  28
ENDBRANCH  21  27
ENDBRANCH  15  18
ENDBRANCH   9  14
ENDBRANCH   6   8
ENDBRANCH   5   6
ENDBRANCH   4   5
ENDBRANCH   3   4
ENDBRANCH   2   3
ENDBRANCH   1   2
BRANCH   1  31
ATOM     31  C   UNL     1       1.304   7.021   2.549  1.00  0.00     0.188 C 
BRANCH  31  32
ATOM     32  O   UNL     1       2.154   8.032   2.029  1.00  0.00    -0.376 OA
BRANCH  32  33
ATOM     33  C   UNL     1       2.143   8.190   0.618  1.00  0.00     0.202 C 
BRANCH  33  34
ATOM     34  C   UNL     1       0.937   8.987   0.114  1.00  0.00     0.261 C 
BRANCH  34  35
ATOM     35  O   UNL     1      -0.336   8.378   0.385  1.00  0.00    -0.460 OA
BRANCH  35  36
ATOM     36  C   UNL     1      -0.603   7.216  -0.250  1.00  0.00     0.338 C 
ATOM     37  O   UNL     1       0.112   6.623  -1.036  1.00  0.00    -0.246 OA
BRANCH  36  38
ATOM     38  C   UNL     1      -1.873   6.690   0.289  1.00  0.00     0.060 A 
ATOM     39  C   UNL     1      -1.903   5.399   0.828  1.00  0.00     0.016 A 
ATOM     40  C   UNL     1      -3.030   7.474   0.258  1.00  0.00     0.016 A 
ATOM     41  C   UNL     1      -3.105   4.879   1.319  1.00  0.00     0.010 A 
ATOM     42  C   UNL     1      -4.233   6.947   0.733  1.00  0.00     0.010 A 
ATOM     43  C   UNL     1      -4.282   5.638   1.242  1.00  0.00    -0.014 A 
BRANCH  43  44
ATOM     44  C   UNL     1      -5.596   5.016   1.536  1.00  0.00     0.031 A 
ATOM     45  C   UNL     1      -6.384   4.426   0.399  1.00  0.00     0.074 A 
ATOM     46  C   UNL     1      -6.095   4.989   2.785  1.00  0.00     0.049 A 
ATOM     47  N   UNL     1      -7.570   3.873   0.406  1.00  0.00    -0.248 NA
ATOM     48  C   UNL     1      -5.747   4.470  -0.927  1.00  0.00     0.031 C 
ATOM     49  C   UNL     1      -5.427   5.510   3.975  1.00  0.00     0.029 A 
ATOM     50  N   UNL     1      -7.295   4.510   3.252  1.00  0.00    -0.354 N 
ATOM     51  C   UNL     1      -7.819   3.503  -0.908  1.00  0.00     0.074 A 
ATOM     52  C   UNL     1      -6.675   3.916  -1.692  1.00  0.00     0.031 C 
ATOM     53  C   UNL     1      -6.233   5.332   5.038  1.00  0.00     0.029 A 
ATOM     54  C   UNL     1      -7.481   4.709   4.598  1.00  0.00     0.049 A 
ATOM     55  H   UNL     1      -7.958   4.065   2.677  1.00  0.00     0.167 HD
ATOM     56  C   UNL     1      -8.901   2.867  -1.417  1.00  0.00     0.037 A 
ATOM     57  C   UNL     1      -8.546   4.435   5.378  1.00  0.00     0.037 A 
ATOM     58  C   UNL     1     -10.044   2.459  -0.645  1.00  0.00     0.049 A 
ATOM     59  C   UNL     1      -9.766   3.787   4.773  1.00  0.00     0.074 A 
ATOM     60  C   UNL     1     -11.176   1.786  -1.070  1.00  0.00     0.029 A 
ATOM     61  N   UNL     1     -10.204   2.697   0.711  1.00  0.00    -0.354 N 
ATOM     62  N   UNL     1      -9.974   3.398   3.539  1.00  0.00    -0.248 NA
ATOM     63  C   UNL     1     -10.902   3.541   5.675  1.00  0.00     0.031 C 
ATOM     64  C   UNL     1     -12.041   1.653   0.021  1.00  0.00     0.029 A 
ATOM     65  C   UNL     1     -11.428   2.206   1.134  1.00  0.00     0.049 A 
ATOM     66  H   UNL     1      -9.546   3.148   1.287  1.00  0.00     0.167 HD
ATOM     67  C   UNL     1     -11.244   2.835   3.523  1.00  0.00     0.074 A 
ATOM     68  C   UNL     1     -11.759   2.926   4.873  1.00  0.00     0.031 C 
ATOM     69  C   UNL     1     -11.922   2.290   2.484  1.00  0.00     0.037 A 
BRANCH  56  70
ATOM     70  C   UNL     1      -8.907   2.588  -2.889  1.00  0.00     0.064 A 
ATOM     71  C   UNL     1      -8.109   1.577  -3.445  1.00  0.00     0.173 A 
ATOM     72  C   UNL     1      -9.746   3.314  -3.746  1.00  0.00     0.173 A 
ATOM     73  F   UNL     1      -7.280   0.866  -2.666  1.00  0.00    -0.203 F 
ATOM     74  C   UNL     1      -8.139   1.315  -4.812  1.00  0.00     0.198 A 
ATOM     75  C   UNL     1      -9.790   3.034  -5.109  1.00  0.00     0.198 A 
ATOM     76  F   UNL     1     -10.529   4.289  -3.261  1.00  0.00    -0.203 F 
ATOM     77  F   UNL     1      -7.343   0.369  -5.329  1.00  0.00    -0.200 F 
ATOM     78  C   UNL     1      -8.983   2.039  -5.641  1.00  0.00     0.200 A 
ATOM     79  F   UNL     1     -10.612   3.728  -5.908  1.00  0.00    -0.200 F 
ATOM     80  F   UNL     1      -9.016   1.781  -6.956  1.00  0.00    -0.200 F 
ENDBRANCH  56  70
BRANCH  57  81
ATOM     81  C   UNL     1      -8.520   4.777   6.824  1.00  0.00     0.064 A 
ATOM     82  C   UNL     1      -8.480   3.774   7.802  1.00  0.00     0.173 A 
ATOM     83  C   UNL     1      -8.579   6.110   7.256  1.00  0.00     0.173 A 
ATOM     84  F   UNL     1      -8.457   2.484   7.436  1.00  0.00    -0.203 F 
ATOM     85  C   UNL     1      -8.519   4.090   9.158  1.00  0.00     0.198 A 
ATOM     86  C   UNL     1      -8.594   6.426   8.613  1.00  0.00     0.198 A 
ATOM     87  F   UNL     1      -8.631   7.106   6.359  1.00  0.00    -0.203 F 
ATOM     88  F   UNL     1      -8.533   3.110  10.072  1.00  0.00    -0.200 F 
ATOM     89  C   UNL     1      -8.572   5.415   9.563  1.00  0.00     0.200 A 
ATOM     90  F   UNL     1      -8.643   7.707   9.000  1.00  0.00    -0.200 F 
ATOM     91  F   UNL     1      -8.618   5.718  10.868  1.00  0.00    -0.200 F 
ENDBRANCH  57  81
BRANCH  69  92
ATOM     92  C   UNL     1     -13.277   1.712   2.766  1.00  0.00     0.064 A 
ATOM     93  C   UNL     1     -14.393   2.530   2.996  1.00  0.00     0.173 A 
ATOM     94  C   UNL     1     -13.472   0.322   2.756  1.00  0.00     0.173 A 
ATOM     95  F   UNL     1     -14.255   3.864   3.030  1.00  0.00    -0.203 F 
ATOM     96  C   UNL     1     -15.650   1.977   3.225  1.00  0.00     0.198 A 
ATOM     97  C   UNL     1     -14.735  -0.227   2.960  1.00  0.00     0.198 A 
ATOM     98  F   UNL     1     -12.438  -0.503   2.533  1.00  0.00    -0.203 F 
ATOM     99  F   UNL     1     -16.695   2.776   3.480  1.00  0.00    -0.200 F 
ATOM    100  C   UNL     1     -15.821   0.601   3.199  1.00  0.00     0.200 A 
ATOM    101  F   UNL     1     -14.901  -1.556   2.922  1.00  0.00    -0.200 F 
ATOM    102  F   UNL     1     -17.034   0.071   3.411  1.00  0.00    -0.200 F 
ENDBRANCH  69  92
ENDBRANCH  43  44
ENDBRANCH  36  38
ENDBRANCH  35  36
ENDBRANCH  34  35
ENDBRANCH  33  34
ENDBRANCH  32  33
ENDBRANCH  31  32
ENDBRANCH   1  31
TORSDOF 23
