REMARK SMILES CCOc1ccc([C@H](C)[C@](O)(C(=O)OCCOCCOCCOC(=O)c2ccc(-c3c4nc(c(-c5c(F)c(F)c(F)c(F)c5F)c5ccc([nH]5)c(-c5c(F)c(F)c(F)c(F)c5F)c5nc(c(-c6c(F)c(F)c(F)c(F)c6F)c6ccc3[nH]6)C=C5)C=C4)cc2)C(C)C)cc1
REMARK SMILES IDX 18 1 17 2 16 3 15 4 14 5 12 6 13 7 10 8 8 9 9 10 7 11 4 12
REMARK SMILES IDX 5 13 93 14 6 15 92 16 3 17 2 18 1 19 89 20 90 21 91 22 11 23
REMARK SMILES IDX 19 25 20 26 21 27 22 28 23 29 24 30 25 31 26 32 27 33 88 34
REMARK SMILES IDX 28 35 87 36 29 37 30 38 31 39 81 40 32 41 86 42 80 43 82 44
REMARK SMILES IDX 33 45 85 46 79 47 78 48 34 50 66 51 46 52 65 53 47 54 50 55
REMARK SMILES IDX 64 56 83 57 48 58 49 59 63 61 84 62 51 63 35 64 36 65 44 66
REMARK SMILES IDX 37 67 38 68 42 69 45 70 39 71 40 72 43 73 41 74 67 75 68 76
REMARK SMILES IDX 76 77 69 78 70 79 74 80 77 81 71 82 72 83 75 84 73 85 52 86
REMARK SMILES IDX 53 87 61 88 54 89 55 90 59 91 62 92 56 93 57 94 60 95 58 96
REMARK H PARENT 11 24 82 49 50 60
REMARK Flexibility Score: inf
ROOT
ATOM      1  C   UNL     1       9.669  -1.506  -5.545  1.00  0.00     0.188 C 
ENDROOT
BRANCH   1   2
ATOM      2  O   UNL     1      11.017  -1.485  -5.149  1.00  0.00    -0.376 OA
BRANCH   2   3
ATOM      3  C   UNL     1      11.499  -0.418  -4.357  1.00  0.00     0.202 C 
BRANCH   3   4
ATOM      4  C   UNL     1      10.637   0.561  -3.534  1.00  0.00     0.261 C 
BRANCH   4   5
ATOM      5  O   UNL     1       9.222   0.367  -3.449  1.00  0.00    -0.461 OA
BRANCH   5   6
ATOM      6  C   UNL     1       8.434   1.174  -4.231  1.00  0.00     0.339 C 
ATOM      7  O   UNL     1       8.854   1.913  -5.112  1.00  0.00    -0.249 OA
BRANCH   6   8
ATOM      8  C   UNL     1       6.951   1.085  -3.769  1.00  0.00     0.170 C 
BRANCH   8   9
ATOM      9  C   UNL     1       6.714   2.283  -2.753  1.00  0.00     0.060 C 
ATOM     10  C   UNL     1       7.973   2.978  -2.199  1.00  0.00     0.016 C 
BRANCH   9  11
ATOM     11  C   UNL     1       5.729   3.336  -3.217  1.00  0.00    -0.041 A 
ATOM     12  C   UNL     1       3.670   4.885  -4.251  1.00  0.00     0.119 A 
ATOM     13  C   UNL     1       4.894   4.849  -4.911  1.00  0.00     0.047 A 
ATOM     14  C   UNL     1       3.472   4.182  -3.068  1.00  0.00     0.047 A 
ATOM     15  C   UNL     1       5.939   4.097  -4.376  1.00  0.00     0.008 A 
ATOM     16  C   UNL     1       4.511   3.442  -2.529  1.00  0.00     0.008 A 
BRANCH  12  17
ATOM     17  O   UNL     1       2.619   5.549  -4.816  1.00  0.00    -0.494 OA
BRANCH  17  18
ATOM     18  C   UNL     1       2.492   6.867  -4.271  1.00  0.00     0.226 C 
ATOM     19  C   UNL     1       1.749   6.865  -2.943  1.00  0.00     0.049 C 
ENDBRANCH  17  18
ENDBRANCH  12  17
ENDBRANCH   9  11
ENDBRANCH   8   9
BRANCH   8  20
ATOM     20  C   UNL     1       6.003   0.988  -5.035  1.00  0.00     0.027 C 
ATOM     21  C   UNL     1       6.372  -0.119  -6.038  1.00  0.00     0.011 C 
ATOM     22  C   UNL     1       4.521   0.733  -4.712  1.00  0.00     0.011 C 
ENDBRANCH   8  20
BRANCH   8  23
ATOM     23  O   UNL     1       6.694  -0.120  -3.016  1.00  0.00    -0.377 OA
ATOM     24  H   UNL     1       6.824  -0.893  -3.588  1.00  0.00     0.212 HD
ENDBRANCH   8  23
ENDBRANCH   6   8
ENDBRANCH   5   6
ENDBRANCH   4   5
ENDBRANCH   3   4
ENDBRANCH   2   3
ENDBRANCH   1   2
BRANCH   1  25
ATOM     25  C   UNL     1       8.730  -2.231  -4.562  1.00  0.00     0.188 C 
BRANCH  25  26
ATOM     26  O   UNL     1       9.253  -2.853  -3.403  1.00  0.00    -0.376 OA
BRANCH  26  27
ATOM     27  C   UNL     1      10.351  -3.738  -3.558  1.00  0.00     0.202 C 
BRANCH  27  28
ATOM     28  C   UNL     1      10.362  -4.802  -4.675  1.00  0.00     0.261 C 
BRANCH  28  29
ATOM     29  O   UNL     1       9.851  -4.400  -5.962  1.00  0.00    -0.460 OA
BRANCH  29  30
ATOM     30  C   UNL     1       8.664  -4.945  -6.333  1.00  0.00     0.338 C 
ATOM     31  O   UNL     1       8.014  -5.782  -5.722  1.00  0.00    -0.246 OA
BRANCH  30  32
ATOM     32  C   UNL     1       8.125  -4.229  -7.515  1.00  0.00     0.060 A 
ATOM     33  C   UNL     1       6.915  -3.530  -7.382  1.00  0.00     0.016 A 
ATOM     34  C   UNL     1       8.771  -4.268  -8.750  1.00  0.00     0.016 A 
ATOM     35  C   UNL     1       6.353  -2.864  -8.474  1.00  0.00     0.010 A 
ATOM     36  C   UNL     1       8.184  -3.635  -9.857  1.00  0.00     0.010 A 
ATOM     37  C   UNL     1       6.964  -2.941  -9.730  1.00  0.00    -0.014 A 
BRANCH  37  38
ATOM     38  C   UNL     1       6.237  -2.477 -10.941  1.00  0.00     0.031 A 
ATOM     39  C   UNL     1       5.410  -3.475 -11.704  1.00  0.00     0.074 A 
ATOM     40  C   UNL     1       6.285  -1.199 -11.361  1.00  0.00     0.049 A 
ATOM     41  N   UNL     1       4.782  -3.345 -12.845  1.00  0.00    -0.248 NA
ATOM     42  C   UNL     1       5.272  -4.804 -11.089  1.00  0.00     0.031 C 
ATOM     43  C   UNL     1       6.969  -0.107 -10.676  1.00  0.00     0.029 A 
ATOM     44  N   UNL     1       5.751  -0.612 -12.485  1.00  0.00    -0.354 N 
ATOM     45  C   UNL     1       4.184  -4.574 -13.088  1.00  0.00     0.074 A 
ATOM     46  C   UNL     1       4.538  -5.443 -11.987  1.00  0.00     0.031 C 
ATOM     47  C   UNL     1       6.835   1.015 -11.407  1.00  0.00     0.029 A 
ATOM     48  C   UNL     1       6.095   0.710 -12.633  1.00  0.00     0.049 A 
ATOM     49  H   UNL     1       5.176  -1.093 -13.123  1.00  0.00     0.167 HD
ATOM     50  C   UNL     1       3.410  -4.947 -14.136  1.00  0.00     0.037 A 
ATOM     51  C   UNL     1       5.871   1.561 -13.655  1.00  0.00     0.037 A 
ATOM     52  C   UNL     1       3.066  -4.091 -15.240  1.00  0.00     0.049 A 
ATOM     53  C   UNL     1       5.112   1.085 -14.873  1.00  0.00     0.074 A 
ATOM     54  C   UNL     1       2.295  -4.386 -16.351  1.00  0.00     0.029 A 
ATOM     55  N   UNL     1       3.483  -2.776 -15.381  1.00  0.00    -0.354 N 
ATOM     56  N   UNL     1       4.553  -0.078 -15.103  1.00  0.00    -0.248 NA
ATOM     57  C   UNL     1       4.958   2.045 -15.979  1.00  0.00     0.031 C 
ATOM     58  C   UNL     1       2.299  -3.271 -17.195  1.00  0.00     0.029 A 
ATOM     59  C   UNL     1       3.013  -2.257 -16.577  1.00  0.00     0.049 A 
ATOM     60  H   UNL     1       4.032  -2.284 -14.728  1.00  0.00     0.167 HD
ATOM     61  C   UNL     1       3.955   0.021 -16.355  1.00  0.00     0.074 A 
ATOM     62  C   UNL     1       4.209   1.362 -16.834  1.00  0.00     0.031 C 
ATOM     63  C   UNL     1       3.256  -0.915 -17.043  1.00  0.00     0.037 A 
BRANCH  50  64
ATOM     64  C   UNL     1       2.921  -6.367 -14.160  1.00  0.00     0.064 A 
ATOM     65  C   UNL     1       1.949  -6.832 -13.262  1.00  0.00     0.173 A 
ATOM     66  C   UNL     1       3.420  -7.269 -15.113  1.00  0.00     0.173 A 
ATOM     67  F   UNL     1       1.450  -6.014 -12.323  1.00  0.00    -0.203 F 
ATOM     68  C   UNL     1       1.516  -8.155 -13.298  1.00  0.00     0.198 A 
ATOM     69  C   UNL     1       2.961  -8.581 -15.167  1.00  0.00     0.198 A 
ATOM     70  F   UNL     1       4.348  -6.874 -15.997  1.00  0.00    -0.203 F 
ATOM     71  F   UNL     1       0.626  -8.592 -12.396  1.00  0.00    -0.200 F 
ATOM     72  C   UNL     1       2.017  -9.026 -14.255  1.00  0.00     0.200 A 
ATOM     73  F   UNL     1       3.434  -9.416 -16.102  1.00  0.00    -0.200 F 
ATOM     74  F   UNL     1       1.595 -10.297 -14.292  1.00  0.00    -0.200 F 
ENDBRANCH  50  64
BRANCH  51  75
ATOM     75  C   UNL     1       6.405   2.951 -13.607  1.00  0.00     0.064 A 
ATOM     76  C   UNL     1       5.546   4.059 -13.576  1.00  0.00     0.173 A 
ATOM     77  C   UNL     1       7.785   3.202 -13.648  1.00  0.00     0.173 A 
ATOM     78  F   UNL     1       4.217   3.875 -13.575  1.00  0.00    -0.203 F 
ATOM     79  C   UNL     1       6.044   5.361 -13.610  1.00  0.00     0.198 A 
ATOM     80  C   UNL     1       8.283   4.504 -13.647  1.00  0.00     0.198 A 
ATOM     81  F   UNL     1       8.654   2.181 -13.694  1.00  0.00    -0.203 F 
ATOM     82  F   UNL     1       5.197   6.399 -13.643  1.00  0.00    -0.200 F 
ATOM     83  C   UNL     1       7.412   5.582 -13.639  1.00  0.00     0.200 A 
ATOM     84  F   UNL     1       9.607   4.713 -13.669  1.00  0.00    -0.200 F 
ATOM     85  F   UNL     1       7.891   6.833 -13.675  1.00  0.00    -0.200 F 
ENDBRANCH  51  75
BRANCH  63  86
ATOM     86  C   UNL     1       2.667  -0.520 -18.370  1.00  0.00     0.064 A 
ATOM     87  C   UNL     1       3.466  -0.294 -19.500  1.00  0.00     0.173 A 
ATOM     88  C   UNL     1       1.274  -0.428 -18.526  1.00  0.00     0.173 A 
ATOM     89  F   UNL     1       4.803  -0.357 -19.405  1.00  0.00    -0.203 F 
ATOM     90  C   UNL     1       2.896   0.031 -20.729  1.00  0.00     0.198 A 
ATOM     91  C   UNL     1       0.706  -0.137 -19.764  1.00  0.00     0.198 A 
ATOM     92  F   UNL     1       0.460  -0.643 -17.482  1.00  0.00    -0.203 F 
ATOM     93  F   UNL     1       3.682   0.287 -21.784  1.00  0.00    -0.200 F 
ATOM     94  C   UNL     1       1.517   0.100 -20.862  1.00  0.00     0.200 A 
ATOM     95  F   UNL     1      -0.627  -0.090 -19.893  1.00  0.00    -0.200 F 
ATOM     96  F   UNL     1       0.970   0.397 -22.049  1.00  0.00    -0.200 F 
ENDBRANCH  63  86
ENDBRANCH  37  38
ENDBRANCH  30  32
ENDBRANCH  29  30
ENDBRANCH  28  29
ENDBRANCH  27  28
ENDBRANCH  26  27
ENDBRANCH  25  26
ENDBRANCH   1  25
TORSDOF 23
