REMARK SMILES Cc1cc2c(c(C)c1Cl)C=C(C(=O)OCCOCCOCCOC(=O)c1ccc(-c3c4nc(c(-c5c(F)c(F)c(F)c(F)c5F)c5ccc([nH]5)c(-c5c(F)c(F)c(F)c(F)c5F)c5nc(c(-c6c(F)c(F)c(F)c(F)c6F)c6ccc3[nH]6)C=C5)C=C4)cc1)[C@@H](C(F)(F)F)O2
REMARK SMILES IDX 19 1 18 2 17 3 16 4 15 5 14 6 12 7 13 8 11 9 1 10 2 11 3 12
REMARK SMILES IDX 8 13 4 14 6 15 9 16 5 17 94 18 7 19 10 20 89 21 90 22 91 23
REMARK SMILES IDX 92 24 93 25 20 26 21 27 22 28 23 29 24 30 25 31 26 32 27 33
REMARK SMILES IDX 88 34 28 35 87 36 29 37 30 38 31 39 81 40 32 41 86 42 80 43
REMARK SMILES IDX 82 44 33 45 85 46 79 47 78 48 34 50 66 51 46 52 65 53 47 54
REMARK SMILES IDX 50 55 64 56 83 57 48 58 49 59 63 61 84 62 51 63 35 64 36 65
REMARK SMILES IDX 44 66 37 67 38 68 42 69 45 70 39 71 40 72 43 73 41 74 67 75
REMARK SMILES IDX 68 76 76 77 69 78 70 79 74 80 77 81 71 82 72 83 75 84 73 85
REMARK SMILES IDX 52 86 53 87 61 88 54 89 55 90 59 91 62 92 56 93 57 94 60 95
REMARK SMILES IDX 58 96
REMARK H PARENT 82 49 50 60
REMARK Flexibility Score: inf
ROOT
ATOM      1  C   UNL     1      -3.773  -0.870  -6.988  1.00  0.00     0.188 C 
ENDROOT
BRANCH   1   2
ATOM      2  C   UNL     1      -3.296   0.212  -7.979  1.00  0.00     0.188 C 
BRANCH   2   3
ATOM      3  O   UNL     1      -3.504   0.034  -9.361  1.00  0.00    -0.376 OA
BRANCH   3   4
ATOM      4  C   UNL     1      -2.837  -0.990 -10.079  1.00  0.00     0.202 C 
BRANCH   4   5
ATOM      5  C   UNL     1      -1.515  -1.644  -9.646  1.00  0.00     0.261 C 
BRANCH   5   6
ATOM      6  O   UNL     1      -1.279  -1.748  -8.238  1.00  0.00    -0.460 OA
BRANCH   6   7
ATOM      7  C   UNL     1      -0.287  -0.959  -7.760  1.00  0.00     0.338 C 
ATOM      8  O   UNL     1       0.412  -0.194  -8.402  1.00  0.00    -0.246 OA
BRANCH   7   9
ATOM      9  C   UNL     1      -0.268  -1.029  -6.284  1.00  0.00     0.087 C 
ATOM     10  C   UNL     1       0.918  -0.229   0.017  1.00  0.00     0.046 C 
ATOM     11  C   UNL     1       0.489  -0.057  -1.417  1.00  0.00    -0.028 A 
ATOM     12  C   UNL     1       0.217  -1.204  -2.172  1.00  0.00     0.052 A 
ATOM     13  C   UNL     1       0.428   1.202  -2.045  1.00  0.00     0.047 A 
ATOM     14  C   UNL     1      -0.050  -1.115  -3.536  1.00  0.00     0.128 A 
ATOM     15  C   UNL     1       0.121   1.316  -3.422  1.00  0.00    -0.021 A 
ATOM     16  Cl  UNL     1       0.779   2.619  -1.101  1.00  0.00    -0.084 Cl
ATOM     17  C   UNL     1      -0.064   0.129  -4.177  1.00  0.00     0.022 A 
ATOM     18  O   UNL     1      -0.277  -2.311  -4.157  1.00  0.00    -0.475 OA
ATOM     19  C   UNL     1       0.001   2.662  -4.101  1.00  0.00     0.047 C 
ATOM     20  C   UNL     1      -0.193   0.140  -5.633  1.00  0.00     0.027 C 
ATOM     21  C   UNL     1      -0.331  -2.365  -5.605  1.00  0.00     0.316 C 
BRANCH  21  22
ATOM     22  C   UNL     1       0.762  -3.323  -6.099  1.00  0.00     0.430 C 
ATOM     23  F   UNL     1       0.727  -4.499  -5.429  1.00  0.00    -0.167 F 
ATOM     24  F   UNL     1       0.613  -3.619  -7.412  1.00  0.00    -0.167 F 
ATOM     25  F   UNL     1       2.000  -2.800  -5.941  1.00  0.00    -0.167 F 
ENDBRANCH  21  22
ENDBRANCH   7   9
ENDBRANCH   6   7
ENDBRANCH   5   6
ENDBRANCH   4   5
ENDBRANCH   3   4
ENDBRANCH   2   3
ENDBRANCH   1   2
BRANCH   1  26
ATOM     26  O   UNL     1      -4.293  -2.088  -7.470  1.00  0.00    -0.376 OA
BRANCH  26  27
ATOM     27  C   UNL     1      -5.500  -2.085  -8.218  1.00  0.00     0.202 C 
BRANCH  27  28
ATOM     28  C   UNL     1      -6.636  -1.062  -8.020  1.00  0.00     0.261 C 
BRANCH  28  29
ATOM     29  O   UNL     1      -6.251   0.286  -7.718  1.00  0.00    -0.460 OA
BRANCH  29  30
ATOM     30  C   UNL     1      -6.580   0.725  -6.474  1.00  0.00     0.338 C 
ATOM     31  O   UNL     1      -7.168   0.116  -5.603  1.00  0.00    -0.246 OA
BRANCH  30  32
ATOM     32  C   UNL     1      -5.918   2.025  -6.239  1.00  0.00     0.060 A 
ATOM     33  C   UNL     1      -4.865   2.082  -5.315  1.00  0.00     0.016 A 
ATOM     34  C   UNL     1      -6.338   3.175  -6.906  1.00  0.00     0.016 A 
ATOM     35  C   UNL     1      -4.220   3.291  -5.063  1.00  0.00     0.010 A 
ATOM     36  C   UNL     1      -5.714   4.396  -6.625  1.00  0.00     0.010 A 
ATOM     37  C   UNL     1      -4.664   4.462  -5.690  1.00  0.00    -0.014 A 
BRANCH  37  38
ATOM     38  C   UNL     1      -4.173   5.770  -5.191  1.00  0.00     0.031 A 
ATOM     39  C   UNL     1      -4.975   6.464  -4.126  1.00  0.00     0.074 A 
ATOM     40  C   UNL     1      -3.013   6.301  -5.616  1.00  0.00     0.049 A 
ATOM     41  N   UNL     1      -4.752   7.604  -3.526  1.00  0.00    -0.248 NA
ATOM     42  C   UNL     1      -6.191   5.771  -3.670  1.00  0.00     0.031 C 
ATOM     43  C   UNL     1      -2.114   5.697  -6.595  1.00  0.00     0.029 A 
ATOM     44  N   UNL     1      -2.391   7.475  -5.265  1.00  0.00    -0.354 N 
ATOM     45  C   UNL     1      -5.790   7.758  -2.618  1.00  0.00     0.074 A 
ATOM     46  C   UNL     1      -6.667   6.619  -2.773  1.00  0.00     0.031 C 
ATOM     47  C   UNL     1      -1.052   6.505  -6.768  1.00  0.00     0.029 A 
ATOM     48  C   UNL     1      -1.213   7.699  -5.936  1.00  0.00     0.049 A 
ATOM     49  H   UNL     1      -2.755   8.098  -4.596  1.00  0.00     0.167 HD
ATOM     50  C   UNL     1      -5.985   8.751  -1.720  1.00  0.00     0.037 A 
ATOM     51  C   UNL     1      -0.373   8.755  -5.892  1.00  0.00     0.037 A 
ATOM     52  C   UNL     1      -5.116   9.886  -1.567  1.00  0.00     0.049 A 
ATOM     53  C   UNL     1      -0.680   9.912  -4.971  1.00  0.00     0.074 A 
ATOM     54  C   UNL     1      -5.232  10.942  -0.682  1.00  0.00     0.029 A 
ATOM     55  N   UNL     1      -3.977  10.116  -2.323  1.00  0.00    -0.354 N 
ATOM     56  N   UNL     1      -1.650  10.040  -4.097  1.00  0.00    -0.248 NA
ATOM     57  C   UNL     1       0.220  11.075  -5.034  1.00  0.00     0.031 C 
ATOM     58  C   UNL     1      -4.196  11.842  -0.942  1.00  0.00     0.029 A 
ATOM     59  C   UNL     1      -3.403  11.320  -1.951  1.00  0.00     0.049 A 
ATOM     60  H   UNL     1      -3.629   9.514  -3.020  1.00  0.00     0.167 HD
ATOM     61  C   UNL     1      -1.466  11.281  -3.497  1.00  0.00     0.074 A 
ATOM     62  C   UNL     1      -0.281  11.861  -4.090  1.00  0.00     0.031 C 
ATOM     63  C   UNL     1      -2.218  11.886  -2.545  1.00  0.00     0.037 A 
BRANCH  50  64
ATOM     64  C   UNL     1      -7.194   8.663  -0.839  1.00  0.00     0.064 A 
ATOM     65  C   UNL     1      -7.280   7.719   0.195  1.00  0.00     0.173 A 
ATOM     66  C   UNL     1      -8.254   9.568  -0.994  1.00  0.00     0.173 A 
ATOM     67  F   UNL     1      -6.299   6.821   0.373  1.00  0.00    -0.203 F 
ATOM     68  C   UNL     1      -8.391   7.674   1.032  1.00  0.00     0.198 A 
ATOM     69  C   UNL     1      -9.349   9.540  -0.136  1.00  0.00     0.198 A 
ATOM     70  F   UNL     1      -8.219  10.491  -1.966  1.00  0.00    -0.203 F 
ATOM     71  F   UNL     1      -8.470   6.739   1.989  1.00  0.00    -0.200 F 
ATOM     72  C   UNL     1      -9.419   8.591   0.873  1.00  0.00     0.200 A 
ATOM     73  F   UNL     1     -10.335  10.436  -0.282  1.00  0.00    -0.200 F 
ATOM     74  F   UNL     1     -10.481   8.558   1.690  1.00  0.00    -0.200 F 
ENDBRANCH  50  64
BRANCH  51  75
ATOM     75  C   UNL     1       0.841   8.777  -6.752  1.00  0.00     0.064 A 
ATOM     76  C   UNL     1       2.125   8.730  -6.191  1.00  0.00     0.173 A 
ATOM     77  C   UNL     1       0.746   8.863  -8.150  1.00  0.00     0.173 A 
ATOM     78  F   UNL     1       2.272   8.681  -4.859  1.00  0.00    -0.203 F 
ATOM     79  C   UNL     1       3.265   8.775  -6.993  1.00  0.00     0.198 A 
ATOM     80  C   UNL     1       1.885   8.879  -8.952  1.00  0.00     0.198 A 
ATOM     81  F   UNL     1      -0.458   8.924  -8.738  1.00  0.00    -0.203 F 
ATOM     82  F   UNL     1       4.480   8.772  -6.427  1.00  0.00    -0.200 F 
ATOM     83  C   UNL     1       3.144   8.840  -8.373  1.00  0.00     0.200 A 
ATOM     84  F   UNL     1       1.763   8.934 -10.285  1.00  0.00    -0.200 F 
ATOM     85  F   UNL     1       4.240   8.876  -9.143  1.00  0.00    -0.200 F 
ENDBRANCH  51  75
BRANCH  63  86
ATOM     86  C   UNL     1      -1.802  13.249  -2.070  1.00  0.00     0.064 A 
ATOM     87  C   UNL     1      -1.983  14.384  -2.873  1.00  0.00     0.173 A 
ATOM     88  C   UNL     1      -1.341  13.439  -0.757  1.00  0.00     0.173 A 
ATOM     89  F   UNL     1      -2.412  14.256  -4.137  1.00  0.00    -0.203 F 
ATOM     90  C   UNL     1      -1.718  15.660  -2.379  1.00  0.00     0.198 A 
ATOM     91  C   UNL     1      -1.107  14.718  -0.258  1.00  0.00     0.198 A 
ATOM     92  F   UNL     1      -1.163  12.387   0.056  1.00  0.00    -0.203 F 
ATOM     93  F   UNL     1      -1.882  16.729  -3.170  1.00  0.00    -0.200 F 
ATOM     94  C   UNL     1      -1.296  15.826  -1.069  1.00  0.00     0.200 A 
ATOM     95  F   UNL     1      -0.720  14.878   1.015  1.00  0.00    -0.200 F 
ATOM     96  F   UNL     1      -1.074  17.057  -0.586  1.00  0.00    -0.200 F 
ENDBRANCH  63  86
ENDBRANCH  37  38
ENDBRANCH  30  32
ENDBRANCH  29  30
ENDBRANCH  28  29
ENDBRANCH  27  28
ENDBRANCH  26  27
ENDBRANCH   1  26
TORSDOF 18
