REMARK SMILES CC1(C)CSC[C@H](N(CCC(=O)OCCOCCOCCOC(=O)c2ccc(-c3c4nc(c(-c5c(F)c(F)c(F)c(F)c5F)c5ccc([nH]5)c(-c5c(F)c(F)c(F)c(F)c5F)c5nc(c(-c6c(F)c(F)c(F)c(F)c6F)c6ccc3[nH]6)C=C5)C=C4)cc2)c2ccccc2)C1
REMARK SMILES IDX 17 1 16 2 15 3 14 4 13 5 11 6 12 7 10 8 9 9 8 10 7 11 1 12
REMARK SMILES IDX 2 13 3 14 4 15 94 16 5 17 6 18 88 19 89 20 93 21 90 22 92 23
REMARK SMILES IDX 91 24 18 25 19 26 20 27 21 28 22 29 23 30 24 31 25 32 26 33
REMARK SMILES IDX 87 34 27 35 86 36 28 37 29 38 30 39 80 40 31 41 85 42 79 43
REMARK SMILES IDX 81 44 32 45 84 46 78 47 77 48 33 50 65 51 45 52 64 53 46 54
REMARK SMILES IDX 49 55 63 56 82 57 47 58 48 59 62 61 83 62 50 63 34 64 35 65
REMARK SMILES IDX 43 66 36 67 37 68 41 69 44 70 38 71 39 72 42 73 40 74 66 75
REMARK SMILES IDX 67 76 75 77 68 78 69 79 73 80 76 81 70 82 71 83 74 84 72 85
REMARK SMILES IDX 51 86 52 87 60 88 53 89 54 90 58 91 61 92 55 93 56 94 59 95
REMARK SMILES IDX 57 96
REMARK H PARENT 81 49 49 60
REMARK Flexibility Score: inf
ROOT
ATOM      1  C   UNL     1      -5.588   0.361  -4.837  1.00  0.00     0.188 C 
ENDROOT
BRANCH   1   2
ATOM      2  O   UNL     1      -6.159  -0.925  -5.010  1.00  0.00    -0.376 OA
BRANCH   2   3
ATOM      3  C   UNL     1      -5.380  -1.974  -4.430  1.00  0.00     0.202 C 
BRANCH   3   4
ATOM      4  C   UNL     1      -4.120  -2.294  -5.252  1.00  0.00     0.261 C 
BRANCH   4   5
ATOM      5  O   UNL     1      -2.994  -1.518  -4.777  1.00  0.00    -0.463 OA
BRANCH   5   6
ATOM      6  C   UNL     1      -2.484  -0.521  -5.538  1.00  0.00     0.307 C 
ATOM      7  O   UNL     1      -2.825  -0.277  -6.689  1.00  0.00    -0.252 OA
BRANCH   6   8
ATOM      8  C   UNL     1      -1.452   0.297  -4.780  1.00  0.00     0.144 C 
BRANCH   8   9
ATOM      9  C   UNL     1      -2.016   1.080  -3.588  1.00  0.00     0.128 C 
BRANCH   9  10
ATOM     10  N   UNL     1      -1.555   0.645  -2.257  1.00  0.00    -0.367 N 
BRANCH  10  11
ATOM     11  C   UNL     1      -0.232   1.017  -1.676  1.00  0.00     0.092 C 
ATOM     12  C   UNL     1       2.012   0.121   0.386  1.00  0.00     0.012 C 
ATOM     13  C   UNL     1       1.030   1.284   0.628  1.00  0.00    -0.024 C 
ATOM     14  C   UNL     1       0.717   1.321   2.142  1.00  0.00     0.012 C 
ATOM     15  C   UNL     1       1.635   2.641   0.232  1.00  0.00     0.076 C 
ATOM     16  C   UNL     1      -0.291   1.020  -0.122  1.00  0.00     0.033 C 
ATOM     17  S   UNL     1       1.922   2.832  -1.551  1.00  0.00    -0.159 SA
ATOM     18  C   UNL     1       0.257   2.400  -2.154  1.00  0.00     0.094 C 
ENDBRANCH  10  11
BRANCH  10  19
ATOM     19  C   UNL     1      -2.254  -0.414  -1.675  1.00  0.00     0.037 A 
ATOM     20  C   UNL     1      -2.113  -1.734  -2.109  1.00  0.00     0.026 A 
ATOM     21  C   UNL     1      -3.096  -0.180  -0.580  1.00  0.00     0.026 A 
ATOM     22  C   UNL     1      -2.853  -2.772  -1.532  1.00  0.00     0.002 A 
ATOM     23  C   UNL     1      -3.763  -1.226   0.063  1.00  0.00     0.002 A 
ATOM     24  C   UNL     1      -3.673  -2.519  -0.438  1.00  0.00     0.000 A 
ENDBRANCH  10  19
ENDBRANCH   9  10
ENDBRANCH   8   9
ENDBRANCH   6   8
ENDBRANCH   5   6
ENDBRANCH   4   5
ENDBRANCH   3   4
ENDBRANCH   2   3
ENDBRANCH   1   2
BRANCH   1  25
ATOM     25  C   UNL     1      -6.104   1.075  -3.607  1.00  0.00     0.188 C 
BRANCH  25  26
ATOM     26  O   UNL     1      -5.626   0.601  -2.355  1.00  0.00    -0.376 OA
BRANCH  26  27
ATOM     27  C   UNL     1      -6.652   0.282  -1.417  1.00  0.00     0.202 C 
BRANCH  27  28
ATOM     28  C   UNL     1      -7.538   1.427  -0.881  1.00  0.00     0.261 C 
BRANCH  28  29
ATOM     29  O   UNL     1      -7.949   2.373  -1.875  1.00  0.00    -0.460 OA
BRANCH  29  30
ATOM     30  C   UNL     1      -7.135   3.453  -2.044  1.00  0.00     0.338 C 
ATOM     31  O   UNL     1      -6.213   3.797  -1.339  1.00  0.00    -0.246 OA
BRANCH  30  32
ATOM     32  C   UNL     1      -7.407   4.006  -3.401  1.00  0.00     0.060 A 
ATOM     33  C   UNL     1      -6.322   4.446  -4.181  1.00  0.00     0.016 A 
ATOM     34  C   UNL     1      -8.690   3.962  -3.950  1.00  0.00     0.016 A 
ATOM     35  C   UNL     1      -6.518   4.838  -5.508  1.00  0.00     0.010 A 
ATOM     36  C   UNL     1      -8.890   4.378  -5.264  1.00  0.00     0.010 A 
ATOM     37  C   UNL     1      -7.812   4.843  -6.038  1.00  0.00    -0.014 A 
BRANCH  37  38
ATOM     38  C   UNL     1      -8.127   5.580  -7.282  1.00  0.00     0.031 A 
ATOM     39  C   UNL     1      -8.652   6.977  -7.124  1.00  0.00     0.074 A 
ATOM     40  C   UNL     1      -8.047   5.010  -8.495  1.00  0.00     0.049 A 
ATOM     41  N   UNL     1      -9.218   7.764  -8.000  1.00  0.00    -0.248 NA
ATOM     42  C   UNL     1      -8.552   7.550  -5.770  1.00  0.00     0.031 C 
ATOM     43  C   UNL     1      -7.521   3.677  -8.775  1.00  0.00     0.029 A 
ATOM     44  N   UNL     1      -8.454   5.481  -9.719  1.00  0.00    -0.354 N 
ATOM     45  C   UNL     1      -9.570   8.907  -7.296  1.00  0.00     0.074 A 
ATOM     46  C   UNL     1      -9.178   8.704  -5.920  1.00  0.00     0.031 C 
ATOM     47  C   UNL     1      -7.670   3.421 -10.087  1.00  0.00     0.029 A 
ATOM     48  C   UNL     1      -8.345   4.552 -10.725  1.00  0.00     0.049 A 
ATOM     49  H   UNL     1      -8.791   6.394  -9.862  1.00  0.00     0.167 HD
ATOM     50  C   UNL     1     -10.173  10.026  -7.759  1.00  0.00     0.037 A 
ATOM     51  C   UNL     1      -8.784   4.599 -11.998  1.00  0.00     0.037 A 
ATOM     52  C   UNL     1     -10.562  10.212  -9.130  1.00  0.00     0.049 A 
ATOM     53  C   UNL     1      -9.502   5.835 -12.487  1.00  0.00     0.074 A 
ATOM     54  C   UNL     1     -11.146  11.319  -9.717  1.00  0.00     0.029 A 
ATOM     55  N   UNL     1     -10.418   9.255 -10.125  1.00  0.00    -0.354 N 
ATOM     56  N   UNL     1      -9.811   6.928 -11.831  1.00  0.00    -0.248 NA
ATOM     57  C   UNL     1      -9.932   5.843 -13.892  1.00  0.00     0.031 C 
ATOM     58  C   UNL     1     -11.418  11.007 -11.053  1.00  0.00     0.029 A 
ATOM     59  C   UNL     1     -10.932   9.735 -11.317  1.00  0.00     0.049 A 
ATOM     60  H   UNL     1     -10.012   8.367 -10.001  1.00  0.00     0.167 HD
ATOM     61  C   UNL     1     -10.436   7.765 -12.748  1.00  0.00     0.074 A 
ATOM     62  C   UNL     1     -10.462   7.053 -14.008  1.00  0.00     0.031 C 
ATOM     63  C   UNL     1     -10.936   9.014 -12.566  1.00  0.00     0.037 A 
BRANCH  50  64
ATOM     64  C   UNL     1     -10.490  11.101  -6.760  1.00  0.00     0.064 A 
ATOM     65  C   UNL     1      -9.486  11.839  -6.114  1.00  0.00     0.173 A 
ATOM     66  C   UNL     1     -11.825  11.391  -6.438  1.00  0.00     0.173 A 
ATOM     67  F   UNL     1      -8.193  11.588  -6.369  1.00  0.00    -0.203 F 
ATOM     68  C   UNL     1      -9.805  12.796  -5.154  1.00  0.00     0.198 A 
ATOM     69  C   UNL     1     -12.141  12.376  -5.507  1.00  0.00     0.198 A 
ATOM     70  F   UNL     1     -12.825  10.715  -7.024  1.00  0.00    -0.203 F 
ATOM     71  F   UNL     1      -8.827  13.437  -4.500  1.00  0.00    -0.200 F 
ATOM     72  C   UNL     1     -11.131  13.069  -4.857  1.00  0.00     0.200 A 
ATOM     73  F   UNL     1     -13.424  12.646  -5.231  1.00  0.00    -0.200 F 
ATOM     74  F   UNL     1     -11.437  13.992  -3.935  1.00  0.00    -0.200 F 
ENDBRANCH  50  64
BRANCH  51  75
ATOM     75  C   UNL     1      -8.575   3.432 -12.896  1.00  0.00     0.064 A 
ATOM     76  C   UNL     1      -7.687   3.502 -13.978  1.00  0.00     0.173 A 
ATOM     77  C   UNL     1      -9.251   2.221 -12.687  1.00  0.00     0.173 A 
ATOM     78  F   UNL     1      -7.039   4.647 -14.239  1.00  0.00    -0.203 F 
ATOM     79  C   UNL     1      -7.490   2.409 -14.821  1.00  0.00     0.198 A 
ATOM     80  C   UNL     1      -9.032   1.120 -13.512  1.00  0.00     0.198 A 
ATOM     81  F   UNL     1     -10.118   2.102 -11.670  1.00  0.00    -0.203 F 
ATOM     82  F   UNL     1      -6.667   2.517 -15.873  1.00  0.00    -0.200 F 
ATOM     83  C   UNL     1      -8.156   1.216 -14.582  1.00  0.00     0.200 A 
ATOM     84  F   UNL     1      -9.670  -0.034 -13.272  1.00  0.00    -0.200 F 
ATOM     85  F   UNL     1      -7.959   0.163 -15.387  1.00  0.00    -0.200 F 
ENDBRANCH  51  75
BRANCH  63  86
ATOM     86  C   UNL     1     -11.502   9.723 -13.764  1.00  0.00     0.064 A 
ATOM     87  C   UNL     1     -12.720   9.347 -14.346  1.00  0.00     0.173 A 
ATOM     88  C   UNL     1     -10.844  10.848 -14.289  1.00  0.00     0.173 A 
ATOM     89  F   UNL     1     -13.385   8.275 -13.890  1.00  0.00    -0.203 F 
ATOM     90  C   UNL     1     -13.249  10.059 -15.421  1.00  0.00     0.198 A 
ATOM     91  C   UNL     1     -11.392  11.577 -15.340  1.00  0.00     0.198 A 
ATOM     92  F   UNL     1      -9.680  11.258 -13.761  1.00  0.00    -0.203 F 
ATOM     93  F   UNL     1     -14.395   9.657 -15.988  1.00  0.00    -0.200 F 
ATOM     94  C   UNL     1     -12.591  11.178 -15.909  1.00  0.00     0.200 A 
ATOM     95  F   UNL     1     -10.764  12.669 -15.795  1.00  0.00    -0.200 F 
ATOM     96  F   UNL     1     -13.111  11.871 -16.931  1.00  0.00    -0.200 F 
ENDBRANCH  63  86
ENDBRANCH  37  38
ENDBRANCH  30  32
ENDBRANCH  29  30
ENDBRANCH  28  29
ENDBRANCH  27  28
ENDBRANCH  26  27
ENDBRANCH  25  26
ENDBRANCH   1  25
TORSDOF 21
