REMARK SMILES O=C(OCCOCCOCCOC(=O)c1ccc(N2C(=O)N=C(O)/C(=C\c3cccs3)C2=O)cc1)c1ccc(-c2c3nc(c(-c4c(F)c(F)c(F)c(F)c4F)c4ccc([nH]4)c(-c4c(F)c(F)c(F)c(F)c4F)c4nc(c(-c5c(F)c(F)c(F)c(F)c5F)c5ccc2[nH]5)C=C4)C=C3)cc1
REMARK SMILES IDX 7 1 6 2 5 3 4 4 3 5 2 6 1 7 36 8 37 9 98 10 38 11 97 12
REMARK SMILES IDX 39 13 40 14 41 15 91 16 42 17 96 18 90 19 92 20 43 21 95 22
REMARK SMILES IDX 89 23 88 24 44 26 76 27 56 28 75 29 57 30 60 31 74 32 93 33
REMARK SMILES IDX 58 34 59 35 73 37 94 38 61 39 45 40 46 41 54 42 47 43 48 44
REMARK SMILES IDX 52 45 55 46 49 47 50 48 53 49 51 50 77 51 78 52 86 53 79 54
REMARK SMILES IDX 80 55 84 56 87 57 81 58 82 59 85 60 83 61 62 62 63 63 71 64
REMARK SMILES IDX 64 65 65 66 69 67 72 68 66 69 67 70 70 71 68 72 8 73 9 74
REMARK SMILES IDX 10 75 11 76 12 77 13 78 14 79 15 80 16 81 35 82 17 83 34 84
REMARK SMILES IDX 18 85 19 86 20 87 32 88 21 89 22 90 25 91 33 92 23 93 26 94
REMARK SMILES IDX 24 95 27 97 28 98 31 99 29 100 30 101
REMARK H PARENT 92 25 60 36 24 96
REMARK Flexibility Score: inf
ROOT
ATOM      1  C   UNL     1       2.518   1.963   0.248  1.00  0.00     0.188 C 
ENDROOT
BRANCH   1   2
ATOM      2  O   UNL     1       3.841   1.554   0.589  1.00  0.00    -0.376 OA
BRANCH   2   3
ATOM      3  C   UNL     1       4.697   1.244  -0.515  1.00  0.00     0.202 C 
BRANCH   3   4
ATOM      4  C   UNL     1       4.249   0.116  -1.472  1.00  0.00     0.261 C 
BRANCH   4   5
ATOM      5  O   UNL     1       2.848  -0.229  -1.411  1.00  0.00    -0.460 OA
BRANCH   5   6
ATOM      6  C   UNL     1       2.241  -1.219  -0.703  1.00  0.00     0.338 C 
ATOM      7  O   UNL     1       1.062  -1.485  -0.916  1.00  0.00    -0.246 OA
BRANCH   6   8
ATOM      8  C   UNL     1       2.963  -1.995   0.339  1.00  0.00     0.060 A 
ATOM      9  C   UNL     1       4.020  -1.464   1.059  1.00  0.00     0.016 A 
ATOM     10  C   UNL     1       2.534  -3.288   0.667  1.00  0.00     0.016 A 
ATOM     11  C   UNL     1       4.788  -2.230   1.901  1.00  0.00     0.010 A 
ATOM     12  C   UNL     1       3.221  -4.036   1.634  1.00  0.00     0.010 A 
ATOM     13  C   UNL     1       4.388  -3.521   2.213  1.00  0.00    -0.014 A 
BRANCH  13  14
ATOM     14  C   UNL     1       5.311  -4.295   3.061  1.00  0.00     0.031 A 
ATOM     15  C   UNL     1       6.069  -5.425   2.437  1.00  0.00     0.074 A 
ATOM     16  C   UNL     1       5.622  -3.822   4.284  1.00  0.00     0.049 A 
ATOM     17  N   UNL     1       6.960  -6.216   2.970  1.00  0.00    -0.248 NA
ATOM     18  C   UNL     1       5.807  -5.690   1.011  1.00  0.00     0.031 C 
ATOM     19  C   UNL     1       5.029  -2.629   4.903  1.00  0.00     0.029 A 
ATOM     20  N   UNL     1       6.554  -4.235   5.197  1.00  0.00    -0.354 N 
ATOM     21  C   UNL     1       7.340  -7.085   1.956  1.00  0.00     0.074 A 
ATOM     22  C   UNL     1       6.579  -6.740   0.780  1.00  0.00     0.031 C 
ATOM     23  C   UNL     1       5.652  -2.378   6.063  1.00  0.00     0.029 A 
ATOM     24  C   UNL     1       6.597  -3.452   6.326  1.00  0.00     0.049 A 
ATOM     25  H   UNL     1       7.137  -5.016   5.059  1.00  0.00     0.167 HD
ATOM     26  C   UNL     1       8.250  -8.083   2.017  1.00  0.00     0.037 A 
ATOM     27  C   UNL     1       7.288  -3.623   7.467  1.00  0.00     0.037 A 
ATOM     28  C   UNL     1       8.990  -8.396   3.209  1.00  0.00     0.049 A 
ATOM     29  C   UNL     1       8.200  -4.816   7.546  1.00  0.00     0.074 A 
ATOM     30  C   UNL     1       9.871  -9.434   3.437  1.00  0.00     0.029 A 
ATOM     31  N   UNL     1       8.929  -7.652   4.382  1.00  0.00    -0.354 N 
ATOM     32  N   UNL     1       8.489  -5.699   6.618  1.00  0.00    -0.248 NA
ATOM     33  C   UNL     1       8.872  -5.049   8.828  1.00  0.00     0.031 C 
ATOM     34  C   UNL     1      10.306  -9.347   4.763  1.00  0.00     0.029 A 
ATOM     35  C   UNL     1       9.747  -8.218   5.344  1.00  0.00     0.049 A 
ATOM     36  H   UNL     1       8.384  -6.842   4.510  1.00  0.00     0.167 HD
ATOM     37  C   UNL     1       9.383  -6.585   7.196  1.00  0.00     0.074 A 
ATOM     38  C   UNL     1       9.619  -6.106   8.545  1.00  0.00     0.031 C 
ATOM     39  C   UNL     1       9.951  -7.701   6.675  1.00  0.00     0.037 A 
BRANCH  26  40
ATOM     40  C   UNL     1       8.426  -8.928   0.791  1.00  0.00     0.064 A 
ATOM     41  C   UNL     1       9.047  -8.438  -0.368  1.00  0.00     0.173 A 
ATOM     42  C   UNL     1       7.941 -10.244   0.768  1.00  0.00     0.173 A 
ATOM     43  F   UNL     1       9.498  -7.175  -0.412  1.00  0.00    -0.203 F 
ATOM     44  C   UNL     1       9.155  -9.228  -1.511  1.00  0.00     0.198 A 
ATOM     45  C   UNL     1       8.076 -11.040  -0.366  1.00  0.00     0.198 A 
ATOM     46  F   UNL     1       7.327 -10.757   1.845  1.00  0.00    -0.203 F 
ATOM     47  F   UNL     1       9.700  -8.720  -2.626  1.00  0.00    -0.200 F 
ATOM     48  C   UNL     1       8.676 -10.529  -1.507  1.00  0.00     0.200 A 
ATOM     49  F   UNL     1       7.615 -12.298  -0.359  1.00  0.00    -0.200 F 
ATOM     50  F   UNL     1       8.780 -11.287  -2.608  1.00  0.00    -0.200 F 
ENDBRANCH  26  40
BRANCH  27  51
ATOM     51  C   UNL     1       7.072  -2.718   8.631  1.00  0.00     0.064 A 
ATOM     52  C   UNL     1       8.118  -1.973   9.191  1.00  0.00     0.173 A 
ATOM     53  C   UNL     1       5.809  -2.614   9.242  1.00  0.00     0.173 A 
ATOM     54  F   UNL     1       9.348  -2.039   8.660  1.00  0.00    -0.203 F 
ATOM     55  C   UNL     1       7.922  -1.196  10.334  1.00  0.00     0.198 A 
ATOM     56  C   UNL     1       5.604  -1.806  10.357  1.00  0.00     0.198 A 
ATOM     57  F   UNL     1       4.761  -3.294   8.753  1.00  0.00    -0.203 F 
ATOM     58  F   UNL     1       8.957  -0.552  10.889  1.00  0.00    -0.200 F 
ATOM     59  C   UNL     1       6.665  -1.111  10.914  1.00  0.00     0.200 A 
ATOM     60  F   UNL     1       4.380  -1.711  10.894  1.00  0.00    -0.200 F 
ATOM     61  F   UNL     1       6.479  -0.372  12.016  1.00  0.00    -0.200 F 
ENDBRANCH  27  51
BRANCH  39  62
ATOM     62  C   UNL     1      10.902  -8.444   7.564  1.00  0.00     0.064 A 
ATOM     63  C   UNL     1      10.457  -9.151   8.690  1.00  0.00     0.173 A 
ATOM     64  C   UNL     1      12.274  -8.459   7.273  1.00  0.00     0.173 A 
ATOM     65  F   UNL     1       9.156  -9.150   9.018  1.00  0.00    -0.203 F 
ATOM     66  C   UNL     1      11.359  -9.812   9.518  1.00  0.00     0.198 A 
ATOM     67  C   UNL     1      13.167  -9.155   8.079  1.00  0.00     0.198 A 
ATOM     68  F   UNL     1      12.747  -7.804   6.201  1.00  0.00    -0.203 F 
ATOM     69  F   UNL     1      10.921 -10.421  10.628  1.00  0.00    -0.200 F 
ATOM     70  C   UNL     1      12.711  -9.820   9.208  1.00  0.00     0.200 A 
ATOM     71  F   UNL     1      14.470  -9.177   7.769  1.00  0.00    -0.200 F 
ATOM     72  F   UNL     1      13.577 -10.460  10.005  1.00  0.00    -0.200 F 
ENDBRANCH  39  62
ENDBRANCH  13  14
ENDBRANCH   6   8
ENDBRANCH   5   6
ENDBRANCH   4   5
ENDBRANCH   3   4
ENDBRANCH   2   3
ENDBRANCH   1   2
BRANCH   1  73
ATOM     73  C   UNL     1       1.943   2.989   1.224  1.00  0.00     0.188 C 
BRANCH  73  74
ATOM     74  O   UNL     1       2.624   4.235   1.310  1.00  0.00    -0.376 OA
BRANCH  74  75
ATOM     75  C   UNL     1       4.019   4.192   1.586  1.00  0.00     0.202 C 
BRANCH  75  76
ATOM     76  C   UNL     1       4.475   3.678   2.963  1.00  0.00     0.261 C 
BRANCH  76  77
ATOM     77  O   UNL     1       3.945   2.406   3.390  1.00  0.00    -0.460 OA
BRANCH  77  78
ATOM     78  C   UNL     1       3.044   2.496   4.396  1.00  0.00     0.338 C 
ATOM     79  O   UNL     1       2.583   3.516   4.885  1.00  0.00    -0.246 OA
BRANCH  78  80
ATOM     80  C   UNL     1       2.699   1.177   4.956  1.00  0.00     0.060 A 
ATOM     81  C   UNL     1       1.645   0.420   4.435  1.00  0.00     0.018 A 
ATOM     82  C   UNL     1       3.242   0.863   6.202  1.00  0.00     0.018 A 
ATOM     83  C   UNL     1       1.084  -0.613   5.203  1.00  0.00     0.028 A 
ATOM     84  C   UNL     1       2.665  -0.147   6.972  1.00  0.00     0.028 A 
ATOM     85  C   UNL     1       1.546  -0.858   6.507  1.00  0.00     0.054 A 
BRANCH  85  86
ATOM     86  N   UNL     1       0.804  -1.695   7.412  1.00  0.00    -0.226 N 
ATOM     87  C   UNL     1       0.408  -2.973   6.992  1.00  0.00     0.358 C 
ATOM     88  C   UNL     1       0.463  -1.147   8.649  1.00  0.00     0.272 C 
ATOM     89  O   UNL     1       0.746  -3.428   5.904  1.00  0.00    -0.245 OA
ATOM     90  N   UNL     1      -0.363  -3.739   7.825  1.00  0.00    -0.156 NA
ATOM     91  C   UNL     1      -0.296  -2.041   9.570  1.00  0.00     0.104 C 
ATOM     92  O   UNL     1       0.719   0.009   8.993  1.00  0.00    -0.268 OA
ATOM     93  C   UNL     1      -0.694  -3.325   8.988  1.00  0.00     0.228 C 
ATOM     94  C   UNL     1      -0.490  -1.536  10.807  1.00  0.00     0.038 C 
BRANCH  93  95
ATOM     95  O   UNL     1      -1.511  -4.130   9.684  1.00  0.00    -0.493 OA
ATOM     96  H   UNL     1      -1.774  -4.954   9.324  1.00  0.00     0.295 HD
ENDBRANCH  93  95
BRANCH  94  97
ATOM     97  C   UNL     1      -1.074  -2.220  11.902  1.00  0.00     0.028 A 
ATOM     98  C   UNL     1      -0.578  -3.285  12.631  1.00  0.00     0.020 A 
ATOM     99  S   UNL     1      -2.595  -1.709  12.517  1.00  0.00    -0.144 S 
ATOM    100  C   UNL     1      -1.467  -3.708  13.660  1.00  0.00     0.012 A 
ATOM    101  C   UNL     1      -2.605  -2.936  13.706  1.00  0.00     0.065 A 
ENDBRANCH  94  97
ENDBRANCH  85  86
ENDBRANCH  78  80
ENDBRANCH  77  78
ENDBRANCH  76  77
ENDBRANCH  75  76
ENDBRANCH  74  75
ENDBRANCH  73  74
ENDBRANCH   1  73
TORSDOF 20
