REMARK SMILES NC(=O)N[C@@H](Cc1ccc(O)cc1)C(=O)OCCOCCOCCOC(=O)c1ccc(-c2c3nc(c(-c4c(F)c(F)c(F)c(F)c4F)c4ccc([nH]4)c(-c4c(F)c(F)c(F)c(F)c4F)c4nc(c(-c5c(F)c(F)c(F)c(F)c5F)c5ccc2[nH]5)C=C4)C=C3)cc1
REMARK SMILES IDX 20 1 19 2 18 3 17 4 16 5 14 6 15 7 5 8 4 9 1 10 2 11 3 14
REMARK SMILES IDX 6 16 7 17 8 18 13 19 9 20 12 21 10 22 11 23 21 25 22 26
REMARK SMILES IDX 23 27 24 28 25 29 26 30 27 31 28 32 29 33 90 34 30 35 89 36
REMARK SMILES IDX 31 37 32 38 33 39 83 40 34 41 88 42 82 43 84 44 35 45 87 46
REMARK SMILES IDX 81 47 80 48 36 50 68 51 48 52 67 53 49 54 52 55 66 56 85 57
REMARK SMILES IDX 50 58 51 59 65 61 86 62 53 63 37 64 38 65 46 66 39 67 40 68
REMARK SMILES IDX 44 69 47 70 41 71 42 72 45 73 43 74 69 75 70 76 78 77 71 78
REMARK SMILES IDX 72 79 76 80 79 81 73 82 74 83 77 84 75 85 54 86 55 87 63 88
REMARK SMILES IDX 56 89 57 90 61 91 64 92 58 93 59 94 62 95 60 96
REMARK H PARENT 1 12 1 13 4 15 11 24 84 49 52 60
REMARK Flexibility Score: inf
ROOT
ATOM      1  C   UNL     1       2.648   4.022   1.016  1.00  0.00     0.188 C 
ENDROOT
BRANCH   1   2
ATOM      2  O   UNL     1       3.498   5.164   0.965  1.00  0.00    -0.376 OA
BRANCH   2   3
ATOM      3  C   UNL     1       3.588   5.904  -0.244  1.00  0.00     0.202 C 
BRANCH   3   4
ATOM      4  C   UNL     1       3.933   5.148  -1.534  1.00  0.00     0.261 C 
BRANCH   4   5
ATOM      5  O   UNL     1       3.163   3.954  -1.790  1.00  0.00    -0.462 OA
BRANCH   5   6
ATOM      6  C   UNL     1       3.845   2.777  -1.843  1.00  0.00     0.329 C 
ATOM      7  O   UNL     1       5.054   2.673  -1.655  1.00  0.00    -0.250 OA
BRANCH   6   8
ATOM      8  C   UNL     1       2.996   1.581  -2.328  1.00  0.00     0.198 C 
BRANCH   8   9
ATOM      9  N   UNL     1       1.538   1.639  -2.154  1.00  0.00    -0.324 N 
ATOM     10  N   UNL     1       1.241  -0.004  -0.548  1.00  0.00    -0.352 N 
ATOM     11  C   UNL     1       0.712   0.919  -1.368  1.00  0.00     0.312 C 
ATOM     12  H   UNL     1       0.654  -0.540   0.033  1.00  0.00     0.161 HD
ATOM     13  H   UNL     1       2.215  -0.144  -0.528  1.00  0.00     0.161 HD
ATOM     14  O   UNL     1      -0.498   1.113  -1.371  1.00  0.00    -0.249 OA
ATOM     15  H   UNL     1       1.087   2.319  -2.704  1.00  0.00     0.166 HD
ENDBRANCH   8   9
BRANCH   8  16
ATOM     16  C   UNL     1       3.346   1.304  -3.806  1.00  0.00     0.072 C 
BRANCH  16  17
ATOM     17  C   UNL     1       2.846   2.359  -4.774  1.00  0.00    -0.045 A 
ATOM     18  C   UNL     1       3.438   3.631  -4.825  1.00  0.00     0.007 A 
ATOM     19  C   UNL     1       1.753   2.094  -5.611  1.00  0.00     0.007 A 
ATOM     20  C   UNL     1       2.899   4.643  -5.619  1.00  0.00     0.046 A 
ATOM     21  C   UNL     1       1.242   3.093  -6.443  1.00  0.00     0.046 A 
ATOM     22  C   UNL     1       1.802   4.364  -6.422  1.00  0.00     0.115 A 
BRANCH  22  23
ATOM     23  O   UNL     1       1.242   5.324  -7.211  1.00  0.00    -0.508 OA
ATOM     24  H   UNL     1       1.597   6.191  -7.219  1.00  0.00     0.293 HD
ENDBRANCH  22  23
ENDBRANCH  16  17
ENDBRANCH   8  16
ENDBRANCH   6   8
ENDBRANCH   5   6
ENDBRANCH   4   5
ENDBRANCH   3   4
ENDBRANCH   2   3
ENDBRANCH   1   2
BRANCH   1  25
ATOM     25  C   UNL     1       1.287   4.048   0.289  1.00  0.00     0.188 C 
BRANCH  25  26
ATOM     26  O   UNL     1       0.953   5.298  -0.272  1.00  0.00    -0.376 OA
BRANCH  26  27
ATOM     27  C   UNL     1      -0.156   5.971   0.294  1.00  0.00     0.202 C 
BRANCH  27  28
ATOM     28  C   UNL     1      -0.098   6.293   1.798  1.00  0.00     0.261 C 
BRANCH  28  29
ATOM     29  O   UNL     1       0.382   5.244   2.663  1.00  0.00    -0.460 OA
BRANCH  29  30
ATOM     30  C   UNL     1      -0.484   4.260   2.988  1.00  0.00     0.338 C 
ATOM     31  O   UNL     1      -1.661   4.183   2.663  1.00  0.00    -0.246 OA
BRANCH  30  32
ATOM     32  C   UNL     1       0.270   3.159   3.636  1.00  0.00     0.060 A 
ATOM     33  C   UNL     1       0.296   1.901   3.016  1.00  0.00     0.016 A 
ATOM     34  C   UNL     1       0.944   3.354   4.844  1.00  0.00     0.016 A 
ATOM     35  C   UNL     1       0.951   0.828   3.625  1.00  0.00     0.010 A 
ATOM     36  C   UNL     1       1.583   2.271   5.465  1.00  0.00     0.010 A 
ATOM     37  C   UNL     1       1.554   0.991   4.880  1.00  0.00    -0.014 A 
BRANCH  37  38
ATOM     38  C   UNL     1       1.959  -0.216   5.653  1.00  0.00     0.031 A 
ATOM     39  C   UNL     1       1.023  -0.739   6.712  1.00  0.00     0.074 A 
ATOM     40  C   UNL     1       3.098  -0.881   5.385  1.00  0.00     0.049 A 
ATOM     41  N   UNL     1       1.139  -1.787   7.489  1.00  0.00    -0.248 NA
ATOM     42  C   UNL     1      -0.216   0.026   6.920  1.00  0.00     0.031 C 
ATOM     43  C   UNL     1       4.076  -0.508   4.368  1.00  0.00     0.029 A 
ATOM     44  N   UNL     1       3.619  -2.021   5.952  1.00  0.00    -0.354 N 
ATOM     45  C   UNL     1      -0.006  -1.804   8.275  1.00  0.00     0.074 A 
ATOM     46  C   UNL     1      -0.786  -0.641   7.912  1.00  0.00     0.031 C 
ATOM     47  C   UNL     1       5.082  -1.401   4.381  1.00  0.00     0.029 A 
ATOM     48  C   UNL     1       4.831  -2.394   5.426  1.00  0.00     0.049 A 
ATOM     49  H   UNL     1       3.165  -2.521   6.668  1.00  0.00     0.167 HD
ATOM     50  C   UNL     1      -0.384  -2.712   9.208  1.00  0.00     0.037 A 
ATOM     51  C   UNL     1       5.650  -3.413   5.759  1.00  0.00     0.037 A 
ATOM     52  C   UNL     1       0.391  -3.868   9.578  1.00  0.00     0.049 A 
ATOM     53  C   UNL     1       5.237  -4.375   6.848  1.00  0.00     0.074 A 
ATOM     54  C   UNL     1       0.086  -4.851  10.503  1.00  0.00     0.029 A 
ATOM     55  N   UNL     1       1.631  -4.192   9.047  1.00  0.00    -0.354 N 
ATOM     56  N   UNL     1       4.139  -4.400   7.564  1.00  0.00    -0.248 NA
ATOM     57  C   UNL     1       6.179  -5.459   7.164  1.00  0.00     0.031 C 
ATOM     58  C   UNL     1       1.169  -5.734  10.579  1.00  0.00     0.029 A 
ATOM     59  C   UNL     1       2.115  -5.345   9.645  1.00  0.00     0.049 A 
ATOM     60  H   UNL     1       2.098  -3.678   8.350  1.00  0.00     0.167 HD
ATOM     61  C   UNL     1       4.241  -5.519   8.384  1.00  0.00     0.074 A 
ATOM     62  C   UNL     1       5.500  -6.155   8.064  1.00  0.00     0.031 C 
ATOM     63  C   UNL     1       3.368  -5.979   9.316  1.00  0.00     0.037 A 
BRANCH  50  64
ATOM     64  C   UNL     1      -1.687  -2.473   9.918  1.00  0.00     0.064 A 
ATOM     65  C   UNL     1      -2.922  -2.588   9.262  1.00  0.00     0.173 A 
ATOM     66  C   UNL     1      -1.701  -2.153  11.285  1.00  0.00     0.173 A 
ATOM     67  F   UNL     1      -2.967  -2.878   7.953  1.00  0.00    -0.203 F 
ATOM     68  C   UNL     1      -4.119  -2.360   9.938  1.00  0.00     0.198 A 
ATOM     69  C   UNL     1      -2.900  -1.961  11.966  1.00  0.00     0.198 A 
ATOM     70  F   UNL     1      -0.550  -2.035  11.964  1.00  0.00    -0.203 F 
ATOM     71  F   UNL     1      -5.283  -2.422   9.277  1.00  0.00    -0.200 F 
ATOM     72  C   UNL     1      -4.107  -2.055  11.291  1.00  0.00     0.200 A 
ATOM     73  F   UNL     1      -2.886  -1.683  13.277  1.00  0.00    -0.200 F 
ATOM     74  F   UNL     1      -5.259  -1.845  11.943  1.00  0.00    -0.200 F 
ENDBRANCH  50  64
BRANCH  51  75
ATOM     75  C   UNL     1       6.951  -3.588   5.057  1.00  0.00     0.064 A 
ATOM     76  C   UNL     1       7.194  -4.703   4.241  1.00  0.00     0.173 A 
ATOM     77  C   UNL     1       7.992  -2.662   5.217  1.00  0.00     0.173 A 
ATOM     78  F   UNL     1       6.242  -5.633   4.077  1.00  0.00    -0.203 F 
ATOM     79  C   UNL     1       8.434  -4.896   3.634  1.00  0.00     0.198 A 
ATOM     80  C   UNL     1       9.220  -2.838   4.582  1.00  0.00     0.198 A 
ATOM     81  F   UNL     1       7.816  -1.580   5.990  1.00  0.00    -0.203 F 
ATOM     82  F   UNL     1       8.657  -6.000   2.907  1.00  0.00    -0.200 F 
ATOM     83  C   UNL     1       9.444  -3.961   3.799  1.00  0.00     0.200 A 
ATOM     84  F   UNL     1      10.189  -1.925   4.735  1.00  0.00    -0.200 F 
ATOM     85  F   UNL     1      10.634  -4.145   3.213  1.00  0.00    -0.200 F 
ENDBRANCH  51  75
BRANCH  63  86
ATOM     86  C   UNL     1       3.716  -7.265  10.017  1.00  0.00     0.064 A 
ATOM     87  C   UNL     1       4.793  -7.360  10.911  1.00  0.00     0.173 A 
ATOM     88  C   UNL     1       2.950  -8.421   9.796  1.00  0.00     0.173 A 
ATOM     89  F   UNL     1       5.566  -6.290  11.155  1.00  0.00    -0.203 F 
ATOM     90  C   UNL     1       5.119  -8.572  11.517  1.00  0.00     0.198 A 
ATOM     91  C   UNL     1       3.253  -9.620  10.434  1.00  0.00     0.198 A 
ATOM     92  F   UNL     1       1.899  -8.387   8.961  1.00  0.00    -0.203 F 
ATOM     93  F   UNL     1       6.197  -8.654  12.309  1.00  0.00    -0.200 F 
ATOM     94  C   UNL     1       4.346  -9.699  11.282  1.00  0.00     0.200 A 
ATOM     95  F   UNL     1       2.493 -10.703  10.220  1.00  0.00    -0.200 F 
ATOM     96  F   UNL     1       4.663 -10.864  11.864  1.00  0.00    -0.200 F 
ENDBRANCH  63  86
ENDBRANCH  37  38
ENDBRANCH  30  32
ENDBRANCH  29  30
ENDBRANCH  28  29
ENDBRANCH  27  28
ENDBRANCH  26  27
ENDBRANCH  25  26
ENDBRANCH   1  25
TORSDOF 21
