REMARK SMILES O=C(CCc1nnc(CSc2ccccc2)o1)OCCOCCOCCOC(=O)c1ccc(-c2c3nc(c(-c4c(F)c(F)c(F)c(F)c4F)c4ccc([nH]4)c(-c4c(F)c(F)c(F)c(F)c4F)c4nc(c(-c5c(F)c(F)c(F)c(F)c5F)c5ccc2[nH]5)C=C4)C=C3)cc1
REMARK SMILES IDX 21 1 20 2 19 3 18 4 2 5 1 6 3 7 4 8 5 9 6 10 17 11 7 12 8 13
REMARK SMILES IDX 9 14 10 15 11 16 12 17 16 18 13 19 15 20 14 21 22 22 23 23
REMARK SMILES IDX 24 24 25 25 26 26 27 27 28 28 29 29 30 30 31 31 92 32 32 33
REMARK SMILES IDX 91 34 33 35 34 36 35 37 85 38 36 39 90 40 84 41 86 42 37 43
REMARK SMILES IDX 89 44 83 45 82 46 38 48 70 49 50 50 69 51 51 52 54 53 68 54
REMARK SMILES IDX 87 55 52 56 53 57 67 59 88 60 55 61 39 62 40 63 48 64 41 65
REMARK SMILES IDX 42 66 46 67 49 68 43 69 44 70 47 71 45 72 71 73 72 74 80 75
REMARK SMILES IDX 73 76 74 77 78 78 81 79 75 80 76 81 79 82 77 83 56 84 57 85
REMARK SMILES IDX 65 86 58 87 59 88 63 89 66 90 60 91 61 92 64 93 62 94
REMARK H PARENT 86 47 54 58
REMARK Flexibility Score: inf
ROOT
ATOM      1  O   UNL     1       3.850   2.146  -0.139  1.00  0.00    -0.376 OA
ENDROOT
BRANCH   1   2
ATOM      2  C   UNL     1       4.770   1.089  -0.378  1.00  0.00     0.202 C 
BRANCH   2   3
ATOM      3  C   UNL     1       4.255  -0.322  -0.652  1.00  0.00     0.261 C 
BRANCH   3   4
ATOM      4  O   UNL     1       3.004  -0.777  -0.097  1.00  0.00    -0.463 OA
BRANCH   4   5
ATOM      5  C   UNL     1       2.616  -0.880   1.183  1.00  0.00     0.306 C 
ATOM      6  O   UNL     1       1.575  -1.471   1.468  1.00  0.00    -0.252 OA
BRANCH   5   7
ATOM      7  C   UNL     1       3.438  -0.244   2.261  1.00  0.00     0.132 C 
BRANCH   7   8
ATOM      8  C   UNL     1       4.316  -1.258   2.969  1.00  0.00     0.111 C 
BRANCH   8   9
ATOM      9  C   UNL     1       5.333  -1.848   2.069  1.00  0.00     0.217 A 
ATOM     10  N   UNL     1       6.536  -1.412   1.765  1.00  0.00    -0.113 NA
ATOM     11  O   UNL     1       4.962  -2.941   1.328  1.00  0.00    -0.424 OA
ATOM     12  N   UNL     1       7.014  -2.247   0.773  1.00  0.00    -0.112 NA
ATOM     13  C   UNL     1       6.060  -3.123   0.521  1.00  0.00     0.226 A 
BRANCH  13  14
ATOM     14  C   UNL     1       6.005  -4.223  -0.475  1.00  0.00     0.174 C 
BRANCH  14  15
ATOM     15  S   UNL     1       6.012  -3.633  -2.216  1.00  0.00    -0.116 SA
BRANCH  15  16
ATOM     16  C   UNL     1       4.275  -3.539  -2.628  1.00  0.00     0.008 A 
ATOM     17  C   UNL     1       3.811  -2.416  -3.325  1.00  0.00     0.015 A 
ATOM     18  C   UNL     1       3.369  -4.561  -2.335  1.00  0.00     0.015 A 
ATOM     19  C   UNL     1       2.453  -2.259  -3.614  1.00  0.00     0.001 A 
ATOM     20  C   UNL     1       2.012  -4.419  -2.647  1.00  0.00     0.001 A 
ATOM     21  C   UNL     1       1.550  -3.258  -3.264  1.00  0.00     0.000 A 
ENDBRANCH  15  16
ENDBRANCH  14  15
ENDBRANCH  13  14
ENDBRANCH   8   9
ENDBRANCH   7   8
ENDBRANCH   5   7
ENDBRANCH   4   5
ENDBRANCH   3   4
ENDBRANCH   2   3
ENDBRANCH   1   2
BRANCH   1  22
ATOM     22  C   UNL     1       2.520   2.028  -0.618  1.00  0.00     0.188 C 
BRANCH  22  23
ATOM     23  C   UNL     1       2.289   1.828  -2.124  1.00  0.00     0.188 C 
BRANCH  23  24
ATOM     24  O   UNL     1       3.445   1.391  -2.823  1.00  0.00    -0.376 OA
BRANCH  24  25
ATOM     25  C   UNL     1       3.919   2.268  -3.835  1.00  0.00     0.202 C 
BRANCH  25  26
ATOM     26  C   UNL     1       4.696   3.497  -3.336  1.00  0.00     0.261 C 
BRANCH  26  27
ATOM     27  O   UNL     1       4.093   4.234  -2.259  1.00  0.00    -0.460 OA
BRANCH  27  28
ATOM     28  C   UNL     1       3.023   5.001  -2.559  1.00  0.00     0.338 C 
ATOM     29  O   UNL     1       2.488   5.116  -3.645  1.00  0.00    -0.246 OA
BRANCH  28  30
ATOM     30  C   UNL     1       2.482   5.561  -1.299  1.00  0.00     0.060 A 
ATOM     31  C   UNL     1       1.144   5.303  -0.975  1.00  0.00     0.016 A 
ATOM     32  C   UNL     1       3.274   6.337  -0.448  1.00  0.00     0.016 A 
ATOM     33  C   UNL     1       0.594   5.826   0.197  1.00  0.00     0.010 A 
ATOM     34  C   UNL     1       2.711   6.891   0.710  1.00  0.00     0.010 A 
ATOM     35  C   UNL     1       1.360   6.660   1.023  1.00  0.00    -0.014 A 
BRANCH  35  36
ATOM     36  C   UNL     1       0.672   7.437   2.085  1.00  0.00     0.031 A 
ATOM     37  C   UNL     1       0.186   8.822   1.753  1.00  0.00     0.074 A 
ATOM     38  C   UNL     1       0.413   6.907   3.294  1.00  0.00     0.049 A 
ATOM     39  N   UNL     1      -0.503   9.663   2.482  1.00  0.00    -0.248 NA
ATOM     40  C   UNL     1       0.519   9.323   0.409  1.00  0.00     0.031 C 
ATOM     41  C   UNL     1       0.808   5.572   3.734  1.00  0.00     0.029 A 
ATOM     42  N   UNL     1      -0.253   7.435   4.373  1.00  0.00    -0.354 N 
ATOM     43  C   UNL     1      -0.705  10.778   1.680  1.00  0.00     0.074 A 
ATOM     44  C   UNL     1      -0.023  10.531   0.428  1.00  0.00     0.031 C 
ATOM     45  C   UNL     1       0.384   5.387   4.998  1.00  0.00     0.029 A 
ATOM     46  C   UNL     1      -0.299   6.596   5.459  1.00  0.00     0.049 A 
ATOM     47  H   UNL     1      -0.659   8.332   4.369  1.00  0.00     0.167 HD
ATOM     48  C   UNL     1      -1.412  11.901   1.951  1.00  0.00     0.037 A 
ATOM     49  C   UNL     1      -0.826   6.787   6.685  1.00  0.00     0.037 A 
ATOM     50  C   UNL     1      -2.069  12.163   3.205  1.00  0.00     0.049 A 
ATOM     51  C   UNL     1      -1.548   8.078   6.988  1.00  0.00     0.074 A 
ATOM     52  C   UNL     1      -2.800  13.277   3.580  1.00  0.00     0.029 A 
ATOM     53  N   UNL     1      -2.063  11.303   4.293  1.00  0.00    -0.354 N 
ATOM     54  N   UNL     1      -1.767   9.111   6.211  1.00  0.00    -0.248 NA
ATOM     55  C   UNL     1      -2.111   8.221   8.339  1.00  0.00     0.031 C 
ATOM     56  C   UNL     1      -3.194  13.113   4.913  1.00  0.00     0.029 A 
ATOM     57  C   UNL     1      -2.761  11.871   5.348  1.00  0.00     0.049 A 
ATOM     58  H   UNL     1      -1.628  10.421   4.313  1.00  0.00     0.167 HD
ATOM     59  C   UNL     1      -2.511  10.011   6.966  1.00  0.00     0.074 A 
ATOM     60  C   UNL     1      -2.731   9.389   8.255  1.00  0.00     0.031 C 
ATOM     61  C   UNL     1      -2.969  11.242   6.628  1.00  0.00     0.037 A 
BRANCH  48  62
ATOM     62  C   UNL     1      -1.499  12.938   0.870  1.00  0.00     0.064 A 
ATOM     63  C   UNL     1      -2.254  12.722  -0.294  1.00  0.00     0.173 A 
ATOM     64  C   UNL     1      -0.849  14.173   1.010  1.00  0.00     0.173 A 
ATOM     65  F   UNL     1      -2.881  11.552  -0.485  1.00  0.00    -0.203 F 
ATOM     66  C   UNL     1      -2.336  13.696  -1.286  1.00  0.00     0.198 A 
ATOM     67  C   UNL     1      -0.958  15.155   0.029  1.00  0.00     0.198 A 
ATOM     68  F   UNL     1      -0.115  14.431   2.102  1.00  0.00    -0.203 F 
ATOM     69  F   UNL     1      -3.025  13.449  -2.409  1.00  0.00    -0.200 F 
ATOM     70  C   UNL     1      -1.695  14.914  -1.120  1.00  0.00     0.200 A 
ATOM     71  F   UNL     1      -0.348  16.337   0.197  1.00  0.00    -0.200 F 
ATOM     72  F   UNL     1      -1.783  15.854  -2.071  1.00  0.00    -0.200 F 
ENDBRANCH  48  62
BRANCH  49  73
ATOM     73  C   UNL     1      -0.685   5.739   7.733  1.00  0.00     0.064 A 
ATOM     74  C   UNL     1      -1.799   5.053   8.238  1.00  0.00     0.173 A 
ATOM     75  C   UNL     1       0.569   5.437   8.285  1.00  0.00     0.173 A 
ATOM     76  F   UNL     1      -3.024   5.326   7.766  1.00  0.00    -0.203 F 
ATOM     77  C   UNL     1      -1.668   4.128   9.273  1.00  0.00     0.198 A 
ATOM     78  C   UNL     1       0.703   4.487   9.296  1.00  0.00     0.198 A 
ATOM     79  F   UNL     1       1.667   6.067   7.843  1.00  0.00    -0.203 F 
ATOM     80  F   UNL     1      -2.757   3.534   9.779  1.00  0.00    -0.200 F 
ATOM     81  C   UNL     1      -0.416   3.842   9.797  1.00  0.00     0.200 A 
ATOM     82  F   UNL     1       1.916   4.206   9.791  1.00  0.00    -0.200 F 
ATOM     83  F   UNL     1      -0.291   2.954  10.793  1.00  0.00    -0.200 F 
ENDBRANCH  49  73
BRANCH  61  84
ATOM     84  C   UNL     1      -3.777  11.984   7.657  1.00  0.00     0.064 A 
ATOM     85  C   UNL     1      -3.197  12.476   8.837  1.00  0.00     0.173 A 
ATOM     86  C   UNL     1      -5.147  12.213   7.457  1.00  0.00     0.173 A 
ATOM     87  F   UNL     1      -1.894  12.276   9.084  1.00  0.00    -0.203 F 
ATOM     88  C   UNL     1      -3.967  13.129   9.796  1.00  0.00     0.198 A 
ATOM     89  C   UNL     1      -5.906  12.899   8.402  1.00  0.00     0.198 A 
ATOM     90  F   UNL     1      -5.752  11.776   6.343  1.00  0.00    -0.203 F 
ATOM     91  F   UNL     1      -3.405  13.530  10.945  1.00  0.00    -0.200 F 
ATOM     92  C   UNL     1      -5.319  13.344   9.576  1.00  0.00     0.200 A 
ATOM     93  F   UNL     1      -7.209  13.121   8.180  1.00  0.00    -0.200 F 
ATOM     94  F   UNL     1      -6.059  13.970  10.502  1.00  0.00    -0.200 F 
ENDBRANCH  61  84
ENDBRANCH  35  36
ENDBRANCH  28  30
ENDBRANCH  27  28
ENDBRANCH  26  27
ENDBRANCH  25  26
ENDBRANCH  24  25
ENDBRANCH  23  24
ENDBRANCH  22  23
ENDBRANCH   1  22
TORSDOF 22
