REMARK SMILES CC1(C)[C@H](C(=O)Nc2ccc(NC(=O)C[NH+]3CCCCC3)cc2)[C@@H]1C(=O)OCCOCCOCCOC(=O)c1ccc(-c2c3nc(c(-c4c(F)c(F)c(F)c(F)c4F)c4ccc([nH]4)c(-c4c(F)c(F)c(F)c(F)c4F)c4nc(c(-c5c(F)c(F)c(F)c(F)c5F)c5ccc2[nH]5)C=C4)C=C3)cc1
REMARK SMILES IDX 30 1 29 2 28 3 27 4 25 5 26 6 24 7 1 8 2 9 3 10 4 11 5 12
REMARK SMILES IDX 6 13 7 14 8 16 9 17 23 18 10 19 22 20 11 21 12 22 13 23
REMARK SMILES IDX 14 25 15 26 16 27 17 28 21 29 18 31 20 32 19 33 31 34 32 35
REMARK SMILES IDX 33 36 34 37 35 38 36 39 37 40 38 41 39 42 40 43 101 44 41 45
REMARK SMILES IDX 100 46 42 47 43 48 44 49 94 50 45 51 99 52 93 53 95 54 46 55
REMARK SMILES IDX 98 56 92 57 91 58 47 60 79 61 59 62 78 63 60 64 63 65 77 66
REMARK SMILES IDX 96 67 61 68 62 69 76 71 97 72 64 73 48 74 49 75 57 76 50 77
REMARK SMILES IDX 51 78 55 79 58 80 52 81 53 82 56 83 54 84 80 85 81 86 89 87
REMARK SMILES IDX 82 88 83 89 87 90 90 91 84 92 85 93 88 94 86 95 65 96 66 97
REMARK SMILES IDX 74 98 67 99 68 100 72 101 75 102 69 103 70 104 73 105 71 106
REMARK H PARENT 7 15 12 24 16 30 95 59 63 70
REMARK Flexibility Score: inf
ROOT
ATOM      1  O   UNL     1      -2.587   1.604   4.442  1.00  0.00    -0.376 OA
ENDROOT
BRANCH   1   2
ATOM      2  C   UNL     1      -3.138   2.613   3.614  1.00  0.00     0.202 C 
BRANCH   2   3
ATOM      3  C   UNL     1      -2.511   2.889   2.246  1.00  0.00     0.261 C 
BRANCH   3   4
ATOM      4  O   UNL     1      -2.266   1.787   1.350  1.00  0.00    -0.463 OA
BRANCH   4   5
ATOM      5  C   UNL     1      -0.959   1.426   1.188  1.00  0.00     0.310 C 
ATOM      6  O   UNL     1      -0.017   1.886   1.833  1.00  0.00    -0.252 OA
BRANCH   5   7
ATOM      7  C   UNL     1      -0.812   0.209   0.364  1.00  0.00     0.118 C 
ATOM      8  C   UNL     1       0.797  -1.736  -0.263  1.00  0.00     0.013 C 
ATOM      9  C   UNL     1       0.476  -0.254  -0.329  1.00  0.00    -0.009 C 
ATOM     10  C   UNL     1       1.732   0.567  -0.282  1.00  0.00     0.013 C 
ATOM     11  C   UNL     1      -0.769   0.118  -1.128  1.00  0.00     0.100 C 
BRANCH  11  12
ATOM     12  C   UNL     1      -0.983   1.139  -2.197  1.00  0.00     0.228 C 
ATOM     13  O   UNL     1      -1.239   0.701  -3.321  1.00  0.00    -0.274 OA
ATOM     14  N   UNL     1      -1.266   2.458  -1.962  1.00  0.00    -0.326 N 
ATOM     15  H   UNL     1      -2.054   2.803  -2.441  1.00  0.00     0.169 HD
BRANCH  14  16
ATOM     16  C   UNL     1      -0.622   3.388  -1.157  1.00  0.00     0.041 A 
ATOM     17  C   UNL     1      -1.412   4.289  -0.474  1.00  0.00     0.028 A 
ATOM     18  C   UNL     1       0.753   3.431  -0.990  1.00  0.00     0.028 A 
ATOM     19  C   UNL     1      -0.854   4.996   0.590  1.00  0.00     0.028 A 
ATOM     20  C   UNL     1       1.314   4.191   0.048  1.00  0.00     0.028 A 
ATOM     21  C   UNL     1       0.497   4.923   0.910  1.00  0.00     0.041 A 
BRANCH  21  22
ATOM     22  N   UNL     1       1.076   5.427   2.091  1.00  0.00    -0.321 N 
ATOM     23  C   UNL     1       0.630   6.226   3.111  1.00  0.00     0.279 C 
ATOM     24  H   UNL     1       2.011   5.141   2.210  1.00  0.00     0.170 HD
ATOM     25  O   UNL     1       1.354   6.318   4.112  1.00  0.00    -0.268 OA
BRANCH  23  26
ATOM     26  C   UNL     1      -0.700   6.995   3.069  1.00  0.00     0.363 C 
BRANCH  26  27
ATOM     27  N   UNL     1      -0.865   7.678   1.787  1.00  0.00    -0.327 N 
ATOM     28  C   UNL     1      -2.239   7.985   1.407  1.00  0.00     0.262 C 
ATOM     29  C   UNL     1       0.033   8.806   1.574  1.00  0.00     0.262 C 
ATOM     30  H   UNL     1      -0.568   6.956   1.130  1.00  0.00     0.348 HD
ATOM     31  C   UNL     1      -2.262   8.195  -0.111  1.00  0.00     0.062 C 
ATOM     32  C   UNL     1       0.092   9.100   0.075  1.00  0.00     0.062 C 
ATOM     33  C   UNL     1      -1.298   9.300  -0.531  1.00  0.00     0.012 C 
ENDBRANCH  26  27
ENDBRANCH  23  26
ENDBRANCH  21  22
ENDBRANCH  14  16
ENDBRANCH  11  12
ENDBRANCH   5   7
ENDBRANCH   4   5
ENDBRANCH   3   4
ENDBRANCH   2   3
ENDBRANCH   1   2
BRANCH   1  34
ATOM     34  C   UNL     1      -2.286   0.344   3.863  1.00  0.00     0.188 C 
BRANCH  34  35
ATOM     35  C   UNL     1      -3.364  -0.372   3.020  1.00  0.00     0.188 C 
BRANCH  35  36
ATOM     36  O   UNL     1      -4.514   0.402   2.780  1.00  0.00    -0.376 OA
BRANCH  36  37
ATOM     37  C   UNL     1      -5.647   0.206   3.607  1.00  0.00     0.202 C 
BRANCH  37  38
ATOM     38  C   UNL     1      -5.569  -0.183   5.102  1.00  0.00     0.261 C 
BRANCH  38  39
ATOM     39  O   UNL     1      -4.336  -0.699   5.623  1.00  0.00    -0.460 OA
BRANCH  39  40
ATOM     40  C   UNL     1      -4.171  -2.043   5.617  1.00  0.00     0.338 C 
ATOM     41  O   UNL     1      -4.951  -2.874   5.187  1.00  0.00    -0.246 OA
BRANCH  40  42
ATOM     42  C   UNL     1      -2.777  -2.354   6.017  1.00  0.00     0.060 A 
ATOM     43  C   UNL     1      -1.934  -2.979   5.085  1.00  0.00     0.016 A 
ATOM     44  C   UNL     1      -2.295  -2.022   7.285  1.00  0.00     0.016 A 
ATOM     45  C   UNL     1      -0.622  -3.309   5.431  1.00  0.00     0.010 A 
ATOM     46  C   UNL     1      -0.990  -2.384   7.643  1.00  0.00     0.010 A 
ATOM     47  C   UNL     1      -0.160  -3.064   6.731  1.00  0.00    -0.014 A 
BRANCH  47  48
ATOM     48  C   UNL     1       1.080  -3.736   7.201  1.00  0.00     0.031 A 
ATOM     49  C   UNL     1       0.939  -5.040   7.941  1.00  0.00     0.074 A 
ATOM     50  C   UNL     1       2.304  -3.237   6.951  1.00  0.00     0.049 A 
ATOM     51  N   UNL     1       1.858  -5.808   8.469  1.00  0.00    -0.248 NA
ATOM     52  C   UNL     1      -0.434  -5.545   8.107  1.00  0.00     0.031 C 
ATOM     53  C   UNL     1       2.586  -2.012   6.210  1.00  0.00     0.029 A 
ATOM     54  N   UNL     1       3.545  -3.710   7.307  1.00  0.00    -0.354 N 
ATOM     55  C   UNL     1       1.175  -6.878   9.033  1.00  0.00     0.074 A 
ATOM     56  C   UNL     1      -0.236  -6.646   8.814  1.00  0.00     0.031 C 
ATOM     57  C   UNL     1       3.917  -1.820   6.176  1.00  0.00     0.029 A 
ATOM     58  C   UNL     1       4.579  -2.893   6.918  1.00  0.00     0.049 A 
ATOM     59  H   UNL     1       3.680  -4.554   7.796  1.00  0.00     0.167 HD
ATOM     60  C   UNL     1       1.677  -7.963   9.668  1.00  0.00     0.037 A 
ATOM     61  C   UNL     1       5.903  -2.994   7.153  1.00  0.00     0.037 A 
ATOM     62  C   UNL     1       3.079  -8.194   9.893  1.00  0.00     0.049 A 
ATOM     63  C   UNL     1       6.434  -4.175   7.931  1.00  0.00     0.074 A 
ATOM     64  C   UNL     1       3.687  -9.270  10.516  1.00  0.00     0.029 A 
ATOM     65  N   UNL     1       4.092  -7.327   9.511  1.00  0.00    -0.354 N 
ATOM     66  N   UNL     1       5.786  -5.197   8.436  1.00  0.00    -0.248 NA
ATOM     67  C   UNL     1       7.885  -4.217   8.165  1.00  0.00     0.031 C 
ATOM     68  C   UNL     1       5.063  -9.025  10.565  1.00  0.00     0.029 A 
ATOM     69  C   UNL     1       5.320  -7.832   9.909  1.00  0.00     0.049 A 
ATOM     70  H   UNL     1       3.959  -6.479   9.029  1.00  0.00     0.167 HD
ATOM     71  C   UNL     1       6.750  -6.019   9.010  1.00  0.00     0.074 A 
ATOM     72  C   UNL     1       8.029  -5.381   8.782  1.00  0.00     0.031 C 
ATOM     73  C   UNL     1       6.590  -7.197   9.663  1.00  0.00     0.037 A 
BRANCH  60  74
ATOM     74  C   UNL     1       0.696  -8.971  10.196  1.00  0.00     0.064 A 
ATOM     75  C   UNL     1      -0.054  -9.792   9.340  1.00  0.00     0.173 A 
ATOM     76  C   UNL     1       0.525  -9.136  11.579  1.00  0.00     0.173 A 
ATOM     77  F   UNL     1       0.059  -9.664   8.009  1.00  0.00    -0.203 F 
ATOM     78  C   UNL     1      -0.960 -10.720   9.849  1.00  0.00     0.198 A 
ATOM     79  C   UNL     1      -0.356 -10.088  12.084  1.00  0.00     0.198 A 
ATOM     80  F   UNL     1       1.219  -8.379  12.441  1.00  0.00    -0.203 F 
ATOM     81  F   UNL     1      -1.704 -11.456   9.012  1.00  0.00    -0.200 F 
ATOM     82  C   UNL     1      -1.103 -10.873  11.220  1.00  0.00     0.200 A 
ATOM     83  F   UNL     1      -0.482 -10.245  13.409  1.00  0.00    -0.200 F 
ATOM     84  F   UNL     1      -1.968 -11.773  11.708  1.00  0.00    -0.200 F 
ENDBRANCH  60  74
BRANCH  61  85
ATOM     85  C   UNL     1       6.832  -1.943   6.655  1.00  0.00     0.064 A 
ATOM     86  C   UNL     1       7.783  -2.225   5.664  1.00  0.00     0.173 A 
ATOM     87  C   UNL     1       6.814  -0.645   7.188  1.00  0.00     0.173 A 
ATOM     88  F   UNL     1       7.864  -3.459   5.145  1.00  0.00    -0.203 F 
ATOM     89  C   UNL     1       8.691  -1.256   5.239  1.00  0.00     0.198 A 
ATOM     90  C   UNL     1       7.702   0.332   6.739  1.00  0.00     0.198 A 
ATOM     91  F   UNL     1       5.932  -0.324   8.146  1.00  0.00    -0.203 F 
ATOM     92  F   UNL     1       9.625  -1.570   4.330  1.00  0.00    -0.200 F 
ATOM     93  C   UNL     1       8.646   0.023   5.772  1.00  0.00     0.200 A 
ATOM     94  F   UNL     1       7.649   1.569   7.252  1.00  0.00    -0.200 F 
ATOM     95  F   UNL     1       9.519   0.953   5.363  1.00  0.00    -0.200 F 
ENDBRANCH  61  85
BRANCH  73  96
ATOM     96  C   UNL     1       7.829  -7.909  10.130  1.00  0.00     0.064 A 
ATOM     97  C   UNL     1       8.617  -7.421  11.184  1.00  0.00     0.173 A 
ATOM     98  C   UNL     1       8.210  -9.124   9.538  1.00  0.00     0.173 A 
ATOM     99  F   UNL     1       8.305  -6.260  11.778  1.00  0.00    -0.203 F 
ATOM    100  C   UNL     1       9.756  -8.104  11.603  1.00  0.00     0.198 A 
ATOM    101  C   UNL     1       9.329  -9.823   9.984  1.00  0.00     0.198 A 
ATOM    102  F   UNL     1       7.487  -9.644   8.535  1.00  0.00    -0.203 F 
ATOM    103  F   UNL     1      10.524  -7.590  12.574  1.00  0.00    -0.200 F 
ATOM    104  C   UNL     1      10.107  -9.307  11.009  1.00  0.00     0.200 A 
ATOM    105  F   UNL     1       9.654 -10.995   9.421  1.00  0.00    -0.200 F 
ATOM    106  F   UNL     1      11.199  -9.967  11.419  1.00  0.00    -0.200 F 
ENDBRANCH  73  96
ENDBRANCH  47  48
ENDBRANCH  40  42
ENDBRANCH  39  40
ENDBRANCH  38  39
ENDBRANCH  37  38
ENDBRANCH  36  37
ENDBRANCH  35  36
ENDBRANCH  34  35
ENDBRANCH   1  34
TORSDOF 22
