REMARK SMILES O=C(COCCNc1nncs1)OCCOCCOCCOC(=O)c1ccc(-c2c3nc(c(-c4c(F)c(F)c(F)c(F)c4F)c4ccc([nH]4)c(-c4c(F)c(F)c(F)c(F)c4F)c4nc(c(-c5c(F)c(F)c(F)c(F)c5F)c5ccc2[nH]5)C=C4)C=C3)cc1
REMARK SMILES IDX 16 1 15 2 14 3 13 4 2 5 1 6 3 7 4 8 5 9 6 10 7 11 8 13 9 14
REMARK SMILES IDX 12 15 10 16 11 17 17 18 18 19 19 20 20 21 21 22 22 23 23 24
REMARK SMILES IDX 24 25 25 26 26 27 87 28 27 29 86 30 28 31 29 32 30 33 80 34
REMARK SMILES IDX 31 35 85 36 79 37 81 38 32 39 84 40 78 41 77 42 33 44 65 45
REMARK SMILES IDX 45 46 64 47 46 48 49 49 63 50 82 51 47 52 48 53 62 55 83 56
REMARK SMILES IDX 50 57 34 58 35 59 43 60 36 61 37 62 41 63 44 64 38 65 39 66
REMARK SMILES IDX 42 67 40 68 66 69 67 70 75 71 68 72 69 73 73 74 76 75 70 76
REMARK SMILES IDX 71 77 74 78 72 79 51 80 52 81 60 82 53 83 54 84 58 85 61 86
REMARK SMILES IDX 55 87 56 88 59 89 57 90
REMARK H PARENT 7 12 81 43 49 54
REMARK Flexibility Score: inf
ROOT
ATOM      1  O   UNL     1       4.571  -0.481  -1.862  1.00  0.00    -0.376 OA
ENDROOT
BRANCH   1   2
ATOM      2  C   UNL     1       5.269  -0.141  -0.681  1.00  0.00     0.202 C 
BRANCH   2   3
ATOM      3  C   UNL     1       4.961  -1.078   0.492  1.00  0.00     0.261 C 
BRANCH   3   4
ATOM      4  O   UNL     1       3.589  -1.070   0.946  1.00  0.00    -0.462 OA
BRANCH   4   5
ATOM      5  C   UNL     1       3.029  -0.124   1.742  1.00  0.00     0.332 C 
ATOM      6  O   UNL     1       2.002  -0.386   2.360  1.00  0.00    -0.250 OA
BRANCH   5   7
ATOM      7  C   UNL     1       3.646   1.283   1.707  1.00  0.00     0.282 C 
BRANCH   7   8
ATOM      8  O   UNL     1       3.575   2.141   2.830  1.00  0.00    -0.368 OA
BRANCH   8   9
ATOM      9  C   UNL     1       2.276   2.501   3.298  1.00  0.00     0.182 C 
BRANCH   9  10
ATOM     10  C   UNL     1       1.617   3.626   2.488  1.00  0.00     0.143 C 
BRANCH  10  11
ATOM     11  N   UNL     1       0.920   3.135   1.315  1.00  0.00    -0.358 N 
ATOM     12  H   UNL     1       1.446   3.027   0.490  1.00  0.00     0.163 HD
BRANCH  11  13
ATOM     13  C   UNL     1      -0.395   2.815   1.259  1.00  0.00     0.205 A 
ATOM     14  N   UNL     1      -0.969   2.426   0.137  1.00  0.00    -0.121 NA
ATOM     15  S   UNL     1      -1.506   2.890   2.582  1.00  0.00    -0.083 S 
ATOM     16  N   UNL     1      -2.324   2.191   0.267  1.00  0.00    -0.145 NA
ATOM     17  C   UNL     1      -2.734   2.404   1.496  1.00  0.00     0.204 A 
ENDBRANCH  11  13
ENDBRANCH  10  11
ENDBRANCH   9  10
ENDBRANCH   8   9
ENDBRANCH   7   8
ENDBRANCH   5   7
ENDBRANCH   4   5
ENDBRANCH   3   4
ENDBRANCH   2   3
ENDBRANCH   1   2
BRANCH   1  18
ATOM     18  C   UNL     1       3.190  -0.172  -1.916  1.00  0.00     0.188 C 
BRANCH  18  19
ATOM     19  C   UNL     1       2.390  -1.196  -2.741  1.00  0.00     0.188 C 
BRANCH  19  20
ATOM     20  O   UNL     1       3.039  -2.382  -3.185  1.00  0.00    -0.376 OA
BRANCH  20  21
ATOM     21  C   UNL     1       4.272  -2.271  -3.893  1.00  0.00     0.202 C 
BRANCH  21  22
ATOM     22  C   UNL     1       4.338  -1.340  -5.112  1.00  0.00     0.261 C 
BRANCH  22  23
ATOM     23  O   UNL     1       4.013   0.039  -4.838  1.00  0.00    -0.460 OA
BRANCH  23  24
ATOM     24  C   UNL     1       2.989   0.541  -5.570  1.00  0.00     0.338 C 
ATOM     25  O   UNL     1       2.331  -0.035  -6.420  1.00  0.00    -0.246 OA
BRANCH  24  26
ATOM     26  C   UNL     1       2.661   1.916  -5.150  1.00  0.00     0.060 A 
ATOM     27  C   UNL     1       1.414   2.154  -4.557  1.00  0.00     0.016 A 
ATOM     28  C   UNL     1       3.488   2.982  -5.507  1.00  0.00     0.016 A 
ATOM     29  C   UNL     1       0.970   3.464  -4.361  1.00  0.00     0.010 A 
ATOM     30  C   UNL     1       3.035   4.294  -5.322  1.00  0.00     0.010 A 
ATOM     31  C   UNL     1       1.757   4.542  -4.787  1.00  0.00    -0.014 A 
BRANCH  31  32
ATOM     32  C   UNL     1       1.187   5.914  -4.827  1.00  0.00     0.031 A 
ATOM     33  C   UNL     1       0.625   6.436  -6.123  1.00  0.00     0.074 A 
ATOM     34  C   UNL     1       1.161   6.691  -3.730  1.00  0.00     0.049 A 
ATOM     35  N   UNL     1       0.148   7.623  -6.406  1.00  0.00    -0.248 NA
ATOM     36  C   UNL     1       0.600   5.493  -7.252  1.00  0.00     0.031 C 
ATOM     37  C   UNL     1       1.627   6.295  -2.404  1.00  0.00     0.029 A 
ATOM     38  N   UNL     1       0.732   7.986  -3.566  1.00  0.00    -0.354 N 
ATOM     39  C   UNL     1      -0.229   7.570  -7.742  1.00  0.00     0.074 A 
ATOM     40  C   UNL     1       0.096   6.244  -8.222  1.00  0.00     0.031 C 
ATOM     41  C   UNL     1       1.478   7.334  -1.563  1.00  0.00     0.029 A 
ATOM     42  C   UNL     1       0.935   8.476  -2.300  1.00  0.00     0.049 A 
ATOM     43  H   UNL     1       0.319   8.512  -4.288  1.00  0.00     0.167 HD
ATOM     44  C   UNL     1      -0.802   8.537  -8.499  1.00  0.00     0.037 A 
ATOM     45  C   UNL     1       0.730   9.710  -1.801  1.00  0.00     0.037 A 
ATOM     46  C   UNL     1      -1.134   9.856  -8.029  1.00  0.00     0.049 A 
ATOM     47  C   UNL     1       0.162  10.791  -2.685  1.00  0.00     0.074 A 
ATOM     48  C   UNL     1      -1.736  10.893  -8.721  1.00  0.00     0.029 A 
ATOM     49  N   UNL     1      -0.888  10.321  -6.747  1.00  0.00    -0.354 N 
ATOM     50  N   UNL     1      -0.211  10.726  -3.940  1.00  0.00    -0.248 NA
ATOM     51  C   UNL     1      -0.014  12.121  -2.079  1.00  0.00     0.031 C 
ATOM     52  C   UNL     1      -1.813  12.001  -7.872  1.00  0.00     0.029 A 
ATOM     53  C   UNL     1      -1.302  11.639  -6.636  1.00  0.00     0.049 A 
ATOM     54  H   UNL     1      -0.480   9.794  -6.023  1.00  0.00     0.167 HD
ATOM     55  C   UNL     1      -0.693  11.989  -4.262  1.00  0.00     0.074 A 
ATOM     56  C   UNL     1      -0.574  12.800  -3.070  1.00  0.00     0.031 C 
ATOM     57  C   UNL     1      -1.192  12.435  -5.441  1.00  0.00     0.037 A 
BRANCH  44  58
ATOM     58  C   UNL     1      -1.091   8.213  -9.935  1.00  0.00     0.064 A 
ATOM     59  C   UNL     1      -2.152   7.371 -10.298  1.00  0.00     0.173 A 
ATOM     60  C   UNL     1      -0.332   8.796 -10.960  1.00  0.00     0.173 A 
ATOM     61  F   UNL     1      -2.900   6.781  -9.354  1.00  0.00    -0.203 F 
ATOM     62  C   UNL     1      -2.432   7.111 -11.637  1.00  0.00     0.198 A 
ATOM     63  C   UNL     1      -0.630   8.554 -12.298  1.00  0.00     0.198 A 
ATOM     64  F   UNL     1       0.689   9.614 -10.663  1.00  0.00    -0.203 F 
ATOM     65  F   UNL     1      -3.429   6.277 -11.963  1.00  0.00    -0.200 F 
ATOM     66  C   UNL     1      -1.676   7.708 -12.636  1.00  0.00     0.200 A 
ATOM     67  F   UNL     1       0.094   9.142 -13.261  1.00  0.00    -0.200 F 
ATOM     68  F   UNL     1      -1.953   7.466 -13.924  1.00  0.00    -0.200 F 
ENDBRANCH  44  58
BRANCH  45  69
ATOM     69  C   UNL     1       1.085  10.009  -0.389  1.00  0.00     0.064 A 
ATOM     70  C   UNL     1       0.094  10.280   0.564  1.00  0.00     0.173 A 
ATOM     71  C   UNL     1       2.423  10.068   0.025  1.00  0.00     0.173 A 
ATOM     72  F   UNL     1      -1.199  10.265   0.209  1.00  0.00    -0.203 F 
ATOM     73  C   UNL     1       0.429  10.617   1.874  1.00  0.00     0.198 A 
ATOM     74  C   UNL     1       2.757  10.379   1.341  1.00  0.00     0.198 A 
ATOM     75  F   UNL     1       3.409   9.821  -0.851  1.00  0.00    -0.203 F 
ATOM     76  F   UNL     1      -0.535  10.920   2.754  1.00  0.00    -0.200 F 
ATOM     77  C   UNL     1       1.760  10.662   2.262  1.00  0.00     0.200 A 
ATOM     78  F   UNL     1       4.043  10.411   1.714  1.00  0.00    -0.200 F 
ATOM     79  F   UNL     1       2.082  10.987   3.521  1.00  0.00    -0.200 F 
ENDBRANCH  45  69
BRANCH  57  80
ATOM     80  C   UNL     1      -1.686  13.851  -5.495  1.00  0.00     0.064 A 
ATOM     81  C   UNL     1      -0.802  14.940  -5.502  1.00  0.00     0.173 A 
ATOM     82  C   UNL     1      -3.060  14.121  -5.588  1.00  0.00     0.173 A 
ATOM     83  F   UNL     1       0.520  14.736  -5.400  1.00  0.00    -0.203 F 
ATOM     84  C   UNL     1      -1.277  16.247  -5.577  1.00  0.00     0.198 A 
ATOM     85  C   UNL     1      -3.530  15.427  -5.690  1.00  0.00     0.198 A 
ATOM     86  F   UNL     1      -3.948  13.115  -5.592  1.00  0.00    -0.203 F 
ATOM     87  F   UNL     1      -0.416  17.274  -5.539  1.00  0.00    -0.200 F 
ATOM     88  C   UNL     1      -2.639  16.489  -5.678  1.00  0.00     0.200 A 
ATOM     89  F   UNL     1      -4.846  15.659  -5.800  1.00  0.00    -0.200 F 
ATOM     90  F   UNL     1      -3.093  17.748  -5.757  1.00  0.00    -0.200 F 
ENDBRANCH  57  80
ENDBRANCH  31  32
ENDBRANCH  24  26
ENDBRANCH  23  24
ENDBRANCH  22  23
ENDBRANCH  21  22
ENDBRANCH  20  21
ENDBRANCH  19  20
ENDBRANCH  18  19
ENDBRANCH   1  18
TORSDOF 22
