REMARK SMILES Cc1cccc(CN(C)c2ccc(C(=O)OCCOCCOCCOC(=O)c3ccc(-c4c5nc(c(-c6c(F)c(F)c(F)c(F)c6F)c6ccc([nH]6)c(-c6c(F)c(F)c(F)c(F)c6F)c6nc(c(-c7c(F)c(F)c(F)c(F)c7F)c7ccc4[nH]7)C=C6)C=C5)cc3)cc2N)n1
REMARK SMILES IDX 20 1 19 2 18 3 17 4 16 5 14 6 15 7 13 8 10 9 11 10 92 11
REMARK SMILES IDX 12 12 91 13 8 14 9 15 7 16 6 17 1 18 2 19 3 20 94 21 4 22
REMARK SMILES IDX 5 23 93 24 21 27 22 28 23 29 24 30 25 31 26 32 27 33 28 34
REMARK SMILES IDX 29 35 90 36 30 37 89 38 31 39 32 40 33 41 83 42 34 43 88 44
REMARK SMILES IDX 82 45 84 46 35 47 87 48 81 49 80 50 36 52 68 53 48 54 67 55
REMARK SMILES IDX 49 56 52 57 66 58 85 59 50 60 51 61 65 63 86 64 53 65 37 66
REMARK SMILES IDX 38 67 46 68 39 69 40 70 44 71 47 72 41 73 42 74 45 75 43 76
REMARK SMILES IDX 69 77 70 78 78 79 71 80 72 81 76 82 79 83 73 84 74 85 77 86
REMARK SMILES IDX 75 87 54 88 55 89 63 90 56 91 57 92 61 93 64 94 58 95 59 96
REMARK SMILES IDX 62 97 60 98
REMARK H PARENT 93 25 93 26 84 51 52 62
REMARK Flexibility Score: inf
ROOT
ATOM      1  C   UNL     1       2.376   1.197   6.845  1.00  0.00     0.188 C 
ENDROOT
BRANCH   1   2
ATOM      2  O   UNL     1       2.504   0.395   8.004  1.00  0.00    -0.376 OA
BRANCH   2   3
ATOM      3  C   UNL     1       1.895  -0.883   8.084  1.00  0.00     0.202 C 
BRANCH   3   4
ATOM      4  C   UNL     1       0.513  -1.208   7.491  1.00  0.00     0.261 C 
BRANCH   4   5
ATOM      5  O   UNL     1       0.156  -0.541   6.280  1.00  0.00    -0.460 OA
BRANCH   5   6
ATOM      6  C   UNL     1      -0.689   0.514   6.417  1.00  0.00     0.338 C 
ATOM      7  O   UNL     1      -1.150   0.960   7.448  1.00  0.00    -0.246 OA
BRANCH   6   8
ATOM      8  C   UNL     1      -0.841   1.165   5.100  1.00  0.00     0.062 A 
ATOM      9  C   UNL     1      -1.204   2.424   2.537  1.00  0.00     0.060 A 
ATOM     10  C   UNL     1      -0.887   3.143   3.719  1.00  0.00     0.029 A 
ATOM     11  C   UNL     1      -1.426   1.032   2.752  1.00  0.00     0.056 A 
ATOM     12  C   UNL     1      -0.752   2.543   4.983  1.00  0.00     0.018 A 
ATOM     13  C   UNL     1      -1.126   0.410   3.979  1.00  0.00     0.043 A 
BRANCH   9  14
ATOM     14  N   UNL     1      -1.230   3.078   1.294  1.00  0.00    -0.367 N 
ATOM     15  C   UNL     1      -1.208   4.545   1.228  1.00  0.00     0.144 C 
BRANCH  14  16
ATOM     16  C   UNL     1      -1.554   2.466  -0.022  1.00  0.00     0.172 C 
BRANCH  16  17
ATOM     17  C   UNL     1      -0.791   1.222  -0.461  1.00  0.00     0.060 A 
ATOM     18  C   UNL     1       2.601  -0.143  -0.120  1.00  0.00     0.067 C 
ATOM     19  C   UNL     1       1.135  -0.069  -0.413  1.00  0.00     0.038 A 
ATOM     20  C   UNL     1       0.441  -1.194  -0.853  1.00  0.00     0.023 A 
ATOM     21  N   UNL     1       0.542   1.136  -0.232  1.00  0.00    -0.256 NA
ATOM     22  C   UNL     1      -0.901  -1.067  -1.183  1.00  0.00     0.004 A 
ATOM     23  C   UNL     1      -1.517   0.167  -1.029  1.00  0.00     0.026 A 
ENDBRANCH  16  17
ENDBRANCH  14  16
ENDBRANCH   9  14
BRANCH  11  24
ATOM     24  N   UNL     1      -2.042   0.178   1.847  1.00  0.00    -0.397 N 
ATOM     25  H   UNL     1      -2.297   0.506   0.955  1.00  0.00     0.156 HD
ATOM     26  H   UNL     1      -2.224  -0.757   2.098  1.00  0.00     0.156 HD
ENDBRANCH  11  24
ENDBRANCH   6   8
ENDBRANCH   5   6
ENDBRANCH   4   5
ENDBRANCH   3   4
ENDBRANCH   2   3
ENDBRANCH   1   2
BRANCH   1  27
ATOM     27  C   UNL     1       2.744   0.633   5.457  1.00  0.00     0.188 C 
BRANCH  27  28
ATOM     28  O   UNL     1       3.098  -0.727   5.426  1.00  0.00    -0.376 OA
BRANCH  28  29
ATOM     29  C   UNL     1       4.425  -1.127   5.719  1.00  0.00     0.202 C 
BRANCH  29  30
ATOM     30  C   UNL     1       5.554  -0.228   6.270  1.00  0.00     0.261 C 
BRANCH  30  31
ATOM     31  O   UNL     1       5.264   1.137   6.586  1.00  0.00    -0.460 OA
BRANCH  31  32
ATOM     32  C   UNL     1       5.677   2.063   5.688  1.00  0.00     0.338 C 
ATOM     33  O   UNL     1       6.242   1.866   4.627  1.00  0.00    -0.246 OA
BRANCH  32  34
ATOM     34  C   UNL     1       5.186   3.390   6.114  1.00  0.00     0.060 A 
ATOM     35  C   UNL     1       4.207   4.027   5.339  1.00  0.00     0.016 A 
ATOM     36  C   UNL     1       5.703   4.012   7.251  1.00  0.00     0.016 A 
ATOM     37  C   UNL     1       3.765   5.306   5.684  1.00  0.00     0.010 A 
ATOM     38  C   UNL     1       5.272   5.301   7.584  1.00  0.00     0.010 A 
ATOM     39  C   UNL     1       4.324   5.968   6.785  1.00  0.00    -0.014 A 
BRANCH  39  40
ATOM     40  C   UNL     1       4.047   7.412   6.999  1.00  0.00     0.031 A 
ATOM     41  C   UNL     1       5.071   8.419   6.551  1.00  0.00     0.074 A 
ATOM     42  C   UNL     1       2.898   7.830   7.561  1.00  0.00     0.049 A 
ATOM     43  N   UNL     1       5.068   9.724   6.668  1.00  0.00    -0.248 NA
ATOM     44  C   UNL     1       6.265   7.880   5.881  1.00  0.00     0.031 C 
ATOM     45  C   UNL     1       1.812   6.962   8.007  1.00  0.00     0.029 A 
ATOM     46  N   UNL     1       2.463   9.098   7.862  1.00  0.00    -0.354 N 
ATOM     47  C   UNL     1       6.258  10.157   6.097  1.00  0.00     0.074 A 
ATOM     48  C   UNL     1       6.974   8.977   5.665  1.00  0.00     0.031 C 
ATOM     49  C   UNL     1       0.837   7.723   8.537  1.00  0.00     0.029 A 
ATOM     50  C   UNL     1       1.246   9.126   8.498  1.00  0.00     0.049 A 
ATOM     51  H   UNL     1       2.976   9.910   7.643  1.00  0.00     0.167 HD
ATOM     52  C   UNL     1       6.708  11.425   5.937  1.00  0.00     0.037 A 
ATOM     53  C   UNL     1       0.555  10.164   9.011  1.00  0.00     0.037 A 
ATOM     54  C   UNL     1       5.995  12.599   6.369  1.00  0.00     0.049 A 
ATOM     55  C   UNL     1       1.113  11.562   8.887  1.00  0.00     0.074 A 
ATOM     56  C   UNL     1       6.358  13.928   6.232  1.00  0.00     0.029 A 
ATOM     57  N   UNL     1       4.778  12.585   7.035  1.00  0.00    -0.354 N 
ATOM     58  N   UNL     1       2.221  11.967   8.314  1.00  0.00    -0.248 NA
ATOM     59  C   UNL     1       0.318  12.648   9.479  1.00  0.00     0.031 C 
ATOM     60  C   UNL     1       5.395  14.714   6.872  1.00  0.00     0.029 A 
ATOM     61  C   UNL     1       4.393  13.881   7.343  1.00  0.00     0.049 A 
ATOM     62  H   UNL     1       4.264  11.775   7.256  1.00  0.00     0.167 HD
ATOM     63  C   UNL     1       2.237  13.351   8.444  1.00  0.00     0.074 A 
ATOM     64  C   UNL     1       1.021  13.718   9.138  1.00  0.00     0.031 C 
ATOM     65  C   UNL     1       3.174  14.238   8.024  1.00  0.00     0.037 A 
BRANCH  52  66
ATOM     66  C   UNL     1       8.052  11.610   5.291  1.00  0.00     0.064 A 
ATOM     67  C   UNL     1       8.264  11.337   3.931  1.00  0.00     0.173 A 
ATOM     68  C   UNL     1       9.134  12.104   6.036  1.00  0.00     0.173 A 
ATOM     69  F   UNL     1       7.267  10.853   3.175  1.00  0.00    -0.203 F 
ATOM     70  C   UNL     1       9.515  11.525   3.349  1.00  0.00     0.198 A 
ATOM     71  C   UNL     1      10.374  12.323   5.443  1.00  0.00     0.198 A 
ATOM     72  F   UNL     1       8.986  12.387   7.339  1.00  0.00    -0.203 F 
ATOM     73  F   UNL     1       9.707  11.210   2.060  1.00  0.00    -0.200 F 
ATOM     74  C   UNL     1      10.566  12.025   4.102  1.00  0.00     0.200 A 
ATOM     75  F   UNL     1      11.383  12.822   6.169  1.00  0.00    -0.200 F 
ATOM     76  F   UNL     1      11.767  12.216   3.538  1.00  0.00    -0.200 F 
ENDBRANCH  52  66
BRANCH  53  77
ATOM     77  C   UNL     1      -0.741   9.930   9.702  1.00  0.00     0.064 A 
ATOM     78  C   UNL     1      -1.945  10.414   9.171  1.00  0.00     0.173 A 
ATOM     79  C   UNL     1      -0.799   9.247  10.927  1.00  0.00     0.173 A 
ATOM     80  F   UNL     1      -1.940  11.099   8.018  1.00  0.00    -0.203 F 
ATOM     81  C   UNL     1      -3.152  10.246   9.848  1.00  0.00     0.198 A 
ATOM     82  C   UNL     1      -2.011   9.050  11.586  1.00  0.00     0.198 A 
ATOM     83  F   UNL     1       0.323   8.769  11.483  1.00  0.00    -0.203 F 
ATOM     84  F   UNL     1      -4.277  10.771   9.346  1.00  0.00    -0.200 F 
ATOM     85  C   UNL     1      -3.185   9.558  11.052  1.00  0.00     0.200 A 
ATOM     86  F   UNL     1      -2.039   8.377  12.744  1.00  0.00    -0.200 F 
ATOM     87  F   UNL     1      -4.345   9.398  11.703  1.00  0.00    -0.200 F 
ENDBRANCH  53  77
BRANCH  65  88
ATOM     88  C   UNL     1       2.902  15.700   8.254  1.00  0.00     0.064 A 
ATOM     89  C   UNL     1       2.913  16.266   9.538  1.00  0.00     0.173 A 
ATOM     90  C   UNL     1       2.664  16.555   7.166  1.00  0.00     0.173 A 
ATOM     91  F   UNL     1       3.123  15.494  10.615  1.00  0.00    -0.203 F 
ATOM     92  C   UNL     1       2.663  17.624   9.726  1.00  0.00     0.198 A 
ATOM     93  C   UNL     1       2.452  17.918   7.354  1.00  0.00     0.198 A 
ATOM     94  F   UNL     1       2.652  16.071   5.915  1.00  0.00    -0.203 F 
ATOM     95  F   UNL     1       2.622  18.130  10.966  1.00  0.00    -0.200 F 
ATOM     96  C   UNL     1       2.441  18.450   8.634  1.00  0.00     0.200 A 
ATOM     97  F   UNL     1       2.257  18.717   6.295  1.00  0.00    -0.200 F 
ATOM     98  F   UNL     1       2.209  19.757   8.816  1.00  0.00    -0.200 F 
ENDBRANCH  65  88
ENDBRANCH  39  40
ENDBRANCH  32  34
ENDBRANCH  31  32
ENDBRANCH  30  31
ENDBRANCH  29  30
ENDBRANCH  28  29
ENDBRANCH  27  28
ENDBRANCH   1  27
TORSDOF 21
