REMARK SMILES Cc1ccc(S(=O)(=O)n2cc(C(=O)C(=O)NCC(=O)OCCOCCOCCOC(=O)c3ccc(-c4c5nc(c(-c6c(F)c(F)c(F)c(F)c6F)c6ccc([nH]6)c(-c6c(F)c(F)c(F)c(F)c6F)c6nc(c(-c7c(F)c(F)c(F)c(F)c7F)c7ccc4[nH]7)C=C6)C=C5)cc3)c3ccccc32)cc1
REMARK SMILES IDX 23 1 22 2 21 3 20 4 18 5 19 6 17 7 16 8 14 9 15 10 12 12
REMARK SMILES IDX 13 13 11 14 9 15 10 16 100 17 95 18 99 19 96 20 98 21 97 22
REMARK SMILES IDX 6 23 7 24 8 25 5 26 1 27 2 28 3 29 102 30 4 31 101 32 24 33
REMARK SMILES IDX 25 34 26 35 27 36 28 37 29 38 30 39 31 40 32 41 33 42 94 43
REMARK SMILES IDX 34 44 93 45 35 46 36 47 37 48 87 49 38 50 92 51 86 52 88 53
REMARK SMILES IDX 39 54 91 55 85 56 84 57 40 59 72 60 52 61 71 62 53 63 56 64
REMARK SMILES IDX 70 65 89 66 54 67 55 68 69 70 90 71 57 72 41 73 42 74 50 75
REMARK SMILES IDX 43 76 44 77 48 78 51 79 45 80 46 81 49 82 47 83 73 84 74 85
REMARK SMILES IDX 82 86 75 87 76 88 80 89 83 90 77 91 78 92 81 93 79 94 58 95
REMARK SMILES IDX 59 96 67 97 60 98 61 99 65 100 68 101 62 102 63 103 66 104
REMARK SMILES IDX 64 105
REMARK H PARENT 16 11 88 58 56 69
REMARK Flexibility Score: inf
ROOT
ATOM      1  O   UNL     1     -12.565   5.848   2.724  1.00  0.00    -0.376 OA
ENDROOT
BRANCH   1   2
ATOM      2  C   UNL     1     -12.305   4.663   1.969  1.00  0.00     0.202 C 
BRANCH   2   3
ATOM      3  C   UNL     1     -10.845   4.061   1.301  1.00  0.00     0.261 C 
BRANCH   3   4
ATOM      4  O   UNL     1      -9.157   4.175   1.814  1.00  0.00    -0.462 OA
BRANCH   4   5
ATOM      5  C   UNL     1      -7.947   4.957   1.807  1.00  0.00     0.325 C 
ATOM      6  O   UNL     1      -7.520   5.721   0.940  1.00  0.00    -0.250 OA
BRANCH   5   7
ATOM      7  C   UNL     1      -7.076   5.012   3.061  1.00  0.00     0.239 C 
BRANCH   7   8
ATOM      8  N   UNL     1      -6.553   3.750   3.446  1.00  0.00    -0.338 N 
ATOM      9  C   UNL     1      -5.459   3.177   2.850  1.00  0.00     0.292 C 
ATOM     10  O   UNL     1      -4.980   2.155   3.326  1.00  0.00    -0.265 OA
ATOM     11  H   UNL     1      -6.997   3.263   4.177  1.00  0.00     0.164 HD
BRANCH   9  12
ATOM     12  C   UNL     1      -4.874   3.815   1.552  1.00  0.00     0.252 C 
ATOM     13  O   UNL     1      -4.567   5.002   1.553  1.00  0.00    -0.283 OA
BRANCH  12  14
ATOM     14  C   UNL     1      -4.616   2.960   0.401  1.00  0.00     0.054 A 
ATOM     15  N   UNL     1      -4.049   1.114  -0.686  1.00  0.00    -0.240 N 
ATOM     16  C   UNL     1      -4.637   1.583   0.450  1.00  0.00     0.117 A 
ATOM     17  C   UNL     1      -3.796   2.138  -1.577  1.00  0.00     0.065 A 
ATOM     18  C   UNL     1      -4.195   3.318  -0.927  1.00  0.00     0.012 A 
ATOM     19  C   UNL     1      -3.194   2.157  -2.847  1.00  0.00     0.028 A 
ATOM     20  C   UNL     1      -4.043   4.545  -1.612  1.00  0.00     0.011 A 
ATOM     21  C   UNL     1      -3.036   3.387  -3.488  1.00  0.00     0.002 A 
ATOM     22  C   UNL     1      -3.471   4.564  -2.890  1.00  0.00     0.001 A 
BRANCH  15  23
ATOM     23  S   UNL     1      -3.352  -0.437  -0.753  1.00  0.00     0.268 S 
ATOM     24  O   UNL     1      -3.448  -0.864  -2.111  1.00  0.00    -0.201 OA
ATOM     25  O   UNL     1      -3.990  -1.184   0.342  1.00  0.00    -0.201 OA
BRANCH  23  26
ATOM     26  C   UNL     1      -1.640  -0.246  -0.326  1.00  0.00     0.088 A 
ATOM     27  C   UNL     1       2.626  -0.024   0.123  1.00  0.00     0.044 C 
ATOM     28  C   UNL     1       1.130  -0.096   0.034  1.00  0.00    -0.051 A 
ATOM     29  C   UNL     1       0.500  -1.340  -0.100  1.00  0.00     0.005 A 
ATOM     30  C   UNL     1       0.353   1.066   0.055  1.00  0.00     0.005 A 
ATOM     31  C   UNL     1      -0.879  -1.417  -0.281  1.00  0.00     0.022 A 
ATOM     32  C   UNL     1      -1.032   0.995  -0.114  1.00  0.00     0.022 A 
ENDBRANCH  23  26
ENDBRANCH  15  23
ENDBRANCH  12  14
ENDBRANCH   9  12
ENDBRANCH   7   8
ENDBRANCH   5   7
ENDBRANCH   4   5
ENDBRANCH   3   4
ENDBRANCH   2   3
ENDBRANCH   1   2
BRANCH   1  33
ATOM     33  C   UNL     1     -12.972   5.926   4.100  1.00  0.00     0.188 C 
BRANCH  33  34
ATOM     34  C   UNL     1     -13.329   4.704   4.926  1.00  0.00     0.188 C 
BRANCH  34  35
ATOM     35  O   UNL     1     -12.536   3.615   4.511  1.00  0.00    -0.376 OA
BRANCH  35  36
ATOM     36  C   UNL     1     -12.790   2.391   5.168  1.00  0.00     0.202 C 
BRANCH  36  37
ATOM     37  C   UNL     1     -12.287   2.384   6.623  1.00  0.00     0.261 C 
BRANCH  37  38
ATOM     38  O   UNL     1     -10.883   2.753   6.693  1.00  0.00    -0.460 OA
BRANCH  38  39
ATOM     39  C   UNL     1     -10.551   4.012   7.150  1.00  0.00     0.338 C 
ATOM     40  O   UNL     1     -10.985   4.517   8.168  1.00  0.00    -0.246 OA
BRANCH  39  41
ATOM     41  C   UNL     1      -9.799   4.761   6.074  1.00  0.00     0.060 A 
ATOM     42  C   UNL     1      -9.657   6.155   5.937  1.00  0.00     0.016 A 
ATOM     43  C   UNL     1      -9.643   4.067   4.936  1.00  0.00     0.016 A 
ATOM     44  C   UNL     1      -9.598   6.816   4.617  1.00  0.00     0.010 A 
ATOM     45  C   UNL     1     -10.011   4.774   3.798  1.00  0.00     0.010 A 
ATOM     46  C   UNL     1      -9.876   6.141   3.419  1.00  0.00    -0.014 A 
BRANCH  46  47
ATOM     47  C   UNL     1     -10.161   6.840   1.880  1.00  0.00     0.031 A 
ATOM     48  C   UNL     1      -9.675   6.517   0.245  1.00  0.00     0.074 A 
ATOM     49  C   UNL     1     -11.011   7.899   1.908  1.00  0.00     0.049 A 
ATOM     50  N   UNL     1      -9.389   7.463  -0.637  1.00  0.00    -0.248 NA
ATOM     51  C   UNL     1      -9.359   5.213  -0.484  1.00  0.00     0.031 C 
ATOM     52  C   UNL     1     -11.649   8.599   0.792  1.00  0.00     0.029 A 
ATOM     53  N   UNL     1     -11.500   8.579   3.037  1.00  0.00    -0.354 N 
ATOM     54  C   UNL     1      -8.949   6.876  -1.846  1.00  0.00     0.074 A 
ATOM     55  C   UNL     1      -8.811   5.500  -1.641  1.00  0.00     0.031 C 
ATOM     56  C   UNL     1     -12.163   9.756   1.243  1.00  0.00     0.029 A 
ATOM     57  C   UNL     1     -11.766   9.892   2.632  1.00  0.00     0.049 A 
ATOM     58  H   UNL     1     -11.630   8.204   3.938  1.00  0.00     0.167 HD
ATOM     59  C   UNL     1      -8.836   7.473  -3.061  1.00  0.00     0.037 A 
ATOM     60  C   UNL     1     -11.078  10.926   3.187  1.00  0.00     0.037 A 
ATOM     61  C   UNL     1      -9.335   8.804  -2.954  1.00  0.00     0.049 A 
ATOM     62  C   UNL     1     -10.264  11.648   2.141  1.00  0.00     0.074 A 
ATOM     63  C   UNL     1     -10.631   9.282  -3.006  1.00  0.00     0.029 A 
ATOM     64  N   UNL     1      -8.587   9.707  -2.224  1.00  0.00    -0.354 N 
ATOM     65  N   UNL     1      -9.940  11.130   0.985  1.00  0.00    -0.248 NA
ATOM     66  C   UNL     1      -9.789  13.018   2.292  1.00  0.00     0.031 C 
ATOM     67  C   UNL     1     -10.680  10.440  -2.189  1.00  0.00     0.029 A 
ATOM     68  C   UNL     1      -9.399  10.707  -1.734  1.00  0.00     0.049 A 
ATOM     69  H   UNL     1      -7.615   9.645  -2.076  1.00  0.00     0.167 HD
ATOM     70  C   UNL     1      -9.260  12.056   0.246  1.00  0.00     0.074 A 
ATOM     71  C   UNL     1      -9.189  13.221   1.107  1.00  0.00     0.031 C 
ATOM     72  C   UNL     1      -8.807  11.815  -1.017  1.00  0.00     0.037 A 
BRANCH  59  73
ATOM     73  C   UNL     1      -8.656   6.622  -4.310  1.00  0.00     0.064 A 
ATOM     74  C   UNL     1      -9.601   6.658  -5.348  1.00  0.00     0.173 A 
ATOM     75  C   UNL     1      -7.662   5.620  -4.434  1.00  0.00     0.173 A 
ATOM     76  F   UNL     1     -10.560   7.592  -5.367  1.00  0.00    -0.203 F 
ATOM     77  C   UNL     1      -9.624   5.696  -6.367  1.00  0.00     0.198 A 
ATOM     78  C   UNL     1      -7.726   4.618  -5.415  1.00  0.00     0.198 A 
ATOM     79  F   UNL     1      -6.662   5.541  -3.542  1.00  0.00    -0.203 F 
ATOM     80  F   UNL     1     -10.567   5.759  -7.318  1.00  0.00    -0.200 F 
ATOM     81  C   UNL     1      -8.716   4.653  -6.376  1.00  0.00     0.200 A 
ATOM     82  F   UNL     1      -6.862   3.592  -5.390  1.00  0.00    -0.200 F 
ATOM     83  F   UNL     1      -8.804   3.684  -7.300  1.00  0.00    -0.200 F 
ENDBRANCH  59  73
BRANCH  60  84
ATOM     84  C   UNL     1     -10.756  10.714   4.634  1.00  0.00     0.064 A 
ATOM     85  C   UNL     1     -11.834  10.413   5.503  1.00  0.00     0.173 A 
ATOM     86  C   UNL     1      -9.470  10.444   5.115  1.00  0.00     0.173 A 
ATOM     87  F   UNL     1     -13.097  10.653   5.111  1.00  0.00    -0.203 F 
ATOM     88  C   UNL     1     -11.648   9.747   6.714  1.00  0.00     0.198 A 
ATOM     89  C   UNL     1      -9.283   9.806   6.353  1.00  0.00     0.198 A 
ATOM     90  F   UNL     1      -8.398  10.652   4.338  1.00  0.00    -0.203 F 
ATOM     91  F   UNL     1     -12.709   9.330   7.421  1.00  0.00    -0.200 F 
ATOM     92  C   UNL     1     -10.371   9.429   7.131  1.00  0.00     0.200 A 
ATOM     93  F   UNL     1      -8.054   9.415   6.723  1.00  0.00    -0.200 F 
ATOM     94  F   UNL     1     -10.191   8.684   8.232  1.00  0.00    -0.200 F 
ENDBRANCH  60  84
BRANCH  72  95
ATOM     95  C   UNL     1      -7.784  12.645  -1.746  1.00  0.00     0.064 A 
ATOM     96  C   UNL     1      -6.761  13.342  -1.089  1.00  0.00     0.173 A 
ATOM     97  C   UNL     1      -7.690  12.592  -3.159  1.00  0.00     0.173 A 
ATOM     98  F   UNL     1      -6.674  13.357   0.248  1.00  0.00    -0.203 F 
ATOM     99  C   UNL     1      -5.754  13.998  -1.795  1.00  0.00     0.198 A 
ATOM    100  C   UNL     1      -6.636  13.176  -3.854  1.00  0.00     0.198 A 
ATOM    101  F   UNL     1      -8.595  11.939  -3.905  1.00  0.00    -0.203 F 
ATOM    102  F   UNL     1      -4.832  14.702  -1.127  1.00  0.00    -0.200 F 
ATOM    103  C   UNL     1      -5.681  13.900  -3.173  1.00  0.00     0.200 A 
ATOM    104  F   UNL     1      -6.542  13.012  -5.181  1.00  0.00    -0.200 F 
ATOM    105  F   UNL     1      -4.679  14.486  -3.841  1.00  0.00    -0.200 F 
ENDBRANCH  72  95
ENDBRANCH  46  47
ENDBRANCH  39  41
ENDBRANCH  38  39
ENDBRANCH  37  38
ENDBRANCH  36  37
ENDBRANCH  35  36
ENDBRANCH  34  35
ENDBRANCH  33  34
ENDBRANCH   1  33
TORSDOF 22
