REMARK SMILES Cc1cc(F)cc(N[C@@](C)(C(=O)OCCOCCOCCOC(=O)c2ccc(-c3c4nc(c(-c5c(F)c(F)c(F)c(F)c5F)c5ccc([nH]5)c(-c5c(F)c(F)c(F)c(F)c5F)c5nc(c(-c6c(F)c(F)c(F)c(F)c6F)c6ccc3[nH]6)C=C5)C=C4)cc2)c2ccc(O)cc2)c1
REMARK SMILES IDX 17 1 16 2 15 3 14 4 13 5 11 6 12 7 9 8 10 9 8 10 7 12 1 13
REMARK SMILES IDX 2 14 3 15 95 16 4 17 5 18 6 19 88 20 89 21 94 22 90 23 93 24
REMARK SMILES IDX 91 25 92 26 18 28 19 29 20 30 21 31 22 32 23 33 24 34 25 35
REMARK SMILES IDX 26 36 87 37 27 38 86 39 28 40 29 41 30 42 80 43 31 44 85 45
REMARK SMILES IDX 79 46 81 47 32 48 84 49 78 50 77 51 33 53 65 54 45 55 64 56
REMARK SMILES IDX 46 57 49 58 63 59 82 60 47 61 48 62 62 64 83 65 50 66 34 67
REMARK SMILES IDX 35 68 43 69 36 70 37 71 41 72 44 73 38 74 39 75 42 76 40 77
REMARK SMILES IDX 66 78 67 79 75 80 68 81 69 82 73 83 76 84 70 85 71 86 74 87
REMARK SMILES IDX 72 88 51 89 52 90 60 91 53 92 54 93 58 94 61 95 55 96 56 97
REMARK SMILES IDX 59 98 57 99
REMARK H PARENT 8 11 92 27 81 52 49 63
REMARK Flexibility Score: inf
ROOT
ATOM      1  C   UNL     1      -0.610  -4.340   3.093  1.00  0.00     0.188 C 
ENDROOT
BRANCH   1   2
ATOM      2  O   UNL     1      -1.080  -5.575   3.620  1.00  0.00    -0.376 OA
BRANCH   2   3
ATOM      3  C   UNL     1      -0.440  -6.769   3.206  1.00  0.00     0.202 C 
BRANCH   3   4
ATOM      4  C   UNL     1      -0.468  -7.088   1.705  1.00  0.00     0.261 C 
BRANCH   4   5
ATOM      5  O   UNL     1      -0.344  -5.934   0.847  1.00  0.00    -0.461 OA
BRANCH   5   6
ATOM      6  C   UNL     1      -1.330  -5.763  -0.084  1.00  0.00     0.336 C 
ATOM      7  O   UNL     1      -2.173  -6.622  -0.332  1.00  0.00    -0.249 OA
BRANCH   6   8
ATOM      8  C   UNL     1      -1.282  -4.359  -0.815  1.00  0.00     0.158 C 
ATOM      9  C   UNL     1      -0.976  -4.750  -2.279  1.00  0.00     0.053 C 
BRANCH   8  10
ATOM     10  N   UNL     1      -0.116  -3.523  -0.349  1.00  0.00    -0.366 N 
ATOM     11  H   UNL     1       0.640  -4.030   0.027  1.00  0.00     0.162 HD
BRANCH  10  12
ATOM     12  C   UNL     1       0.049  -2.145  -0.371  1.00  0.00     0.038 A 
ATOM     13  C   UNL     1       2.736   0.405  -1.414  1.00  0.00     0.044 C 
ATOM     14  C   UNL     1       1.423  -0.190  -0.995  1.00  0.00    -0.046 A 
ATOM     15  C   UNL     1       0.354   0.656  -0.707  1.00  0.00     0.042 A 
ATOM     16  C   UNL     1       1.244  -1.584  -0.867  1.00  0.00     0.029 A 
ATOM     17  C   UNL     1      -0.797   0.122  -0.154  1.00  0.00     0.125 A 
ATOM     18  F   UNL     1      -1.790   0.941   0.220  1.00  0.00    -0.207 F 
ATOM     19  C   UNL     1      -0.921  -1.245   0.068  1.00  0.00     0.065 A 
ENDBRANCH  10  12
ENDBRANCH   8  10
BRANCH   8  20
ATOM     20  C   UNL     1      -2.642  -3.638  -0.691  1.00  0.00    -0.011 A 
ATOM     21  C   UNL     1      -3.011  -2.624  -1.602  1.00  0.00     0.010 A 
ATOM     22  C   UNL     1      -3.517  -3.884   0.389  1.00  0.00     0.010 A 
ATOM     23  C   UNL     1      -4.147  -1.838  -1.392  1.00  0.00     0.046 A 
ATOM     24  C   UNL     1      -4.675  -3.120   0.579  1.00  0.00     0.046 A 
ATOM     25  C   UNL     1      -4.964  -2.085  -0.299  1.00  0.00     0.115 A 
BRANCH  25  26
ATOM     26  O   UNL     1      -6.037  -1.267  -0.105  1.00  0.00    -0.508 OA
ATOM     27  H   UNL     1      -6.212  -0.574  -0.711  1.00  0.00     0.293 HD
ENDBRANCH  25  26
ENDBRANCH   8  20
ENDBRANCH   6   8
ENDBRANCH   5   6
ENDBRANCH   4   5
ENDBRANCH   3   4
ENDBRANCH   2   3
ENDBRANCH   1   2
BRANCH   1  28
ATOM     28  C   UNL     1       0.884  -4.124   2.751  1.00  0.00     0.188 C 
BRANCH  28  29
ATOM     29  O   UNL     1       1.780  -5.102   3.262  1.00  0.00    -0.376 OA
BRANCH  29  30
ATOM     30  C   UNL     1       2.910  -4.582   3.950  1.00  0.00     0.202 C 
BRANCH  30  31
ATOM     31  C   UNL     1       2.611  -4.448   5.446  1.00  0.00     0.261 C 
BRANCH  31  32
ATOM     32  O   UNL     1       1.391  -3.743   5.691  1.00  0.00    -0.460 OA
BRANCH  32  33
ATOM     33  C   UNL     1       1.474  -2.447   5.346  1.00  0.00     0.338 C 
ATOM     34  O   UNL     1       2.453  -1.828   4.972  1.00  0.00    -0.246 OA
BRANCH  33  35
ATOM     35  C   UNL     1       0.167  -1.812   5.469  1.00  0.00     0.060 A 
ATOM     36  C   UNL     1      -0.252  -1.030   4.375  1.00  0.00     0.016 A 
ATOM     37  C   UNL     1      -0.209  -1.555   6.779  1.00  0.00     0.016 A 
ATOM     38  C   UNL     1      -0.804   0.203   4.619  1.00  0.00     0.010 A 
ATOM     39  C   UNL     1      -0.697  -0.300   7.021  1.00  0.00     0.010 A 
ATOM     40  C   UNL     1      -0.853   0.596   5.943  1.00  0.00    -0.014 A 
BRANCH  40  41
ATOM     41  C   UNL     1      -0.842   1.988   6.323  1.00  0.00     0.031 A 
ATOM     42  C   UNL     1      -2.085   2.586   6.812  1.00  0.00     0.074 A 
ATOM     43  C   UNL     1       0.379   2.516   6.564  1.00  0.00     0.049 A 
ATOM     44  N   UNL     1      -2.222   3.827   7.119  1.00  0.00    -0.248 NA
ATOM     45  C   UNL     1      -3.305   1.798   6.975  1.00  0.00     0.031 C 
ATOM     46  C   UNL     1       0.716   3.502   7.580  1.00  0.00     0.029 A 
ATOM     47  N   UNL     1       1.587   2.297   5.878  1.00  0.00    -0.354 N 
ATOM     48  C   UNL     1      -3.380   3.912   7.850  1.00  0.00     0.074 A 
ATOM     49  C   UNL     1      -4.077   2.664   7.634  1.00  0.00     0.031 C 
ATOM     50  C   UNL     1       1.948   3.980   7.341  1.00  0.00     0.029 A 
ATOM     51  C   UNL     1       2.353   3.479   6.039  1.00  0.00     0.049 A 
ATOM     52  H   UNL     1       1.849   1.486   5.385  1.00  0.00     0.167 HD
ATOM     53  C   UNL     1      -3.529   4.935   8.735  1.00  0.00     0.037 A 
ATOM     54  C   UNL     1       2.632   4.297   4.974  1.00  0.00     0.037 A 
ATOM     55  C   UNL     1      -2.389   5.844   8.698  1.00  0.00     0.049 A 
ATOM     56  C   UNL     1       2.021   5.676   5.078  1.00  0.00     0.074 A 
ATOM     57  C   UNL     1      -1.240   5.929   9.469  1.00  0.00     0.029 A 
ATOM     58  N   UNL     1      -2.132   6.571   7.538  1.00  0.00    -0.354 N 
ATOM     59  N   UNL     1       1.019   5.963   5.860  1.00  0.00    -0.248 NA
ATOM     60  C   UNL     1       2.457   6.824   4.288  1.00  0.00     0.031 C 
ATOM     61  C   UNL     1      -0.270   6.664   8.745  1.00  0.00     0.029 A 
ATOM     62  C   UNL     1      -0.833   7.044   7.542  1.00  0.00     0.049 A 
ATOM     63  H   UNL     1      -2.783   6.726   6.816  1.00  0.00     0.167 HD
ATOM     64  C   UNL     1       0.686   7.280   5.716  1.00  0.00     0.074 A 
ATOM     65  C   UNL     1       1.615   7.780   4.720  1.00  0.00     0.031 C 
ATOM     66  C   UNL     1      -0.325   7.843   6.439  1.00  0.00     0.037 A 
BRANCH  53  67
ATOM     67  C   UNL     1      -4.525   4.822   9.855  1.00  0.00     0.064 A 
ATOM     68  C   UNL     1      -4.175   5.134  11.183  1.00  0.00     0.173 A 
ATOM     69  C   UNL     1      -5.824   4.313   9.675  1.00  0.00     0.173 A 
ATOM     70  F   UNL     1      -2.998   5.692  11.486  1.00  0.00    -0.203 F 
ATOM     71  C   UNL     1      -5.018   4.855  12.258  1.00  0.00     0.198 A 
ATOM     72  C   UNL     1      -6.647   3.985  10.755  1.00  0.00     0.198 A 
ATOM     73  F   UNL     1      -6.317   4.114   8.442  1.00  0.00    -0.203 F 
ATOM     74  F   UNL     1      -4.625   5.154  13.504  1.00  0.00    -0.200 F 
ATOM     75  C   UNL     1      -6.239   4.247  12.048  1.00  0.00     0.200 A 
ATOM     76  F   UNL     1      -7.830   3.393  10.536  1.00  0.00    -0.200 F 
ATOM     77  F   UNL     1      -7.022   3.925  13.087  1.00  0.00    -0.200 F 
ENDBRANCH  53  67
BRANCH  54  78
ATOM     78  C   UNL     1       2.744   3.545   3.698  1.00  0.00     0.064 A 
ATOM     79  C   UNL     1       3.865   2.719   3.506  1.00  0.00     0.173 A 
ATOM     80  C   UNL     1       1.567   3.231   3.014  1.00  0.00     0.173 A 
ATOM     81  F   UNL     1       5.025   3.010   4.115  1.00  0.00    -0.203 F 
ATOM     82  C   UNL     1       3.755   1.520   2.807  1.00  0.00     0.198 A 
ATOM     83  C   UNL     1       1.450   2.009   2.366  1.00  0.00     0.198 A 
ATOM     84  F   UNL     1       0.478   4.004   3.134  1.00  0.00    -0.203 F 
ATOM     85  F   UNL     1       4.808   0.696   2.711  1.00  0.00    -0.200 F 
ATOM     86  C   UNL     1       2.527   1.136   2.298  1.00  0.00     0.200 A 
ATOM     87  F   UNL     1       0.249   1.637   1.918  1.00  0.00    -0.200 F 
ATOM     88  F   UNL     1       2.374  -0.093   1.786  1.00  0.00    -0.200 F 
ENDBRANCH  54  78
BRANCH  66  89
ATOM     89  C   UNL     1      -0.874   9.230   6.267  1.00  0.00     0.064 A 
ATOM     90  C   UNL     1      -0.967   9.884   5.031  1.00  0.00     0.173 A 
ATOM     91  C   UNL     1      -1.481   9.887   7.365  1.00  0.00     0.173 A 
ATOM     92  F   UNL     1      -0.512   9.313   3.907  1.00  0.00    -0.203 F 
ATOM     93  C   UNL     1      -1.586  11.130   4.910  1.00  0.00     0.198 A 
ATOM     94  C   UNL     1      -2.147  11.100   7.229  1.00  0.00     0.198 A 
ATOM     95  F   UNL     1      -1.465   9.357   8.597  1.00  0.00    -0.203 F 
ATOM     96  F   UNL     1      -1.622  11.739   3.716  1.00  0.00    -0.200 F 
ATOM     97  C   UNL     1      -2.188  11.730   6.003  1.00  0.00     0.200 A 
ATOM     98  F   UNL     1      -2.764  11.643   8.288  1.00  0.00    -0.200 F 
ATOM     99  F   UNL     1      -2.821  12.903   5.871  1.00  0.00    -0.200 F 
ENDBRANCH  66  89
ENDBRANCH  40  41
ENDBRANCH  33  35
ENDBRANCH  32  33
ENDBRANCH  31  32
ENDBRANCH  30  31
ENDBRANCH  29  30
ENDBRANCH  28  29
ENDBRANCH   1  28
TORSDOF 21
