REMARK SMILES N#Cc1ccccc1C[C@@H](NC(=O)OCC1c2ccccc2-c2ccccc21)C(=O)OCCOCCOCCOC(=O)c1ccc(-c2c3nc(c(-c4c(F)c(F)c(F)c(F)c4F)c4ccc([nH]4)c(-c4c(F)c(F)c(F)c(F)c4F)c4nc(c(-c5c(F)c(F)c(F)c(F)c5F)c5ccc2[nH]5)C=C4)C=C3)cc1
REMARK SMILES IDX 35 1 34 2 33 3 32 4 31 5 29 6 30 7 10 8 9 9 8 10 3 11 4 12
REMARK SMILES IDX 5 13 7 14 6 15 2 16 1 17 11 18 12 19 13 21 14 22 15 23 16 24
REMARK SMILES IDX 17 25 28 26 18 27 22 28 23 29 27 30 19 31 21 32 24 33 26 34
REMARK SMILES IDX 20 35 25 36 36 37 37 38 38 39 39 40 40 41 41 42 42 43 43 44
REMARK SMILES IDX 44 45 105 46 45 47 104 48 46 49 47 50 48 51 98 52 49 53
REMARK SMILES IDX 103 54 97 55 99 56 50 57 102 58 96 59 95 60 51 62 83 63
REMARK SMILES IDX 63 64 82 65 64 66 67 67 81 68 100 69 65 70 66 71 80 73
REMARK SMILES IDX 101 74 68 75 52 76 53 77 61 78 54 79 55 80 59 81 62 82 56 83
REMARK SMILES IDX 57 84 60 85 58 86 84 87 85 88 93 89 86 90 87 91 91 92 94 93
REMARK SMILES IDX 88 94 89 95 92 96 90 97 69 98 70 99 78 100 71 101 72 102
REMARK SMILES IDX 76 103 79 104 73 105 74 106 77 107 75 108
REMARK H PARENT 11 20 99 61 67 72
REMARK Flexibility Score: inf
ROOT
ATOM      1  C   UNL     1      -3.506  -4.863  -1.952  1.00  0.00     0.188 C 
ENDROOT
BRANCH   1   2
ATOM      2  O   UNL     1      -3.772  -6.246  -1.818  1.00  0.00    -0.376 OA
BRANCH   2   3
ATOM      3  C   UNL     1      -2.816  -7.054  -1.145  1.00  0.00     0.202 C 
BRANCH   3   4
ATOM      4  C   UNL     1      -1.309  -6.759  -1.258  1.00  0.00     0.261 C 
BRANCH   4   5
ATOM      5  O   UNL     1      -0.857  -5.451  -0.825  1.00  0.00    -0.462 OA
BRANCH   5   6
ATOM      6  C   UNL     1      -0.245  -4.656  -1.752  1.00  0.00     0.329 C 
ATOM      7  O   UNL     1      -0.194  -4.922  -2.951  1.00  0.00    -0.250 OA
BRANCH   6   8
ATOM      8  C   UNL     1       0.572  -3.483  -1.133  1.00  0.00     0.199 C 
BRANCH   8   9
ATOM      9  C   UNL     1       0.092  -2.708   0.130  1.00  0.00     0.074 C 
BRANCH   9  10
ATOM     10  C   UNL     1       0.643  -1.267   0.188  1.00  0.00    -0.028 A 
ATOM     11  C   UNL     1      -0.149  -0.104   0.058  1.00  0.00     0.055 A 
ATOM     12  C   UNL     1       0.446   1.171  -0.008  1.00  0.00     0.020 A 
ATOM     13  C   UNL     1       1.823   1.318   0.087  1.00  0.00     0.001 A 
ATOM     14  C   UNL     1       2.025  -1.075   0.367  1.00  0.00     0.005 A 
ATOM     15  C   UNL     1       2.609   0.194   0.294  1.00  0.00     0.000 A 
BRANCH  11  16
ATOM     16  C   UNL     1      -1.581  -0.114   0.056  1.00  0.00     0.099 C 
ATOM     17  N   UNL     1      -2.734  -0.035   0.078  1.00  0.00    -0.192 NA
ENDBRANCH  11  16
ENDBRANCH   9  10
ENDBRANCH   8   9
BRANCH   8  18
ATOM     18  N   UNL     1       1.982  -3.868  -1.009  1.00  0.00    -0.308 N 
ATOM     19  C   UNL     1       2.453  -5.050  -0.513  1.00  0.00     0.407 C 
ATOM     20  H   UNL     1       2.651  -3.213  -1.312  1.00  0.00     0.168 HD
ATOM     21  O   UNL     1       3.565  -5.150  -0.020  1.00  0.00    -0.225 OA
BRANCH  19  22
ATOM     22  O   UNL     1       1.624  -6.068  -0.811  1.00  0.00    -0.449 OA
BRANCH  22  23
ATOM     23  C   UNL     1       2.184  -7.366  -1.028  1.00  0.00     0.248 C 
BRANCH  23  24
ATOM     24  C   UNL     1       2.591  -7.582  -2.510  1.00  0.00     0.088 C 
ATOM     25  C   UNL     1       3.795  -6.720  -2.863  1.00  0.00    -0.029 A 
ATOM     26  C   UNL     1       3.194  -8.975  -2.594  1.00  0.00    -0.029 A 
ATOM     27  C   UNL     1       3.827  -5.370  -3.176  1.00  0.00     0.005 A 
ATOM     28  C   UNL     1       4.973  -7.477  -2.710  1.00  0.00    -0.014 A 
ATOM     29  C   UNL     1       4.605  -8.876  -2.602  1.00  0.00    -0.014 A 
ATOM     30  C   UNL     1       2.541 -10.197  -2.574  1.00  0.00     0.005 A 
ATOM     31  C   UNL     1       5.060  -4.725  -3.132  1.00  0.00     0.000 A 
ATOM     32  C   UNL     1       6.198  -6.838  -2.676  1.00  0.00     0.009 A 
ATOM     33  C   UNL     1       5.378 -10.019  -2.558  1.00  0.00     0.009 A 
ATOM     34  C   UNL     1       3.325 -11.348  -2.538  1.00  0.00     0.000 A 
ATOM     35  C   UNL     1       6.230  -5.447  -2.848  1.00  0.00     0.001 A 
ATOM     36  C   UNL     1       4.729 -11.259  -2.520  1.00  0.00     0.001 A 
ENDBRANCH  23  24
ENDBRANCH  22  23
ENDBRANCH  19  22
ENDBRANCH   8  18
ENDBRANCH   6   8
ENDBRANCH   5   6
ENDBRANCH   4   5
ENDBRANCH   3   4
ENDBRANCH   2   3
ENDBRANCH   1   2
BRANCH   1  37
ATOM     37  C   UNL     1      -3.182  -4.064  -0.682  1.00  0.00     0.188 C 
BRANCH  37  38
ATOM     38  O   UNL     1      -3.022  -4.795   0.506  1.00  0.00    -0.376 OA
BRANCH  38  39
ATOM     39  C   UNL     1      -4.160  -5.006   1.328  1.00  0.00     0.202 C 
BRANCH  39  40
ATOM     40  C   UNL     1      -5.625  -4.798   0.868  1.00  0.00     0.261 C 
BRANCH  40  41
ATOM     41  O   UNL     1      -5.880  -4.071  -0.346  1.00  0.00    -0.460 OA
BRANCH  41  42
ATOM     42  C   UNL     1      -5.987  -2.718  -0.268  1.00  0.00     0.338 C 
ATOM     43  O   UNL     1      -5.942  -2.044   0.743  1.00  0.00    -0.246 OA
BRANCH  42  44
ATOM     44  C   UNL     1      -5.910  -2.183  -1.657  1.00  0.00     0.060 A 
ATOM     45  C   UNL     1      -4.754  -1.506  -2.080  1.00  0.00     0.016 A 
ATOM     46  C   UNL     1      -6.940  -2.401  -2.563  1.00  0.00     0.016 A 
ATOM     47  C   UNL     1      -4.610  -1.048  -3.389  1.00  0.00     0.010 A 
ATOM     48  C   UNL     1      -6.818  -1.909  -3.869  1.00  0.00     0.010 A 
ATOM     49  C   UNL     1      -5.661  -1.219  -4.286  1.00  0.00    -0.014 A 
BRANCH  49  50
ATOM     50  C   UNL     1      -5.647  -0.535  -5.601  1.00  0.00     0.031 A 
ATOM     51  C   UNL     1      -6.444   0.728  -5.748  1.00  0.00     0.074 A 
ATOM     52  C   UNL     1      -4.964  -1.026  -6.649  1.00  0.00     0.049 A 
ATOM     53  N   UNL     1      -6.751   1.402  -6.826  1.00  0.00    -0.248 NA
ATOM     54  C   UNL     1      -6.976   1.302  -4.502  1.00  0.00     0.031 C 
ATOM     55  C   UNL     1      -4.078  -2.186  -6.617  1.00  0.00     0.029 A 
ATOM     56  N   UNL     1      -4.937  -0.615  -7.960  1.00  0.00    -0.354 N 
ATOM     57  C   UNL     1      -7.534   2.463  -6.393  1.00  0.00     0.074 A 
ATOM     58  C   UNL     1      -7.677   2.327  -4.959  1.00  0.00     0.031 C 
ATOM     59  C   UNL     1      -3.615  -2.412  -7.859  1.00  0.00     0.029 A 
ATOM     60  C   UNL     1      -4.215  -1.446  -8.780  1.00  0.00     0.049 A 
ATOM     61  H   UNL     1      -5.392   0.198  -8.280  1.00  0.00     0.167 HD
ATOM     62  C   UNL     1      -8.083   3.460  -7.127  1.00  0.00     0.037 A 
ATOM     63  C   UNL     1      -4.093  -1.451 -10.122  1.00  0.00     0.037 A 
ATOM     64  C   UNL     1      -7.945   3.579  -8.555  1.00  0.00     0.049 A 
ATOM     65  C   UNL     1      -4.825  -0.411 -10.937  1.00  0.00     0.074 A 
ATOM     66  C   UNL     1      -8.460   4.550  -9.393  1.00  0.00     0.029 A 
ATOM     67  N   UNL     1      -7.249   2.686  -9.358  1.00  0.00    -0.354 N 
ATOM     68  N   UNL     1      -5.565   0.593 -10.531  1.00  0.00    -0.248 NA
ATOM     69  C   UNL     1      -4.713  -0.513 -12.400  1.00  0.00     0.031 C 
ATOM     70  C   UNL     1      -8.139   4.206 -10.710  1.00  0.00     0.029 A 
ATOM     71  C   UNL     1      -7.358   3.061 -10.687  1.00  0.00     0.049 A 
ATOM     72  H   UNL     1      -6.753   1.901  -9.031  1.00  0.00     0.167 HD
ATOM     73  C   UNL     1      -5.975   1.258 -11.681  1.00  0.00     0.074 A 
ATOM     74  C   UNL     1      -5.392   0.552 -12.801  1.00  0.00     0.031 C 
ATOM     75  C   UNL     1      -6.764   2.356 -11.796  1.00  0.00     0.037 A 
BRANCH  62  76
ATOM     76  C   UNL     1      -8.924   4.469  -6.397  1.00  0.00     0.064 A 
ATOM     77  C   UNL     1      -8.370   5.367  -5.471  1.00  0.00     0.173 A 
ATOM     78  C   UNL     1     -10.306   4.540  -6.629  1.00  0.00     0.173 A 
ATOM     79  F   UNL     1      -7.055   5.337  -5.204  1.00  0.00    -0.203 F 
ATOM     80  C   UNL     1      -9.175   6.262  -4.771  1.00  0.00     0.198 A 
ATOM     81  C   UNL     1     -11.101   5.465  -5.958  1.00  0.00     0.198 A 
ATOM     82  F   UNL     1     -10.889   3.712  -7.510  1.00  0.00    -0.203 F 
ATOM     83  F   UNL     1      -8.633   7.059  -3.840  1.00  0.00    -0.200 F 
ATOM     84  C   UNL     1     -10.538   6.314  -5.019  1.00  0.00     0.200 A 
ATOM     85  F   UNL     1     -12.415   5.527  -6.214  1.00  0.00    -0.200 F 
ATOM     86  F   UNL     1     -11.310   7.178  -4.346  1.00  0.00    -0.200 F 
ENDBRANCH  62  76
BRANCH  63  87
ATOM     87  C   UNL     1      -3.259  -2.484 -10.794  1.00  0.00     0.064 A 
ATOM     88  C   UNL     1      -2.094  -2.125 -11.487  1.00  0.00     0.173 A 
ATOM     89  C   UNL     1      -3.616  -3.841 -10.783  1.00  0.00     0.173 A 
ATOM     90  F   UNL     1      -1.727  -0.837 -11.554  1.00  0.00    -0.203 F 
ATOM     91  C   UNL     1      -1.329  -3.079 -12.155  1.00  0.00     0.198 A 
ATOM     92  C   UNL     1      -2.831  -4.799 -11.423  1.00  0.00     0.198 A 
ATOM     93  F   UNL     1      -4.726  -4.240 -10.145  1.00  0.00    -0.203 F 
ATOM     94  F   UNL     1      -0.250  -2.698 -12.854  1.00  0.00    -0.200 F 
ATOM     95  C   UNL     1      -1.693  -4.416 -12.116  1.00  0.00     0.200 A 
ATOM     96  F   UNL     1      -3.181  -6.091 -11.375  1.00  0.00    -0.200 F 
ATOM     97  F   UNL     1      -0.954  -5.332 -12.756  1.00  0.00    -0.200 F 
ENDBRANCH  63  87
BRANCH  75  98
ATOM     98  C   UNL     1      -7.018   2.895 -13.177  1.00  0.00     0.064 A 
ATOM     99  C   UNL     1      -7.829   2.216 -14.099  1.00  0.00     0.173 A 
ATOM    100  C   UNL     1      -6.501   4.144 -13.558  1.00  0.00     0.173 A 
ATOM    101  F   UNL     1      -8.338   1.013 -13.794  1.00  0.00    -0.203 F 
ATOM    102  C   UNL     1      -8.098   2.759 -15.354  1.00  0.00     0.198 A 
ATOM    103  C   UNL     1      -6.802   4.700 -14.798  1.00  0.00     0.198 A 
ATOM    104  F   UNL     1      -5.726   4.841 -12.713  1.00  0.00    -0.203 F 
ATOM    105  F   UNL     1      -8.840   2.073 -16.233  1.00  0.00    -0.200 F 
ATOM    106  C   UNL     1      -7.594   4.005 -15.698  1.00  0.00     0.200 A 
ATOM    107  F   UNL     1      -6.330   5.913 -15.119  1.00  0.00    -0.200 F 
ATOM    108  F   UNL     1      -7.871   4.534 -16.897  1.00  0.00    -0.200 F 
ENDBRANCH  75  98
ENDBRANCH  49  50
ENDBRANCH  42  44
ENDBRANCH  41  42
ENDBRANCH  40  41
ENDBRANCH  39  40
ENDBRANCH  38  39
ENDBRANCH  37  38
ENDBRANCH   1  37
TORSDOF 24
