REMARK SMILES Cc1cccc(C(=O)NCc2ccc(C(=O)OCCOCCOCCOC(=O)c3ccc(-c4c5nc(c(-c6c(F)c(F)c(F)c(F)c6F)c6ccc([nH]6)c(-c6c(F)c(F)c(F)c(F)c6F)c6nc(c(-c7c(F)c(F)c(F)c(F)c7F)c7ccc4[nH]7)C=C6)C=C5)cc3)o2)c1O
REMARK SMILES IDX 21 1 20 2 19 3 18 4 17 5 15 6 16 7 14 8 11 9 12 10 92 11
REMARK SMILES IDX 13 12 10 13 9 14 7 15 8 16 6 18 1 19 2 20 3 21 93 22 4 23
REMARK SMILES IDX 5 24 94 25 22 27 23 28 24 29 25 30 26 31 27 32 28 33 29 34
REMARK SMILES IDX 30 35 91 36 31 37 90 38 32 39 33 40 34 41 84 42 35 43 89 44
REMARK SMILES IDX 83 45 85 46 36 47 88 48 82 49 81 50 37 52 69 53 49 54 68 55
REMARK SMILES IDX 50 56 53 57 67 58 86 59 51 60 52 61 66 63 87 64 54 65 38 66
REMARK SMILES IDX 39 67 47 68 40 69 41 70 45 71 48 72 42 73 43 74 46 75 44 76
REMARK SMILES IDX 70 77 71 78 79 79 72 80 73 81 77 82 80 83 74 84 75 85 78 86
REMARK SMILES IDX 76 87 55 88 56 89 64 90 57 91 58 92 62 93 65 94 59 95 60 96
REMARK SMILES IDX 63 97 61 98
REMARK H PARENT 9 17 94 26 85 51 53 62
REMARK Flexibility Score: inf
ROOT
ATOM      1  C   UNL     1       7.334   1.852  -4.067  1.00  0.00     0.188 C 
ENDROOT
BRANCH   1   2
ATOM      2  O   UNL     1       7.479   1.391  -5.405  1.00  0.00    -0.376 OA
BRANCH   2   3
ATOM      3  C   UNL     1       7.153   2.254  -6.488  1.00  0.00     0.202 C 
BRANCH   3   4
ATOM      4  C   UNL     1       5.679   2.632  -6.648  1.00  0.00     0.261 C 
BRANCH   4   5
ATOM      5  O   UNL     1       5.204   3.444  -5.562  1.00  0.00    -0.457 OA
BRANCH   5   6
ATOM      6  C   UNL     1       4.228   2.894  -4.780  1.00  0.00     0.374 C 
ATOM      7  O   UNL     1       3.670   1.827  -5.008  1.00  0.00    -0.242 OA
BRANCH   6   8
ATOM      8  C   UNL     1       4.061   3.691  -3.586  1.00  0.00     0.211 A 
ATOM      9  C   UNL     1       3.618   3.980  -1.440  1.00  0.00     0.124 A 
ATOM     10  C   UNL     1       4.039   5.203  -1.920  1.00  0.00     0.048 A 
ATOM     11  O   UNL     1       3.623   3.061  -2.447  1.00  0.00    -0.452 OA
ATOM     12  C   UNL     1       4.328   5.018  -3.295  1.00  0.00     0.058 A 
BRANCH   9  13
ATOM     13  C   UNL     1       3.164   3.518  -0.101  1.00  0.00     0.191 C 
BRANCH  13  14
ATOM     14  N   UNL     1       1.723   3.611  -0.065  1.00  0.00    -0.345 N 
ATOM     15  C   UNL     1       0.643   2.771  -0.114  1.00  0.00     0.255 C 
ATOM     16  O   UNL     1      -0.430   3.381  -0.152  1.00  0.00    -0.269 OA
ATOM     17  H   UNL     1       1.434   4.548   0.019  1.00  0.00     0.164 HD
BRANCH  15  18
ATOM     18  C   UNL     1       0.671   1.263  -0.117  1.00  0.00     0.081 A 
ATOM     19  C   UNL     1      -1.865  -1.647   0.124  1.00  0.00     0.048 C 
ATOM     20  C   UNL     1      -0.578  -0.876   0.012  1.00  0.00    -0.008 A 
ATOM     21  C   UNL     1       0.620  -1.578  -0.142  1.00  0.00     0.007 A 
ATOM     22  C   UNL     1      -0.538   0.535   0.041  1.00  0.00     0.131 A 
ATOM     23  C   UNL     1       1.816  -0.889  -0.301  1.00  0.00     0.001 A 
ATOM     24  C   UNL     1       1.834   0.511  -0.321  1.00  0.00     0.018 A 
BRANCH  22  25
ATOM     25  O   UNL     1      -1.716   1.205   0.256  1.00  0.00    -0.507 OA
ATOM     26  H   UNL     1      -2.515   0.726   0.361  1.00  0.00     0.293 HD
ENDBRANCH  22  25
ENDBRANCH  15  18
ENDBRANCH  13  14
ENDBRANCH   9  13
ENDBRANCH   6   8
ENDBRANCH   5   6
ENDBRANCH   4   5
ENDBRANCH   3   4
ENDBRANCH   2   3
ENDBRANCH   1   2
BRANCH   1  27
ATOM     27  C   UNL     1       7.761   3.285  -3.699  1.00  0.00     0.188 C 
BRANCH  27  28
ATOM     28  O   UNL     1       8.681   3.878  -4.604  1.00  0.00    -0.376 OA
BRANCH  28  29
ATOM     29  C   UNL     1       9.984   4.123  -4.092  1.00  0.00     0.202 C 
BRANCH  29  30
ATOM     30  C   UNL     1      10.865   2.871  -4.122  1.00  0.00     0.261 C 
BRANCH  30  31
ATOM     31  O   UNL     1      10.421   1.821  -3.247  1.00  0.00    -0.460 OA
BRANCH  31  32
ATOM     32  C   UNL     1      10.451   2.097  -1.925  1.00  0.00     0.338 C 
ATOM     33  O   UNL     1      10.834   3.123  -1.392  1.00  0.00    -0.246 OA
BRANCH  32  34
ATOM     34  C   UNL     1       9.789   0.996  -1.203  1.00  0.00     0.060 A 
ATOM     35  C   UNL     1       8.773   1.315  -0.295  1.00  0.00     0.016 A 
ATOM     36  C   UNL     1      10.194  -0.329  -1.384  1.00  0.00     0.016 A 
ATOM     37  C   UNL     1       8.195   0.308   0.476  1.00  0.00     0.010 A 
ATOM     38  C   UNL     1       9.622  -1.336  -0.603  1.00  0.00     0.010 A 
ATOM     39  C   UNL     1       8.649  -1.014   0.359  1.00  0.00    -0.014 A 
BRANCH  39  40
ATOM     40  C   UNL     1       8.246  -2.008   1.381  1.00  0.00     0.031 A 
ATOM     41  C   UNL     1       9.128  -2.195   2.585  1.00  0.00     0.074 A 
ATOM     42  C   UNL     1       7.104  -2.705   1.267  1.00  0.00     0.049 A 
ATOM     43  N   UNL     1       8.948  -2.947   3.640  1.00  0.00    -0.248 NA
ATOM     44  C   UNL     1      10.385  -1.428   2.599  1.00  0.00     0.031 C 
ATOM     45  C   UNL     1       6.168  -2.622   0.149  1.00  0.00     0.029 A 
ATOM     46  N   UNL     1       6.540  -3.627   2.113  1.00  0.00    -0.354 N 
ATOM     47  C   UNL     1      10.059  -2.737   4.446  1.00  0.00     0.074 A 
ATOM     48  C   UNL     1      10.927  -1.817   3.743  1.00  0.00     0.031 C 
ATOM     49  C   UNL     1       5.143  -3.463   0.377  1.00  0.00     0.029 A 
ATOM     50  C   UNL     1       5.354  -4.141   1.656  1.00  0.00     0.049 A 
ATOM     51  H   UNL     1       6.949  -3.894   2.968  1.00  0.00     0.167 HD
ATOM     52  C   UNL     1      10.329  -3.252   5.668  1.00  0.00     0.037 A 
ATOM     53  C   UNL     1       4.533  -5.054   2.211  1.00  0.00     0.037 A 
ATOM     54  C   UNL     1       9.480  -4.179   6.366  1.00  0.00     0.049 A 
ATOM     55  C   UNL     1       4.868  -5.634   3.562  1.00  0.00     0.074 A 
ATOM     56  C   UNL     1       9.663  -4.749   7.613  1.00  0.00     0.029 A 
ATOM     57  N   UNL     1       8.287  -4.679   5.868  1.00  0.00    -0.354 N 
ATOM     58  N   UNL     1       5.892  -5.386   4.341  1.00  0.00    -0.248 NA
ATOM     59  C   UNL     1       3.920  -6.613   4.113  1.00  0.00     0.031 C 
ATOM     60  C   UNL     1       8.598  -5.625   7.854  1.00  0.00     0.029 A 
ATOM     61  C   UNL     1       7.730  -5.565   6.776  1.00  0.00     0.049 A 
ATOM     62  H   UNL     1       7.894  -4.441   4.997  1.00  0.00     0.167 HD
ATOM     63  C   UNL     1       5.700  -6.155   5.482  1.00  0.00     0.074 A 
ATOM     64  C   UNL     1       4.453  -6.868   5.300  1.00  0.00     0.031 C 
ATOM     65  C   UNL     1       6.485  -6.261   6.583  1.00  0.00     0.037 A 
BRANCH  52  66
ATOM     66  C   UNL     1      11.610  -2.827   6.320  1.00  0.00     0.064 A 
ATOM     67  C   UNL     1      11.766  -1.538   6.853  1.00  0.00     0.173 A 
ATOM     68  C   UNL     1      12.687  -3.718   6.423  1.00  0.00     0.173 A 
ATOM     69  F   UNL     1      10.770  -0.644   6.761  1.00  0.00    -0.203 F 
ATOM     70  C   UNL     1      12.965  -1.150   7.445  1.00  0.00     0.198 A 
ATOM     71  C   UNL     1      13.876  -3.334   7.037  1.00  0.00     0.198 A 
ATOM     72  F   UNL     1      12.586  -4.960   5.928  1.00  0.00    -0.203 F 
ATOM     73  F   UNL     1      13.108   0.100   7.907  1.00  0.00    -0.200 F 
ATOM     74  C   UNL     1      14.016  -2.049   7.541  1.00  0.00     0.200 A 
ATOM     75  F   UNL     1      14.889  -4.205   7.135  1.00  0.00    -0.200 F 
ATOM     76  F   UNL     1      15.170  -1.674   8.111  1.00  0.00    -0.200 F 
ENDBRANCH  52  66
BRANCH  53  77
ATOM     77  C   UNL     1       3.294  -5.465   1.504  1.00  0.00     0.064 A 
ATOM     78  C   UNL     1       2.033  -5.074   1.973  1.00  0.00     0.173 A 
ATOM     79  C   UNL     1       3.346  -6.274   0.361  1.00  0.00     0.173 A 
ATOM     80  F   UNL     1       1.934  -4.319   3.077  1.00  0.00    -0.203 F 
ATOM     81  C   UNL     1       0.868  -5.492   1.335  1.00  0.00     0.198 A 
ATOM     82  C   UNL     1       2.181  -6.673  -0.290  1.00  0.00     0.198 A 
ATOM     83  F   UNL     1       4.530  -6.675  -0.125  1.00  0.00    -0.203 F 
ATOM     84  F   UNL     1      -0.328  -5.132   1.822  1.00  0.00    -0.200 F 
ATOM     85  C   UNL     1       0.942  -6.288   0.202  1.00  0.00     0.200 A 
ATOM     86  F   UNL     1       2.257  -7.435  -1.389  1.00  0.00    -0.200 F 
ATOM     87  F   UNL     1      -0.179  -6.686  -0.413  1.00  0.00    -0.200 F 
ENDBRANCH  53  77
BRANCH  65  88
ATOM     88  C   UNL     1       6.004  -7.155   7.688  1.00  0.00     0.064 A 
ATOM     89  C   UNL     1       6.029  -8.552   7.568  1.00  0.00     0.173 A 
ATOM     90  C   UNL     1       5.539  -6.606   8.893  1.00  0.00     0.173 A 
ATOM     91  F   UNL     1       6.452  -9.125   6.431  1.00  0.00    -0.203 F 
ATOM     92  C   UNL     1       5.580  -9.367   8.605  1.00  0.00     0.198 A 
ATOM     93  C   UNL     1       5.115  -7.425   9.937  1.00  0.00     0.198 A 
ATOM     94  F   UNL     1       5.502  -5.276   9.060  1.00  0.00    -0.203 F 
ATOM     95  F   UNL     1       5.569 -10.698   8.451  1.00  0.00    -0.200 F 
ATOM     96  C   UNL     1       5.129  -8.803   9.789  1.00  0.00     0.200 A 
ATOM     97  F   UNL     1       4.690  -6.879  11.084  1.00  0.00    -0.200 F 
ATOM     98  F   UNL     1       4.698  -9.589  10.785  1.00  0.00    -0.200 F 
ENDBRANCH  65  88
ENDBRANCH  39  40
ENDBRANCH  32  34
ENDBRANCH  31  32
ENDBRANCH  30  31
ENDBRANCH  29  30
ENDBRANCH  28  29
ENDBRANCH  27  28
ENDBRANCH   1  27
TORSDOF 21
