REMARK SMILES O=C(OCCOCCOCCOC(=O)[C@@H]1CCCC[C@H]1C(=O)N[C@@H]1CONC1=O)c1ccc(-c2c3nc(c(-c4c(F)c(F)c(F)c(F)c4F)c4ccc([nH]4)c(-c4c(F)c(F)c(F)c(F)c4F)c4nc(c(-c5c(F)c(F)c(F)c(F)c5F)c5ccc2[nH]5)C=C4)C=C3)cc1
REMARK SMILES IDX 7 1 6 2 5 3 4 4 3 5 2 6 1 7 30 8 31 9 92 10 32 11 91 12
REMARK SMILES IDX 33 13 34 14 35 15 85 16 36 17 90 18 84 19 86 20 37 21 89 22
REMARK SMILES IDX 83 23 82 24 38 26 70 27 50 28 69 29 51 30 54 31 68 32 87 33
REMARK SMILES IDX 52 34 53 35 67 37 88 38 55 39 39 40 40 41 48 42 41 43 42 44
REMARK SMILES IDX 46 45 49 46 43 47 44 48 47 49 45 50 71 51 72 52 80 53 73 54
REMARK SMILES IDX 74 55 78 56 81 57 75 58 76 59 79 60 77 61 56 62 57 63 65 64
REMARK SMILES IDX 58 65 59 66 63 67 66 68 60 69 61 70 64 71 62 72 8 73 9 74
REMARK SMILES IDX 10 75 11 76 12 77 13 78 14 79 15 80 16 81 20 82 17 83 19 84
REMARK SMILES IDX 18 85 21 86 22 87 23 88 24 90 25 91 28 92 26 93 27 94 29 95
REMARK H PARENT 86 25 54 36 23 89 27 96
REMARK Flexibility Score: inf
ROOT
ATOM      1  C   UNL     1       2.592  -0.384   1.565  1.00  0.00     0.188 C 
ENDROOT
BRANCH   1   2
ATOM      2  O   UNL     1       3.902  -0.813   1.186  1.00  0.00    -0.376 OA
BRANCH   2   3
ATOM      3  C   UNL     1       4.879   0.223   1.150  1.00  0.00     0.202 C 
BRANCH   3   4
ATOM      4  C   UNL     1       4.606   1.462   0.281  1.00  0.00     0.261 C 
BRANCH   4   5
ATOM      5  O   UNL     1       3.332   1.542  -0.384  1.00  0.00    -0.460 OA
BRANCH   5   6
ATOM      6  C   UNL     1       2.790   0.906  -1.442  1.00  0.00     0.338 C 
ATOM      7  O   UNL     1       1.632   1.192  -1.748  1.00  0.00    -0.246 OA
BRANCH   6   8
ATOM      8  C   UNL     1       3.468  -0.160  -2.241  1.00  0.00     0.060 A 
ATOM      9  C   UNL     1       4.787  -0.569  -2.091  1.00  0.00     0.016 A 
ATOM     10  C   UNL     1       2.692  -0.813  -3.226  1.00  0.00     0.016 A 
ATOM     11  C   UNL     1       5.284  -1.652  -2.822  1.00  0.00     0.010 A 
ATOM     12  C   UNL     1       3.202  -1.868  -3.997  1.00  0.00     0.010 A 
ATOM     13  C   UNL     1       4.497  -2.326  -3.773  1.00  0.00    -0.014 A 
BRANCH  13  14
ATOM     14  C   UNL     1       5.146  -3.417  -4.546  1.00  0.00     0.031 A 
ATOM     15  C   UNL     1       6.255  -3.054  -5.466  1.00  0.00     0.074 A 
ATOM     16  C   UNL     1       4.782  -4.711  -4.465  1.00  0.00     0.049 A 
ATOM     17  N   UNL     1       6.991  -3.850  -6.186  1.00  0.00    -0.248 NA
ATOM     18  C   UNL     1       6.479  -1.619  -5.702  1.00  0.00     0.031 C 
ATOM     19  C   UNL     1       3.516  -5.171  -3.942  1.00  0.00     0.029 A 
ATOM     20  N   UNL     1       5.436  -5.885  -4.781  1.00  0.00    -0.354 N 
ATOM     21  C   UNL     1       7.651  -3.022  -7.070  1.00  0.00     0.074 A 
ATOM     22  C   UNL     1       7.347  -1.656  -6.700  1.00  0.00     0.031 C 
ATOM     23  C   UNL     1       3.556  -6.503  -3.790  1.00  0.00     0.029 A 
ATOM     24  C   UNL     1       4.830  -7.009  -4.240  1.00  0.00     0.049 A 
ATOM     25  H   UNL     1       6.250  -5.920  -5.334  1.00  0.00     0.167 HD
ATOM     26  C   UNL     1       8.327  -3.397  -8.175  1.00  0.00     0.037 A 
ATOM     27  C   UNL     1       5.254  -8.289  -4.129  1.00  0.00     0.037 A 
ATOM     28  C   UNL     1       8.532  -4.769  -8.555  1.00  0.00     0.049 A 
ATOM     29  C   UNL     1       6.296  -8.669  -5.138  1.00  0.00     0.074 A 
ATOM     30  C   UNL     1       9.209  -5.259  -9.654  1.00  0.00     0.029 A 
ATOM     31  N   UNL     1       8.040  -5.870  -7.860  1.00  0.00    -0.354 N 
ATOM     32  N   UNL     1       6.954  -7.881  -5.951  1.00  0.00    -0.248 NA
ATOM     33  C   UNL     1       6.513 -10.103  -5.370  1.00  0.00     0.031 C 
ATOM     34  C   UNL     1       9.101  -6.652  -9.644  1.00  0.00     0.029 A 
ATOM     35  C   UNL     1       8.411  -7.039  -8.506  1.00  0.00     0.049 A 
ATOM     36  H   UNL     1       7.507  -5.825  -7.033  1.00  0.00     0.167 HD
ATOM     37  C   UNL     1       7.534  -8.714  -6.885  1.00  0.00     0.074 A 
ATOM     38  C   UNL     1       7.284 -10.075  -6.448  1.00  0.00     0.031 C 
ATOM     39  C   UNL     1       8.128  -8.377  -8.052  1.00  0.00     0.037 A 
BRANCH  26  40
ATOM     40  C   UNL     1       8.740  -2.299  -9.100  1.00  0.00     0.064 A 
ATOM     41  C   UNL     1       9.750  -1.386  -8.768  1.00  0.00     0.173 A 
ATOM     42  C   UNL     1       8.057  -2.119 -10.314  1.00  0.00     0.173 A 
ATOM     43  F   UNL     1      10.388  -1.485  -7.592  1.00  0.00    -0.203 F 
ATOM     44  C   UNL     1      10.049  -0.320  -9.610  1.00  0.00     0.198 A 
ATOM     45  C   UNL     1       8.382  -1.072 -11.168  1.00  0.00     0.198 A 
ATOM     46  F   UNL     1       7.058  -2.946 -10.658  1.00  0.00    -0.203 F 
ATOM     47  F   UNL     1      10.969   0.582  -9.242  1.00  0.00    -0.200 F 
ATOM     48  C   UNL     1       9.372  -0.169 -10.812  1.00  0.00     0.200 A 
ATOM     49  F   UNL     1       7.721  -0.923 -12.324  1.00  0.00    -0.200 F 
ATOM     50  F   UNL     1       9.660   0.861 -11.619  1.00  0.00    -0.200 F 
ENDBRANCH  26  40
BRANCH  27  51
ATOM     51  C   UNL     1       4.656  -9.325  -3.217  1.00  0.00     0.064 A 
ATOM     52  C   UNL     1       5.487 -10.050  -2.336  1.00  0.00     0.173 A 
ATOM     53  C   UNL     1       3.300  -9.680  -3.213  1.00  0.00     0.173 A 
ATOM     54  F   UNL     1       6.810  -9.820  -2.324  1.00  0.00    -0.203 F 
ATOM     55  C   UNL     1       4.989 -11.062  -1.509  1.00  0.00     0.198 A 
ATOM     56  C   UNL     1       2.789 -10.639  -2.333  1.00  0.00     0.198 A 
ATOM     57  F   UNL     1       2.457  -9.144  -4.107  1.00  0.00    -0.203 F 
ATOM     58  F   UNL     1       5.830 -11.792  -0.760  1.00  0.00    -0.200 F 
ATOM     59  C   UNL     1       3.634 -11.340  -1.490  1.00  0.00     0.200 A 
ATOM     60  F   UNL     1       1.476 -10.910  -2.333  1.00  0.00    -0.200 F 
ATOM     61  F   UNL     1       3.151 -12.305  -0.696  1.00  0.00    -0.200 F 
ENDBRANCH  27  51
BRANCH  39  62
ATOM     62  C   UNL     1       8.526  -9.513  -8.935  1.00  0.00     0.064 A 
ATOM     63  C   UNL     1       7.574 -10.241  -9.665  1.00  0.00     0.173 A 
ATOM     64  C   UNL     1       9.875  -9.858  -9.066  1.00  0.00     0.173 A 
ATOM     65  F   UNL     1       6.267  -9.959  -9.547  1.00  0.00    -0.203 F 
ATOM     66  C   UNL     1       7.965 -11.289 -10.490  1.00  0.00     0.198 A 
ATOM     67  C   UNL     1      10.264 -10.888  -9.911  1.00  0.00     0.198 A 
ATOM     68  F   UNL     1      10.812  -9.188  -8.378  1.00  0.00    -0.203 F 
ATOM     69  F   UNL     1       7.042 -12.003 -11.149  1.00  0.00    -0.200 F 
ATOM     70  C   UNL     1       9.310 -11.606 -10.618  1.00  0.00     0.200 A 
ATOM     71  F   UNL     1      11.563 -11.188 -10.040  1.00  0.00    -0.200 F 
ATOM     72  F   UNL     1       9.688 -12.612 -11.418  1.00  0.00    -0.200 F 
ENDBRANCH  39  62
ENDBRANCH  13  14
ENDBRANCH   6   8
ENDBRANCH   5   6
ENDBRANCH   4   5
ENDBRANCH   3   4
ENDBRANCH   2   3
ENDBRANCH   1   2
BRANCH   1  73
ATOM     73  C   UNL     1       1.931  -1.271   2.618  1.00  0.00     0.188 C 
BRANCH  73  74
ATOM     74  O   UNL     1       2.426  -1.190   3.953  1.00  0.00    -0.376 OA
BRANCH  74  75
ATOM     75  C   UNL     1       3.800  -1.469   4.179  1.00  0.00     0.202 C 
BRANCH  75  76
ATOM     76  C   UNL     1       4.277  -2.922   4.070  1.00  0.00     0.261 C 
BRANCH  76  77
ATOM     77  O   UNL     1       3.714  -3.647   2.978  1.00  0.00    -0.463 OA
BRANCH  77  78
ATOM     78  C   UNL     1       2.624  -4.415   3.275  1.00  0.00     0.309 C 
ATOM     79  O   UNL     1       2.108  -4.536   4.375  1.00  0.00    -0.252 OA
BRANCH  78  80
ATOM     80  C   UNL     1       2.154  -5.116   2.011  1.00  0.00     0.111 C 
ATOM     81  C   UNL     1       0.638  -5.010   1.849  1.00  0.00     0.016 C 
ATOM     82  C   UNL     1       2.724  -6.530   2.033  1.00  0.00     0.092 C 
ATOM     83  C   UNL     1       0.071  -5.937   0.786  1.00  0.00     0.001 C 
ATOM     84  C   UNL     1       1.996  -7.605   1.218  1.00  0.00     0.014 C 
ATOM     85  C   UNL     1       0.504  -7.381   0.983  1.00  0.00     0.001 C 
BRANCH  82  86
ATOM     86  C   UNL     1       4.224  -6.548   1.715  1.00  0.00     0.224 C 
ATOM     87  O   UNL     1       5.030  -6.923   2.571  1.00  0.00    -0.275 OA
ATOM     88  N   UNL     1       4.741  -6.258   0.493  1.00  0.00    -0.342 N 
ATOM     89  H   UNL     1       5.559  -6.762   0.282  1.00  0.00     0.164 HD
BRANCH  88  90
ATOM     90  C   UNL     1       4.326  -5.346  -0.571  1.00  0.00     0.202 C 
ATOM     91  C   UNL     1       4.577  -3.869  -0.308  1.00  0.00     0.228 C 
ATOM     92  C   UNL     1       2.908  -5.350  -1.064  1.00  0.00     0.268 C 
ATOM     93  O   UNL     1       3.433  -3.125  -0.745  1.00  0.00    -0.271 OA
ATOM     94  N   UNL     1       2.483  -4.060  -1.187  1.00  0.00    -0.233 N 
ATOM     95  O   UNL     1       2.232  -6.329  -1.352  1.00  0.00    -0.270 OA
ATOM     96  H   UNL     1       1.601  -3.811  -1.547  1.00  0.00     0.199 HD
ENDBRANCH  88  90
ENDBRANCH  82  86
ENDBRANCH  78  80
ENDBRANCH  77  78
ENDBRANCH  76  77
ENDBRANCH  75  76
ENDBRANCH  74  75
ENDBRANCH  73  74
ENDBRANCH   1  73
TORSDOF 19
