REMARK SMILES C=CC[N@H+](CC(=O)OCCOCCOCCOC(=O)c1ccc(-c2c3nc(c(-c4c(F)c(F)c(F)c(F)c4F)c4ccc([nH]4)c(-c4c(F)c(F)c(F)c(F)c4F)c4nc(c(-c5c(F)c(F)c(F)c(F)c5F)c5ccc2[nH]5)C=C4)C=C3)cc1)[C@H]1CC(=O)N(c2ccccc2)C1=O
REMARK SMILES IDX 12 1 11 2 10 3 9 4 8 5 6 6 7 7 5 8 4 9 3 11 2 12 1 13 83 14
REMARK SMILES IDX 84 15 94 16 85 17 87 18 95 19 86 20 88 21 89 22 93 23 90 24
REMARK SMILES IDX 92 25 91 26 13 27 14 28 15 29 16 30 17 31 18 32 19 33 20 34
REMARK SMILES IDX 21 35 82 36 22 37 81 38 23 39 24 40 25 41 75 42 26 43 80 44
REMARK SMILES IDX 74 45 76 46 27 47 79 48 73 49 72 50 28 52 60 53 40 54 59 55
REMARK SMILES IDX 41 56 44 57 58 58 77 59 42 60 43 61 57 63 78 64 45 65 29 66
REMARK SMILES IDX 30 67 38 68 31 69 32 70 36 71 39 72 33 73 34 74 37 75 35 76
REMARK SMILES IDX 61 77 62 78 70 79 63 80 64 81 68 82 71 83 65 84 66 85 69 86
REMARK SMILES IDX 67 87 46 88 47 89 55 90 48 91 49 92 53 93 56 94 50 95 51 96
REMARK SMILES IDX 54 97 52 98
REMARK H PARENT 4 10 76 51 44 62
REMARK Flexibility Score: inf
ROOT
ATOM      1  C   UNL     1       0.416   3.313   2.660  1.00  0.00     0.188 C 
ENDROOT
BRANCH   1   2
ATOM      2  O   UNL     1       0.075   3.639   4.003  1.00  0.00    -0.376 OA
BRANCH   2   3
ATOM      3  C   UNL     1      -1.157   3.170   4.541  1.00  0.00     0.202 C 
BRANCH   3   4
ATOM      4  C   UNL     1      -2.455   3.396   3.747  1.00  0.00     0.261 C 
BRANCH   4   5
ATOM      5  O   UNL     1      -2.412   2.997   2.357  1.00  0.00    -0.459 OA
BRANCH   5   6
ATOM      6  C   UNL     1      -2.655   3.975   1.463  1.00  0.00     0.361 C 
ATOM      7  O   UNL     1      -2.981   5.119   1.787  1.00  0.00    -0.245 OA
BRANCH   6   8
ATOM      8  C   UNL     1      -2.508   3.667  -0.020  1.00  0.00     0.387 C 
BRANCH   8   9
ATOM      9  N   UNL     1      -1.910   2.434  -0.624  1.00  0.00    -0.312 N 
ATOM     10  H   UNL     1      -0.953   2.347  -0.283  1.00  0.00     0.349 HD
BRANCH   9  11
ATOM     11  C   UNL     1      -2.654   1.218  -0.210  1.00  0.00     0.291 C 
BRANCH  11  12
ATOM     12  C   UNL     1      -1.971  -0.080  -0.566  1.00  0.00     0.025 C 
ATOM     13  C   UNL     1      -1.729  -1.075   0.301  1.00  0.00     0.010 C 
ENDBRANCH  11  12
ENDBRANCH   9  11
BRANCH   9  14
ATOM     14  C   UNL     1      -1.891   2.550  -2.142  1.00  0.00     0.285 C 
ATOM     15  C   UNL     1      -2.321   3.881  -2.780  1.00  0.00     0.176 C 
ATOM     16  C   UNL     1      -0.518   2.282  -2.796  1.00  0.00     0.292 C 
ATOM     17  C   UNL     1      -1.339   4.144  -3.864  1.00  0.00     0.240 C 
ATOM     18  N   UNL     1      -0.337   3.216  -3.797  1.00  0.00    -0.245 N 
ATOM     19  O   UNL     1       0.239   1.363  -2.512  1.00  0.00    -0.267 OA
ATOM     20  O   UNL     1      -1.466   5.073  -4.650  1.00  0.00    -0.274 OA
BRANCH  18  21
ATOM     21  C   UNL     1       0.665   3.194  -4.789  1.00  0.00     0.052 A 
ATOM     22  C   UNL     1       0.630   2.216  -5.790  1.00  0.00     0.027 A 
ATOM     23  C   UNL     1       1.517   4.297  -4.935  1.00  0.00     0.027 A 
ATOM     24  C   UNL     1       1.403   2.373  -6.946  1.00  0.00     0.002 A 
ATOM     25  C   UNL     1       2.317   4.430  -6.071  1.00  0.00     0.002 A 
ATOM     26  C   UNL     1       2.242   3.479  -7.087  1.00  0.00     0.000 A 
ENDBRANCH  18  21
ENDBRANCH   9  14
ENDBRANCH   8   9
ENDBRANCH   6   8
ENDBRANCH   5   6
ENDBRANCH   4   5
ENDBRANCH   3   4
ENDBRANCH   2   3
ENDBRANCH   1   2
BRANCH   1  27
ATOM     27  C   UNL     1       0.164   1.886   2.132  1.00  0.00     0.188 C 
BRANCH  27  28
ATOM     28  O   UNL     1      -0.477   1.038   3.059  1.00  0.00    -0.376 OA
BRANCH  28  29
ATOM     29  C   UNL     1       0.249  -0.068   3.559  1.00  0.00     0.202 C 
BRANCH  29  30
ATOM     30  C   UNL     1       1.672   0.125   4.116  1.00  0.00     0.261 C 
BRANCH  30  31
ATOM     31  O   UNL     1       2.509   1.091   3.461  1.00  0.00    -0.460 OA
BRANCH  31  32
ATOM     32  C   UNL     1       3.184   0.697   2.356  1.00  0.00     0.338 C 
ATOM     33  O   UNL     1       3.167  -0.406   1.833  1.00  0.00    -0.246 OA
BRANCH  32  34
ATOM     34  C   UNL     1       3.829   1.900   1.786  1.00  0.00     0.060 A 
ATOM     35  C   UNL     1       3.361   2.445   0.581  1.00  0.00     0.016 A 
ATOM     36  C   UNL     1       4.871   2.518   2.479  1.00  0.00     0.016 A 
ATOM     37  C   UNL     1       3.922   3.625   0.079  1.00  0.00     0.010 A 
ATOM     38  C   UNL     1       5.449   3.679   1.961  1.00  0.00     0.010 A 
ATOM     39  C   UNL     1       4.982   4.240   0.758  1.00  0.00    -0.014 A 
BRANCH  39  40
ATOM     40  C   UNL     1       5.695   5.410   0.186  1.00  0.00     0.031 A 
ATOM     41  C   UNL     1       7.005   5.189  -0.513  1.00  0.00     0.074 A 
ATOM     42  C   UNL     1       5.219   6.658   0.345  1.00  0.00     0.049 A 
ATOM     43  N   UNL     1       7.886   6.063  -0.927  1.00  0.00    -0.248 NA
ATOM     44  C   UNL     1       7.374   3.788  -0.770  1.00  0.00     0.031 C 
ATOM     45  C   UNL     1       3.944   7.003   0.967  1.00  0.00     0.029 A 
ATOM     46  N   UNL     1       5.778   7.872   0.023  1.00  0.00    -0.354 N 
ATOM     47  C   UNL     1       8.922   5.319  -1.477  1.00  0.00     0.074 A 
ATOM     48  C   UNL     1       8.568   3.924  -1.328  1.00  0.00     0.031 C 
ATOM     49  C   UNL     1       3.830   8.342   1.011  1.00  0.00     0.029 A 
ATOM     50  C   UNL     1       5.045   8.947   0.466  1.00  0.00     0.049 A 
ATOM     51  H   UNL     1       6.622   7.963  -0.477  1.00  0.00     0.167 HD
ATOM     52  C   UNL     1      10.064   5.764  -2.053  1.00  0.00     0.037 A 
ATOM     53  C   UNL     1       5.344  10.262   0.473  1.00  0.00     0.037 A 
ATOM     54  C   UNL     1      10.414   7.154  -2.194  1.00  0.00     0.049 A 
ATOM     55  C   UNL     1       6.666  10.727  -0.086  1.00  0.00     0.074 A 
ATOM     56  C   UNL     1      11.531   7.705  -2.796  1.00  0.00     0.029 A 
ATOM     57  N   UNL     1       9.658   8.212  -1.712  1.00  0.00    -0.354 N 
ATOM     58  N   UNL     1       7.627  10.025  -0.638  1.00  0.00    -0.248 NA
ATOM     59  C   UNL     1       6.949  12.169  -0.014  1.00  0.00     0.031 C 
ATOM     60  C   UNL     1      11.486   9.091  -2.617  1.00  0.00     0.029 A 
ATOM     61  C   UNL     1      10.308   9.411  -1.963  1.00  0.00     0.049 A 
ATOM     62  H   UNL     1       8.788   8.125  -1.258  1.00  0.00     0.167 HD
ATOM     63  C   UNL     1       8.612  10.938  -0.997  1.00  0.00     0.074 A 
ATOM     64  C   UNL     1       8.126  12.247  -0.620  1.00  0.00     0.031 C 
ATOM     65  C   UNL     1       9.814  10.710  -1.583  1.00  0.00     0.037 A 
BRANCH  52  66
ATOM     66  C   UNL     1      11.043   4.737  -2.544  1.00  0.00     0.064 A 
ATOM     67  C   UNL     1      10.778   3.938  -3.665  1.00  0.00     0.173 A 
ATOM     68  C   UNL     1      12.285   4.584  -1.907  1.00  0.00     0.173 A 
ATOM     69  F   UNL     1       9.603   4.037  -4.304  1.00  0.00    -0.203 F 
ATOM     70  C   UNL     1      11.710   3.005  -4.116  1.00  0.00     0.198 A 
ATOM     71  C   UNL     1      13.226   3.675  -2.380  1.00  0.00     0.198 A 
ATOM     72  F   UNL     1      12.592   5.328  -0.834  1.00  0.00    -0.203 F 
ATOM     73  F   UNL     1      11.417   2.220  -5.162  1.00  0.00    -0.200 F 
ATOM     74  C   UNL     1      12.936   2.881  -3.479  1.00  0.00     0.200 A 
ATOM     75  F   UNL     1      14.417   3.568  -1.773  1.00  0.00    -0.200 F 
ATOM     76  F   UNL     1      13.836   1.992  -3.922  1.00  0.00    -0.200 F 
ENDBRANCH  52  66
BRANCH  53  77
ATOM     77  C   UNL     1       4.392  11.240   1.068  1.00  0.00     0.064 A 
ATOM     78  C   UNL     1       3.755  12.203   0.274  1.00  0.00     0.173 A 
ATOM     79  C   UNL     1       4.126  11.254   2.446  1.00  0.00     0.173 A 
ATOM     80  F   UNL     1       4.002  12.254  -1.044  1.00  0.00    -0.203 F 
ATOM     81  C   UNL     1       2.905  13.154   0.836  1.00  0.00     0.198 A 
ATOM     82  C   UNL     1       3.249  12.184   3.002  1.00  0.00     0.198 A 
ATOM     83  F   UNL     1       4.716  10.362   3.255  1.00  0.00    -0.203 F 
ATOM     84  F   UNL     1       2.355  14.098   0.061  1.00  0.00    -0.200 F 
ATOM     85  C   UNL     1       2.646  13.139   2.198  1.00  0.00     0.200 A 
ATOM     86  F   UNL     1       2.995  12.159   4.318  1.00  0.00    -0.200 F 
ATOM     87  F   UNL     1       1.828  14.052   2.737  1.00  0.00    -0.200 F 
ENDBRANCH  53  77
BRANCH  65  88
ATOM     88  C   UNL     1      10.684  11.901  -1.876  1.00  0.00     0.064 A 
ATOM     89  C   UNL     1      11.322  12.617  -0.852  1.00  0.00     0.173 A 
ATOM     90  C   UNL     1      10.931  12.294  -3.201  1.00  0.00     0.173 A 
ATOM     91  F   UNL     1      11.109  12.292   0.432  1.00  0.00    -0.203 F 
ATOM     92  C   UNL     1      12.158  13.693  -1.143  1.00  0.00     0.198 A 
ATOM     93  C   UNL     1      11.793  13.348  -3.489  1.00  0.00     0.198 A 
ATOM     94  F   UNL     1      10.353  11.640  -4.220  1.00  0.00    -0.203 F 
ATOM     95  F   UNL     1      12.721  14.389  -0.146  1.00  0.00    -0.200 F 
ATOM     96  C   UNL     1      12.401  14.051  -2.460  1.00  0.00     0.200 A 
ATOM     97  F   UNL     1      12.041  13.681  -4.764  1.00  0.00    -0.200 F 
ATOM     98  F   UNL     1      13.217  15.077  -2.738  1.00  0.00    -0.200 F 
ENDBRANCH  65  88
ENDBRANCH  39  40
ENDBRANCH  32  34
ENDBRANCH  31  32
ENDBRANCH  30  31
ENDBRANCH  29  30
ENDBRANCH  28  29
ENDBRANCH  27  28
ENDBRANCH   1  27
TORSDOF 22
