REMARK SMILES CCN(CC(=O)NC(C)C)C(=O)N[C@H]1C=C[C@H](C(=O)OCCOCCOCCOC(=O)c2ccc(-c3c4nc(c(-c5c(F)c(F)c(F)c(F)c5F)c5ccc([nH]5)c(-c5c(F)c(F)c(F)c(F)c5F)c5nc(c(-c6c(F)c(F)c(F)c(F)c6F)c6ccc3[nH]6)C=C5)C=C4)cc2)C1
REMARK SMILES IDX 23 1 22 2 21 3 20 4 18 5 19 6 17 7 14 8 15 9 95 10 16 11
REMARK SMILES IDX 13 12 11 13 12 14 3 16 2 17 1 18 4 19 5 20 6 21 7 22 8 24
REMARK SMILES IDX 9 25 10 26 24 27 25 28 26 29 27 30 28 31 29 32 30 33 31 34
REMARK SMILES IDX 32 35 33 36 94 37 34 38 93 39 35 40 36 41 37 42 87 43 38 44
REMARK SMILES IDX 92 45 86 46 88 47 39 48 91 49 85 50 84 51 40 53 72 54 52 55
REMARK SMILES IDX 71 56 53 57 56 58 70 59 89 60 54 61 55 62 69 64 90 65 57 66
REMARK SMILES IDX 41 67 42 68 50 69 43 70 44 71 48 72 51 73 45 74 46 75 49 76
REMARK SMILES IDX 47 77 73 78 74 79 82 80 75 81 76 82 80 83 83 84 77 85 78 86
REMARK SMILES IDX 81 87 79 88 58 89 59 90 67 91 60 92 61 93 65 94 68 95 62 96
REMARK SMILES IDX 63 97 66 98 64 99
REMARK H PARENT 13 15 7 23 88 52 56 63
REMARK Flexibility Score: inf
ROOT
ATOM      1  O   UNL     1      -1.057  -7.291   7.086  1.00  0.00    -0.376 OA
ENDROOT
BRANCH   1   2
ATOM      2  C   UNL     1      -1.951  -7.230   5.987  1.00  0.00     0.202 C 
BRANCH   2   3
ATOM      3  C   UNL     1      -1.633  -6.452   4.704  1.00  0.00     0.261 C 
BRANCH   3   4
ATOM      4  O   UNL     1      -0.265  -6.521   4.297  1.00  0.00    -0.463 OA
BRANCH   4   5
ATOM      5  C   UNL     1       0.421  -5.348   4.331  1.00  0.00     0.312 C 
ATOM      6  O   UNL     1      -0.063  -4.264   4.639  1.00  0.00    -0.252 OA
BRANCH   5   7
ATOM      7  C   UNL     1       1.927  -5.550   4.062  1.00  0.00     0.124 C 
ATOM      8  C   UNL     1       2.101  -4.352   2.058  1.00  0.00     0.107 C 
ATOM      9  C   UNL     1       2.378  -5.787   1.772  1.00  0.00    -0.006 C 
ATOM     10  C   UNL     1       2.522  -4.243   3.514  1.00  0.00     0.048 C 
ATOM     11  C   UNL     1       2.228  -6.482   2.908  1.00  0.00    -0.014 C 
BRANCH   8  12
ATOM     12  N   UNL     1       2.722  -3.470   1.137  1.00  0.00    -0.332 N 
ATOM     13  C   UNL     1       2.247  -2.522   0.309  1.00  0.00     0.318 C 
ATOM     14  O   UNL     1       3.119  -1.900  -0.310  1.00  0.00    -0.249 OA
ATOM     15  H   UNL     1       3.700  -3.574   1.095  1.00  0.00     0.165 HD
BRANCH  13  16
ATOM     16  N   UNL     1       0.910  -2.235   0.142  1.00  0.00    -0.316 N 
BRANCH  16  17
ATOM     17  C   UNL     1       0.628  -1.006  -0.608  1.00  0.00     0.118 C 
ATOM     18  C   UNL     1       0.890   0.247   0.218  1.00  0.00     0.027 C 
ENDBRANCH  16  17
BRANCH  16  19
ATOM     19  C   UNL     1      -0.271  -2.860   0.775  1.00  0.00     0.221 C 
BRANCH  19  20
ATOM     20  C   UNL     1      -0.562  -4.339   0.426  1.00  0.00     0.239 C 
ATOM     21  O   UNL     1      -1.033  -5.111   1.268  1.00  0.00    -0.273 OA
ATOM     22  N   UNL     1      -0.409  -4.813  -0.841  1.00  0.00    -0.352 N 
ATOM     23  H   UNL     1      -0.201  -5.771  -0.928  1.00  0.00     0.163 HD
BRANCH  22  24
ATOM     24  C   UNL     1      -0.519  -4.060  -2.076  1.00  0.00     0.075 C 
ATOM     25  C   UNL     1       0.742  -4.187  -2.917  1.00  0.00     0.030 C 
ATOM     26  C   UNL     1      -1.750  -4.555  -2.832  1.00  0.00     0.030 C 
ENDBRANCH  22  24
ENDBRANCH  19  20
ENDBRANCH  16  19
ENDBRANCH  13  16
ENDBRANCH   8  12
ENDBRANCH   5   7
ENDBRANCH   4   5
ENDBRANCH   3   4
ENDBRANCH   2   3
ENDBRANCH   1   2
BRANCH   1  27
ATOM     27  C   UNL     1       0.342  -7.338   6.900  1.00  0.00     0.188 C 
BRANCH  27  28
ATOM     28  C   UNL     1       1.004  -8.435   6.036  1.00  0.00     0.188 C 
BRANCH  28  29
ATOM     29  O   UNL     1       0.267  -9.534   5.548  1.00  0.00    -0.376 OA
BRANCH  29  30
ATOM     30  C   UNL     1      -0.486 -10.321   6.453  1.00  0.00     0.202 C 
BRANCH  30  31
ATOM     31  C   UNL     1       0.158 -10.854   7.737  1.00  0.00     0.261 C 
BRANCH  31  32
ATOM     32  O   UNL     1       0.817  -9.859   8.537  1.00  0.00    -0.460 OA
BRANCH  32  33
ATOM     33  C   UNL     1       2.153 -10.003   8.664  1.00  0.00     0.338 C 
ATOM     34  O   UNL     1       2.854 -10.905   8.195  1.00  0.00    -0.246 OA
BRANCH  33  35
ATOM     35  C   UNL     1       2.736  -8.815   9.303  1.00  0.00     0.060 A 
ATOM     36  C   UNL     1       3.689  -8.068   8.593  1.00  0.00     0.016 A 
ATOM     37  C   UNL     1       2.398  -8.468  10.612  1.00  0.00     0.016 A 
ATOM     38  C   UNL     1       4.332  -6.991   9.203  1.00  0.00     0.010 A 
ATOM     39  C   UNL     1       3.062  -7.404  11.230  1.00  0.00     0.010 A 
ATOM     40  C   UNL     1       4.054  -6.682  10.540  1.00  0.00    -0.014 A 
BRANCH  40  41
ATOM     41  C   UNL     1       4.928  -5.739  11.279  1.00  0.00     0.031 A 
ATOM     42  C   UNL     1       6.052  -6.301  12.105  1.00  0.00     0.074 A 
ATOM     43  C   UNL     1       4.734  -4.410  11.221  1.00  0.00     0.049 A 
ATOM     44  N   UNL     1       6.896  -5.686  12.894  1.00  0.00    -0.248 NA
ATOM     45  C   UNL     1       6.246  -7.758  12.033  1.00  0.00     0.031 C 
ATOM     46  C   UNL     1       3.713  -3.739  10.421  1.00  0.00     0.029 A 
ATOM     47  N   UNL     1       5.387  -3.388  11.864  1.00  0.00    -0.354 N 
ATOM     48  C   UNL     1       7.711  -6.680  13.419  1.00  0.00     0.074 A 
ATOM     49  C   UNL     1       7.248  -7.940  12.880  1.00  0.00     0.031 C 
ATOM     50  C   UNL     1       3.797  -2.414  10.633  1.00  0.00     0.029 A 
ATOM     51  C   UNL     1       4.854  -2.149  11.610  1.00  0.00     0.049 A 
ATOM     52  H   UNL     1       6.164  -3.531  12.452  1.00  0.00     0.167 HD
ATOM     53  C   UNL     1       8.755  -6.553  14.272  1.00  0.00     0.037 A 
ATOM     54  C   UNL     1       5.169  -0.946  12.128  1.00  0.00     0.037 A 
ATOM     55  C   UNL     1       9.215  -5.300  14.811  1.00  0.00     0.049 A 
ATOM     56  C   UNL     1       6.282  -0.842  13.141  1.00  0.00     0.074 A 
ATOM     57  C   UNL     1      10.280  -5.066  15.663  1.00  0.00     0.029 A 
ATOM     58  N   UNL     1       8.628  -4.070  14.556  1.00  0.00    -0.354 N 
ATOM     59  N   UNL     1       7.068  -1.779  13.612  1.00  0.00    -0.248 NA
ATOM     60  C   UNL     1       6.550   0.494  13.695  1.00  0.00     0.031 C 
ATOM     61  C   UNL     1      10.303  -3.701  15.969  1.00  0.00     0.029 A 
ATOM     62  C   UNL     1       9.290  -3.076  15.260  1.00  0.00     0.049 A 
ATOM     63  H   UNL     1       7.856  -3.924  13.963  1.00  0.00     0.167 HD
ATOM     64  C   UNL     1       7.942  -1.145  14.487  1.00  0.00     0.074 A 
ATOM     65  C   UNL     1       7.596   0.261  14.476  1.00  0.00     0.031 C 
ATOM     66  C   UNL     1       8.944  -1.678  15.230  1.00  0.00     0.037 A 
BRANCH  53  67
ATOM     67  C   UNL     1       9.451  -7.810  14.704  1.00  0.00     0.064 A 
ATOM     68  C   UNL     1      10.259  -8.548  13.825  1.00  0.00     0.173 A 
ATOM     69  C   UNL     1       9.327  -8.270  16.023  1.00  0.00     0.173 A 
ATOM     70  F   UNL     1      10.398  -8.159  12.548  1.00  0.00    -0.203 F 
ATOM     71  C   UNL     1      10.894  -9.714  14.244  1.00  0.00     0.198 A 
ATOM     72  C   UNL     1       9.987  -9.420  16.447  1.00  0.00     0.198 A 
ATOM     73  F   UNL     1       8.569  -7.601  16.905  1.00  0.00    -0.203 F 
ATOM     74  F   UNL     1      11.620 -10.429  13.374  1.00  0.00    -0.200 F 
ATOM     75  C   UNL     1      10.763 -10.145  15.556  1.00  0.00     0.200 A 
ATOM     76  F   UNL     1       9.869  -9.829  17.718  1.00  0.00    -0.200 F 
ATOM     77  F   UNL     1      11.379 -11.265  15.959  1.00  0.00    -0.200 F 
ENDBRANCH  53  67
BRANCH  54  78
ATOM     78  C   UNL     1       4.415   0.266  11.712  1.00  0.00     0.064 A 
ATOM     79  C   UNL     1       5.035   1.280  10.967  1.00  0.00     0.173 A 
ATOM     80  C   UNL     1       3.074   0.453  12.078  1.00  0.00     0.173 A 
ATOM     81  F   UNL     1       6.325   1.162  10.620  1.00  0.00    -0.203 F 
ATOM     82  C   UNL     1       4.347   2.442  10.621  1.00  0.00     0.198 A 
ATOM     83  C   UNL     1       2.380   1.602  11.707  1.00  0.00     0.198 A 
ATOM     84  F   UNL     1       2.438  -0.483  12.798  1.00  0.00    -0.203 F 
ATOM     85  F   UNL     1       4.979   3.417   9.954  1.00  0.00    -0.200 F 
ATOM     86  C   UNL     1       3.019   2.599  10.986  1.00  0.00     0.200 A 
ATOM     87  F   UNL     1       1.094   1.747  12.055  1.00  0.00    -0.200 F 
ATOM     88  F   UNL     1       2.359   3.717  10.654  1.00  0.00    -0.200 F 
ENDBRANCH  54  78
BRANCH  66  89
ATOM     89  C   UNL     1       9.771  -0.736  16.058  1.00  0.00     0.064 A 
ATOM     90  C   UNL     1       9.262  -0.122  17.212  1.00  0.00     0.173 A 
ATOM     91  C   UNL     1      11.109  -0.482  15.716  1.00  0.00     0.173 A 
ATOM     92  F   UNL     1       7.986  -0.321  17.575  1.00  0.00    -0.203 F 
ATOM     93  C   UNL     1      10.054   0.731  17.977  1.00  0.00     0.198 A 
ATOM     94  C   UNL     1      11.906   0.346  16.501  1.00  0.00     0.198 A 
ATOM     95  F   UNL     1      11.649  -1.051  14.627  1.00  0.00    -0.203 F 
ATOM     96  F   UNL     1       9.532   1.344  19.049  1.00  0.00    -0.200 F 
ATOM     97  C   UNL     1      11.376   0.958  17.627  1.00  0.00     0.200 A 
ATOM     98  F   UNL     1      13.188   0.551  16.169  1.00  0.00    -0.200 F 
ATOM     99  F   UNL     1      12.138   1.772  18.370  1.00  0.00    -0.200 F 
ENDBRANCH  66  89
ENDBRANCH  40  41
ENDBRANCH  33  35
ENDBRANCH  32  33
ENDBRANCH  31  32
ENDBRANCH  30  31
ENDBRANCH  29  30
ENDBRANCH  28  29
ENDBRANCH  27  28
ENDBRANCH   1  27
TORSDOF 23
