REMARK SMILES CNC(=O)NC(=O)CC[N@@H+](C)CC(=O)OCCOCCOCCOC(=O)c1ccc(-c2c3nc(c(-c4c(F)c(F)c(F)c(F)c4F)c4ccc([nH]4)c(-c4c(F)c(F)c(F)c(F)c4F)c4nc(c(-c5c(F)c(F)c(F)c(F)c5F)c5ccc2[nH]5)C=C4)C=C3)cc1
REMARK SMILES IDX 19 1 18 2 17 3 16 4 15 5 13 6 14 7 12 8 10 9 11 10 9 12 8 13
REMARK SMILES IDX 6 14 1 15 2 16 3 17 4 19 5 20 7 22 20 23 21 24 22 25 23 26
REMARK SMILES IDX 24 27 25 28 26 29 27 30 28 31 89 32 29 33 88 34 30 35 31 36
REMARK SMILES IDX 32 37 82 38 33 39 87 40 81 41 83 42 34 43 86 44 80 45 79 46
REMARK SMILES IDX 35 48 67 49 47 50 66 51 48 52 51 53 65 54 84 55 49 56 50 57
REMARK SMILES IDX 64 59 85 60 52 61 36 62 37 63 45 64 38 65 39 66 43 67 46 68
REMARK SMILES IDX 40 69 41 70 44 71 42 72 68 73 69 74 77 75 70 76 71 77 75 78
REMARK SMILES IDX 78 79 72 80 73 81 76 82 74 83 53 84 54 85 62 86 55 87 56 88
REMARK SMILES IDX 60 89 63 90 57 91 58 92 61 93 59 94
REMARK H PARENT 10 11 2 18 5 21 83 47 51 58
REMARK Flexibility Score: inf
ROOT
ATOM      1  C   UNL     1       1.974  -3.128   3.793  1.00  0.00     0.188 C 
ENDROOT
BRANCH   1   2
ATOM      2  O   UNL     1       2.236  -4.453   4.236  1.00  0.00    -0.376 OA
BRANCH   2   3
ATOM      3  C   UNL     1       3.389  -5.076   3.680  1.00  0.00     0.202 C 
BRANCH   3   4
ATOM      4  C   UNL     1       3.327  -5.432   2.187  1.00  0.00     0.261 C 
BRANCH   4   5
ATOM      5  O   UNL     1       2.872  -4.371   1.316  1.00  0.00    -0.459 OA
BRANCH   5   6
ATOM      6  C   UNL     1       1.690  -4.610   0.690  1.00  0.00     0.361 C 
ATOM      7  O   UNL     1       1.047  -5.651   0.829  1.00  0.00    -0.245 OA
BRANCH   6   8
ATOM      8  C   UNL     1       1.123  -3.488  -0.174  1.00  0.00     0.386 C 
BRANCH   8   9
ATOM      9  N   UNL     1       1.905  -2.292  -0.569  1.00  0.00    -0.328 N 
ATOM     10  C   UNL     1       3.204  -2.620  -1.141  1.00  0.00     0.333 C 
ATOM     11  H   UNL     1       1.331  -1.899  -1.314  1.00  0.00     0.348 HD
BRANCH   9  12
ATOM     12  C   UNL     1       1.974  -1.195   0.395  1.00  0.00     0.272 C 
BRANCH  12  13
ATOM     13  C   UNL     1       0.758  -0.270   0.517  1.00  0.00     0.161 C 
BRANCH  13  14
ATOM     14  C   UNL     1      -0.559  -0.884   0.886  1.00  0.00     0.233 C 
ATOM     15  C   UNL     1      -0.244   0.287  -2.510  1.00  0.00     0.144 C 
ATOM     16  N   UNL     1      -0.638  -1.081  -2.274  1.00  0.00    -0.341 N 
ATOM     17  C   UNL     1      -1.353  -1.646  -1.282  1.00  0.00     0.321 C 
ATOM     18  H   UNL     1      -0.329  -1.714  -2.961  1.00  0.00     0.165 HD
ATOM     19  O   UNL     1      -1.861  -2.751  -1.472  1.00  0.00    -0.248 OA
ATOM     20  N   UNL     1      -1.525  -1.031  -0.084  1.00  0.00    -0.278 N 
ATOM     21  H   UNL     1      -2.416  -0.660   0.108  1.00  0.00     0.174 HD
ATOM     22  O   UNL     1      -0.779  -1.251   2.043  1.00  0.00    -0.274 OA
ENDBRANCH  13  14
ENDBRANCH  12  13
ENDBRANCH   9  12
ENDBRANCH   8   9
ENDBRANCH   6   8
ENDBRANCH   5   6
ENDBRANCH   4   5
ENDBRANCH   3   4
ENDBRANCH   2   3
ENDBRANCH   1   2
BRANCH   1  23
ATOM     23  C   UNL     1       3.130  -2.135   3.925  1.00  0.00     0.188 C 
BRANCH  23  24
ATOM     24  O   UNL     1       4.294  -2.424   3.154  1.00  0.00    -0.376 OA
BRANCH  24  25
ATOM     25  C   UNL     1       5.176  -1.309   2.962  1.00  0.00     0.202 C 
BRANCH  25  26
ATOM     26  C   UNL     1       5.567  -0.515   4.230  1.00  0.00     0.261 C 
BRANCH  26  27
ATOM     27  O   UNL     1       4.463   0.122   4.923  1.00  0.00    -0.460 OA
BRANCH  27  28
ATOM     28  C   UNL     1       3.786   1.065   4.236  1.00  0.00     0.338 C 
ATOM     29  O   UNL     1       4.093   1.524   3.140  1.00  0.00    -0.246 OA
BRANCH  28  30
ATOM     30  C   UNL     1       2.444   1.265   4.830  1.00  0.00     0.060 A 
ATOM     31  C   UNL     1       1.359   0.944   4.016  1.00  0.00     0.016 A 
ATOM     32  C   UNL     1       2.206   1.793   6.093  1.00  0.00     0.016 A 
ATOM     33  C   UNL     1       0.048   1.213   4.388  1.00  0.00     0.010 A 
ATOM     34  C   UNL     1       0.877   2.051   6.489  1.00  0.00     0.010 A 
ATOM     35  C   UNL     1      -0.213   1.804   5.622  1.00  0.00    -0.014 A 
BRANCH  35  36
ATOM     36  C   UNL     1      -1.588   2.314   5.904  1.00  0.00     0.031 A 
ATOM     37  C   UNL     1      -1.796   3.803   6.023  1.00  0.00     0.074 A 
ATOM     38  C   UNL     1      -2.670   1.508   5.931  1.00  0.00     0.049 A 
ATOM     39  N   UNL     1      -2.849   4.476   6.415  1.00  0.00    -0.248 NA
ATOM     40  C   UNL     1      -0.656   4.649   5.635  1.00  0.00     0.031 C 
ATOM     41  C   UNL     1      -2.667   0.069   5.670  1.00  0.00     0.029 A 
ATOM     42  N   UNL     1      -3.994   1.796   6.178  1.00  0.00    -0.354 N 
ATOM     43  C   UNL     1      -2.479   5.814   6.374  1.00  0.00     0.074 A 
ATOM     44  C   UNL     1      -1.106   5.861   5.922  1.00  0.00     0.031 C 
ATOM     45  C   UNL     1      -3.924  -0.398   5.764  1.00  0.00     0.029 A 
ATOM     46  C   UNL     1      -4.809   0.688   6.175  1.00  0.00     0.049 A 
ATOM     47  H   UNL     1      -4.325   2.708   6.341  1.00  0.00     0.167 HD
ATOM     48  C   UNL     1      -3.217   6.907   6.687  1.00  0.00     0.037 A 
ATOM     49  C   UNL     1      -6.107   0.553   6.517  1.00  0.00     0.037 A 
ATOM     50  C   UNL     1      -4.598   6.863   7.091  1.00  0.00     0.049 A 
ATOM     51  C   UNL     1      -6.877   1.764   6.983  1.00  0.00     0.074 A 
ATOM     52  C   UNL     1      -5.424   7.911   7.459  1.00  0.00     0.029 A 
ATOM     53  N   UNL     1      -5.362   5.708   7.166  1.00  0.00    -0.354 N 
ATOM     54  N   UNL     1      -6.497   3.017   7.042  1.00  0.00    -0.248 NA
ATOM     55  C   UNL     1      -8.253   1.535   7.449  1.00  0.00     0.031 C 
ATOM     56  C   UNL     1      -6.670   7.383   7.810  1.00  0.00     0.029 A 
ATOM     57  C   UNL     1      -6.642   6.014   7.598  1.00  0.00     0.049 A 
ATOM     58  H   UNL     1      -5.041   4.803   6.945  1.00  0.00     0.167 HD
ATOM     59  C   UNL     1      -7.591   3.727   7.522  1.00  0.00     0.074 A 
ATOM     60  C   UNL     1      -8.656   2.768   7.722  1.00  0.00     0.031 C 
ATOM     61  C   UNL     1      -7.702   5.054   7.779  1.00  0.00     0.037 A 
BRANCH  48  62
ATOM     62  C   UNL     1      -2.521   8.238   6.672  1.00  0.00     0.064 A 
ATOM     63  C   UNL     1      -2.117   8.861   5.482  1.00  0.00     0.173 A 
ATOM     64  C   UNL     1      -2.261   8.903   7.881  1.00  0.00     0.173 A 
ATOM     65  F   UNL     1      -2.323   8.260   4.301  1.00  0.00    -0.203 F 
ATOM     66  C   UNL     1      -1.448  10.084   5.506  1.00  0.00     0.198 A 
ATOM     67  C   UNL     1      -1.625  10.140   7.899  1.00  0.00     0.198 A 
ATOM     68  F   UNL     1      -2.628   8.353   9.048  1.00  0.00    -0.203 F 
ATOM     69  F   UNL     1      -1.016  10.631   4.362  1.00  0.00    -0.200 F 
ATOM     70  C   UNL     1      -1.209  10.725   6.713  1.00  0.00     0.200 A 
ATOM     71  F   UNL     1      -1.406  10.763   9.066  1.00  0.00    -0.200 F 
ATOM     72  F   UNL     1      -0.567  11.901   6.733  1.00  0.00    -0.200 F 
ENDBRANCH  48  62
BRANCH  49  73
ATOM     73  C   UNL     1      -6.753  -0.791   6.509  1.00  0.00     0.064 A 
ATOM     74  C   UNL     1      -7.833  -1.077   5.661  1.00  0.00     0.173 A 
ATOM     75  C   UNL     1      -6.338  -1.801   7.392  1.00  0.00     0.173 A 
ATOM     76  F   UNL     1      -8.296  -0.135   4.826  1.00  0.00    -0.203 F 
ATOM     77  C   UNL     1      -8.483  -2.310   5.710  1.00  0.00     0.198 A 
ATOM     78  C   UNL     1      -6.964  -3.046   7.414  1.00  0.00     0.198 A 
ATOM     79  F   UNL     1      -5.323  -1.578   8.239  1.00  0.00    -0.203 F 
ATOM     80  F   UNL     1      -9.553  -2.532   4.935  1.00  0.00    -0.200 F 
ATOM     81  C   UNL     1      -8.043  -3.296   6.581  1.00  0.00     0.200 A 
ATOM     82  F   UNL     1      -6.532  -3.996   8.254  1.00  0.00    -0.200 F 
ATOM     83  F   UNL     1      -8.671  -4.479   6.631  1.00  0.00    -0.200 F 
ENDBRANCH  49  73
BRANCH  61  84
ATOM     84  C   UNL     1      -9.034   5.562   8.253  1.00  0.00     0.064 A 
ATOM     85  C   UNL     1      -9.527   5.268   9.533  1.00  0.00     0.173 A 
ATOM     86  C   UNL     1      -9.811   6.389   7.427  1.00  0.00     0.173 A 
ATOM     87  F   UNL     1      -8.832   4.471  10.358  1.00  0.00    -0.203 F 
ATOM     88  C   UNL     1     -10.760   5.759   9.956  1.00  0.00     0.198 A 
ATOM     89  C   UNL     1     -11.026   6.907   7.866  1.00  0.00     0.198 A 
ATOM     90  F   UNL     1      -9.383   6.710   6.196  1.00  0.00    -0.203 F 
ATOM     91  F   UNL     1     -11.235   5.421  11.163  1.00  0.00    -0.200 F 
ATOM     92  C   UNL     1     -11.504   6.584   9.126  1.00  0.00     0.200 A 
ATOM     93  F   UNL     1     -11.734   7.719   7.069  1.00  0.00    -0.200 F 
ATOM     94  F   UNL     1     -12.686   7.063   9.539  1.00  0.00    -0.200 F 
ENDBRANCH  61  84
ENDBRANCH  35  36
ENDBRANCH  28  30
ENDBRANCH  27  28
ENDBRANCH  26  27
ENDBRANCH  25  26
ENDBRANCH  24  25
ENDBRANCH  23  24
ENDBRANCH   1  23
TORSDOF 21
