REMARK SMILES CC(=O)N1CC[NH2+]C[C@@H]1c1ccc(C(=O)OCCOCCOCCOC(=O)c2ccc(-c3c4nc(c(-c5c(F)c(F)c(F)c(F)c5F)c5ccc([nH]5)c(-c5c(F)c(F)c(F)c(F)c5F)c5nc(c(-c6c(F)c(F)c(F)c(F)c6F)c6ccc3[nH]6)C=C5)C=C4)cc2)cc1
REMARK SMILES IDX 20 1 19 2 18 3 17 4 16 5 14 6 15 7 13 8 10 9 11 10 92 11
REMARK SMILES IDX 12 12 91 13 9 14 4 15 5 16 6 17 8 18 7 19 2 22 1 23 3 24
REMARK SMILES IDX 21 25 22 26 23 27 24 28 25 29 26 30 27 31 28 32 29 33 90 34
REMARK SMILES IDX 30 35 89 36 31 37 32 38 33 39 83 40 34 41 88 42 82 43 84 44
REMARK SMILES IDX 35 45 87 46 81 47 80 48 36 50 68 51 48 52 67 53 49 54 52 55
REMARK SMILES IDX 66 56 85 57 50 58 51 59 65 61 86 62 53 63 37 64 38 65 46 66
REMARK SMILES IDX 39 67 40 68 44 69 47 70 41 71 42 72 45 73 43 74 69 75 70 76
REMARK SMILES IDX 78 77 71 78 72 79 76 80 79 81 73 82 74 83 77 84 75 85 54 86
REMARK SMILES IDX 55 87 63 88 56 89 57 90 61 91 64 92 58 93 59 94 62 95 60 96
REMARK H PARENT 7 20 7 21 84 49 52 60
REMARK Flexibility Score: inf
ROOT
ATOM      1  C   UNL     1       3.299   7.999   5.598  1.00  0.00     0.188 C 
ENDROOT
BRANCH   1   2
ATOM      2  O   UNL     1       3.505   9.392   5.422  1.00  0.00    -0.376 OA
BRANCH   2   3
ATOM      3  C   UNL     1       2.860  10.085   4.364  1.00  0.00     0.202 C 
BRANCH   3   4
ATOM      4  C   UNL     1       2.880   9.549   2.924  1.00  0.00     0.261 C 
BRANCH   4   5
ATOM      5  O   UNL     1       2.594   8.154   2.768  1.00  0.00    -0.460 OA
BRANCH   5   6
ATOM      6  C   UNL     1       3.654   7.370   2.432  1.00  0.00     0.338 C 
ATOM      7  O   UNL     1       4.805   7.717   2.280  1.00  0.00    -0.246 OA
BRANCH   6   8
ATOM      8  C   UNL     1       3.228   5.950   2.442  1.00  0.00     0.060 A 
ATOM      9  C   UNL     1       2.463   3.224   2.525  1.00  0.00    -0.020 A 
ATOM     10  C   UNL     1       3.671   3.656   3.103  1.00  0.00     0.007 A 
ATOM     11  C   UNL     1       1.671   4.197   1.878  1.00  0.00     0.007 A 
ATOM     12  C   UNL     1       4.053   5.004   3.058  1.00  0.00     0.016 A 
ATOM     13  C   UNL     1       2.031   5.548   1.857  1.00  0.00     0.016 A 
BRANCH   9  14
ATOM     14  C   UNL     1       2.073   1.731   2.525  1.00  0.00     0.170 C 
ATOM     15  N   UNL     1       0.672   1.516   2.095  1.00  0.00    -0.325 N 
ATOM     16  C   UNL     1      -0.354   1.838   3.096  1.00  0.00     0.181 C 
ATOM     17  C   UNL     1      -0.062   1.128   4.431  1.00  0.00     0.282 C 
ATOM     18  C   UNL     1       2.281   0.999   3.889  1.00  0.00     0.290 C 
ATOM     19  N   UNL     1       1.305   1.373   4.936  1.00  0.00    -0.343 N 
ATOM     20  H   UNL     1       1.467   0.811   5.771  1.00  0.00     0.346 HD
ATOM     21  H   UNL     1       1.414   2.360   5.170  1.00  0.00     0.346 HD
BRANCH  15  22
ATOM     22  C   UNL     1       0.269   1.119   0.833  1.00  0.00     0.220 C 
ATOM     23  C   UNL     1       1.232   0.290   0.022  1.00  0.00     0.114 C 
ATOM     24  O   UNL     1      -0.866   1.338   0.408  1.00  0.00    -0.275 OA
ENDBRANCH  15  22
ENDBRANCH   9  14
ENDBRANCH   6   8
ENDBRANCH   5   6
ENDBRANCH   4   5
ENDBRANCH   3   4
ENDBRANCH   2   3
ENDBRANCH   1   2
BRANCH   1  25
ATOM     25  C   UNL     1       1.875   7.405   5.596  1.00  0.00     0.188 C 
BRANCH  25  26
ATOM     26  O   UNL     1       0.835   8.313   5.331  1.00  0.00    -0.376 OA
BRANCH  26  27
ATOM     27  C   UNL     1       0.205   9.022   6.383  1.00  0.00     0.202 C 
BRANCH  27  28
ATOM     28  C   UNL     1       0.729   9.169   7.827  1.00  0.00     0.261 C 
BRANCH  28  29
ATOM     29  O   UNL     1       1.946   8.514   8.187  1.00  0.00    -0.460 OA
BRANCH  29  30
ATOM     30  C   UNL     1       1.818   7.362   8.886  1.00  0.00     0.338 C 
ATOM     31  O   UNL     1       0.789   6.786   9.188  1.00  0.00    -0.246 OA
BRANCH  30  32
ATOM     32  C   UNL     1       3.163   6.793   9.095  1.00  0.00     0.060 A 
ATOM     33  C   UNL     1       3.487   5.588   8.459  1.00  0.00     0.016 A 
ATOM     34  C   UNL     1       4.085   7.429   9.928  1.00  0.00     0.016 A 
ATOM     35  C   UNL     1       4.734   5.001   8.674  1.00  0.00     0.010 A 
ATOM     36  C   UNL     1       5.327   6.829  10.157  1.00  0.00     0.010 A 
ATOM     37  C   UNL     1       5.646   5.599   9.553  1.00  0.00    -0.014 A 
BRANCH  37  38
ATOM     38  C   UNL     1       6.861   4.858   9.971  1.00  0.00     0.031 A 
ATOM     39  C   UNL     1       6.843   4.127  11.284  1.00  0.00     0.074 A 
ATOM     40  C   UNL     1       7.960   4.827   9.198  1.00  0.00     0.049 A 
ATOM     41  N   UNL     1       7.796   3.454  11.877  1.00  0.00    -0.248 NA
ATOM     42  C   UNL     1       5.577   4.166  12.032  1.00  0.00     0.031 C 
ATOM     43  C   UNL     1       8.094   5.473   7.895  1.00  0.00     0.029 A 
ATOM     44  N   UNL     1       9.182   4.237   9.411  1.00  0.00    -0.354 N 
ATOM     45  C   UNL     1       7.250   3.002  13.071  1.00  0.00     0.074 A 
ATOM     46  C   UNL     1       5.893   3.500  13.132  1.00  0.00     0.031 C 
ATOM     47  C   UNL     1       9.338   5.261   7.431  1.00  0.00     0.029 A 
ATOM     48  C   UNL     1      10.095   4.493   8.419  1.00  0.00     0.049 A 
ATOM     49  H   UNL     1       9.383   3.683  10.200  1.00  0.00     0.167 HD
ATOM     50  C   UNL     1       7.828   2.238  14.029  1.00  0.00     0.037 A 
ATOM     51  C   UNL     1      11.400   4.168   8.334  1.00  0.00     0.037 A 
ATOM     52  C   UNL     1       9.179   1.745  13.965  1.00  0.00     0.049 A 
ATOM     53  C   UNL     1      12.040   3.363   9.438  1.00  0.00     0.074 A 
ATOM     54  C   UNL     1       9.841   0.927  14.864  1.00  0.00     0.029 A 
ATOM     55  N   UNL     1      10.080   2.038  12.952  1.00  0.00    -0.354 N 
ATOM     56  N   UNL     1      11.505   2.898  10.542  1.00  0.00    -0.248 NA
ATOM     57  C   UNL     1      13.464   3.034   9.281  1.00  0.00     0.031 C 
ATOM     58  C   UNL     1      11.162   0.780  14.429  1.00  0.00     0.029 A 
ATOM     59  C   UNL     1      11.305   1.448  13.223  1.00  0.00     0.049 A 
ATOM     60  H   UNL     1       9.880   2.585  12.159  1.00  0.00     0.167 HD
ATOM     61  C   UNL     1      12.515   2.202  11.195  1.00  0.00     0.074 A 
ATOM     62  C   UNL     1      13.692   2.293  10.357  1.00  0.00     0.031 C 
ATOM     63  C   UNL     1      12.471   1.544  12.380  1.00  0.00     0.037 A 
BRANCH  50  64
ATOM     64  C   UNL     1       7.010   1.922  15.248  1.00  0.00     0.064 A 
ATOM     65  C   UNL     1       5.901   1.064  15.198  1.00  0.00     0.173 A 
ATOM     66  C   UNL     1       7.356   2.474  16.491  1.00  0.00     0.173 A 
ATOM     67  F   UNL     1       5.520   0.521  14.032  1.00  0.00    -0.203 F 
ATOM     68  C   UNL     1       5.149   0.798  16.339  1.00  0.00     0.198 A 
ATOM     69  C   UNL     1       6.622   2.179  17.637  1.00  0.00     0.198 A 
ATOM     70  F   UNL     1       8.410   3.297  16.597  1.00  0.00    -0.203 F 
ATOM     71  F   UNL     1       4.060   0.021  16.256  1.00  0.00    -0.200 F 
ATOM     72  C   UNL     1       5.513   1.350  17.558  1.00  0.00     0.200 A 
ATOM     73  F   UNL     1       6.984   2.702  18.816  1.00  0.00    -0.200 F 
ATOM     74  F   UNL     1       4.791   1.090  18.657  1.00  0.00    -0.200 F 
ENDBRANCH  50  64
BRANCH  51  75
ATOM     75  C   UNL     1      12.198   4.619   7.163  1.00  0.00     0.064 A 
ATOM     76  C   UNL     1      12.683   3.705   6.218  1.00  0.00     0.173 A 
ATOM     77  C   UNL     1      12.499   5.976   6.972  1.00  0.00     0.173 A 
ATOM     78  F   UNL     1      12.446   2.394   6.372  1.00  0.00    -0.203 F 
ATOM     79  C   UNL     1      13.450   4.129   5.134  1.00  0.00     0.198 A 
ATOM     80  C   UNL     1      13.241   6.402   5.872  1.00  0.00     0.198 A 
ATOM     81  F   UNL     1      12.064   6.891   7.851  1.00  0.00    -0.203 F 
ATOM     82  F   UNL     1      13.939   3.229   4.270  1.00  0.00    -0.200 F 
ATOM     83  C   UNL     1      13.722   5.478   4.958  1.00  0.00     0.200 A 
ATOM     84  F   UNL     1      13.492   7.707   5.700  1.00  0.00    -0.200 F 
ATOM     85  F   UNL     1      14.454   5.885   3.912  1.00  0.00    -0.200 F 
ENDBRANCH  51  75
BRANCH  63  86
ATOM     86  C   UNL     1      13.719   0.837  12.832  1.00  0.00     0.064 A 
ATOM     87  C   UNL     1      14.854   1.540  13.263  1.00  0.00     0.173 A 
ATOM     88  C   UNL     1      13.761  -0.565  12.879  1.00  0.00     0.173 A 
ATOM     89  F   UNL     1      14.872   2.881  13.226  1.00  0.00    -0.203 F 
ATOM     90  C   UNL     1      15.992   0.866  13.698  1.00  0.00     0.198 A 
ATOM     91  C   UNL     1      14.888  -1.236  13.347  1.00  0.00     0.198 A 
ATOM     92  F   UNL     1      12.701  -1.288  12.487  1.00  0.00    -0.203 F 
ATOM     93  F   UNL     1      17.082   1.558  14.059  1.00  0.00    -0.200 F 
ATOM     94  C   UNL     1      16.005  -0.520  13.749  1.00  0.00     0.200 A 
ATOM     95  F   UNL     1      14.891  -2.574  13.411  1.00  0.00    -0.200 F 
ATOM     96  F   UNL     1      17.098  -1.167  14.178  1.00  0.00    -0.200 F 
ENDBRANCH  63  86
ENDBRANCH  37  38
ENDBRANCH  30  32
ENDBRANCH  29  30
ENDBRANCH  28  29
ENDBRANCH  27  28
ENDBRANCH  26  27
ENDBRANCH  25  26
ENDBRANCH   1  25
TORSDOF 19
