REMARK SMILES C[C@@H](Sc1nc2c(cc1C#N)CCC2)C(=O)OCCOCCOCCOC(=O)c1ccc(-c2c3nc(c(-c4c(F)c(F)c(F)c(F)c4F)c4ccc([nH]4)c(-c4c(F)c(F)c(F)c(F)c4F)c4nc(c(-c5c(F)c(F)c(F)c(F)c5F)c5ccc2[nH]5)C=C4)C=C3)cc1
REMARK SMILES IDX 21 1 20 2 19 3 18 4 17 5 15 6 16 7 2 8 1 9 3 10 4 11 5 12
REMARK SMILES IDX 9 13 6 14 8 15 7 16 14 17 12 18 13 19 10 20 11 21 22 22
REMARK SMILES IDX 23 23 24 24 25 25 26 26 27 27 28 28 29 29 30 30 91 31 31 32
REMARK SMILES IDX 90 33 32 34 33 35 34 36 84 37 35 38 89 39 83 40 85 41 36 42
REMARK SMILES IDX 88 43 82 44 81 45 37 47 69 48 49 49 68 50 50 51 53 52 67 53
REMARK SMILES IDX 86 54 51 55 52 56 66 58 87 59 54 60 38 61 39 62 47 63 40 64
REMARK SMILES IDX 41 65 45 66 48 67 42 68 43 69 46 70 44 71 70 72 71 73 79 74
REMARK SMILES IDX 72 75 73 76 77 77 80 78 74 79 75 80 78 81 76 82 55 83 56 84
REMARK SMILES IDX 64 85 57 86 58 87 62 88 65 89 59 90 60 91 63 92 61 93
REMARK H PARENT 85 46 53 57
REMARK Flexibility Score: inf
ROOT
ATOM      1  C   UNL     1      -2.200  -1.325   1.377  1.00  0.00     0.188 C 
ENDROOT
BRANCH   1   2
ATOM      2  O   UNL     1      -3.565  -0.959   1.462  1.00  0.00    -0.376 OA
BRANCH   2   3
ATOM      3  C   UNL     1      -3.987   0.255   0.849  1.00  0.00     0.202 C 
BRANCH   3   4
ATOM      4  C   UNL     1      -3.179   1.555   1.038  1.00  0.00     0.261 C 
BRANCH   4   5
ATOM      5  O   UNL     1      -1.775   1.460   0.722  1.00  0.00    -0.462 OA
BRANCH   5   6
ATOM      6  C   UNL     1      -0.915   1.614   1.761  1.00  0.00     0.319 C 
ATOM      7  O   UNL     1      -1.287   1.874   2.904  1.00  0.00    -0.251 OA
BRANCH   6   8
ATOM      8  C   UNL     1       0.548   1.252   1.424  1.00  0.00     0.160 C 
ATOM      9  C   UNL     1       0.947   1.150  -0.051  1.00  0.00     0.032 C 
BRANCH   8  10
ATOM     10  S   UNL     1       1.575   2.445   2.373  1.00  0.00    -0.090 SA
BRANCH  10  11
ATOM     11  C   UNL     1       3.268   2.076   2.011  1.00  0.00     0.115 A 
ATOM     12  N   UNL     1       3.958   3.242   1.901  1.00  0.00    -0.245 NA
ATOM     13  C   UNL     1       3.908   0.826   1.966  1.00  0.00     0.085 A 
ATOM     14  C   UNL     1       5.284   3.163   1.783  1.00  0.00     0.045 A 
ATOM     15  C   UNL     1       5.308   0.785   1.830  1.00  0.00     0.028 A 
ATOM     16  C   UNL     1       5.996   1.980   1.752  1.00  0.00    -0.025 A 
ATOM     17  C   UNL     1       6.189   4.357   1.796  1.00  0.00     0.057 C 
ATOM     18  C   UNL     1       7.464   2.244   1.735  1.00  0.00     0.038 C 
ATOM     19  C   UNL     1       7.503   3.726   1.322  1.00  0.00     0.011 C 
BRANCH  13  20
ATOM     20  C   UNL     1       3.218  -0.417   2.084  1.00  0.00     0.102 C 
ATOM     21  N   UNL     1       2.670  -1.444   2.135  1.00  0.00    -0.192 NA
ENDBRANCH  13  20
ENDBRANCH  10  11
ENDBRANCH   8  10
ENDBRANCH   6   8
ENDBRANCH   5   6
ENDBRANCH   4   5
ENDBRANCH   3   4
ENDBRANCH   2   3
ENDBRANCH   1   2
BRANCH   1  22
ATOM     22  C   UNL     1      -1.512  -1.352   0.006  1.00  0.00     0.188 C 
BRANCH  22  23
ATOM     23  O   UNL     1      -2.073  -0.558  -1.006  1.00  0.00    -0.376 OA
BRANCH  23  24
ATOM     24  C   UNL     1      -2.735  -1.145  -2.116  1.00  0.00     0.202 C 
BRANCH  24  25
ATOM     25  C   UNL     1      -3.315  -2.582  -2.191  1.00  0.00     0.261 C 
BRANCH  25  26
ATOM     26  O   UNL     1      -2.941  -3.551  -1.203  1.00  0.00    -0.460 OA
BRANCH  26  27
ATOM     27  C   UNL     1      -1.781  -4.230  -1.412  1.00  0.00     0.338 C 
ATOM     28  O   UNL     1      -1.032  -4.123  -2.365  1.00  0.00    -0.246 OA
BRANCH  27  29
ATOM     29  C   UNL     1      -1.427  -4.893  -0.129  1.00  0.00     0.060 A 
ATOM     30  C   UNL     1      -0.274  -4.478   0.559  1.00  0.00     0.016 A 
ATOM     31  C   UNL     1      -2.265  -5.856   0.430  1.00  0.00     0.016 A 
ATOM     32  C   UNL     1       0.037  -5.018   1.808  1.00  0.00     0.010 A 
ATOM     33  C   UNL     1      -1.932  -6.424   1.666  1.00  0.00     0.010 A 
ATOM     34  C   UNL     1      -0.770  -6.023   2.353  1.00  0.00    -0.014 A 
BRANCH  34  35
ATOM     35  C   UNL     1      -0.306  -6.773   3.549  1.00  0.00     0.031 A 
ATOM     36  C   UNL     1       0.327  -8.121   3.351  1.00  0.00     0.074 A 
ATOM     37  C   UNL     1      -0.420  -6.268   4.791  1.00  0.00     0.049 A 
ATOM     38  N   UNL     1       0.816  -8.951   4.236  1.00  0.00    -0.248 NA
ATOM     39  C   UNL     1       0.413  -8.601   1.963  1.00  0.00     0.031 C 
ATOM     40  C   UNL     1      -0.992  -4.967   5.120  1.00  0.00     0.029 A 
ATOM     41  N   UNL     1      -0.058  -6.798   6.007  1.00  0.00    -0.354 N 
ATOM     42  C   UNL     1       1.261 -10.050   3.514  1.00  0.00     0.074 A 
ATOM     43  C   UNL     1       0.941  -9.804   2.126  1.00  0.00     0.031 C 
ATOM     44  C   UNL     1      -0.942  -4.796   6.452  1.00  0.00     0.029 A 
ATOM     45  C   UNL     1      -0.359  -5.987   7.074  1.00  0.00     0.049 A 
ATOM     46  H   UNL     1       0.376  -7.676   6.104  1.00  0.00     0.167 HD
ATOM     47  C   UNL     1       1.895 -11.157   3.966  1.00  0.00     0.037 A 
ATOM     48  C   UNL     1      -0.194  -6.183   8.399  1.00  0.00     0.037 A 
ATOM     49  C   UNL     1       2.213 -11.399   5.348  1.00  0.00     0.049 A 
ATOM     50  C   UNL     1       0.454  -7.451   8.895  1.00  0.00     0.074 A 
ATOM     51  C   UNL     1       2.893 -12.471   5.896  1.00  0.00     0.029 A 
ATOM     52  N   UNL     1       1.855 -10.569   6.402  1.00  0.00    -0.354 N 
ATOM     53  N   UNL     1       0.929  -8.458   8.203  1.00  0.00    -0.248 NA
ATOM     54  C   UNL     1       0.595  -7.612  10.351  1.00  0.00     0.031 C 
ATOM     55  C   UNL     1       2.872 -12.335   7.286  1.00  0.00     0.029 A 
ATOM     56  C   UNL     1       2.256 -11.134   7.602  1.00  0.00     0.049 A 
ATOM     57  H   UNL     1       1.386  -9.708   6.310  1.00  0.00     0.167 HD
ATOM     58  C   UNL     1       1.444  -9.357   9.129  1.00  0.00     0.074 A 
ATOM     59  C   UNL     1       1.228  -8.776  10.438  1.00  0.00     0.031 C 
ATOM     60  C   UNL     1       2.046 -10.551   8.906  1.00  0.00     0.037 A 
BRANCH  47  61
ATOM     61  C   UNL     1       2.262 -12.210   2.958  1.00  0.00     0.064 A 
ATOM     62  C   UNL     1       3.233 -11.986   1.970  1.00  0.00     0.173 A 
ATOM     63  C   UNL     1       1.657 -13.476   3.004  1.00  0.00     0.173 A 
ATOM     64  F   UNL     1       3.840 -10.792   1.876  1.00  0.00    -0.203 F 
ATOM     65  C   UNL     1       3.555 -12.974   1.043  1.00  0.00     0.198 A 
ATOM     66  C   UNL     1       2.010 -14.474   2.102  1.00  0.00     0.198 A 
ATOM     67  F   UNL     1       0.729 -13.750   3.934  1.00  0.00    -0.203 F 
ATOM     68  F   UNL     1       4.440 -12.714   0.071  1.00  0.00    -0.200 F 
ATOM     69  C   UNL     1       2.950 -14.219   1.115  1.00  0.00     0.200 A 
ATOM     70  F   UNL     1       1.440 -15.684   2.187  1.00  0.00    -0.200 F 
ATOM     71  F   UNL     1       3.267 -15.172   0.228  1.00  0.00    -0.200 F 
ENDBRANCH  47  61
BRANCH  48  72
ATOM     72  C   UNL     1      -0.635  -5.120   9.341  1.00  0.00     0.064 A 
ATOM     73  C   UNL     1       0.296  -4.332  10.030  1.00  0.00     0.173 A 
ATOM     74  C   UNL     1      -1.996  -4.818   9.509  1.00  0.00     0.173 A 
ATOM     75  F   UNL     1       1.606  -4.600   9.928  1.00  0.00    -0.203 F 
ATOM     76  C   UNL     1      -0.116  -3.270  10.834  1.00  0.00     0.198 A 
ATOM     77  C   UNL     1      -2.405  -3.740  10.291  1.00  0.00     0.198 A 
ATOM     78  F   UNL     1      -2.928  -5.548   8.878  1.00  0.00    -0.203 F 
ATOM     79  F   UNL     1       0.795  -2.539  11.492  1.00  0.00    -0.200 F 
ATOM     80  C   UNL     1      -1.464  -2.964  10.950  1.00  0.00     0.200 A 
ATOM     81  F   UNL     1      -3.707  -3.441  10.389  1.00  0.00    -0.200 F 
ATOM     82  F   UNL     1      -1.855  -1.922  11.697  1.00  0.00    -0.200 F 
ENDBRANCH  48  72
BRANCH  60  83
ATOM     83  C   UNL     1       2.545 -11.341  10.084  1.00  0.00     0.064 A 
ATOM     84  C   UNL     1       1.665 -12.019  10.939  1.00  0.00     0.173 A 
ATOM     85  C   UNL     1       3.923 -11.553  10.259  1.00  0.00     0.173 A 
ATOM     86  F   UNL     1       0.341 -11.845  10.821  1.00  0.00    -0.203 F 
ATOM     87  C   UNL     1       2.145 -12.890  11.915  1.00  0.00     0.198 A 
ATOM     88  C   UNL     1       4.397 -12.448  11.214  1.00  0.00     0.198 A 
ATOM     89  F   UNL     1       4.808 -10.937   9.460  1.00  0.00    -0.203 F 
ATOM     90  F   UNL     1       1.286 -13.524  12.725  1.00  0.00    -0.200 F 
ATOM     91  C   UNL     1       3.508 -13.118  12.039  1.00  0.00     0.200 A 
ATOM     92  F   UNL     1       5.713 -12.685  11.314  1.00  0.00    -0.200 F 
ATOM     93  F   UNL     1       3.964 -13.991  12.949  1.00  0.00    -0.200 F 
ENDBRANCH  60  83
ENDBRANCH  34  35
ENDBRANCH  27  29
ENDBRANCH  26  27
ENDBRANCH  25  26
ENDBRANCH  24  25
ENDBRANCH  23  24
ENDBRANCH  22  23
ENDBRANCH   1  22
TORSDOF 20
