REMARK SMILES CC(C)Cc1cc2c(cc1Cl)C=C(C(=O)OCCOCCOCCOC(=O)c1ccc(-c3c4nc(c(-c5c(F)c(F)c(F)c(F)c5F)c5ccc([nH]5)c(-c5c(F)c(F)c(F)c(F)c5F)c5nc(c(-c6c(F)c(F)c(F)c(F)c6F)c6ccc3[nH]6)C=C5)C=C4)cc1)[C@@H](C(F)(F)F)O2
REMARK SMILES IDX 20 1 19 2 18 3 17 4 16 5 14 6 15 7 13 8 5 9 6 10 10 11 7 12
REMARK SMILES IDX 9 13 11 14 8 15 96 16 12 17 91 18 4 19 2 20 1 21 3 22 92 23
REMARK SMILES IDX 93 24 94 25 95 26 21 27 22 28 23 29 24 30 25 31 26 32 27 33
REMARK SMILES IDX 28 34 29 35 90 36 30 37 89 38 31 39 32 40 33 41 83 42 34 43
REMARK SMILES IDX 88 44 82 45 84 46 35 47 87 48 81 49 80 50 36 52 68 53 48 54
REMARK SMILES IDX 67 55 49 56 52 57 66 58 85 59 50 60 51 61 65 63 86 64 53 65
REMARK SMILES IDX 37 66 38 67 46 68 39 69 40 70 44 71 47 72 41 73 42 74 45 75
REMARK SMILES IDX 43 76 69 77 70 78 78 79 71 80 72 81 76 82 79 83 73 84 74 85
REMARK SMILES IDX 77 86 75 87 54 88 55 89 63 90 56 91 57 92 61 93 64 94 58 95
REMARK SMILES IDX 59 96 62 97 60 98
REMARK H PARENT 84 51 52 62
REMARK Flexibility Score: inf
ROOT
ATOM      1  C   UNL     1      -4.952  -3.560  -6.810  1.00  0.00     0.188 C 
ENDROOT
BRANCH   1   2
ATOM      2  O   UNL     1      -5.000  -4.085  -8.117  1.00  0.00    -0.376 OA
BRANCH   2   3
ATOM      3  C   UNL     1      -4.082  -5.072  -8.553  1.00  0.00     0.202 C 
BRANCH   3   4
ATOM      4  C   UNL     1      -2.644  -5.192  -8.030  1.00  0.00     0.261 C 
BRANCH   4   5
ATOM      5  O   UNL     1      -2.470  -4.942  -6.632  1.00  0.00    -0.460 OA
BRANCH   5   6
ATOM      6  C   UNL     1      -1.723  -3.851  -6.338  1.00  0.00     0.338 C 
ATOM      7  O   UNL     1      -1.185  -3.095  -7.130  1.00  0.00    -0.246 OA
BRANCH   6   8
ATOM      8  C   UNL     1      -1.787  -3.588  -4.889  1.00  0.00     0.087 C 
ATOM      9  C   UNL     1      -1.600  -1.297  -0.443  1.00  0.00    -0.025 A 
ATOM     10  C   UNL     1      -1.494  -2.636  -0.865  1.00  0.00     0.052 A 
ATOM     11  C   UNL     1      -2.050  -0.339  -1.365  1.00  0.00     0.045 A 
ATOM     12  C   UNL     1      -1.715  -2.986  -2.197  1.00  0.00     0.128 A 
ATOM     13  C   UNL     1      -2.273  -0.692  -2.699  1.00  0.00     0.032 A 
ATOM     14  Cl  UNL     1      -2.284   1.319  -0.941  1.00  0.00    -0.084 Cl
ATOM     15  C   UNL     1      -2.054  -2.005  -3.124  1.00  0.00     0.019 A 
ATOM     16  O   UNL     1      -1.536  -4.302  -2.512  1.00  0.00    -0.475 OA
ATOM     17  C   UNL     1      -2.077  -2.329  -4.537  1.00  0.00     0.027 C 
ATOM     18  C   UNL     1      -1.536  -4.703  -3.910  1.00  0.00     0.316 C 
BRANCH   9  19
ATOM     19  C   UNL     1      -1.097  -0.938   0.939  1.00  0.00     0.040 C 
BRANCH  19  20
ATOM     20  C   UNL     1       0.450  -0.899   1.009  1.00  0.00    -0.013 C 
ATOM     21  C   UNL     1       1.072   0.118   0.047  1.00  0.00     0.008 C 
ATOM     22  C   UNL     1       0.903  -0.587   2.437  1.00  0.00     0.008 C 
ENDBRANCH  19  20
ENDBRANCH   9  19
BRANCH  18  23
ATOM     23  C   UNL     1      -0.223  -5.447  -4.192  1.00  0.00     0.430 C 
ATOM     24  F   UNL     1      -0.003  -6.421  -3.277  1.00  0.00    -0.167 F 
ATOM     25  F   UNL     1      -0.236  -6.050  -5.404  1.00  0.00    -0.167 F 
ATOM     26  F   UNL     1       0.843  -4.615  -4.166  1.00  0.00    -0.167 F 
ENDBRANCH  18  23
ENDBRANCH   6   8
ENDBRANCH   5   6
ENDBRANCH   4   5
ENDBRANCH   3   4
ENDBRANCH   2   3
ENDBRANCH   1   2
BRANCH   1  27
ATOM     27  C   UNL     1      -5.205  -4.465  -5.585  1.00  0.00     0.188 C 
BRANCH  27  28
ATOM     28  O   UNL     1      -5.420  -5.849  -5.740  1.00  0.00    -0.376 OA
BRANCH  28  29
ATOM     29  C   UNL     1      -6.529  -6.314  -6.494  1.00  0.00     0.202 C 
BRANCH  29  30
ATOM     30  C   UNL     1      -7.907  -5.636  -6.465  1.00  0.00     0.261 C 
BRANCH  30  31
ATOM     31  O   UNL     1      -7.901  -4.205  -6.523  1.00  0.00    -0.460 OA
BRANCH  31  32
ATOM     32  C   UNL     1      -8.338  -3.578  -5.396  1.00  0.00     0.338 C 
ATOM     33  O   UNL     1      -8.720  -4.085  -4.367  1.00  0.00    -0.246 OA
BRANCH  32  34
ATOM     34  C   UNL     1      -8.078  -2.129  -5.541  1.00  0.00     0.060 A 
ATOM     35  C   UNL     1      -8.666  -1.399  -6.573  1.00  0.00     0.016 A 
ATOM     36  C   UNL     1      -7.222  -1.505  -4.622  1.00  0.00     0.016 A 
ATOM     37  C   UNL     1      -8.410  -0.030  -6.672  1.00  0.00     0.010 A 
ATOM     38  C   UNL     1      -6.954  -0.140  -4.733  1.00  0.00     0.010 A 
ATOM     39  C   UNL     1      -7.563   0.611  -5.748  1.00  0.00    -0.014 A 
BRANCH  39  40
ATOM     40  C   UNL     1      -7.459   2.090  -5.752  1.00  0.00     0.031 A 
ATOM     41  C   UNL     1      -6.282   2.804  -6.341  1.00  0.00     0.074 A 
ATOM     42  C   UNL     1      -8.470   2.792  -5.207  1.00  0.00     0.049 A 
ATOM     43  N   UNL     1      -6.102   4.091  -6.506  1.00  0.00    -0.248 NA
ATOM     44  C   UNL     1      -5.158   1.975  -6.797  1.00  0.00     0.031 C 
ATOM     45  C   UNL     1      -9.648   2.201  -4.573  1.00  0.00     0.029 A 
ATOM     46  N   UNL     1      -8.678   4.144  -5.110  1.00  0.00    -0.354 N 
ATOM     47  C   UNL     1      -4.862   4.229  -7.111  1.00  0.00     0.074 A 
ATOM     48  C   UNL     1      -4.307   2.896  -7.235  1.00  0.00     0.031 C 
ATOM     49  C   UNL     1     -10.472   3.184  -4.181  1.00  0.00     0.029 A 
ATOM     50  C   UNL     1      -9.870   4.472  -4.515  1.00  0.00     0.049 A 
ATOM     51  H   UNL     1      -8.034   4.814  -5.435  1.00  0.00     0.167 HD
ATOM     52  C   UNL     1      -4.260   5.364  -7.543  1.00  0.00     0.037 A 
ATOM     53  C   UNL     1     -10.425   5.675  -4.274  1.00  0.00     0.037 A 
ATOM     54  C   UNL     1      -4.813   6.690  -7.399  1.00  0.00     0.049 A 
ATOM     55  C   UNL     1      -9.710   6.919  -4.720  1.00  0.00     0.074 A 
ATOM     56  C   UNL     1      -4.291   7.894  -7.843  1.00  0.00     0.029 A 
ATOM     57  N   UNL     1      -6.003   6.990  -6.752  1.00  0.00    -0.354 N 
ATOM     58  N   UNL     1      -8.579   7.033  -5.372  1.00  0.00    -0.248 NA
ATOM     59  C   UNL     1     -10.354   8.202  -4.406  1.00  0.00     0.031 C 
ATOM     60  C   UNL     1      -5.133   8.924  -7.416  1.00  0.00     0.029 A 
ATOM     61  C   UNL     1      -6.213   8.361  -6.756  1.00  0.00     0.049 A 
ATOM     62  H   UNL     1      -6.609   6.327  -6.348  1.00  0.00     0.167 HD
ATOM     63  C   UNL     1      -8.384   8.394  -5.562  1.00  0.00     0.074 A 
ATOM     64  C   UNL     1      -9.526   9.066  -4.977  1.00  0.00     0.031 C 
ATOM     65  C   UNL     1      -7.349   9.026  -6.167  1.00  0.00     0.037 A 
BRANCH  52  66
ATOM     66  C   UNL     1      -2.932   5.239  -8.235  1.00  0.00     0.064 A 
ATOM     67  C   UNL     1      -2.834   4.701  -9.527  1.00  0.00     0.173 A 
ATOM     68  C   UNL     1      -1.765   5.756  -7.650  1.00  0.00     0.173 A 
ATOM     69  F   UNL     1      -3.919   4.194 -10.131  1.00  0.00    -0.203 F 
ATOM     70  C   UNL     1      -1.617   4.674 -10.203  1.00  0.00     0.198 A 
ATOM     71  C   UNL     1      -0.555   5.752  -8.340  1.00  0.00     0.198 A 
ATOM     72  F   UNL     1      -1.806   6.295  -6.422  1.00  0.00    -0.203 F 
ATOM     73  F   UNL     1      -1.544   4.135 -11.427  1.00  0.00    -0.200 F 
ATOM     74  C   UNL     1      -0.481   5.209  -9.613  1.00  0.00     0.200 A 
ATOM     75  F   UNL     1       0.537   6.288  -7.777  1.00  0.00    -0.200 F 
ATOM     76  F   UNL     1       0.685   5.204 -10.275  1.00  0.00    -0.200 F 
ENDBRANCH  52  66
BRANCH  53  77
ATOM     77  C   UNL     1     -11.753   5.746  -3.614  1.00  0.00     0.064 A 
ATOM     78  C   UNL     1     -12.887   6.159  -4.326  1.00  0.00     0.173 A 
ATOM     79  C   UNL     1     -11.921   5.375  -2.272  1.00  0.00     0.173 A 
ATOM     80  F   UNL     1     -12.772   6.539  -5.607  1.00  0.00    -0.203 F 
ATOM     81  C   UNL     1     -14.139   6.207  -3.717  1.00  0.00     0.198 A 
ATOM     82  C   UNL     1     -13.178   5.396  -1.673  1.00  0.00     0.198 A 
ATOM     83  F   UNL     1     -10.867   4.967  -1.550  1.00  0.00    -0.203 F 
ATOM     84  F   UNL     1     -15.202   6.637  -4.410  1.00  0.00    -0.200 F 
ATOM     85  C   UNL     1     -14.285   5.817  -2.394  1.00  0.00     0.200 A 
ATOM     86  F   UNL     1     -13.318   5.002  -0.400  1.00  0.00    -0.200 F 
ATOM     87  F   UNL     1     -15.492   5.850  -1.814  1.00  0.00    -0.200 F 
ENDBRANCH  53  77
BRANCH  65  88
ATOM     88  C   UNL     1      -7.397  10.527  -6.238  1.00  0.00     0.064 A 
ATOM     89  C   UNL     1      -7.216  11.321  -5.096  1.00  0.00     0.173 A 
ATOM     90  C   UNL     1      -7.563  11.179  -7.470  1.00  0.00     0.173 A 
ATOM     91  F   UNL     1      -7.069  10.748  -3.892  1.00  0.00    -0.203 F 
ATOM     92  C   UNL     1      -7.216  12.711  -5.182  1.00  0.00     0.198 A 
ATOM     93  C   UNL     1      -7.530  12.569  -7.557  1.00  0.00     0.198 A 
ATOM     94  F   UNL     1      -7.734  10.468  -8.595  1.00  0.00    -0.203 F 
ATOM     95  F   UNL     1      -7.081  13.449  -4.071  1.00  0.00    -0.200 F 
ATOM     96  C   UNL     1      -7.362  13.333  -6.413  1.00  0.00     0.200 A 
ATOM     97  F   UNL     1      -7.656  13.167  -8.749  1.00  0.00    -0.200 F 
ATOM     98  F   UNL     1      -7.344  14.671  -6.495  1.00  0.00    -0.200 F 
ENDBRANCH  65  88
ENDBRANCH  39  40
ENDBRANCH  32  34
ENDBRANCH  31  32
ENDBRANCH  30  31
ENDBRANCH  29  30
ENDBRANCH  28  29
ENDBRANCH  27  28
ENDBRANCH   1  27
TORSDOF 20
