REMARK SMILES CC1(C)CC[C@@]2(C(=O)OCCOCCOCCOC(=O)c3ccc(-c4c5nc(c(-c6c(F)c(F)c(F)c(F)c6F)c6ccc([nH]6)c(-c6c(F)c(F)c(F)c(F)c6F)c6nc(c(-c7c(F)c(F)c(F)c(F)c7F)c7ccc4[nH]7)C=C6)C=C5)cc3)CC[C@@]3(C)C(=CC[C@H]4[C@@]5(C)CC[C@H](O)C(C)(C)[C@@H]5CC[C@]43C)[C@@H]2C1
REMARK SMILES IDX 14 1 13 2 12 3 11 4 10 5 9 6 7 7 8 8 6 9 1 10 2 11 3 12 4 13
REMARK SMILES IDX 107 14 5 15 106 16 88 17 84 18 86 19 89 20 85 21 87 22
REMARK SMILES IDX 104 23 90 24 91 25 103 26 105 27 92 28 102 29 93 30 94 31
REMARK SMILES IDX 101 32 95 33 98 34 96 35 99 36 100 37 97 38 15 40 16 41
REMARK SMILES IDX 17 42 18 43 19 44 20 45 21 46 22 47 83 48 23 49 82 50 24 51
REMARK SMILES IDX 25 52 26 53 76 54 27 55 81 56 75 57 77 58 28 59 80 60 74 61
REMARK SMILES IDX 73 62 29 64 61 65 41 66 60 67 42 68 45 69 59 70 78 71 43 72
REMARK SMILES IDX 44 73 58 75 79 76 46 77 30 78 31 79 39 80 32 81 33 82 37 83
REMARK SMILES IDX 40 84 34 85 35 86 38 87 36 88 62 89 63 90 71 91 64 92 65 93
REMARK SMILES IDX 69 94 72 95 66 96 67 97 70 98 68 99 47 100 48 101 56 102
REMARK SMILES IDX 49 103 50 104 54 105 57 106 51 107 52 108 55 109 53 110
REMARK H PARENT 97 39 77 63 45 74
REMARK Flexibility Score: inf
ROOT
ATOM      1  C   UNL     1      -3.472   2.741   2.896  1.00  0.00     0.188 C 
ENDROOT
BRANCH   1   2
ATOM      2  C   UNL     1      -2.030   2.255   3.049  1.00  0.00     0.188 C 
BRANCH   2   3
ATOM      3  O   UNL     1      -1.545   1.586   1.869  1.00  0.00    -0.376 OA
BRANCH   3   4
ATOM      4  C   UNL     1      -1.790   2.218   0.602  1.00  0.00     0.202 C 
BRANCH   4   5
ATOM      5  C   UNL     1      -0.625   2.141  -0.370  1.00  0.00     0.261 C 
BRANCH   5   6
ATOM      6  O   UNL     1       0.541   2.050   0.336  1.00  0.00    -0.463 OA
BRANCH   6   7
ATOM      7  C   UNL     1       0.626   2.936   1.312  1.00  0.00     0.312 C 
ATOM      8  O   UNL     1      -0.160   3.863   1.471  1.00  0.00    -0.252 OA
BRANCH   7   9
ATOM      9  C   UNL     1       1.889   2.744   2.005  1.00  0.00     0.075 C 
ATOM     10  C   UNL     1       3.151  -0.984  -0.122  1.00  0.00     0.011 C 
ATOM     11  C   UNL     1       2.335   0.340  -0.018  1.00  0.00    -0.035 C 
ATOM     12  C   UNL     1       1.504   0.228  -1.359  1.00  0.00     0.011 C 
ATOM     13  C   UNL     1       1.517   0.147   1.318  1.00  0.00     0.007 C 
ATOM     14  C   UNL     1       3.198   1.745  -0.048  1.00  0.00     0.015 C 
ATOM     15  C   UNL     1       1.832   1.212   2.443  1.00  0.00     0.020 C 
ATOM     16  C   UNL     1       2.834   3.147   0.854  1.00  0.00     0.033 C 
ATOM     17  C   UNL     1       2.200   4.608   0.165  1.00  0.00    -0.063 C 
ATOM     18  C   UNL     1       1.847   3.831   3.114  1.00  0.00     0.020 C 
ATOM     19  C   UNL     1       1.431   5.801   1.042  1.00  0.00    -0.006 C 
ATOM     20  C   UNL     1       2.054   4.662  -1.173  1.00  0.00    -0.027 C 
ATOM     21  C   UNL     1       1.269   5.297   2.661  1.00  0.00     0.013 C 
ATOM     22  C   UNL     1       2.664   6.775   1.404  1.00  0.00     0.017 C 
ATOM     23  C   UNL     1       0.138   6.706  -0.067  1.00  0.00    -0.020 C 
ATOM     24  C   UNL     1       0.904   5.182  -2.034  1.00  0.00     0.032 C 
ATOM     25  C   UNL     1      -0.327   5.904  -1.430  1.00  0.00     0.006 C 
ATOM     26  C   UNL     1      -1.230   7.757   0.076  1.00  0.00     0.008 C 
ATOM     27  C   UNL     1       1.133   7.884  -0.548  1.00  0.00     0.012 C 
ATOM     28  C   UNL     1      -2.001   5.448  -1.947  1.00  0.00    -0.025 C 
ATOM     29  C   UNL     1      -2.744   7.481  -0.688  1.00  0.00     0.005 C 
ATOM     30  C   UNL     1      -2.230   6.018  -3.367  1.00  0.00     0.012 C 
ATOM     31  C   UNL     1      -2.224   3.947  -2.213  1.00  0.00     0.010 C 
ATOM     32  C   UNL     1      -3.131   5.997  -1.010  1.00  0.00     0.003 C 
ATOM     33  C   UNL     1      -3.542   3.186  -2.091  1.00  0.00     0.033 C 
ATOM     34  C   UNL     1      -4.701   5.224  -1.100  1.00  0.00    -0.006 C 
ATOM     35  C   UNL     1      -4.428   3.684  -0.968  1.00  0.00     0.120 C 
ATOM     36  C   UNL     1      -5.600   5.371  -2.357  1.00  0.00     0.014 C 
ATOM     37  C   UNL     1      -5.686   5.510   0.075  1.00  0.00     0.014 C 
BRANCH  35  38
ATOM     38  O   UNL     1      -5.602   2.866  -0.872  1.00  0.00    -0.393 OA
ATOM     39  H   UNL     1      -6.102   2.919  -1.702  1.00  0.00     0.210 HD
ENDBRANCH  35  38
ENDBRANCH   7   9
ENDBRANCH   6   7
ENDBRANCH   5   6
ENDBRANCH   4   5
ENDBRANCH   3   4
ENDBRANCH   2   3
ENDBRANCH   1   2
BRANCH   1  40
ATOM     40  O   UNL     1      -3.660   4.154   2.877  1.00  0.00    -0.376 OA
BRANCH  40  41
ATOM     41  C   UNL     1      -2.645   4.873   2.258  1.00  0.00     0.202 C 
BRANCH  41  42
ATOM     42  C   UNL     1      -2.569   6.358   2.339  1.00  0.00     0.261 C 
BRANCH  42  43
ATOM     43  O   UNL     1      -3.780   7.018   1.993  1.00  0.00    -0.460 OA
BRANCH  43  44
ATOM     44  C   UNL     1      -4.790   6.957   2.891  1.00  0.00     0.338 C 
ATOM     45  O   UNL     1      -5.974   7.105   2.653  1.00  0.00    -0.246 OA
BRANCH  44  46
ATOM     46  C   UNL     1      -4.268   6.952   4.242  1.00  0.00     0.060 A 
ATOM     47  C   UNL     1      -4.040   5.742   4.910  1.00  0.00     0.016 A 
ATOM     48  C   UNL     1      -3.826   8.181   4.716  1.00  0.00     0.016 A 
ATOM     49  C   UNL     1      -3.261   5.723   6.026  1.00  0.00     0.010 A 
ATOM     50  C   UNL     1      -3.239   8.195   5.950  1.00  0.00     0.010 A 
ATOM     51  C   UNL     1      -3.014   6.965   6.586  1.00  0.00    -0.014 A 
BRANCH  51  52
ATOM     52  C   UNL     1      -2.902   6.967   8.021  1.00  0.00     0.031 A 
ATOM     53  C   UNL     1      -4.191   6.972   8.768  1.00  0.00     0.074 A 
ATOM     54  C   UNL     1      -1.667   6.994   8.512  1.00  0.00     0.049 A 
ATOM     55  N   UNL     1      -4.391   7.162  10.036  1.00  0.00    -0.248 NA
ATOM     56  C   UNL     1      -5.430   6.750   7.990  1.00  0.00     0.031 C 
ATOM     57  C   UNL     1      -0.439   6.909   7.716  1.00  0.00     0.029 A 
ATOM     58  N   UNL     1      -1.253   7.152   9.788  1.00  0.00    -0.354 N 
ATOM     59  C   UNL     1      -5.766   7.096  10.200  1.00  0.00     0.074 A 
ATOM     60  C   UNL     1      -6.366   6.859   8.915  1.00  0.00     0.031 C 
ATOM     61  C   UNL     1       0.609   7.082   8.534  1.00  0.00     0.029 A 
ATOM     62  C   UNL     1       0.099   7.330   9.876  1.00  0.00     0.049 A 
ATOM     63  H   UNL     1      -1.856   7.140  10.566  1.00  0.00     0.167 HD
ATOM     64  C   UNL     1      -6.441   7.247  11.356  1.00  0.00     0.037 A 
ATOM     65  C   UNL     1       0.798   7.718  10.948  1.00  0.00     0.037 A 
ATOM     66  C   UNL     1      -5.753   7.545  12.580  1.00  0.00     0.049 A 
ATOM     67  C   UNL     1       0.010   7.955  12.204  1.00  0.00     0.074 A 
ATOM     68  C   UNL     1      -6.267   7.752  13.840  1.00  0.00     0.029 A 
ATOM     69  N   UNL     1      -4.369   7.698  12.669  1.00  0.00    -0.354 N 
ATOM     70  N   UNL     1      -1.291   7.887  12.392  1.00  0.00    -0.248 NA
ATOM     71  C   UNL     1       0.777   8.310  13.395  1.00  0.00     0.031 C 
ATOM     72  C   UNL     1      -5.198   8.088  14.679  1.00  0.00     0.029 A 
ATOM     73  C   UNL     1      -4.009   8.020  13.961  1.00  0.00     0.049 A 
ATOM     74  H   UNL     1      -3.740   7.592  11.919  1.00  0.00     0.167 HD
ATOM     75  C   UNL     1      -1.502   8.158  13.733  1.00  0.00     0.074 A 
ATOM     76  C   UNL     1      -0.183   8.376  14.306  1.00  0.00     0.031 C 
ATOM     77  C   UNL     1      -2.661   8.225  14.440  1.00  0.00     0.037 A 
BRANCH  64  78
ATOM     78  C   UNL     1      -7.935   7.163  11.303  1.00  0.00     0.064 A 
ATOM     79  C   UNL     1      -8.603   5.967  10.988  1.00  0.00     0.173 A 
ATOM     80  C   UNL     1      -8.717   8.304  11.531  1.00  0.00     0.173 A 
ATOM     81  F   UNL     1      -7.904   4.853  10.720  1.00  0.00    -0.203 F 
ATOM     82  C   UNL     1      -9.992   5.922  10.889  1.00  0.00     0.198 A 
ATOM     83  C   UNL     1     -10.107   8.249  11.462  1.00  0.00     0.198 A 
ATOM     84  F   UNL     1      -8.134   9.479  11.808  1.00  0.00    -0.203 F 
ATOM     85  F   UNL     1     -10.601   4.783  10.533  1.00  0.00    -0.200 F 
ATOM     86  C   UNL     1     -10.743   7.061  11.135  1.00  0.00     0.200 A 
ATOM     87  F   UNL     1     -10.832   9.351  11.702  1.00  0.00    -0.200 F 
ATOM     88  F   UNL     1     -12.080   7.016  11.046  1.00  0.00    -0.200 F 
ENDBRANCH  64  78
BRANCH  65  89
ATOM     89  C   UNL     1       2.263   7.878  10.849  1.00  0.00     0.064 A 
ATOM     90  C   UNL     1       3.118   6.995  11.516  1.00  0.00     0.173 A 
ATOM     91  C   UNL     1       2.844   8.871  10.044  1.00  0.00     0.173 A 
ATOM     92  F   UNL     1       2.605   6.019  12.281  1.00  0.00    -0.203 F 
ATOM     93  C   UNL     1       4.500   7.119  11.415  1.00  0.00     0.198 A 
ATOM     94  C   UNL     1       4.227   8.975   9.918  1.00  0.00     0.198 A 
ATOM     95  F   UNL     1       2.068   9.718   9.352  1.00  0.00    -0.203 F 
ATOM     96  F   UNL     1       5.295   6.284  12.098  1.00  0.00    -0.200 F 
ATOM     97  C   UNL     1       5.053   8.107  10.614  1.00  0.00     0.200 A 
ATOM     98  F   UNL     1       4.757   9.910   9.117  1.00  0.00    -0.200 F 
ATOM     99  F   UNL     1       6.384   8.222  10.514  1.00  0.00    -0.200 F 
ENDBRANCH  65  89
BRANCH  77 100
ATOM    100  C   UNL     1      -2.515   8.508  15.902  1.00  0.00     0.064 A 
ATOM    101  C   UNL     1      -2.115   9.767  16.369  1.00  0.00     0.173 A 
ATOM    102  C   UNL     1      -2.816   7.511  16.841  1.00  0.00     0.173 A 
ATOM    103  F   UNL     1      -1.803  10.743  15.503  1.00  0.00    -0.203 F 
ATOM    104  C   UNL     1      -1.980  10.005  17.731  1.00  0.00     0.198 A 
ATOM    105  C   UNL     1      -2.725   7.768  18.202  1.00  0.00     0.198 A 
ATOM    106  F   UNL     1      -3.215   6.295  16.435  1.00  0.00    -0.203 F 
ATOM    107  F   UNL     1      -1.526  11.191  18.158  1.00  0.00    -0.200 F 
ATOM    108  C   UNL     1      -2.295   9.009  18.645  1.00  0.00     0.200 A 
ATOM    109  F   UNL     1      -3.051   6.814  19.084  1.00  0.00    -0.200 F 
ATOM    110  F   UNL     1      -2.173   9.245  19.958  1.00  0.00    -0.200 F 
ENDBRANCH  77 100
ENDBRANCH  51  52
ENDBRANCH  44  46
ENDBRANCH  43  44
ENDBRANCH  42  43
ENDBRANCH  41  42
ENDBRANCH  40  41
ENDBRANCH   1  40
TORSDOF 18
