REMARK SMILES Cc1c(NC(=O)c2cccc(-c3cc4ccccc4oc3=O)c2)cccc1C(=O)OCCOCCOCCOC(=O)c1ccc(-c2c3nc(c(-c4c(F)c(F)c(F)c(F)c4F)c4ccc([nH]4)c(-c4c(F)c(F)c(F)c(F)c4F)c4nc(c(-c5c(F)c(F)c(F)c(F)c5F)c5ccc2[nH]5)C=C4)C=C3)cc1
REMARK SMILES IDX 34 1 33 2 32 3 31 4 30 5 28 6 29 7 27 8 1 9 2 10 3 11 24 12
REMARK SMILES IDX 26 13 25 14 4 15 5 16 6 18 7 19 8 20 23 21 9 22 11 23 10 24
REMARK SMILES IDX 12 25 13 26 21 27 14 28 20 29 22 30 15 31 19 32 16 33 18 34
REMARK SMILES IDX 17 35 35 36 36 37 37 38 38 39 39 40 40 41 41 42 42 43 43 44
REMARK SMILES IDX 104 45 44 46 103 47 45 48 46 49 47 50 97 51 48 52 102 53
REMARK SMILES IDX 96 54 98 55 49 56 101 57 95 58 94 59 50 61 82 62 62 63 81 64
REMARK SMILES IDX 63 65 66 66 80 67 99 68 64 69 65 70 79 72 100 73 67 74 51 75
REMARK SMILES IDX 52 76 60 77 53 78 54 79 58 80 61 81 55 82 56 83 59 84 57 85
REMARK SMILES IDX 83 86 84 87 92 88 85 89 86 90 90 91 93 92 87 93 88 94 91 95
REMARK SMILES IDX 89 96 68 97 69 98 77 99 70 100 71 101 75 102 78 103 72 104
REMARK SMILES IDX 73 105 76 106 74 107
REMARK H PARENT 4 17 98 60 66 71
REMARK Flexibility Score: inf
ROOT
ATOM      1  C   UNL     1       3.204   5.827  -1.927  1.00  0.00     0.188 C 
ENDROOT
BRANCH   1   2
ATOM      2  O   UNL     1       3.998   5.010  -1.030  1.00  0.00    -0.376 OA
BRANCH   2   3
ATOM      3  C   UNL     1       4.603   3.743  -1.366  1.00  0.00     0.202 C 
BRANCH   3   4
ATOM      4  C   UNL     1       4.328   2.258  -0.572  1.00  0.00     0.261 C 
BRANCH   4   5
ATOM      5  O   UNL     1       3.070   1.029  -0.667  1.00  0.00    -0.460 OA
BRANCH   5   6
ATOM      6  C   UNL     1       1.728   0.792  -0.172  1.00  0.00     0.338 C 
ATOM      7  O   UNL     1       0.892   1.657   0.077  1.00  0.00    -0.246 OA
BRANCH   6   8
ATOM      8  C   UNL     1       1.072  -0.467   0.337  1.00  0.00     0.065 A 
ATOM      9  C   UNL     1       2.797  -2.070  -0.483  1.00  0.00     0.047 C 
ATOM     10  C   UNL     1       1.429  -1.766   0.035  1.00  0.00    -0.013 A 
ATOM     11  C   UNL     1       0.466  -2.784   0.288  1.00  0.00     0.045 A 
ATOM     12  C   UNL     1      -0.757  -2.530   0.939  1.00  0.00     0.026 A 
ATOM     13  C   UNL     1      -0.142  -0.260   1.101  1.00  0.00     0.016 A 
ATOM     14  C   UNL     1      -1.049  -1.266   1.391  1.00  0.00     0.003 A 
BRANCH  11  15
ATOM     15  N   UNL     1       0.777  -4.099  -0.066  1.00  0.00    -0.322 N 
ATOM     16  C   UNL     1      -0.039  -5.169  -0.339  1.00  0.00     0.255 C 
ATOM     17  H   UNL     1       1.740  -4.290  -0.131  1.00  0.00     0.170 HD
ATOM     18  O   UNL     1       0.417  -6.299  -0.154  1.00  0.00    -0.269 OA
BRANCH  16  19
ATOM     19  C   UNL     1      -1.383  -5.036  -0.987  1.00  0.00     0.040 A 
ATOM     20  C   UNL     1      -2.263  -6.114  -0.834  1.00  0.00     0.014 A 
ATOM     21  C   UNL     1      -1.714  -4.016  -1.898  1.00  0.00     0.022 A 
ATOM     22  C   UNL     1      -3.440  -6.186  -1.578  1.00  0.00     0.001 A 
ATOM     23  C   UNL     1      -2.891  -4.095  -2.678  1.00  0.00    -0.010 A 
ATOM     24  C   UNL     1      -3.747  -5.188  -2.499  1.00  0.00     0.009 A 
BRANCH  23  25
ATOM     25  C   UNL     1      -3.236  -3.187  -3.806  1.00  0.00     0.068 A 
ATOM     26  C   UNL     1      -3.464  -1.864  -3.659  1.00  0.00     0.028 A 
ATOM     27  C   UNL     1      -2.493  -3.431  -5.085  1.00  0.00     0.344 A 
ATOM     28  C   UNL     1      -2.180  -1.158  -3.523  1.00  0.00     0.018 A 
ATOM     29  O   UNL     1      -1.304  -2.704  -5.188  1.00  0.00    -0.422 OA
ATOM     30  O   UNL     1      -2.864  -4.239  -5.924  1.00  0.00    -0.246 OA
ATOM     31  C   UNL     1      -2.001  -0.129  -2.618  1.00  0.00     0.012 A 
ATOM     32  C   UNL     1      -1.094  -1.664  -4.259  1.00  0.00     0.138 A 
ATOM     33  C   UNL     1      -0.709   0.324  -2.404  1.00  0.00     0.001 A 
ATOM     34  C   UNL     1       0.199  -1.235  -4.028  1.00  0.00     0.048 A 
ATOM     35  C   UNL     1       0.386  -0.255  -3.065  1.00  0.00     0.004 A 
ENDBRANCH  23  25
ENDBRANCH  16  19
ENDBRANCH  11  15
ENDBRANCH   6   8
ENDBRANCH   5   6
ENDBRANCH   4   5
ENDBRANCH   3   4
ENDBRANCH   2   3
ENDBRANCH   1   2
BRANCH   1  36
ATOM     36  C   UNL     1       3.392   5.913  -3.451  1.00  0.00     0.188 C 
BRANCH  36  37
ATOM     37  O   UNL     1       3.668   4.645  -4.006  1.00  0.00    -0.376 OA
BRANCH  37  38
ATOM     38  C   UNL     1       3.898   4.601  -5.405  1.00  0.00     0.202 C 
BRANCH  38  39
ATOM     39  C   UNL     1       2.613   4.553  -6.253  1.00  0.00     0.261 C 
BRANCH  39  40
ATOM     40  O   UNL     1       1.829   3.362  -6.015  1.00  0.00    -0.460 OA
BRANCH  40  41
ATOM     41  C   UNL     1       0.599   3.567  -5.423  1.00  0.00     0.338 C 
ATOM     42  O   UNL     1      -0.395   3.894  -6.005  1.00  0.00    -0.246 OA
BRANCH  41  43
ATOM     43  C   UNL     1       0.710   3.364  -3.948  1.00  0.00     0.060 A 
ATOM     44  C   UNL     1      -0.103   3.929  -2.965  1.00  0.00     0.016 A 
ATOM     45  C   UNL     1       1.781   2.661  -3.515  1.00  0.00     0.016 A 
ATOM     46  C   UNL     1       0.293   3.940  -1.570  1.00  0.00     0.010 A 
ATOM     47  C   UNL     1       2.169   2.790  -2.186  1.00  0.00     0.010 A 
ATOM     48  C   UNL     1       1.532   3.458  -1.099  1.00  0.00    -0.014 A 
BRANCH  48  49
ATOM     49  C   UNL     1       2.090   3.664   0.530  1.00  0.00     0.031 A 
ATOM     50  C   UNL     1       2.685   2.597   1.791  1.00  0.00     0.074 A 
ATOM     51  C   UNL     1       1.882   4.910   1.022  1.00  0.00     0.049 A 
ATOM     52  N   UNL     1       2.662   2.873   3.088  1.00  0.00    -0.248 NA
ATOM     53  C   UNL     1       3.280   1.193   1.755  1.00  0.00     0.031 C 
ATOM     54  C   UNL     1       2.432   5.510   2.234  1.00  0.00     0.029 A 
ATOM     55  N   UNL     1       0.937   5.857   0.586  1.00  0.00    -0.354 N 
ATOM     56  C   UNL     1       3.358   1.860   3.773  1.00  0.00     0.074 A 
ATOM     57  C   UNL     1       3.340   0.715   2.979  1.00  0.00     0.031 C 
ATOM     58  C   UNL     1       1.619   6.505   2.623  1.00  0.00     0.029 A 
ATOM     59  C   UNL     1       0.455   6.454   1.760  1.00  0.00     0.049 A 
ATOM     60  H   UNL     1       0.672   6.057  -0.341  1.00  0.00     0.167 HD
ATOM     61  C   UNL     1       4.164   2.055   4.851  1.00  0.00     0.037 A 
ATOM     62  C   UNL     1      -0.837   6.313   2.164  1.00  0.00     0.037 A 
ATOM     63  C   UNL     1       3.639   3.162   5.582  1.00  0.00     0.049 A 
ATOM     64  C   UNL     1      -0.960   5.863   3.598  1.00  0.00     0.074 A 
ATOM     65  C   UNL     1       3.937   4.502   5.646  1.00  0.00     0.029 A 
ATOM     66  N   UNL     1       2.350   2.996   6.057  1.00  0.00    -0.354 N 
ATOM     67  N   UNL     1      -0.014   5.253   4.261  1.00  0.00    -0.248 NA
ATOM     68  C   UNL     1      -2.153   6.088   4.405  1.00  0.00     0.031 C 
ATOM     69  C   UNL     1       2.711   5.164   5.960  1.00  0.00     0.029 A 
ATOM     70  C   UNL     1       1.718   4.211   6.156  1.00  0.00     0.049 A 
ATOM     71  H   UNL     1       1.944   2.130   6.290  1.00  0.00     0.167 HD
ATOM     72  C   UNL     1      -0.457   4.966   5.525  1.00  0.00     0.074 A 
ATOM     73  C   UNL     1      -1.786   5.539   5.574  1.00  0.00     0.031 C 
ATOM     74  C   UNL     1       0.285   4.246   6.418  1.00  0.00     0.037 A 
BRANCH  61  75
ATOM     75  C   UNL     1       5.409   1.226   5.192  1.00  0.00     0.064 A 
ATOM     76  C   UNL     1       6.046   1.374   6.439  1.00  0.00     0.173 A 
ATOM     77  C   UNL     1       6.105   0.363   4.296  1.00  0.00     0.173 A 
ATOM     78  F   UNL     1       5.549   2.210   7.361  1.00  0.00    -0.203 F 
ATOM     79  C   UNL     1       7.232   0.694   6.772  1.00  0.00     0.198 A 
ATOM     80  C   UNL     1       7.244  -0.371   4.655  1.00  0.00     0.198 A 
ATOM     81  F   UNL     1       5.767   0.241   3.006  1.00  0.00    -0.203 F 
ATOM     82  F   UNL     1       7.822   0.923   7.954  1.00  0.00    -0.200 F 
ATOM     83  C   UNL     1       7.815  -0.198   5.893  1.00  0.00     0.200 A 
ATOM     84  F   UNL     1       7.797  -1.217   3.772  1.00  0.00    -0.200 F 
ATOM     85  F   UNL     1       8.937  -0.857   6.217  1.00  0.00    -0.200 F 
ENDBRANCH  61  75
BRANCH  62  86
ATOM     86  C   UNL     1      -1.820   6.076   1.063  1.00  0.00     0.064 A 
ATOM     87  C   UNL     1      -1.865   7.007  -0.001  1.00  0.00     0.173 A 
ATOM     88  C   UNL     1      -2.478   4.854   0.859  1.00  0.00     0.173 A 
ATOM     89  F   UNL     1      -1.250   8.195   0.123  1.00  0.00    -0.203 F 
ATOM     90  C   UNL     1      -2.437   6.694  -1.234  1.00  0.00     0.198 A 
ATOM     91  C   UNL     1      -3.074   4.550  -0.376  1.00  0.00     0.198 A 
ATOM     92  F   UNL     1      -2.463   3.908   1.808  1.00  0.00    -0.203 F 
ATOM     93  F   UNL     1      -2.334   7.556  -2.256  1.00  0.00    -0.200 F 
ATOM     94  C   UNL     1      -3.030   5.460  -1.425  1.00  0.00     0.200 A 
ATOM     95  F   UNL     1      -3.603   3.335  -0.586  1.00  0.00    -0.200 F 
ATOM     96  F   UNL     1      -3.490   5.119  -2.638  1.00  0.00    -0.200 F 
ENDBRANCH  62  86
BRANCH  74  97
ATOM     97  C   UNL     1      -0.296   3.488   7.598  1.00  0.00     0.064 A 
ATOM     98  C   UNL     1      -1.643   3.088   7.681  1.00  0.00     0.173 A 
ATOM     99  C   UNL     1       0.542   2.975   8.619  1.00  0.00     0.173 A 
ATOM    100  F   UNL     1      -2.519   3.357   6.705  1.00  0.00    -0.203 F 
ATOM    101  C   UNL     1      -2.132   2.326   8.744  1.00  0.00     0.198 A 
ATOM    102  C   UNL     1       0.066   2.140   9.631  1.00  0.00     0.198 A 
ATOM    103  F   UNL     1       1.858   3.230   8.643  1.00  0.00    -0.203 F 
ATOM    104  F   UNL     1      -3.439   2.035   8.802  1.00  0.00    -0.200 F 
ATOM    105  C   UNL     1      -1.277   1.839   9.711  1.00  0.00     0.200 A 
ATOM    106  F   UNL     1       0.924   1.605  10.512  1.00  0.00    -0.200 F 
ATOM    107  F   UNL     1      -1.741   1.061  10.697  1.00  0.00    -0.200 F 
ENDBRANCH  74  97
ENDBRANCH  48  49
ENDBRANCH  41  43
ENDBRANCH  40  41
ENDBRANCH  39  40
ENDBRANCH  38  39
ENDBRANCH  37  38
ENDBRANCH  36  37
ENDBRANCH   1  36
TORSDOF 20
