REMARK SMILES C=CC[N@H+](CC(=O)OCCOCCOCCOC(=O)c1ccc(-c2c3nc(c(-c4c(F)c(F)c(F)c(F)c4F)c4ccc([nH]4)c(-c4c(F)c(F)c(F)c(F)c4F)c4nc(c(-c5c(F)c(F)c(F)c(F)c5F)c5ccc2[nH]5)C=C4)C=C3)cc1)Cc1ccnc(C#N)c1
REMARK SMILES IDX 12 1 11 2 10 3 9 4 8 5 6 6 7 7 5 8 4 9 3 11 2 12 1 13 83 14
REMARK SMILES IDX 84 15 85 16 91 17 86 18 88 19 87 20 89 21 90 22 13 23 14 24
REMARK SMILES IDX 15 25 16 26 17 27 18 28 19 29 20 30 21 31 82 32 22 33 81 34
REMARK SMILES IDX 23 35 24 36 25 37 75 38 26 39 80 40 74 41 76 42 27 43 79 44
REMARK SMILES IDX 73 45 72 46 28 48 60 49 40 50 59 51 41 52 44 53 58 54 77 55
REMARK SMILES IDX 42 56 43 57 57 59 78 60 45 61 29 62 30 63 38 64 31 65 32 66
REMARK SMILES IDX 36 67 39 68 33 69 34 70 37 71 35 72 61 73 62 74 70 75 63 76
REMARK SMILES IDX 64 77 68 78 71 79 65 80 66 81 69 82 67 83 46 84 47 85 55 86
REMARK SMILES IDX 48 87 49 88 53 89 56 90 50 91 51 92 54 93 52 94
REMARK H PARENT 4 10 76 47 44 58
REMARK Flexibility Score: inf
ROOT
ATOM      1  C   UNL     1      -4.715  -0.779   2.769  1.00  0.00     0.188 C 
ENDROOT
BRANCH   1   2
ATOM      2  O   UNL     1      -5.550  -1.704   2.097  1.00  0.00    -0.376 OA
BRANCH   2   3
ATOM      3  C   UNL     1      -5.024  -2.332   0.939  1.00  0.00     0.202 C 
BRANCH   3   4
ATOM      4  C   UNL     1      -4.855  -1.448  -0.301  1.00  0.00     0.261 C 
BRANCH   4   5
ATOM      5  O   UNL     1      -3.997  -0.306  -0.097  1.00  0.00    -0.459 OA
BRANCH   5   6
ATOM      6  C   UNL     1      -4.420   0.844  -0.693  1.00  0.00     0.361 C 
ATOM      7  O   UNL     1      -5.490   0.961  -1.286  1.00  0.00    -0.245 OA
BRANCH   6   8
ATOM      8  C   UNL     1      -3.514   2.057  -0.496  1.00  0.00     0.387 C 
BRANCH   8   9
ATOM      9  N   UNL     1      -2.081   1.810  -0.265  1.00  0.00    -0.319 N 
ATOM     10  H   UNL     1      -2.006   1.127   0.489  1.00  0.00     0.349 HD
BRANCH   9  11
ATOM     11  C   UNL     1      -1.407   1.023  -1.296  1.00  0.00     0.291 C 
BRANCH  11  12
ATOM     12  C   UNL     1       0.099   1.093  -1.354  1.00  0.00     0.025 C 
ATOM     13  C   UNL     1       0.941   0.081  -1.097  1.00  0.00     0.010 C 
ENDBRANCH  11  12
ENDBRANCH   9  11
BRANCH   9  14
ATOM     14  C   UNL     1      -1.399   2.975   0.314  1.00  0.00     0.299 C 
BRANCH  14  15
ATOM     15  C   UNL     1      -0.977   2.523   1.692  1.00  0.00     0.011 A 
ATOM     16  C   UNL     1      -1.951   2.525   2.686  1.00  0.00     0.030 A 
ATOM     17  C   UNL     1       0.149   1.696   1.798  1.00  0.00     0.049 A 
ATOM     18  C   UNL     1      -1.861   1.535   3.615  1.00  0.00     0.113 A 
ATOM     19  C   UNL     1       0.099   0.670   2.709  1.00  0.00     0.140 A 
ATOM     20  N   UNL     1      -0.892   0.588   3.617  1.00  0.00    -0.246 NA
BRANCH  19  21
ATOM     21  C   UNL     1       0.955  -0.470   2.572  1.00  0.00     0.119 C 
ATOM     22  N   UNL     1       1.623  -1.417   2.377  1.00  0.00    -0.191 NA
ENDBRANCH  19  21
ENDBRANCH  14  15
ENDBRANCH   9  14
ENDBRANCH   8   9
ENDBRANCH   6   8
ENDBRANCH   5   6
ENDBRANCH   4   5
ENDBRANCH   3   4
ENDBRANCH   2   3
ENDBRANCH   1   2
BRANCH   1  23
ATOM     23  C   UNL     1      -3.252  -1.139   3.094  1.00  0.00     0.188 C 
BRANCH  23  24
ATOM     24  O   UNL     1      -2.845  -2.491   3.138  1.00  0.00    -0.376 OA
BRANCH  24  25
ATOM     25  C   UNL     1      -2.287  -2.967   4.370  1.00  0.00     0.202 C 
BRANCH  25  26
ATOM     26  C   UNL     1      -1.126  -2.222   5.098  1.00  0.00     0.261 C 
BRANCH  26  27
ATOM     27  O   UNL     1      -1.523  -1.038   5.846  1.00  0.00    -0.460 OA
BRANCH  27  28
ATOM     28  C   UNL     1      -0.487  -0.226   6.245  1.00  0.00     0.338 C 
ATOM     29  O   UNL     1       0.705  -0.473   6.148  1.00  0.00    -0.246 OA
BRANCH  28  30
ATOM     30  C   UNL     1      -0.995   1.124   6.660  1.00  0.00     0.060 A 
ATOM     31  C   UNL     1      -0.460   2.280   6.058  1.00  0.00     0.016 A 
ATOM     32  C   UNL     1      -2.054   1.269   7.554  1.00  0.00     0.016 A 
ATOM     33  C   UNL     1      -1.077   3.533   6.222  1.00  0.00     0.010 A 
ATOM     34  C   UNL     1      -2.606   2.543   7.799  1.00  0.00     0.010 A 
ATOM     35  C   UNL     1      -2.148   3.685   7.114  1.00  0.00    -0.014 A 
BRANCH  35  36
ATOM     36  C   UNL     1      -2.587   5.055   7.527  1.00  0.00     0.031 A 
ATOM     37  C   UNL     1      -1.705   5.797   8.499  1.00  0.00     0.074 A 
ATOM     38  C   UNL     1      -3.719   5.654   7.097  1.00  0.00     0.049 A 
ATOM     39  N   UNL     1      -1.855   6.981   9.037  1.00  0.00    -0.248 NA
ATOM     40  C   UNL     1      -0.480   5.097   8.917  1.00  0.00     0.031 C 
ATOM     41  C   UNL     1      -4.663   5.109   6.126  1.00  0.00     0.029 A 
ATOM     42  N   UNL     1      -4.268   6.873   7.443  1.00  0.00    -0.354 N 
ATOM     43  C   UNL     1      -0.738   7.172   9.839  1.00  0.00     0.074 A 
ATOM     44  C   UNL     1       0.068   5.976   9.738  1.00  0.00     0.031 C 
ATOM     45  C   UNL     1      -5.683   5.978   5.970  1.00  0.00     0.029 A 
ATOM     46  C   UNL     1      -5.482   7.134   6.847  1.00  0.00     0.049 A 
ATOM     47  H   UNL     1      -3.830   7.501   8.062  1.00  0.00     0.167 HD
ATOM     48  C   UNL     1      -0.402   8.240  10.600  1.00  0.00     0.037 A 
ATOM     49  C   UNL     1      -6.336   8.171   7.003  1.00  0.00     0.037 A 
ATOM     50  C   UNL     1      -1.213   9.412  10.776  1.00  0.00     0.049 A 
ATOM     51  C   UNL     1      -5.993   9.303   7.952  1.00  0.00     0.074 A 
ATOM     52  C   UNL     1      -0.956  10.528  11.554  1.00  0.00     0.029 A 
ATOM     53  N   UNL     1      -2.454   9.610  10.192  1.00  0.00    -0.354 N 
ATOM     54  N   UNL     1      -4.913   9.491   8.672  1.00  0.00    -0.248 NA
ATOM     55  C   UNL     1      -6.995  10.374   8.103  1.00  0.00     0.031 C 
ATOM     56  C   UNL     1      -2.068  11.373  11.490  1.00  0.00     0.029 A 
ATOM     57  C   UNL     1      -2.985  10.820  10.613  1.00  0.00     0.049 A 
ATOM     58  H   UNL     1      -2.892   8.986   9.570  1.00  0.00     0.167 HD
ATOM     59  C   UNL     1      -5.088  10.711   9.320  1.00  0.00     0.074 A 
ATOM     60  C   UNL     1      -6.370  11.229   8.900  1.00  0.00     0.031 C 
ATOM     61  C   UNL     1      -4.256  11.346  10.184  1.00  0.00     0.037 A 
BRANCH  48  62
ATOM     62  C   UNL     1       0.897   8.152  11.346  1.00  0.00     0.064 A 
ATOM     63  C   UNL     1       2.131   8.202  10.679  1.00  0.00     0.173 A 
ATOM     64  C   UNL     1       0.906   8.009  12.741  1.00  0.00     0.173 A 
ATOM     65  F   UNL     1       2.172   8.312   9.342  1.00  0.00    -0.203 F 
ATOM     66  C   UNL     1       3.326   8.080  11.380  1.00  0.00     0.198 A 
ATOM     67  C   UNL     1       2.104   7.921  13.442  1.00  0.00     0.198 A 
ATOM     68  F   UNL     1      -0.248   7.951  13.423  1.00  0.00    -0.203 F 
ATOM     69  F   UNL     1       4.491   8.067  10.718  1.00  0.00    -0.200 F 
ATOM     70  C   UNL     1       3.312   7.946  12.761  1.00  0.00     0.200 A 
ATOM     71  F   UNL     1       2.090   7.802  14.776  1.00  0.00    -0.200 F 
ATOM     72  F   UNL     1       4.464   7.830  13.435  1.00  0.00    -0.200 F 
ENDBRANCH  48  62
BRANCH  49  73
ATOM     73  C   UNL     1      -7.634   8.213   6.265  1.00  0.00     0.064 A 
ATOM     74  C   UNL     1      -7.901   9.215   5.317  1.00  0.00     0.173 A 
ATOM     75  C   UNL     1      -8.670   7.313   6.558  1.00  0.00     0.173 A 
ATOM     76  F   UNL     1      -6.963  10.130   5.031  1.00  0.00    -0.203 F 
ATOM     77  C   UNL     1      -9.154   9.331   4.716  1.00  0.00     0.198 A 
ATOM     78  C   UNL     1      -9.913   7.409   5.931  1.00  0.00     0.198 A 
ATOM     79  F   UNL     1      -8.481   6.346   7.468  1.00  0.00    -0.203 F 
ATOM     80  F   UNL     1      -9.399  10.341   3.870  1.00  0.00    -0.200 F 
ATOM     81  C   UNL     1     -10.158   8.424   5.019  1.00  0.00     0.200 A 
ATOM     82  F   UNL     1     -10.879   6.529   6.226  1.00  0.00    -0.200 F 
ATOM     83  F   UNL     1     -11.364   8.540   4.448  1.00  0.00    -0.200 F 
ENDBRANCH  49  73
BRANCH  61  84
ATOM     84  C   UNL     1      -4.665  12.704  10.693  1.00  0.00     0.064 A 
ATOM     85  C   UNL     1      -5.750  12.882  11.564  1.00  0.00     0.173 A 
ATOM     86  C   UNL     1      -3.932  13.846  10.327  1.00  0.00     0.173 A 
ATOM     87  F   UNL     1      -6.491  11.830  11.944  1.00  0.00    -0.203 F 
ATOM     88  C   UNL     1      -6.109  14.151  12.016  1.00  0.00     0.198 A 
ATOM     89  C   UNL     1      -4.271  15.108  10.810  1.00  0.00     0.198 A 
ATOM     90  F   UNL     1      -2.876  13.738   9.507  1.00  0.00    -0.203 F 
ATOM     91  F   UNL     1      -7.187  14.301  12.799  1.00  0.00    -0.200 F 
ATOM     92  C   UNL     1      -5.366  15.261  11.644  1.00  0.00     0.200 A 
ATOM     93  F   UNL     1      -3.538  16.175  10.465  1.00  0.00    -0.200 F 
ATOM     94  F   UNL     1      -5.711  16.480  12.083  1.00  0.00    -0.200 F 
ENDBRANCH  61  84
ENDBRANCH  35  36
ENDBRANCH  28  30
ENDBRANCH  27  28
ENDBRANCH  26  27
ENDBRANCH  25  26
ENDBRANCH  24  25
ENDBRANCH  23  24
ENDBRANCH   1  23
TORSDOF 23
