REMARK SMILES COc1ccc(OCc2nc(C)no2)c(/C=C/C(=O)OCCOCCOCCOC(=O)c2ccc(-c3c4nc(c(-c5c(F)c(F)c(F)c(F)c5F)c5ccc([nH]5)c(-c5c(F)c(F)c(F)c(F)c5F)c5nc(c(-c6c(F)c(F)c(F)c(F)c6F)c6ccc3[nH]6)C=C5)C=C4)cc2)c1
REMARK SMILES IDX 24 1 23 2 22 3 21 4 20 5 18 6 19 7 17 8 16 9 15 10 3 11 4 12
REMARK SMILES IDX 95 13 5 14 6 15 2 16 1 17 7 18 8 19 9 20 10 21 14 22 11 23
REMARK SMILES IDX 13 24 12 25 25 26 26 27 27 28 28 29 29 30 30 31 31 32 32 33
REMARK SMILES IDX 33 34 94 35 34 36 93 37 35 38 36 39 37 40 87 41 38 42 92 43
REMARK SMILES IDX 86 44 88 45 39 46 91 47 85 48 84 49 40 51 72 52 52 53 71 54
REMARK SMILES IDX 53 55 56 56 70 57 89 58 54 59 55 60 69 62 90 63 57 64 41 65
REMARK SMILES IDX 42 66 50 67 43 68 44 69 48 70 51 71 45 72 46 73 49 74 47 75
REMARK SMILES IDX 73 76 74 77 82 78 75 79 76 80 80 81 83 82 77 83 78 84 81 85
REMARK SMILES IDX 79 86 58 87 59 88 67 89 60 90 61 91 65 92 68 93 62 94 63 95
REMARK SMILES IDX 66 96 64 97
REMARK H PARENT 88 50 56 61
REMARK Flexibility Score: inf
ROOT
ATOM      1  C   UNL     1       7.180   2.757   6.441  1.00  0.00     0.188 C 
ENDROOT
BRANCH   1   2
ATOM      2  O   UNL     1       8.564   2.527   6.640  1.00  0.00    -0.376 OA
BRANCH   2   3
ATOM      3  C   UNL     1       9.182   1.373   6.064  1.00  0.00     0.202 C 
BRANCH   3   4
ATOM      4  C   UNL     1       8.357   0.152   5.647  1.00  0.00     0.261 C 
BRANCH   4   5
ATOM      5  O   UNL     1       7.287   0.526   4.777  1.00  0.00    -0.460 OA
BRANCH   5   6
ATOM      6  C   UNL     1       6.245  -0.336   4.790  1.00  0.00     0.330 C 
ATOM      7  O   UNL     1       6.261  -1.504   5.134  1.00  0.00    -0.247 OA
BRANCH   6   8
ATOM      8  C   UNL     1       5.019   0.455   4.620  1.00  0.00     0.094 C 
ATOM      9  C   UNL     1       4.238   0.384   3.538  1.00  0.00     0.019 C 
BRANCH   9  10
ATOM     10  C   UNL     1       2.905   1.021   3.387  1.00  0.00     0.020 A 
ATOM     11  C   UNL     1       0.989   1.292   1.893  1.00  0.00     0.119 A 
ATOM     12  C   UNL     1       0.244   1.840   2.935  1.00  0.00     0.050 A 
ATOM     13  C   UNL     1       2.316   0.915   2.114  1.00  0.00     0.058 A 
ATOM     14  C   UNL     1       0.812   1.997   4.198  1.00  0.00     0.051 A 
ATOM     15  C   UNL     1       2.127   1.575   4.429  1.00  0.00     0.127 A 
BRANCH  11  16
ATOM     16  O   UNL     1       0.335   1.180   0.695  1.00  0.00    -0.497 OA
ATOM     17  C   UNL     1       0.792   0.127  -0.150  1.00  0.00     0.278 C 
ENDBRANCH  11  16
BRANCH  15  18
ATOM     18  O   UNL     1       2.673   1.750   5.677  1.00  0.00    -0.483 OA
BRANCH  18  19
ATOM     19  C   UNL     1       2.080   0.953   6.722  1.00  0.00     0.329 C 
BRANCH  19  20
ATOM     20  C   UNL     1       2.369  -0.495   6.544  1.00  0.00     0.264 A 
ATOM     21  N   UNL     1       3.052  -1.322   7.309  1.00  0.00    -0.193 NA
ATOM     22  O   UNL     1       1.818  -1.105   5.454  1.00  0.00    -0.336 OA
ATOM     23  C   UNL     1       2.937  -2.506   6.620  1.00  0.00     0.169 A 
ATOM     24  N   UNL     1       2.214  -2.437   5.496  1.00  0.00    -0.063 NA
ATOM     25  C   UNL     1       3.485  -3.783   7.109  1.00  0.00     0.093 C 
ENDBRANCH  19  20
ENDBRANCH  18  19
ENDBRANCH  15  18
ENDBRANCH   9  10
ENDBRANCH   6   8
ENDBRANCH   5   6
ENDBRANCH   4   5
ENDBRANCH   3   4
ENDBRANCH   2   3
ENDBRANCH   1   2
BRANCH   1  26
ATOM     26  C   UNL     1       6.710   3.454   5.144  1.00  0.00     0.188 C 
BRANCH  26  27
ATOM     27  O   UNL     1       7.512   3.474   3.982  1.00  0.00    -0.376 OA
BRANCH  27  28
ATOM     28  C   UNL     1       8.783   4.102   4.021  1.00  0.00     0.202 C 
BRANCH  28  29
ATOM     29  C   UNL     1       9.007   5.470   4.685  1.00  0.00     0.261 C 
BRANCH  29  30
ATOM     30  O   UNL     1       8.318   5.682   5.924  1.00  0.00    -0.460 OA
BRANCH  30  31
ATOM     31  C   UNL     1       7.367   6.648   5.880  1.00  0.00     0.338 C 
ATOM     32  O   UNL     1       7.079   7.370   4.942  1.00  0.00    -0.246 OA
BRANCH  31  33
ATOM     33  C   UNL     1       6.559   6.603   7.112  1.00  0.00     0.060 A 
ATOM     34  C   UNL     1       5.202   6.273   6.997  1.00  0.00     0.016 A 
ATOM     35  C   UNL     1       7.101   6.976   8.341  1.00  0.00     0.016 A 
ATOM     36  C   UNL     1       4.370   6.344   8.111  1.00  0.00     0.010 A 
ATOM     37  C   UNL     1       6.259   7.071   9.454  1.00  0.00     0.010 A 
ATOM     38  C   UNL     1       4.886   6.788   9.335  1.00  0.00    -0.014 A 
BRANCH  38  39
ATOM     39  C   UNL     1       3.951   7.132  10.432  1.00  0.00     0.031 A 
ATOM     40  C   UNL     1       3.506   8.561  10.578  1.00  0.00     0.074 A 
ATOM     41  C   UNL     1       3.478   6.187  11.262  1.00  0.00     0.049 A 
ATOM     42  N   UNL     1       2.713   9.099  11.469  1.00  0.00    -0.248 NA
ATOM     43  C   UNL     1       4.027   9.511   9.582  1.00  0.00     0.031 C 
ATOM     44  C   UNL     1       3.801   4.764  11.196  1.00  0.00     0.029 A 
ATOM     45  N   UNL     1       2.626   6.293  12.333  1.00  0.00    -0.354 N 
ATOM     46  C   UNL     1       2.645  10.447  11.145  1.00  0.00     0.074 A 
ATOM     47  C   UNL     1       3.495  10.652   9.992  1.00  0.00     0.031 C 
ATOM     48  C   UNL     1       3.162   4.127  12.193  1.00  0.00     0.029 A 
ATOM     49  C   UNL     1       2.410   5.103  12.982  1.00  0.00     0.049 A 
ATOM     50  H   UNL     1       2.209   7.141  12.609  1.00  0.00     0.167 HD
ATOM     51  C   UNL     1       1.931  11.426  11.751  1.00  0.00     0.037 A 
ATOM     52  C   UNL     1       1.701   4.840  14.097  1.00  0.00     0.037 A 
ATOM     53  C   UNL     1       1.087  11.223  12.898  1.00  0.00     0.049 A 
ATOM     54  C   UNL     1       0.974   5.962  14.795  1.00  0.00     0.074 A 
ATOM     55  C   UNL     1       0.306  12.148  13.570  1.00  0.00     0.029 A 
ATOM     56  N   UNL     1       0.920  10.010  13.549  1.00  0.00    -0.354 N 
ATOM     57  N   UNL     1       0.887   7.228  14.465  1.00  0.00    -0.248 NA
ATOM     58  C   UNL     1       0.243   5.613  16.022  1.00  0.00     0.031 C 
ATOM     59  C   UNL     1      -0.292  11.505  14.659  1.00  0.00     0.029 A 
ATOM     60  C   UNL     1       0.071  10.168  14.633  1.00  0.00     0.049 A 
ATOM     61  H   UNL     1       1.343   9.162  13.282  1.00  0.00     0.167 HD
ATOM     62  C   UNL     1       0.070   7.818  15.421  1.00  0.00     0.074 A 
ATOM     63  C   UNL     1      -0.324   6.769  16.337  1.00  0.00     0.031 C 
ATOM     64  C   UNL     1      -0.320   9.112  15.531  1.00  0.00     0.037 A 
BRANCH  51  65
ATOM     65  C   UNL     1       2.057  12.815  11.198  1.00  0.00     0.064 A 
ATOM     66  C   UNL     1       1.481  13.176   9.971  1.00  0.00     0.173 A 
ATOM     67  C   UNL     1       2.736  13.806  11.923  1.00  0.00     0.173 A 
ATOM     68  F   UNL     1       0.835  12.261   9.233  1.00  0.00    -0.203 F 
ATOM     69  C   UNL     1       1.601  14.473   9.479  1.00  0.00     0.198 A 
ATOM     70  C   UNL     1       2.829  15.108  11.441  1.00  0.00     0.198 A 
ATOM     71  F   UNL     1       3.302  13.512  13.103  1.00  0.00    -0.203 F 
ATOM     72  F   UNL     1       1.080  14.786   8.284  1.00  0.00    -0.200 F 
ATOM     73  C   UNL     1       2.268  15.440  10.217  1.00  0.00     0.200 A 
ATOM     74  F   UNL     1       3.464  16.044  12.161  1.00  0.00    -0.200 F 
ATOM     75  F   UNL     1       2.375  16.689   9.746  1.00  0.00    -0.200 F 
ENDBRANCH  51  65
BRANCH  52  76
ATOM     76  C   UNL     1       1.643   3.456  14.635  1.00  0.00     0.064 A 
ATOM     77  C   UNL     1       0.449   2.724  14.618  1.00  0.00     0.173 A 
ATOM     78  C   UNL     1       2.772   2.852  15.209  1.00  0.00     0.173 A 
ATOM     79  F   UNL     1      -0.664   3.270  14.105  1.00  0.00    -0.203 F 
ATOM     80  C   UNL     1       0.378   1.448  15.174  1.00  0.00     0.198 A 
ATOM     81  C   UNL     1       2.708   1.565  15.739  1.00  0.00     0.198 A 
ATOM     82  F   UNL     1       3.938   3.512  15.254  1.00  0.00    -0.203 F 
ATOM     83  F   UNL     1      -0.789   0.791  15.191  1.00  0.00    -0.200 F 
ATOM     84  C   UNL     1       1.509   0.868  15.729  1.00  0.00     0.200 A 
ATOM     85  F   UNL     1       3.804   1.004  16.266  1.00  0.00    -0.200 F 
ATOM     86  F   UNL     1       1.440  -0.358  16.265  1.00  0.00    -0.200 F 
ENDBRANCH  52  76
BRANCH  64  87
ATOM     87  C   UNL     1      -1.252   9.460  16.657  1.00  0.00     0.064 A 
ATOM     88  C   UNL     1      -0.821   9.482  17.992  1.00  0.00     0.173 A 
ATOM     89  C   UNL     1      -2.586   9.805  16.392  1.00  0.00     0.173 A 
ATOM     90  F   UNL     1       0.440   9.146  18.300  1.00  0.00    -0.203 F 
ATOM     91  C   UNL     1      -1.700   9.809  19.022  1.00  0.00     0.198 A 
ATOM     92  C   UNL     1      -3.453  10.162  17.421  1.00  0.00     0.198 A 
ATOM     93  F   UNL     1      -3.047   9.807  15.132  1.00  0.00    -0.203 F 
ATOM     94  F   UNL     1      -1.280   9.774  20.294  1.00  0.00    -0.200 F 
ATOM     95  C   UNL     1      -3.012  10.155  18.735  1.00  0.00     0.200 A 
ATOM     96  F   UNL     1      -4.717  10.509  17.141  1.00  0.00    -0.200 F 
ATOM     97  F   UNL     1      -3.855  10.473  19.728  1.00  0.00    -0.200 F 
ENDBRANCH  64  87
ENDBRANCH  38  39
ENDBRANCH  31  33
ENDBRANCH  30  31
ENDBRANCH  29  30
ENDBRANCH  28  29
ENDBRANCH  27  28
ENDBRANCH  26  27
ENDBRANCH   1  26
TORSDOF 22
