REMARK SMILES CC1=C(C)C[C@H](C(=O)OCCOCCOCCOC(=O)c2ccc(-c3c4nc(c(-c5c(F)c(F)c(F)c(F)c5F)c5ccc([nH]5)c(-c5c(F)c(F)c(F)c(F)c5F)c5nc(c(-c6c(F)c(F)c(F)c(F)c6F)c6ccc3[nH]6)C=C5)C=C4)cc2)[C@@H](C(=O)Nc2sc3c(c2C(=O)NC2CCCC2)CCCC3)C1
REMARK SMILES IDX 13 1 12 2 11 3 10 4 9 5 7 6 8 7 6 8 1 9 2 10 3 11 105 12
REMARK SMILES IDX 4 13 5 14 84 15 85 16 86 17 87 18 88 20 89 21 92 22 90 23
REMARK SMILES IDX 91 24 104 25 101 26 103 27 102 28 93 29 94 30 95 31 96 33
REMARK SMILES IDX 97 34 100 35 98 36 99 37 14 38 15 39 16 40 17 41 18 42 19 43
REMARK SMILES IDX 20 44 21 45 22 46 83 47 23 48 82 49 24 50 25 51 26 52 76 53
REMARK SMILES IDX 27 54 81 55 75 56 77 57 28 58 80 59 74 60 73 61 29 63 61 64
REMARK SMILES IDX 41 65 60 66 42 67 45 68 59 69 78 70 43 71 44 72 58 74 79 75
REMARK SMILES IDX 46 76 30 77 31 78 39 79 32 80 33 81 37 82 40 83 34 84 35 85
REMARK SMILES IDX 38 86 36 87 62 88 63 89 71 90 64 91 65 92 69 93 72 94 66 95
REMARK SMILES IDX 67 96 70 97 68 98 47 99 48 100 56 101 49 102 50 103 54 104
REMARK SMILES IDX 57 105 51 106 52 107 55 108 53 109
REMARK H PARENT 87 19 95 32 77 62 45 73
REMARK Flexibility Score: inf
ROOT
ATOM      1  C   UNL     1       1.892   3.518  -5.057  1.00  0.00     0.188 C 
ENDROOT
BRANCH   1   2
ATOM      2  O   UNL     1       2.607   4.677  -5.457  1.00  0.00    -0.376 OA
BRANCH   2   3
ATOM      3  C   UNL     1       1.875   5.893  -5.396  1.00  0.00     0.202 C 
BRANCH   3   4
ATOM      4  C   UNL     1       1.697   6.441  -3.981  1.00  0.00     0.261 C 
BRANCH   4   5
ATOM      5  O   UNL     1       1.249   5.479  -3.018  1.00  0.00    -0.463 OA
BRANCH   5   6
ATOM      6  C   UNL     1       0.004   4.956  -3.103  1.00  0.00     0.310 C 
ATOM      7  O   UNL     1      -0.819   5.265  -3.954  1.00  0.00    -0.252 OA
BRANCH   6   8
ATOM      8  C   UNL     1      -0.236   3.903  -2.018  1.00  0.00     0.116 C 
ATOM      9  C   UNL     1       1.109   0.372   0.406  1.00  0.00     0.039 C 
ATOM     10  C   UNL     1       0.584   1.531  -0.417  1.00  0.00    -0.074 C 
ATOM     11  C   UNL     1      -0.270   1.369  -1.445  1.00  0.00    -0.073 C 
ATOM     12  C   UNL     1       1.159   2.870  -0.038  1.00  0.00     0.045 C 
ATOM     13  C   UNL     1      -1.040   0.080  -1.641  1.00  0.00     0.039 C 
ATOM     14  C   UNL     1      -0.554   2.467  -2.448  1.00  0.00     0.046 C 
ATOM     15  C   UNL     1       0.624   4.116  -0.772  1.00  0.00     0.097 C 
BRANCH  15  16
ATOM     16  C   UNL     1       0.131   5.268   0.132  1.00  0.00     0.229 C 
ATOM     17  O   UNL     1       0.951   5.802   0.894  1.00  0.00    -0.274 OA
ATOM     18  N   UNL     1      -1.119   5.834   0.104  1.00  0.00    -0.317 N 
ATOM     19  H   UNL     1      -1.156   6.730   0.511  1.00  0.00     0.170 HD
BRANCH  18  20
ATOM     20  C   UNL     1      -2.340   5.395  -0.384  1.00  0.00     0.108 A 
ATOM     21  S   UNL     1      -3.207   6.701  -1.103  1.00  0.00    -0.122 S 
ATOM     22  C   UNL     1      -3.020   4.182  -0.533  1.00  0.00     0.078 A 
ATOM     23  C   UNL     1      -4.060   5.626  -2.085  1.00  0.00     0.011 A 
ATOM     24  C   UNL     1      -3.801   4.312  -1.763  1.00  0.00    -0.019 A 
ATOM     25  C   UNL     1      -4.986   5.993  -3.202  1.00  0.00     0.047 C 
ATOM     26  C   UNL     1      -4.327   3.262  -2.703  1.00  0.00     0.037 C 
ATOM     27  C   UNL     1      -6.175   5.006  -3.190  1.00  0.00     0.006 C 
ATOM     28  C   UNL     1      -5.795   3.514  -3.046  1.00  0.00     0.005 C 
BRANCH  22  29
ATOM     29  C   UNL     1      -2.891   2.892   0.165  1.00  0.00     0.254 C 
ATOM     30  O   UNL     1      -3.381   1.862  -0.307  1.00  0.00    -0.269 OA
ATOM     31  N   UNL     1      -2.316   2.722   1.391  1.00  0.00    -0.349 N 
ATOM     32  H   UNL     1      -2.386   1.804   1.738  1.00  0.00     0.164 HD
BRANCH  31  33
ATOM     33  C   UNL     1      -1.630   3.619   2.268  1.00  0.00     0.082 C 
ATOM     34  C   UNL     1      -2.453   4.754   2.849  1.00  0.00     0.025 C 
ATOM     35  C   UNL     1      -1.065   2.957   3.519  1.00  0.00     0.025 C 
ATOM     36  C   UNL     1      -1.468   5.350   3.840  1.00  0.00     0.002 C 
ATOM     37  C   UNL     1      -0.738   4.142   4.433  1.00  0.00     0.002 C 
ENDBRANCH  31  33
ENDBRANCH  22  29
ENDBRANCH  18  20
ENDBRANCH  15  16
ENDBRANCH   6   8
ENDBRANCH   5   6
ENDBRANCH   4   5
ENDBRANCH   3   4
ENDBRANCH   2   3
ENDBRANCH   1   2
BRANCH   1  38
ATOM     38  C   UNL     1       2.477   2.864  -3.784  1.00  0.00     0.188 C 
BRANCH  38  39
ATOM     39  O   UNL     1       3.827   3.057  -3.424  1.00  0.00    -0.376 OA
BRANCH  39  40
ATOM     40  C   UNL     1       4.786   3.043  -4.456  1.00  0.00     0.202 C 
BRANCH  40  41
ATOM     41  C   UNL     1       4.816   1.853  -5.436  1.00  0.00     0.261 C 
BRANCH  41  42
ATOM     42  O   UNL     1       3.553   1.345  -5.924  1.00  0.00    -0.460 OA
BRANCH  42  43
ATOM     43  C   UNL     1       3.098   0.180  -5.401  1.00  0.00     0.338 C 
ATOM     44  O   UNL     1       3.658  -0.512  -4.557  1.00  0.00    -0.246 OA
BRANCH  43  45
ATOM     45  C   UNL     1       1.707  -0.086  -5.854  1.00  0.00     0.060 A 
ATOM     46  C   UNL     1       0.664  -0.061  -4.918  1.00  0.00     0.016 A 
ATOM     47  C   UNL     1       1.424  -0.439  -7.171  1.00  0.00     0.016 A 
ATOM     48  C   UNL     1      -0.656  -0.366  -5.284  1.00  0.00     0.010 A 
ATOM     49  C   UNL     1       0.111  -0.795  -7.528  1.00  0.00     0.010 A 
ATOM     50  C   UNL     1      -0.938  -0.778  -6.586  1.00  0.00    -0.014 A 
BRANCH  50  51
ATOM     51  C   UNL     1      -2.249  -1.399  -6.932  1.00  0.00     0.031 A 
ATOM     52  C   UNL     1      -2.313  -2.899  -7.037  1.00  0.00     0.074 A 
ATOM     53  C   UNL     1      -3.364  -0.682  -7.166  1.00  0.00     0.049 A 
ATOM     54  N   UNL     1      -3.215  -3.664  -7.596  1.00  0.00    -0.248 NA
ATOM     55  C   UNL     1      -1.193  -3.632  -6.426  1.00  0.00     0.031 C 
ATOM     56  C   UNL     1      -3.510   0.756  -6.967  1.00  0.00     0.029 A 
ATOM     57  N   UNL     1      -4.588  -1.080  -7.659  1.00  0.00    -0.354 N 
ATOM     58  C   UNL     1      -2.746  -4.964  -7.450  1.00  0.00     0.074 A 
ATOM     59  C   UNL     1      -1.487  -4.884  -6.742  1.00  0.00     0.031 C 
ATOM     60  C   UNL     1      -4.738   1.129  -7.375  1.00  0.00     0.029 A 
ATOM     61  C   UNL     1      -5.436  -0.032  -7.930  1.00  0.00     0.049 A 
ATOM     62  H   UNL     1      -4.831  -2.023  -7.804  1.00  0.00     0.167 HD
ATOM     63  C   UNL     1      -3.309  -6.117  -7.884  1.00  0.00     0.037 A 
ATOM     64  C   UNL     1      -6.605  -0.003  -8.605  1.00  0.00     0.037 A 
ATOM     65  C   UNL     1      -4.571  -6.192  -8.572  1.00  0.00     0.049 A 
ATOM     66  C   UNL     1      -7.162  -1.281  -9.192  1.00  0.00     0.074 A 
ATOM     67  C   UNL     1      -5.219  -7.310  -9.067  1.00  0.00     0.029 A 
ATOM     68  N   UNL     1      -5.376  -5.101  -8.862  1.00  0.00    -0.354 N 
ATOM     69  N   UNL     1      -6.689  -2.502  -9.122  1.00  0.00    -0.248 NA
ATOM     70  C   UNL     1      -8.409  -1.174  -9.969  1.00  0.00     0.031 C 
ATOM     71  C   UNL     1      -6.386  -6.888  -9.712  1.00  0.00     0.029 A 
ATOM     72  C   UNL     1      -6.503  -5.517  -9.551  1.00  0.00     0.049 A 
ATOM     73  H   UNL     1      -5.177  -4.169  -8.615  1.00  0.00     0.167 HD
ATOM     74  C   UNL     1      -7.597  -3.308  -9.800  1.00  0.00     0.074 A 
ATOM     75  C   UNL     1      -8.648  -2.440 -10.283  1.00  0.00     0.031 C 
ATOM     76  C   UNL     1      -7.564  -4.649  -9.998  1.00  0.00     0.037 A 
BRANCH  63  77
ATOM     77  C   UNL     1      -2.531  -7.387  -7.690  1.00  0.00     0.064 A 
ATOM     78  C   UNL     1      -2.336  -7.960  -6.425  1.00  0.00     0.173 A 
ATOM     79  C   UNL     1      -1.992  -8.054  -8.802  1.00  0.00     0.173 A 
ATOM     80  F   UNL     1      -2.817  -7.356  -5.328  1.00  0.00    -0.203 F 
ATOM     81  C   UNL     1      -1.603  -9.136  -6.278  1.00  0.00     0.198 A 
ATOM     82  C   UNL     1      -1.292  -9.248  -8.655  1.00  0.00     0.198 A 
ATOM     83  F   UNL     1      -2.155  -7.553 -10.036  1.00  0.00    -0.203 F 
ATOM     84  F   UNL     1      -1.381  -9.635  -5.054  1.00  0.00    -0.200 F 
ATOM     85  C   UNL     1      -1.089  -9.782  -7.392  1.00  0.00     0.200 A 
ATOM     86  F   UNL     1      -0.811  -9.878  -9.735  1.00  0.00    -0.200 F 
ATOM     87  F   UNL     1      -0.391 -10.917  -7.249  1.00  0.00    -0.200 F 
ENDBRANCH  63  77
BRANCH  64  88
ATOM     88  C   UNL     1      -7.310   1.291  -8.828  1.00  0.00     0.064 A 
ATOM     89  C   UNL     1      -8.571   1.538  -8.267  1.00  0.00     0.173 A 
ATOM     90  C   UNL     1      -6.755   2.293  -9.640  1.00  0.00     0.173 A 
ATOM     91  F   UNL     1      -9.164   0.599  -7.515  1.00  0.00    -0.203 F 
ATOM     92  C   UNL     1      -9.254   2.727  -8.518  1.00  0.00     0.198 A 
ATOM     93  C   UNL     1      -7.423   3.496  -9.863  1.00  0.00     0.198 A 
ATOM     94  F   UNL     1      -5.559   2.107 -10.216  1.00  0.00    -0.203 F 
ATOM     95  F   UNL     1     -10.481   2.913  -8.012  1.00  0.00    -0.200 F 
ATOM     96  C   UNL     1      -8.676   3.709  -9.309  1.00  0.00     0.200 A 
ATOM     97  F   UNL     1      -6.856   4.445 -10.619  1.00  0.00    -0.200 F 
ATOM     98  F   UNL     1      -9.330   4.854  -9.546  1.00  0.00    -0.200 F 
ENDBRANCH  64  88
BRANCH  76  99
ATOM     99  C   UNL     1      -8.729  -5.295 -10.694  1.00  0.00     0.064 A 
ATOM    100  C   UNL     1      -8.944  -5.160 -12.072  1.00  0.00     0.173 A 
ATOM    101  C   UNL     1      -9.588  -6.145  -9.977  1.00  0.00     0.173 A 
ATOM    102  F   UNL     1      -8.160  -4.352 -12.802  1.00  0.00    -0.203 F 
ATOM    103  C   UNL     1      -9.980  -5.844 -12.706  1.00  0.00     0.198 A 
ATOM    104  C   UNL     1     -10.602  -6.851 -10.618  1.00  0.00     0.198 A 
ATOM    105  F   UNL     1      -9.421  -6.317  -8.657  1.00  0.00    -0.203 F 
ATOM    106  F   UNL     1     -10.185  -5.678 -14.020  1.00  0.00    -0.200 F 
ATOM    107  C   UNL     1     -10.799  -6.697 -11.981  1.00  0.00     0.200 A 
ATOM    108  F   UNL     1     -11.379  -7.689  -9.918  1.00  0.00    -0.200 F 
ATOM    109  F   UNL     1     -11.779  -7.373 -12.597  1.00  0.00    -0.200 F 
ENDBRANCH  76  99
ENDBRANCH  50  51
ENDBRANCH  43  45
ENDBRANCH  42  43
ENDBRANCH  41  42
ENDBRANCH  40  41
ENDBRANCH  39  40
ENDBRANCH  38  39
ENDBRANCH   1  38
TORSDOF 21
