REMARK SMILES CC(=O)Oc1ccccc1SCCCCCC(=O)OCCOCCOCCOC(=O)c1ccc(-c2c3nc(c(-c4c(F)c(F)c(F)c(F)c4F)c4ccc([nH]4)c(-c4c(F)c(F)c(F)c(F)c4F)c4nc(c(-c5c(F)c(F)c(F)c(F)c5F)c5ccc2[nH]5)C=C4)C=C3)cc1
REMARK SMILES IDX 20 1 19 2 17 3 18 4 16 5 15 6 14 7 13 8 12 9 11 10 10 11
REMARK SMILES IDX 5 12 6 13 7 14 9 15 8 16 4 17 2 18 1 19 3 20 21 21 22 22
REMARK SMILES IDX 23 23 24 24 25 25 26 26 27 27 28 28 29 29 30 30 31 31 32 32
REMARK SMILES IDX 93 33 33 34 92 35 34 36 35 37 36 38 86 39 37 40 91 41 85 42
REMARK SMILES IDX 87 43 38 44 90 45 84 46 83 47 39 49 71 50 51 51 70 52 52 53
REMARK SMILES IDX 55 54 69 55 88 56 53 57 54 58 68 60 89 61 56 62 40 63 41 64
REMARK SMILES IDX 49 65 42 66 43 67 47 68 50 69 44 70 45 71 48 72 46 73 72 74
REMARK SMILES IDX 73 75 81 76 74 77 75 78 79 79 82 80 76 81 77 82 80 83 78 84
REMARK SMILES IDX 57 85 58 86 66 87 59 88 60 89 64 90 67 91 61 92 62 93 65 94
REMARK SMILES IDX 63 95
REMARK H PARENT 87 48 55 59
REMARK Flexibility Score: inf
ROOT
ATOM      1  C   UNL     1       4.988  -1.782  -1.624  1.00  0.00     0.261 C 
ENDROOT
BRANCH   1   2
ATOM      2  O   UNL     1       3.737  -1.267  -1.160  1.00  0.00    -0.463 OA
BRANCH   2   3
ATOM      3  C   UNL     1       3.469  -1.422   0.159  1.00  0.00     0.305 C 
ATOM      4  O   UNL     1       4.137  -2.068   0.957  1.00  0.00    -0.252 OA
BRANCH   3   5
ATOM      5  C   UNL     1       2.257  -0.628   0.568  1.00  0.00     0.123 C 
BRANCH   5   6
ATOM      6  C   UNL     1       1.913   0.539  -0.349  1.00  0.00     0.012 C 
BRANCH   6   7
ATOM      7  C   UNL     1       1.010   0.404  -1.606  1.00  0.00     0.001 C 
BRANCH   7   8
ATOM      8  C   UNL     1      -0.483   0.000  -1.680  1.00  0.00     0.011 C 
BRANCH   8   9
ATOM      9  C   UNL     1      -1.750   0.785  -1.217  1.00  0.00     0.075 C 
BRANCH   9  10
ATOM     10  S   UNL     1      -2.597   2.286  -1.963  1.00  0.00    -0.122 SA
BRANCH  10  11
ATOM     11  C   UNL     1      -1.733   3.818  -1.601  1.00  0.00     0.050 A 
ATOM     12  C   UNL     1      -1.216   4.285  -0.381  1.00  0.00     0.144 A 
ATOM     13  C   UNL     1      -0.262   5.326  -0.354  1.00  0.00     0.048 A 
ATOM     14  C   UNL     1       0.053   6.011  -1.525  1.00  0.00     0.004 A 
ATOM     15  C   UNL     1      -1.557   4.658  -2.712  1.00  0.00     0.019 A 
ATOM     16  C   UNL     1      -0.670   5.740  -2.680  1.00  0.00     0.001 A 
BRANCH  12  17
ATOM     17  O   UNL     1      -1.533   3.663   0.831  1.00  0.00    -0.426 OA
BRANCH  17  18
ATOM     18  C   UNL     1      -0.646   2.636   0.897  1.00  0.00     0.308 C 
ATOM     19  C   UNL     1      -0.889   1.673   2.017  1.00  0.00     0.139 C 
ATOM     20  O   UNL     1       0.245   2.487   0.079  1.00  0.00    -0.252 OA
ENDBRANCH  17  18
ENDBRANCH  12  17
ENDBRANCH  10  11
ENDBRANCH   9  10
ENDBRANCH   8   9
ENDBRANCH   7   8
ENDBRANCH   6   7
ENDBRANCH   5   6
ENDBRANCH   3   5
ENDBRANCH   2   3
ENDBRANCH   1   2
BRANCH   1  21
ATOM     21  C   UNL     1       5.990  -0.671  -1.950  1.00  0.00     0.202 C 
BRANCH  21  22
ATOM     22  O   UNL     1       6.427   0.123  -0.847  1.00  0.00    -0.376 OA
BRANCH  22  23
ATOM     23  C   UNL     1       5.554   1.164  -0.416  1.00  0.00     0.188 C 
BRANCH  23  24
ATOM     24  C   UNL     1       5.304   2.276  -1.434  1.00  0.00     0.188 C 
BRANCH  24  25
ATOM     25  O   UNL     1       4.737   1.861  -2.665  1.00  0.00    -0.376 OA
BRANCH  25  26
ATOM     26  C   UNL     1       4.564   2.859  -3.676  1.00  0.00     0.202 C 
BRANCH  26  27
ATOM     27  C   UNL     1       5.636   3.958  -3.873  1.00  0.00     0.261 C 
BRANCH  27  28
ATOM     28  O   UNL     1       6.105   4.631  -2.687  1.00  0.00    -0.460 OA
BRANCH  28  29
ATOM     29  C   UNL     1       5.193   5.322  -1.956  1.00  0.00     0.338 C 
ATOM     30  O   UNL     1       4.075   5.614  -2.299  1.00  0.00    -0.246 OA
BRANCH  29  31
ATOM     31  C   UNL     1       5.715   5.467  -0.557  1.00  0.00     0.060 A 
ATOM     32  C   UNL     1       4.786   5.396   0.490  1.00  0.00     0.016 A 
ATOM     33  C   UNL     1       7.073   5.627  -0.258  1.00  0.00     0.016 A 
ATOM     34  C   UNL     1       5.193   5.574   1.818  1.00  0.00     0.010 A 
ATOM     35  C   UNL     1       7.482   5.810   1.074  1.00  0.00     0.010 A 
ATOM     36  C   UNL     1       6.535   5.845   2.116  1.00  0.00    -0.014 A 
BRANCH  36  37
ATOM     37  C   UNL     1       6.880   6.426   3.447  1.00  0.00     0.031 A 
ATOM     38  C   UNL     1       7.046   7.925   3.541  1.00  0.00     0.074 A 
ATOM     39  C   UNL     1       6.972   5.687   4.568  1.00  0.00     0.049 A 
ATOM     40  N   UNL     1       7.324   8.677   4.578  1.00  0.00    -0.248 NA
ATOM     41  C   UNL     1       6.872   8.677   2.288  1.00  0.00     0.031 C 
ATOM     42  C   UNL     1       6.792   4.240   4.650  1.00  0.00     0.029 A 
ATOM     43  N   UNL     1       7.238   6.066   5.865  1.00  0.00    -0.354 N 
ATOM     44  C   UNL     1       7.360   9.982   4.100  1.00  0.00     0.074 A 
ATOM     45  C   UNL     1       7.122   9.917   2.675  1.00  0.00     0.031 C 
ATOM     46  C   UNL     1       6.955   3.852   5.928  1.00  0.00     0.029 A 
ATOM     47  C   UNL     1       7.277   5.018   6.753  1.00  0.00     0.049 A 
ATOM     48  H   UNL     1       7.388   7.002   6.131  1.00  0.00     0.167 HD
ATOM     49  C   UNL     1       7.556  11.136   4.781  1.00  0.00     0.037 A 
ATOM     50  C   UNL     1       7.554   5.000   8.074  1.00  0.00     0.037 A 
ATOM     51  C   UNL     1       7.795  11.219   6.197  1.00  0.00     0.049 A 
ATOM     52  C   UNL     1       7.847   6.293   8.799  1.00  0.00     0.074 A 
ATOM     53  C   UNL     1       8.000  12.346   6.973  1.00  0.00     0.029 A 
ATOM     54  N   UNL     1       7.869  10.129   7.051  1.00  0.00    -0.354 N 
ATOM     55  N   UNL     1       7.857   7.522   8.342  1.00  0.00    -0.248 NA
ATOM     56  C   UNL     1       8.157   6.192  10.235  1.00  0.00     0.031 C 
ATOM     57  C   UNL     1       8.258  11.936   8.285  1.00  0.00     0.029 A 
ATOM     58  C   UNL     1       8.141  10.557   8.342  1.00  0.00     0.049 A 
ATOM     59  H   UNL     1       7.747   9.190   6.781  1.00  0.00     0.167 HD
ATOM     60  C   UNL     1       8.134   8.338   9.436  1.00  0.00     0.074 A 
ATOM     61  C   UNL     1       8.267   7.466  10.582  1.00  0.00     0.031 C 
ATOM     62  C   UNL     1       8.263   9.688   9.485  1.00  0.00     0.037 A 
BRANCH  49  63
ATOM     63  C   UNL     1       7.551  12.413   3.987  1.00  0.00     0.064 A 
ATOM     64  C   UNL     1       6.378  12.918   3.404  1.00  0.00     0.173 A 
ATOM     65  C   UNL     1       8.734  13.150   3.824  1.00  0.00     0.173 A 
ATOM     66  F   UNL     1       5.224  12.244   3.514  1.00  0.00    -0.203 F 
ATOM     67  C   UNL     1       6.398  14.096   2.660  1.00  0.00     0.198 A 
ATOM     68  C   UNL     1       8.742  14.345   3.110  1.00  0.00     0.198 A 
ATOM     69  F   UNL     1       9.882  12.714   4.362  1.00  0.00    -0.203 F 
ATOM     70  F   UNL     1       5.279  14.527   2.062  1.00  0.00    -0.200 F 
ATOM     71  C   UNL     1       7.577  14.812   2.521  1.00  0.00     0.200 A 
ATOM     72  F   UNL     1       9.879  15.043   2.990  1.00  0.00    -0.200 F 
ATOM     73  F   UNL     1       7.593  15.948   1.810  1.00  0.00    -0.200 F 
ENDBRANCH  49  63
BRANCH  50  74
ATOM     74  C   UNL     1       7.579   3.709   8.819  1.00  0.00     0.064 A 
ATOM     75  C   UNL     1       6.646   3.432   9.829  1.00  0.00     0.173 A 
ATOM     76  C   UNL     1       8.575   2.752   8.577  1.00  0.00     0.173 A 
ATOM     77  F   UNL     1       5.695   4.330  10.127  1.00  0.00    -0.203 F 
ATOM     78  C   UNL     1       6.723   2.262  10.583  1.00  0.00     0.198 A 
ATOM     79  C   UNL     1       8.631   1.566   9.308  1.00  0.00     0.198 A 
ATOM     80  F   UNL     1       9.501   2.970   7.632  1.00  0.00    -0.203 F 
ATOM     81  F   UNL     1       5.857   2.054  11.585  1.00  0.00    -0.200 F 
ATOM     82  C   UNL     1       7.711   1.327  10.317  1.00  0.00     0.200 A 
ATOM     83  F   UNL     1       9.584   0.662   9.043  1.00  0.00    -0.200 F 
ATOM     84  F   UNL     1       7.787   0.203  11.044  1.00  0.00    -0.200 F 
ENDBRANCH  50  74
BRANCH  62  85
ATOM     85  C   UNL     1       8.507  10.317  10.831  1.00  0.00     0.064 A 
ATOM     86  C   UNL     1       9.706  10.132  11.537  1.00  0.00     0.173 A 
ATOM     87  C   UNL     1       7.525  11.132  11.419  1.00  0.00     0.173 A 
ATOM     88  F   UNL     1      10.676   9.358  11.027  1.00  0.00    -0.203 F 
ATOM     89  C   UNL     1       9.893  10.696  12.797  1.00  0.00     0.198 A 
ATOM     90  C   UNL     1       7.731  11.726  12.662  1.00  0.00     0.198 A 
ATOM     91  F   UNL     1       6.364  11.358  10.786  1.00  0.00    -0.203 F 
ATOM     92  F   UNL     1      11.018  10.445  13.481  1.00  0.00    -0.200 F 
ATOM     93  C   UNL     1       8.908  11.496  13.357  1.00  0.00     0.200 A 
ATOM     94  F   UNL     1       6.786  12.516  13.191  1.00  0.00    -0.200 F 
ATOM     95  F   UNL     1       9.089  12.036  14.570  1.00  0.00    -0.200 F 
ENDBRANCH  62  85
ENDBRANCH  36  37
ENDBRANCH  29  31
ENDBRANCH  28  29
ENDBRANCH  27  28
ENDBRANCH  26  27
ENDBRANCH  25  26
ENDBRANCH  24  25
ENDBRANCH  23  24
ENDBRANCH  22  23
ENDBRANCH  21  22
ENDBRANCH   1  21
TORSDOF 25
