REMARK SMILES Cc1ccc(S(=O)(=O)N[C@@H](Cc2cccc(F)c2)C(=O)OCCOCCOCCOC(=O)c2ccc(-c3c4nc(c(-c5c(F)c(F)c(F)c(F)c5F)c5ccc([nH]5)c(-c5c(F)c(F)c(F)c(F)c5F)c5nc(c(-c6c(F)c(F)c(F)c(F)c6F)c6ccc3[nH]6)C=C5)C=C4)cc2)cc1
REMARK SMILES IDX 25 1 24 2 23 3 22 4 21 5 19 6 20 7 10 8 9 9 6 11 7 12 8 13
REMARK SMILES IDX 5 14 1 15 2 16 3 17 97 18 4 19 96 20 11 21 12 22 13 23 18 24
REMARK SMILES IDX 14 25 16 26 15 27 17 28 26 29 27 30 28 31 29 32 30 33 31 34
REMARK SMILES IDX 32 35 33 36 34 37 95 38 35 39 94 40 36 41 37 42 38 43 88 44
REMARK SMILES IDX 39 45 93 46 87 47 89 48 40 49 92 50 86 51 85 52 41 54 73 55
REMARK SMILES IDX 53 56 72 57 54 58 57 59 71 60 90 61 55 62 56 63 70 65 91 66
REMARK SMILES IDX 58 67 42 68 43 69 51 70 44 71 45 72 49 73 52 74 46 75 47 76
REMARK SMILES IDX 50 77 48 78 74 79 75 80 83 81 76 82 77 83 81 84 84 85 78 86
REMARK SMILES IDX 79 87 82 88 80 89 59 90 60 91 68 92 61 93 62 94 66 95 69 96
REMARK SMILES IDX 63 97 64 98 67 99 65 100
REMARK H PARENT 9 10 89 53 57 64
REMARK Flexibility Score: inf
ROOT
ATOM      1  C   UNL     1      -5.157   7.111   0.896  1.00  0.00     0.188 C 
ENDROOT
BRANCH   1   2
ATOM      2  O   UNL     1      -6.182   6.703  -0.043  1.00  0.00    -0.376 OA
BRANCH   2   3
ATOM      3  C   UNL     1      -7.142   5.606   0.006  1.00  0.00     0.202 C 
BRANCH   3   4
ATOM      4  C   UNL     1      -7.245   3.925  -0.665  1.00  0.00     0.261 C 
BRANCH   4   5
ATOM      5  O   UNL     1      -6.149   2.532  -0.735  1.00  0.00    -0.462 OA
BRANCH   5   6
ATOM      6  C   UNL     1      -4.872   2.196  -1.341  1.00  0.00     0.324 C 
ATOM      7  O   UNL     1      -4.187   2.966  -2.017  1.00  0.00    -0.250 OA
BRANCH   6   8
ATOM      8  C   UNL     1      -4.155   0.867  -1.299  1.00  0.00     0.184 C 
BRANCH   8   9
ATOM      9  N   UNL     1      -4.412   0.064  -0.124  1.00  0.00    -0.197 NA
ATOM     10  H   UNL     1      -4.356   0.693   0.677  1.00  0.00     0.142 HD
BRANCH   9  11
ATOM     11  S   UNL     1      -3.449  -1.250   0.233  1.00  0.00     0.241 S 
ATOM     12  O   UNL     1      -3.665  -2.209  -0.823  1.00  0.00    -0.207 OA
ATOM     13  O   UNL     1      -3.751  -1.563   1.616  1.00  0.00    -0.207 OA
BRANCH  11  14
ATOM     14  C   UNL     1      -1.722  -0.787   0.172  1.00  0.00     0.082 A 
ATOM     15  C   UNL     1       2.538  -0.078   0.007  1.00  0.00     0.044 C 
ATOM     16  C   UNL     1       1.053  -0.303   0.037  1.00  0.00    -0.051 A 
ATOM     17  C   UNL     1       0.556  -1.608  -0.031  1.00  0.00     0.005 A 
ATOM     18  C   UNL     1       0.150   0.759   0.169  1.00  0.00     0.005 A 
ATOM     19  C   UNL     1      -0.819  -1.846   0.015  1.00  0.00     0.022 A 
ATOM     20  C   UNL     1      -1.232   0.519   0.271  1.00  0.00     0.022 A 
ENDBRANCH  11  14
ENDBRANCH   9  11
ENDBRANCH   8   9
BRANCH   8  21
ATOM     21  C   UNL     1      -3.934   0.097  -2.666  1.00  0.00     0.067 C 
BRANCH  21  22
ATOM     22  C   UNL     1      -3.768   0.891  -3.960  1.00  0.00    -0.043 A 
ATOM     23  C   UNL     1      -4.574   0.574  -5.065  1.00  0.00     0.004 A 
ATOM     24  C   UNL     1      -2.962   2.032  -4.032  1.00  0.00     0.043 A 
ATOM     25  C   UNL     1      -4.846   1.540  -6.027  1.00  0.00     0.003 A 
ATOM     26  C   UNL     1      -3.313   3.025  -4.926  1.00  0.00     0.123 A 
ATOM     27  C   UNL     1      -4.291   2.801  -5.874  1.00  0.00     0.039 A 
ATOM     28  F   UNL     1      -2.814   4.253  -4.765  1.00  0.00    -0.207 F 
ENDBRANCH  21  22
ENDBRANCH   8  21
ENDBRANCH   6   8
ENDBRANCH   5   6
ENDBRANCH   4   5
ENDBRANCH   3   4
ENDBRANCH   2   3
ENDBRANCH   1   2
BRANCH   1  29
ATOM     29  C   UNL     1      -5.300   6.960   2.395  1.00  0.00     0.188 C 
BRANCH  29  30
ATOM     30  O   UNL     1      -6.174   5.889   2.626  1.00  0.00    -0.376 OA
BRANCH  30  31
ATOM     31  C   UNL     1      -6.726   5.816   3.917  1.00  0.00     0.202 C 
BRANCH  31  32
ATOM     32  C   UNL     1      -5.684   5.416   4.969  1.00  0.00     0.261 C 
BRANCH  32  33
ATOM     33  O   UNL     1      -5.023   4.179   4.586  1.00  0.00    -0.460 OA
BRANCH  33  34
ATOM     34  C   UNL     1      -3.729   4.263   4.117  1.00  0.00     0.338 C 
ATOM     35  O   UNL     1      -2.814   4.804   4.709  1.00  0.00    -0.246 OA
BRANCH  34  36
ATOM     36  C   UNL     1      -3.671   3.830   2.670  1.00  0.00     0.060 A 
ATOM     37  C   UNL     1      -2.742   4.272   1.708  1.00  0.00     0.016 A 
ATOM     38  C   UNL     1      -4.826   3.346   2.175  1.00  0.00     0.016 A 
ATOM     39  C   UNL     1      -3.108   4.501   0.302  1.00  0.00     0.010 A 
ATOM     40  C   UNL     1      -5.190   3.869   0.934  1.00  0.00     0.010 A 
ATOM     41  C   UNL     1      -4.431   4.460  -0.154  1.00  0.00    -0.014 A 
BRANCH  41  42
ATOM     42  C   UNL     1      -5.028   5.034  -1.750  1.00  0.00     0.031 A 
ATOM     43  C   UNL     1      -6.060   4.290  -3.017  1.00  0.00     0.074 A 
ATOM     44  C   UNL     1      -4.659   6.265  -2.181  1.00  0.00     0.049 A 
ATOM     45  N   UNL     1      -6.650   4.935  -4.015  1.00  0.00    -0.248 NA
ATOM     46  C   UNL     1      -6.594   2.875  -3.144  1.00  0.00     0.031 C 
ATOM     47  C   UNL     1      -5.342   7.103  -3.173  1.00  0.00     0.029 A 
ATOM     48  N   UNL     1      -3.582   7.068  -1.798  1.00  0.00    -0.354 N 
ATOM     49  C   UNL     1      -7.575   4.104  -4.661  1.00  0.00     0.074 A 
ATOM     50  C   UNL     1      -7.717   2.975  -3.834  1.00  0.00     0.031 C 
ATOM     51  C   UNL     1      -4.518   8.073  -3.580  1.00  0.00     0.029 A 
ATOM     52  C   UNL     1      -3.251   7.816  -2.953  1.00  0.00     0.049 A 
ATOM     53  H   UNL     1      -3.148   7.105  -0.916  1.00  0.00     0.167 HD
ATOM     54  C   UNL     1      -8.111   4.239  -5.908  1.00  0.00     0.037 A 
ATOM     55  C   UNL     1      -2.055   7.630  -3.568  1.00  0.00     0.037 A 
ATOM     56  C   UNL     1      -7.516   5.353  -6.608  1.00  0.00     0.049 A 
ATOM     57  C   UNL     1      -2.208   7.149  -5.006  1.00  0.00     0.074 A 
ATOM     58  C   UNL     1      -7.495   6.713  -6.375  1.00  0.00     0.029 A 
ATOM     59  N   UNL     1      -6.445   5.106  -7.443  1.00  0.00    -0.354 N 
ATOM     60  N   UNL     1      -3.320   7.098  -5.703  1.00  0.00    -0.248 NA
ATOM     61  C   UNL     1      -1.074   6.583  -5.728  1.00  0.00     0.031 C 
ATOM     62  C   UNL     1      -6.211   7.183  -6.802  1.00  0.00     0.029 A 
ATOM     63  C   UNL     1      -5.496   6.125  -7.354  1.00  0.00     0.049 A 
ATOM     64  H   UNL     1      -6.362   4.316  -8.025  1.00  0.00     0.167 HD
ATOM     65  C   UNL     1      -3.107   6.355  -6.844  1.00  0.00     0.074 A 
ATOM     66  C   UNL     1      -1.671   6.090  -6.821  1.00  0.00     0.031 C 
ATOM     67  C   UNL     1      -4.081   5.890  -7.704  1.00  0.00     0.037 A 
BRANCH  54  68
ATOM     68  C   UNL     1      -9.213   3.307  -6.434  1.00  0.00     0.064 A 
ATOM     69  C   UNL     1     -10.278   3.840  -7.178  1.00  0.00     0.173 A 
ATOM     70  C   UNL     1      -9.349   1.926  -6.138  1.00  0.00     0.173 A 
ATOM     71  F   UNL     1     -10.220   5.099  -7.632  1.00  0.00    -0.203 F 
ATOM     72  C   UNL     1     -11.441   3.102  -7.462  1.00  0.00     0.198 A 
ATOM     73  C   UNL     1     -10.546   1.219  -6.327  1.00  0.00     0.198 A 
ATOM     74  F   UNL     1      -8.316   1.208  -5.670  1.00  0.00    -0.203 F 
ATOM     75  F   UNL     1     -12.424   3.657  -8.184  1.00  0.00    -0.200 F 
ATOM     76  C   UNL     1     -11.601   1.815  -6.981  1.00  0.00     0.200 A 
ATOM     77  F   UNL     1     -10.671  -0.032  -5.857  1.00  0.00    -0.200 F 
ATOM     78  F   UNL     1     -12.748   1.146  -7.172  1.00  0.00    -0.200 F 
ENDBRANCH  54  68
BRANCH  55  79
ATOM     79  C   UNL     1      -1.011   7.266  -2.546  1.00  0.00     0.064 A 
ATOM     80  C   UNL     1      -0.851   8.159  -1.451  1.00  0.00     0.173 A 
ATOM     81  C   UNL     1      -0.569   5.951  -2.352  1.00  0.00     0.173 A 
ATOM     82  F   UNL     1      -1.270   9.431  -1.558  1.00  0.00    -0.203 F 
ATOM     83  C   UNL     1      -0.457   7.712  -0.190  1.00  0.00     0.198 A 
ATOM     84  C   UNL     1      -0.102   5.526  -1.101  1.00  0.00     0.198 A 
ATOM     85  F   UNL     1      -0.712   5.030  -3.313  1.00  0.00    -0.203 F 
ATOM     86  F   UNL     1      -0.539   8.531   0.869  1.00  0.00    -0.200 F 
ATOM     87  C   UNL     1      -0.102   6.389  -0.013  1.00  0.00     0.200 A 
ATOM     88  F   UNL     1       0.178   4.229  -0.902  1.00  0.00    -0.200 F 
ATOM     89  F   UNL     1       0.147   5.920   1.219  1.00  0.00    -0.200 F 
ENDBRANCH  55  79
BRANCH  67  90
ATOM     90  C   UNL     1      -3.648   5.066  -8.907  1.00  0.00     0.064 A 
ATOM     91  C   UNL     1      -2.593   5.506  -9.729  1.00  0.00     0.173 A 
ATOM     92  C   UNL     1      -4.232   3.841  -9.293  1.00  0.00     0.173 A 
ATOM     93  F   UNL     1      -2.014   6.697  -9.512  1.00  0.00    -0.203 F 
ATOM     94  C   UNL     1      -2.086   4.727 -10.772  1.00  0.00     0.198 A 
ATOM     95  C   UNL     1      -3.764   3.090 -10.372  1.00  0.00     0.198 A 
ATOM     96  F   UNL     1      -5.271   3.310  -8.635  1.00  0.00    -0.203 F 
ATOM     97  F   UNL     1      -1.012   5.149 -11.453  1.00  0.00    -0.200 F 
ATOM     98  C   UNL     1      -2.673   3.520 -11.095  1.00  0.00     0.200 A 
ATOM     99  F   UNL     1      -4.378   1.942 -10.693  1.00  0.00    -0.200 F 
ATOM    100  F   UNL     1      -2.196   2.777 -12.102  1.00  0.00    -0.200 F 
ENDBRANCH  67  90
ENDBRANCH  41  42
ENDBRANCH  34  36
ENDBRANCH  33  34
ENDBRANCH  32  33
ENDBRANCH  31  32
ENDBRANCH  30  31
ENDBRANCH  29  30
ENDBRANCH   1  29
TORSDOF 22
