REMARK SMILES COC1CCN(c2nc(C(C)C)c(C(=O)OCCOCCOCCOC(=O)c3ccc(-c4c5nc(c(-c6c(F)c(F)c(F)c(F)c6F)c6ccc([nH]6)c(-c6c(F)c(F)c(F)c(F)c6F)c6nc(c(-c7c(F)c(F)c(F)c(F)c7F)c7ccc4[nH]7)C=C6)C=C5)cc3)s2)CC1
REMARK SMILES IDX 20 1 19 2 18 3 17 4 16 5 14 6 15 7 13 8 7 9 8 10 91 11 9 12
REMARK SMILES IDX 6 13 3 14 4 15 93 16 5 17 92 18 2 19 1 20 10 21 11 22 12 23
REMARK SMILES IDX 21 24 22 25 23 26 24 27 25 28 26 29 27 30 28 31 29 32 90 33
REMARK SMILES IDX 30 34 89 35 31 36 32 37 33 38 83 39 34 40 88 41 82 42 84 43
REMARK SMILES IDX 35 44 87 45 81 46 80 47 36 49 68 50 48 51 67 52 49 53 52 54
REMARK SMILES IDX 66 55 85 56 50 57 51 58 65 60 86 61 53 62 37 63 38 64 46 65
REMARK SMILES IDX 39 66 40 67 44 68 47 69 41 70 42 71 45 72 43 73 69 74 70 75
REMARK SMILES IDX 78 76 71 77 72 78 76 79 79 80 73 81 74 82 77 83 75 84 54 85
REMARK SMILES IDX 55 86 63 87 56 88 57 89 61 90 64 91 58 92 59 93 62 94 60 95
REMARK H PARENT 84 48 52 59
REMARK Flexibility Score: inf
ROOT
ATOM      1  C   UNL     1       4.615   8.541  -5.773  1.00  0.00     0.188 C 
ENDROOT
BRANCH   1   2
ATOM      2  O   UNL     1       5.830   9.152  -6.184  1.00  0.00    -0.376 OA
BRANCH   2   3
ATOM      3  C   UNL     1       6.737   8.427  -7.007  1.00  0.00     0.202 C 
BRANCH   3   4
ATOM      4  C   UNL     1       7.330   7.159  -6.405  1.00  0.00     0.261 C 
BRANCH   4   5
ATOM      5  O   UNL     1       6.325   6.141  -6.288  1.00  0.00    -0.459 OA
BRANCH   5   6
ATOM      6  C   UNL     1       6.243   5.532  -5.072  1.00  0.00     0.350 C 
ATOM      7  O   UNL     1       7.008   5.739  -4.147  1.00  0.00    -0.245 OA
BRANCH   6   8
ATOM      8  C   UNL     1       5.064   4.702  -5.012  1.00  0.00     0.137 A 
ATOM      9  C   UNL     1       3.136   3.509  -4.123  1.00  0.00     0.186 A 
ATOM     10  N   UNL     1       3.369   3.150  -5.361  1.00  0.00    -0.224 NA
ATOM     11  S   UNL     1       4.163   4.752  -3.543  1.00  0.00    -0.089 S 
ATOM     12  C   UNL     1       4.451   3.839  -5.907  1.00  0.00     0.071 A 
BRANCH   9  13
ATOM     13  N   UNL     1       2.278   2.868  -3.303  1.00  0.00    -0.348 N 
ATOM     14  C   UNL     1       1.492   2.091  -0.673  1.00  0.00     0.121 C 
ATOM     15  C   UNL     1       1.087   3.455  -1.256  1.00  0.00     0.053 C 
ATOM     16  C   UNL     1       2.766   1.561  -1.344  1.00  0.00     0.053 C 
ATOM     17  C   UNL     1       1.065   3.468  -2.786  1.00  0.00     0.121 C 
ATOM     18  C   UNL     1       2.598   1.524  -2.862  1.00  0.00     0.121 C 
BRANCH  14  19
ATOM     19  O   UNL     1       0.409   1.172  -0.863  1.00  0.00    -0.381 OA
ATOM     20  C   UNL     1       0.414   0.105   0.080  1.00  0.00     0.195 C 
ENDBRANCH  14  19
ENDBRANCH   9  13
BRANCH  12  21
ATOM     21  C   UNL     1       4.799   3.458  -7.329  1.00  0.00     0.034 C 
ATOM     22  C   UNL     1       4.293   4.470  -8.355  1.00  0.00     0.014 C 
ATOM     23  C   UNL     1       6.275   3.134  -7.545  1.00  0.00     0.014 C 
ENDBRANCH  12  21
ENDBRANCH   6   8
ENDBRANCH   5   6
ENDBRANCH   4   5
ENDBRANCH   3   4
ENDBRANCH   2   3
ENDBRANCH   1   2
BRANCH   1  24
ATOM     24  C   UNL     1       3.727   7.805  -6.795  1.00  0.00     0.188 C 
BRANCH  24  25
ATOM     25  O   UNL     1       3.880   8.048  -8.184  1.00  0.00    -0.376 OA
BRANCH  25  26
ATOM     26  C   UNL     1       3.911   9.392  -8.650  1.00  0.00     0.202 C 
BRANCH  26  27
ATOM     27  C   UNL     1       2.633  10.206  -8.476  1.00  0.00     0.261 C 
BRANCH  27  28
ATOM     28  O   UNL     1       2.365  10.459  -7.088  1.00  0.00    -0.460 OA
BRANCH  28  29
ATOM     29  C   UNL     1       1.165  10.019  -6.647  1.00  0.00     0.338 C 
ATOM     30  O   UNL     1       0.270   9.511  -7.300  1.00  0.00    -0.246 OA
BRANCH  29  31
ATOM     31  C   UNL     1       1.135  10.088  -5.177  1.00  0.00     0.060 A 
ATOM     32  C   UNL     1       0.787   8.926  -4.476  1.00  0.00     0.016 A 
ATOM     33  C   UNL     1       1.379  11.285  -4.501  1.00  0.00     0.016 A 
ATOM     34  C   UNL     1       0.627   8.972  -3.095  1.00  0.00     0.010 A 
ATOM     35  C   UNL     1       1.202  11.334  -3.116  1.00  0.00     0.010 A 
ATOM     36  C   UNL     1       0.787  10.187  -2.417  1.00  0.00    -0.014 A 
BRANCH  36  37
ATOM     37  C   UNL     1       0.333  10.300  -1.013  1.00  0.00     0.031 A 
ATOM     38  C   UNL     1      -1.070  10.772  -0.749  1.00  0.00     0.074 A 
ATOM     39  C   UNL     1       1.143   9.967   0.006  1.00  0.00     0.049 A 
ATOM     40  N   UNL     1      -1.683  10.965   0.390  1.00  0.00    -0.248 NA
ATOM     41  C   UNL     1      -1.893  11.065  -1.934  1.00  0.00     0.031 C 
ATOM     42  C   UNL     1       2.507   9.465  -0.129  1.00  0.00     0.029 A 
ATOM     43  N   UNL     1       0.929  10.012   1.360  1.00  0.00    -0.354 N 
ATOM     44  C   UNL     1      -2.961  11.396   0.060  1.00  0.00     0.074 A 
ATOM     45  C   UNL     1      -3.029  11.466  -1.383  1.00  0.00     0.031 C 
ATOM     46  C   UNL     1       3.018   9.261   1.098  1.00  0.00     0.029 A 
ATOM     47  C   UNL     1       2.022   9.640   2.100  1.00  0.00     0.049 A 
ATOM     48  H   UNL     1       0.073  10.284   1.762  1.00  0.00     0.167 HD
ATOM     49  C   UNL     1      -3.989  11.697   0.888  1.00  0.00     0.037 A 
ATOM     50  C   UNL     1       2.199   9.627   3.435  1.00  0.00     0.037 A 
ATOM     51  C   UNL     1      -3.916  11.640   2.322  1.00  0.00     0.049 A 
ATOM     52  C   UNL     1       1.062  10.039   4.335  1.00  0.00     0.074 A 
ATOM     53  C   UNL     1      -4.904  11.920   3.250  1.00  0.00     0.029 A 
ATOM     54  N   UNL     1      -2.782  11.286   3.038  1.00  0.00    -0.354 N 
ATOM     55  N   UNL     1      -0.153  10.415   4.017  1.00  0.00    -0.248 NA
ATOM     56  C   UNL     1       1.323  10.021   5.781  1.00  0.00     0.031 C 
ATOM     57  C   UNL     1      -4.354  11.776   4.529  1.00  0.00     0.029 A 
ATOM     58  C   UNL     1      -3.038  11.362   4.397  1.00  0.00     0.049 A 
ATOM     59  H   UNL     1      -1.922  11.020   2.639  1.00  0.00     0.167 HD
ATOM     60  C   UNL     1      -0.809  10.649   5.219  1.00  0.00     0.074 A 
ATOM     61  C   UNL     1       0.141  10.363   6.274  1.00  0.00     0.031 C 
ATOM     62  C   UNL     1      -2.083  11.062   5.431  1.00  0.00     0.037 A 
BRANCH  49  63
ATOM     63  C   UNL     1      -5.274  12.137   0.255  1.00  0.00     0.064 A 
ATOM     64  C   UNL     1      -6.112  11.231  -0.412  1.00  0.00     0.173 A 
ATOM     65  C   UNL     1      -5.684  13.476   0.334  1.00  0.00     0.173 A 
ATOM     66  F   UNL     1      -5.754   9.943  -0.529  1.00  0.00    -0.203 F 
ATOM     67  C   UNL     1      -7.303  11.653  -0.996  1.00  0.00     0.198 A 
ATOM     68  C   UNL     1      -6.887  13.891  -0.230  1.00  0.00     0.198 A 
ATOM     69  F   UNL     1      -4.918  14.382   0.960  1.00  0.00    -0.203 F 
ATOM     70  F   UNL     1      -8.068  10.779  -1.664  1.00  0.00    -0.200 F 
ATOM     71  C   UNL     1      -7.692  12.981  -0.899  1.00  0.00     0.200 A 
ATOM     72  F   UNL     1      -7.266  15.172  -0.129  1.00  0.00    -0.200 F 
ATOM     73  F   UNL     1      -8.841  13.386  -1.457  1.00  0.00    -0.200 F 
ENDBRANCH  49  63
BRANCH  50  74
ATOM     74  C   UNL     1       3.505   9.215   4.008  1.00  0.00     0.064 A 
ATOM     75  C   UNL     1       3.636   8.015   4.720  1.00  0.00     0.173 A 
ATOM     76  C   UNL     1       4.642  10.026   3.879  1.00  0.00     0.173 A 
ATOM     77  F   UNL     1       2.570   7.220   4.892  1.00  0.00    -0.203 F 
ATOM     78  C   UNL     1       4.850   7.650   5.298  1.00  0.00     0.198 A 
ATOM     79  C   UNL     1       5.862   9.648   4.436  1.00  0.00     0.198 A 
ATOM     80  F   UNL     1       4.567  11.187   3.211  1.00  0.00    -0.203 F 
ATOM     81  F   UNL     1       4.936   6.521   6.013  1.00  0.00    -0.200 F 
ATOM     82  C   UNL     1       5.963   8.465   5.151  1.00  0.00     0.200 A 
ATOM     83  F   UNL     1       6.936  10.435   4.287  1.00  0.00    -0.200 F 
ATOM     84  F   UNL     1       7.130   8.115   5.710  1.00  0.00    -0.200 F 
ENDBRANCH  50  74
BRANCH  62  85
ATOM     85  C   UNL     1      -2.536  11.194   6.856  1.00  0.00     0.064 A 
ATOM     86  C   UNL     1      -2.099  12.246   7.673  1.00  0.00     0.173 A 
ATOM     87  C   UNL     1      -3.455  10.280   7.394  1.00  0.00     0.173 A 
ATOM     88  F   UNL     1      -1.210  13.137   7.208  1.00  0.00    -0.203 F 
ATOM     89  C   UNL     1      -2.549  12.366   8.985  1.00  0.00     0.198 A 
ATOM     90  C   UNL     1      -3.923  10.418   8.697  1.00  0.00     0.198 A 
ATOM     91  F   UNL     1      -3.909   9.260   6.650  1.00  0.00    -0.203 F 
ATOM     92  F   UNL     1      -2.086  13.355   9.762  1.00  0.00    -0.200 F 
ATOM     93  C   UNL     1      -3.465  11.457   9.494  1.00  0.00     0.200 A 
ATOM     94  F   UNL     1      -4.818   9.546   9.183  1.00  0.00    -0.200 F 
ATOM     95  F   UNL     1      -3.902  11.578  10.755  1.00  0.00    -0.200 F 
ENDBRANCH  62  85
ENDBRANCH  36  37
ENDBRANCH  29  31
ENDBRANCH  28  29
ENDBRANCH  27  28
ENDBRANCH  26  27
ENDBRANCH  25  26
ENDBRANCH  24  25
ENDBRANCH   1  24
TORSDOF 20
