REMARK SMILES CC[C@@](C)([NH3+])C(=O)N1CC[NH+]([C@H](C)C(=O)OCCOCCOCCOC(=O)c2ccc(-c3c4nc(c(-c5c(F)c(F)c(F)c(F)c5F)c5ccc([nH]5)c(-c5c(F)c(F)c(F)c(F)c5F)c5nc(c(-c6c(F)c(F)c(F)c(F)c6F)c6ccc3[nH]6)C=C5)C=C4)cc2)CC1
REMARK SMILES IDX 20 1 19 2 18 3 17 4 16 5 14 6 15 7 12 8 13 9 11 10 6 11 7 12
REMARK SMILES IDX 8 13 9 14 92 15 10 16 91 17 3 19 4 20 2 21 1 22 5 23 21 27
REMARK SMILES IDX 22 28 23 29 24 30 25 31 26 32 27 33 28 34 29 35 90 36 30 37
REMARK SMILES IDX 89 38 31 39 32 40 33 41 83 42 34 43 88 44 82 45 84 46 35 47
REMARK SMILES IDX 87 48 81 49 80 50 36 52 68 53 48 54 67 55 49 56 52 57 66 58
REMARK SMILES IDX 85 59 50 60 51 61 65 63 86 64 53 65 37 66 38 67 46 68 39 69
REMARK SMILES IDX 40 70 44 71 47 72 41 73 42 74 45 75 43 76 69 77 70 78 78 79
REMARK SMILES IDX 71 80 72 81 76 82 79 83 73 84 74 85 77 86 75 87 54 88 55 89
REMARK SMILES IDX 63 90 56 91 57 92 61 93 64 94 58 95 59 96 62 97 60 98
REMARK H PARENT 11 18 5 24 5 25 5 26 84 51 52 62
REMARK Flexibility Score: inf
ROOT
ATOM      1  C   UNL     1       6.755  -2.361   8.773  1.00  0.00     0.188 C 
ENDROOT
BRANCH   1   2
ATOM      2  O   UNL     1       7.959  -1.620   8.762  1.00  0.00    -0.376 OA
BRANCH   2   3
ATOM      3  C   UNL     1       8.317  -0.892   7.590  1.00  0.00     0.202 C 
BRANCH   3   4
ATOM      4  C   UNL     1       8.229  -1.555   6.199  1.00  0.00     0.261 C 
BRANCH   4   5
ATOM      5  O   UNL     1       6.902  -1.894   5.729  1.00  0.00    -0.459 OA
BRANCH   5   6
ATOM      6  C   UNL     1       6.634  -3.221   5.607  1.00  0.00     0.364 C 
ATOM      7  O   UNL     1       7.427  -4.109   5.916  1.00  0.00    -0.245 OA
BRANCH   6   8
ATOM      8  C   UNL     1       5.251  -3.548   4.985  1.00  0.00     0.292 C 
ATOM      9  C   UNL     1       4.087  -2.546   5.093  1.00  0.00     0.088 C 
BRANCH   8  10
ATOM     10  N   UNL     1       5.494  -4.011   3.600  1.00  0.00    -0.321 N 
ATOM     11  C   UNL     1       4.178  -3.405  -0.171  1.00  0.00     0.283 C 
ATOM     12  O   UNL     1       4.787  -2.793  -1.059  1.00  0.00    -0.268 OA
ATOM     13  N   UNL     1       4.917  -4.040   0.807  1.00  0.00    -0.326 N 
ATOM     14  C   UNL     1       6.142  -3.393   1.260  1.00  0.00     0.181 C 
ATOM     15  C   UNL     1       4.583  -5.218   1.599  1.00  0.00     0.181 C 
ATOM     16  C   UNL     1       5.902  -2.912   2.697  1.00  0.00     0.284 C 
ATOM     17  C   UNL     1       4.395  -4.845   3.077  1.00  0.00     0.284 C 
ATOM     18  H   UNL     1       6.299  -4.637   3.638  1.00  0.00     0.348 HD
BRANCH  11  19
ATOM     19  C   UNL     1       2.616  -3.240  -0.028  1.00  0.00     0.171 C 
ATOM     20  C   UNL     1       2.289  -2.340   1.176  1.00  0.00     0.090 C 
BRANCH  19  21
ATOM     21  C   UNL     1       2.039  -2.615  -1.333  1.00  0.00     0.075 C 
ATOM     22  C   UNL     1       2.357  -1.135  -1.561  1.00  0.00     0.011 C 
ENDBRANCH  19  21
BRANCH  19  23
ATOM     23  N   UNL     1       1.938  -4.547   0.157  1.00  0.00    -0.345 N 
ATOM     24  H   UNL     1       0.933  -4.400   0.245  1.00  0.00     0.345 HD
ATOM     25  H   UNL     1       2.292  -4.997   1.002  1.00  0.00     0.345 HD
ATOM     26  H   UNL     1       2.125  -5.144  -0.649  1.00  0.00     0.345 HD
ENDBRANCH  19  23
ENDBRANCH  11  19
ENDBRANCH   8  10
ENDBRANCH   6   8
ENDBRANCH   5   6
ENDBRANCH   4   5
ENDBRANCH   3   4
ENDBRANCH   2   3
ENDBRANCH   1   2
BRANCH   1  27
ATOM     27  C   UNL     1       5.484  -1.701   8.243  1.00  0.00     0.188 C 
BRANCH  27  28
ATOM     28  O   UNL     1       5.646  -0.448   7.628  1.00  0.00    -0.376 OA
BRANCH  28  29
ATOM     29  C   UNL     1       5.102   0.723   8.220  1.00  0.00     0.202 C 
BRANCH  29  30
ATOM     30  C   UNL     1       5.145   0.941   9.746  1.00  0.00     0.261 C 
BRANCH  30  31
ATOM     31  O   UNL     1       4.756  -0.172  10.568  1.00  0.00    -0.460 OA
BRANCH  31  32
ATOM     32  C   UNL     1       3.458  -0.552  10.515  1.00  0.00     0.338 C 
ATOM     33  O   UNL     1       2.551   0.021   9.932  1.00  0.00    -0.246 OA
BRANCH  32  34
ATOM     34  C   UNL     1       3.377  -1.946  11.025  1.00  0.00     0.060 A 
ATOM     35  C   UNL     1       2.763  -2.912  10.211  1.00  0.00     0.016 A 
ATOM     36  C   UNL     1       3.959  -2.322  12.238  1.00  0.00     0.016 A 
ATOM     37  C   UNL     1       2.667  -4.236  10.638  1.00  0.00     0.010 A 
ATOM     38  C   UNL     1       3.840  -3.646  12.679  1.00  0.00     0.010 A 
ATOM     39  C   UNL     1       3.144  -4.594  11.905  1.00  0.00    -0.014 A 
BRANCH  39  40
ATOM     40  C   UNL     1       2.639  -5.845  12.528  1.00  0.00     0.031 A 
ATOM     41  C   UNL     1       1.440  -5.730  13.435  1.00  0.00     0.074 A 
ATOM     42  C   UNL     1       3.158  -7.054  12.255  1.00  0.00     0.049 A 
ATOM     43  N   UNL     1       0.790  -6.658  14.090  1.00  0.00    -0.248 NA
ATOM     44  C   UNL     1       0.901  -4.373  13.626  1.00  0.00     0.031 C 
ATOM     45  C   UNL     1       4.276  -7.316  11.354  1.00  0.00     0.029 A 
ATOM     46  N   UNL     1       2.796  -8.297  12.716  1.00  0.00    -0.354 N 
ATOM     47  C   UNL     1      -0.227  -5.997  14.767  1.00  0.00     0.074 A 
ATOM     48  C   UNL     1      -0.080  -4.587  14.486  1.00  0.00     0.031 C 
ATOM     49  C   UNL     1       4.510  -8.641  11.326  1.00  0.00     0.029 A 
ATOM     50  C   UNL     1       3.575  -9.317  12.227  1.00  0.00     0.049 A 
ATOM     51  H   UNL     1       2.047  -8.443  13.338  1.00  0.00     0.167 HD
ATOM     52  C   UNL     1      -1.211  -6.514  15.540  1.00  0.00     0.037 A 
ATOM     53  C   UNL     1       3.539 -10.639  12.489  1.00  0.00     0.037 A 
ATOM     54  C   UNL     1      -1.355  -7.914  15.833  1.00  0.00     0.049 A 
ATOM     55  C   UNL     1       2.492 -11.184  13.432  1.00  0.00     0.074 A 
ATOM     56  C   UNL     1      -2.309  -8.539  16.616  1.00  0.00     0.029 A 
ATOM     57  N   UNL     1      -0.512  -8.909  15.359  1.00  0.00    -0.354 N 
ATOM     58  N   UNL     1       1.526 -10.556  14.057  1.00  0.00    -0.248 NA
ATOM     59  C   UNL     1       2.529 -12.631  13.694  1.00  0.00     0.031 C 
ATOM     60  C   UNL     1      -2.010  -9.904  16.664  1.00  0.00     0.029 A 
ATOM     61  C   UNL     1      -0.914 -10.141  15.850  1.00  0.00     0.049 A 
ATOM     62  H   UNL     1       0.257  -8.761  14.763  1.00  0.00     0.167 HD
ATOM     63  C   UNL     1       0.813 -11.534  14.744  1.00  0.00     0.074 A 
ATOM     64  C   UNL     1       1.457 -12.797  14.454  1.00  0.00     0.031 C 
ATOM     65  C   UNL     1      -0.280 -11.397  15.537  1.00  0.00     0.037 A 
BRANCH  52  66
ATOM     66  C   UNL     1      -2.183  -5.545  16.148  1.00  0.00     0.064 A 
ATOM     67  C   UNL     1      -3.102  -4.827  15.365  1.00  0.00     0.173 A 
ATOM     68  C   UNL     1      -2.192  -5.324  17.534  1.00  0.00     0.173 A 
ATOM     69  F   UNL     1      -3.121  -4.984  14.032  1.00  0.00    -0.203 F 
ATOM     70  C   UNL     1      -3.963  -3.897  15.941  1.00  0.00     0.198 A 
ATOM     71  C   UNL     1      -3.081  -4.421  18.110  1.00  0.00     0.198 A 
ATOM     72  F   UNL     1      -1.337  -5.982  18.329  1.00  0.00    -0.203 F 
ATOM     73  F   UNL     1      -4.781  -3.173  15.165  1.00  0.00    -0.200 F 
ATOM     74  C   UNL     1      -3.956  -3.699  17.313  1.00  0.00     0.200 A 
ATOM     75  F   UNL     1      -3.082  -4.241  19.439  1.00  0.00    -0.200 F 
ATOM     76  F   UNL     1      -4.785  -2.804  17.867  1.00  0.00    -0.200 F 
ENDBRANCH  52  66
BRANCH  53  77
ATOM     77  C   UNL     1       4.517 -11.557  11.843  1.00  0.00     0.064 A 
ATOM     78  C   UNL     1       4.099 -12.523  10.915  1.00  0.00     0.173 A 
ATOM     79  C   UNL     1       5.880 -11.517  12.168  1.00  0.00     0.173 A 
ATOM     80  F   UNL     1       2.800 -12.623  10.593  1.00  0.00    -0.203 F 
ATOM     81  C   UNL     1       5.002 -13.425  10.356  1.00  0.00     0.198 A 
ATOM     82  C   UNL     1       6.788 -12.399  11.585  1.00  0.00     0.198 A 
ATOM     83  F   UNL     1       6.332 -10.619  13.056  1.00  0.00    -0.203 F 
ATOM     84  F   UNL     1       4.564 -14.374   9.517  1.00  0.00    -0.200 F 
ATOM     85  C   UNL     1       6.346 -13.359  10.687  1.00  0.00     0.200 A 
ATOM     86  F   UNL     1       8.088 -12.326  11.901  1.00  0.00    -0.200 F 
ATOM     87  F   UNL     1       7.214 -14.227  10.150  1.00  0.00    -0.200 F 
ENDBRANCH  53  77
BRANCH  65  88
ATOM     88  C   UNL     1      -0.903 -12.651  16.088  1.00  0.00     0.064 A 
ATOM     89  C   UNL     1      -0.269 -13.439  17.060  1.00  0.00     0.173 A 
ATOM     90  C   UNL     1      -2.178 -13.052  15.654  1.00  0.00     0.173 A 
ATOM     91  F   UNL     1       0.953 -13.108  17.506  1.00  0.00    -0.203 F 
ATOM     92  C   UNL     1      -0.867 -14.601  17.544  1.00  0.00     0.198 A 
ATOM     93  C   UNL     1      -2.789 -14.192  16.168  1.00  0.00     0.198 A 
ATOM     94  F   UNL     1      -2.838 -12.330  14.736  1.00  0.00    -0.203 F 
ATOM     95  F   UNL     1      -0.213 -15.371  18.425  1.00  0.00    -0.200 F 
ATOM     96  C   UNL     1      -2.128 -14.973  17.103  1.00  0.00     0.200 A 
ATOM     97  F   UNL     1      -4.016 -14.537  15.755  1.00  0.00    -0.200 F 
ATOM     98  F   UNL     1      -2.703 -16.088  17.573  1.00  0.00    -0.200 F 
ENDBRANCH  65  88
ENDBRANCH  39  40
ENDBRANCH  32  34
ENDBRANCH  31  32
ENDBRANCH  30  31
ENDBRANCH  29  30
ENDBRANCH  28  29
ENDBRANCH  27  28
ENDBRANCH   1  27
TORSDOF 21
