REMARK SMILES O=C(OCCOCCOCCOC(=O)[C@@H](Cc1ccccc1)N1C(=O)/C(=C/c2ccncc2)SC1=S)c1ccc(-c2c3nc(c(-c4c(F)c(F)c(F)c(F)c4F)c4ccc([nH]4)c(-c4c(F)c(F)c(F)c(F)c4F)c4nc(c(-c5c(F)c(F)c(F)c(F)c5F)c5ccc2[nH]5)C=C4)C=C3)cc1
REMARK SMILES IDX 7 1 6 2 5 3 4 4 3 5 2 6 1 7 37 8 38 9 99 10 39 11 98 12
REMARK SMILES IDX 40 13 41 14 42 15 92 16 43 17 97 18 91 19 93 20 44 21 96 22
REMARK SMILES IDX 90 23 89 24 45 26 77 27 57 28 76 29 58 30 61 31 75 32 94 33
REMARK SMILES IDX 59 34 60 35 74 37 95 38 62 39 46 40 47 41 55 42 48 43 49 44
REMARK SMILES IDX 53 45 56 46 50 47 51 48 54 49 52 50 78 51 79 52 87 53 80 54
REMARK SMILES IDX 81 55 85 56 88 57 82 58 83 59 86 60 84 61 63 62 64 63 72 64
REMARK SMILES IDX 65 65 66 66 70 67 73 68 67 69 68 70 71 71 69 72 8 73 9 74
REMARK SMILES IDX 10 75 11 76 12 77 13 78 14 79 15 80 16 81 17 82 18 83 22 84
REMARK SMILES IDX 19 85 21 86 20 87 23 88 24 89 35 90 25 91 26 92 34 93 36 94
REMARK SMILES IDX 27 95 28 96 29 97 33 98 30 99 32 100 31 101
REMARK H PARENT 93 25 61 36
REMARK Flexibility Score: inf
ROOT
ATOM      1  C   UNL     1       2.426   0.908   1.387  1.00  0.00     0.188 C 
ENDROOT
BRANCH   1   2
ATOM      2  O   UNL     1       3.733   0.336   1.228  1.00  0.00    -0.376 OA
BRANCH   2   3
ATOM      3  C   UNL     1       4.655   1.223   0.585  1.00  0.00     0.202 C 
BRANCH   3   4
ATOM      4  C   UNL     1       4.455   1.410  -0.929  1.00  0.00     0.261 C 
BRANCH   4   5
ATOM      5  O   UNL     1       3.118   1.146  -1.381  1.00  0.00    -0.460 OA
BRANCH   5   6
ATOM      6  C   UNL     1       2.538  -0.014  -1.771  1.00  0.00     0.338 C 
ATOM      7  O   UNL     1       1.371   0.035  -2.161  1.00  0.00    -0.246 OA
BRANCH   6   8
ATOM      8  C   UNL     1       3.196  -1.363  -1.748  1.00  0.00     0.060 A 
ATOM      9  C   UNL     1       4.405  -1.673  -1.129  1.00  0.00     0.016 A 
ATOM     10  C   UNL     1       2.504  -2.420  -2.379  1.00  0.00     0.016 A 
ATOM     11  C   UNL     1       4.928  -2.965  -1.168  1.00  0.00     0.010 A 
ATOM     12  C   UNL     1       3.020  -3.724  -2.418  1.00  0.00     0.010 A 
ATOM     13  C   UNL     1       4.250  -3.993  -1.823  1.00  0.00    -0.014 A 
BRANCH  13  14
ATOM     14  C   UNL     1       4.973  -5.269  -1.993  1.00  0.00     0.031 A 
ATOM     15  C   UNL     1       5.918  -5.382  -3.144  1.00  0.00     0.074 A 
ATOM     16  C   UNL     1       4.898  -6.229  -1.055  1.00  0.00     0.049 A 
ATOM     17  N   UNL     1       6.737  -6.351  -3.443  1.00  0.00    -0.248 NA
ATOM     18  C   UNL     1       5.918  -4.266  -4.105  1.00  0.00     0.031 C 
ATOM     19  C   UNL     1       3.972  -6.213   0.066  1.00  0.00     0.029 A 
ATOM     20  N   UNL     1       5.642  -7.364  -0.853  1.00  0.00    -0.354 N 
ATOM     21  C   UNL     1       7.285  -6.004  -4.667  1.00  0.00     0.074 A 
ATOM     22  C   UNL     1       6.764  -4.704  -5.024  1.00  0.00     0.031 C 
ATOM     23  C   UNL     1       4.292  -7.202   0.916  1.00  0.00     0.029 A 
ATOM     24  C   UNL     1       5.403  -7.965   0.364  1.00  0.00     0.049 A 
ATOM     25  H   UNL     1       6.284  -7.714  -1.512  1.00  0.00     0.167 HD
ATOM     26  C   UNL     1       8.098  -6.754  -5.444  1.00  0.00     0.037 A 
ATOM     27  C   UNL     1       6.023  -9.010   0.949  1.00  0.00     0.037 A 
ATOM     28  C   UNL     1       8.577  -8.054  -5.060  1.00  0.00     0.049 A 
ATOM     29  C   UNL     1       7.024  -9.764   0.107  1.00  0.00     0.074 A 
ATOM     30  C   UNL     1       9.338  -8.946  -5.789  1.00  0.00     0.029 A 
ATOM     31  N   UNL     1       8.331  -8.646  -3.827  1.00  0.00    -0.354 N 
ATOM     32  N   UNL     1       7.500  -9.464  -1.078  1.00  0.00    -0.248 NA
ATOM     33  C   UNL     1       7.511 -11.043   0.643  1.00  0.00     0.031 C 
ATOM     34  C   UNL     1       9.512 -10.099  -5.016  1.00  0.00     0.029 A 
ATOM     35  C   UNL     1       8.919  -9.897  -3.778  1.00  0.00     0.049 A 
ATOM     36  H   UNL     1       7.814  -8.236  -3.096  1.00  0.00     0.167 HD
ATOM     37  C   UNL     1       8.294 -10.537  -1.453  1.00  0.00     0.074 A 
ATOM     38  C   UNL     1       8.313 -11.452  -0.329  1.00  0.00     0.031 C 
ATOM     39  C   UNL     1       8.907 -10.778  -2.638  1.00  0.00     0.037 A 
BRANCH  26  40
ATOM     40  C   UNL     1       8.390  -6.239  -6.820  1.00  0.00     0.064 A 
ATOM     41  C   UNL     1       9.231  -5.143  -7.052  1.00  0.00     0.173 A 
ATOM     42  C   UNL     1       7.784  -6.850  -7.930  1.00  0.00     0.173 A 
ATOM     43  F   UNL     1       9.801  -4.499  -6.022  1.00  0.00    -0.203 F 
ATOM     44  C   UNL     1       9.440  -4.665  -8.344  1.00  0.00     0.198 A 
ATOM     45  C   UNL     1       8.019  -6.389  -9.221  1.00  0.00     0.198 A 
ATOM     46  F   UNL     1       6.955  -7.891  -7.760  1.00  0.00    -0.203 F 
ATOM     47  F   UNL     1      10.202  -3.580  -8.539  1.00  0.00    -0.200 F 
ATOM     48  C   UNL     1       8.841  -5.293  -9.427  1.00  0.00     0.200 A 
ATOM     49  F   UNL     1       7.439  -6.999 -10.264  1.00  0.00    -0.200 F 
ATOM     50  F   UNL     1       9.045  -4.832 -10.668  1.00  0.00    -0.200 F 
ENDBRANCH  26  40
BRANCH  27  51
ATOM     51  C   UNL     1       5.707  -9.458   2.340  1.00  0.00     0.064 A 
ATOM     52  C   UNL     1       6.717  -9.544   3.315  1.00  0.00     0.173 A 
ATOM     53  C   UNL     1       4.421  -9.871   2.722  1.00  0.00     0.173 A 
ATOM     54  F   UNL     1       7.973  -9.179   3.014  1.00  0.00    -0.203 F 
ATOM     55  C   UNL     1       6.461 -10.056   4.588  1.00  0.00     0.198 A 
ATOM     56  C   UNL     1       4.155 -10.335   4.011  1.00  0.00     0.198 A 
ATOM     57  F   UNL     1       3.413  -9.836   1.840  1.00  0.00    -0.203 F 
ATOM     58  F   UNL     1       7.461 -10.187   5.471  1.00  0.00    -0.200 F 
ATOM     59  C   UNL     1       5.179 -10.447   4.936  1.00  0.00     0.200 A 
ATOM     60  F   UNL     1       2.908 -10.687   4.348  1.00  0.00    -0.200 F 
ATOM     61  F   UNL     1       4.937 -10.944   6.155  1.00  0.00    -0.200 F 
ENDBRANCH  27  51
BRANCH  39  62
ATOM     62  C   UNL     1       9.630 -12.085  -2.771  1.00  0.00     0.064 A 
ATOM     63  C   UNL     1       8.933 -13.300  -2.858  1.00  0.00     0.173 A 
ATOM     64  C   UNL     1      11.028 -12.117  -2.859  1.00  0.00     0.173 A 
ATOM     65  F   UNL     1       7.594 -13.321  -2.765  1.00  0.00    -0.203 F 
ATOM     66  C   UNL     1       9.615 -14.505  -3.000  1.00  0.00     0.198 A 
ATOM     67  C   UNL     1      11.704 -13.319  -3.036  1.00  0.00     0.198 A 
ATOM     68  F   UNL     1      11.736 -10.980  -2.790  1.00  0.00    -0.203 F 
ATOM     69  F   UNL     1       8.934 -15.658  -3.028  1.00  0.00    -0.200 F 
ATOM     70  C   UNL     1      10.998 -14.512  -3.097  1.00  0.00     0.200 A 
ATOM     71  F   UNL     1      13.039 -13.324  -3.147  1.00  0.00    -0.200 F 
ATOM     72  F   UNL     1      11.653 -15.672  -3.243  1.00  0.00    -0.200 F 
ENDBRANCH  39  62
ENDBRANCH  13  14
ENDBRANCH   6   8
ENDBRANCH   5   6
ENDBRANCH   4   5
ENDBRANCH   3   4
ENDBRANCH   2   3
ENDBRANCH   1   2
BRANCH   1  73
ATOM     73  C   UNL     1       1.836   0.673   2.777  1.00  0.00     0.188 C 
BRANCH  73  74
ATOM     74  O   UNL     1       2.400   1.440   3.840  1.00  0.00    -0.376 OA
BRANCH  74  75
ATOM     75  C   UNL     1       3.786   1.274   4.126  1.00  0.00     0.202 C 
BRANCH  75  76
ATOM     76  C   UNL     1       4.183  -0.036   4.801  1.00  0.00     0.261 C 
BRANCH  76  77
ATOM     77  O   UNL     1       3.869  -1.168   3.988  1.00  0.00    -0.462 OA
BRANCH  77  78
ATOM     78  C   UNL     1       2.906  -1.997   4.460  1.00  0.00     0.329 C 
ATOM     79  O   UNL     1       2.192  -1.783   5.435  1.00  0.00    -0.250 OA
BRANCH  78  80
ATOM     80  C   UNL     1       2.825  -3.287   3.651  1.00  0.00     0.206 C 
BRANCH  80  81
ATOM     81  C   UNL     1       3.657  -3.361   2.365  1.00  0.00     0.073 C 
BRANCH  81  82
ATOM     82  C   UNL     1       5.159  -3.521   2.433  1.00  0.00    -0.045 A 
ATOM     83  C   UNL     1       5.754  -4.762   2.692  1.00  0.00     0.004 A 
ATOM     84  C   UNL     1       5.991  -2.439   2.120  1.00  0.00     0.004 A 
ATOM     85  C   UNL     1       7.134  -4.933   2.573  1.00  0.00     0.000 A 
ATOM     86  C   UNL     1       7.372  -2.605   2.007  1.00  0.00     0.000 A 
ATOM     87  C   UNL     1       7.941  -3.857   2.217  1.00  0.00     0.000 A 
ENDBRANCH  81  82
ENDBRANCH  80  81
BRANCH  80  88
ATOM     88  N   UNL     1       2.983  -4.436   4.550  1.00  0.00    -0.278 N 
ATOM     89  C   UNL     1       3.990  -4.379   5.500  1.00  0.00     0.267 C 
ATOM     90  C   UNL     1       2.284  -5.619   4.462  1.00  0.00     0.149 C 
ATOM     91  O   UNL     1       4.790  -3.475   5.669  1.00  0.00    -0.268 OA
ATOM     92  C   UNL     1       3.982  -5.607   6.315  1.00  0.00     0.081 C 
ATOM     93  S   UNL     1       2.888  -6.754   5.666  1.00  0.00    -0.054 SA
ATOM     94  S   UNL     1       1.080  -6.032   3.385  1.00  0.00    -0.052 S 
ATOM     95  C   UNL     1       4.754  -5.690   7.402  1.00  0.00     0.029 C 
BRANCH  95  96
ATOM     96  C   UNL     1       4.847  -6.870   8.248  1.00  0.00    -0.021 A 
ATOM     97  C   UNL     1       5.654  -7.933   7.853  1.00  0.00     0.028 A 
ATOM     98  C   UNL     1       4.121  -6.951   9.431  1.00  0.00     0.028 A 
ATOM     99  C   UNL     1       5.690  -9.053   8.661  1.00  0.00     0.111 A 
ATOM    100  C   UNL     1       4.230  -8.113  10.173  1.00  0.00     0.111 A 
ATOM    101  N   UNL     1       4.997  -9.166   9.813  1.00  0.00    -0.265 NA
ENDBRANCH  95  96
ENDBRANCH  80  88
ENDBRANCH  78  80
ENDBRANCH  77  78
ENDBRANCH  76  77
ENDBRANCH  75  76
ENDBRANCH  74  75
ENDBRANCH  73  74
ENDBRANCH   1  73
TORSDOF 21
