REMARK SMILES Cc1cc(C(=O)OCCOCCOCCOC(=O)c2ccc(-c3c4nc(c(-c5c(F)c(F)c(F)c(F)c5F)c5ccc([nH]5)c(-c5c(F)c(F)c(F)c(F)c5F)c5nc(c(-c6c(F)c(F)c(F)c(F)c6F)c6ccc3[nH]6)C=C5)C=C4)cc2)cc(S(=O)(=O)NNC(=O)c2c[nH]c3ccccc23)c1C
REMARK SMILES IDX 11 1 10 2 9 3 8 4 7 5 5 6 6 7 4 8 1 9 2 10 3 11 100 12 83 13
REMARK SMILES IDX 101 14 82 15 84 16 85 17 86 18 87 19 88 21 89 22 90 24 91 25
REMARK SMILES IDX 92 26 99 27 93 28 94 29 98 30 95 32 97 33 96 34 12 35 13 36
REMARK SMILES IDX 14 37 15 38 16 39 17 40 18 41 19 42 20 43 81 44 21 45 80 46
REMARK SMILES IDX 22 47 23 48 24 49 74 50 25 51 79 52 73 53 75 54 26 55 78 56
REMARK SMILES IDX 72 57 71 58 27 60 59 61 39 62 58 63 40 64 43 65 57 66 76 67
REMARK SMILES IDX 41 68 42 69 56 71 77 72 44 73 28 74 29 75 37 76 30 77 31 78
REMARK SMILES IDX 35 79 38 80 32 81 33 82 36 83 34 84 60 85 61 86 69 87 62 88
REMARK SMILES IDX 63 89 67 90 70 91 64 92 65 93 68 94 66 95 45 96 46 97 54 98
REMARK SMILES IDX 47 99 48 100 52 101 55 102 49 103 50 104 53 105 51 106
REMARK H PARENT 87 20 88 23 93 31 75 59 43 70
REMARK Flexibility Score: inf
ROOT
ATOM      1  C   UNL     1      -4.567   1.060  -1.437  1.00  0.00     0.188 C 
ENDROOT
BRANCH   1   2
ATOM      2  O   UNL     1      -5.659   1.823  -0.958  1.00  0.00    -0.376 OA
BRANCH   2   3
ATOM      3  C   UNL     1      -5.454   2.954  -0.128  1.00  0.00     0.202 C 
BRANCH   3   4
ATOM      4  C   UNL     1      -4.410   2.986   1.002  1.00  0.00     0.261 C 
BRANCH   4   5
ATOM      5  O   UNL     1      -3.193   2.269   0.772  1.00  0.00    -0.460 OA
BRANCH   5   6
ATOM      6  C   UNL     1      -3.062   1.089   1.428  1.00  0.00     0.338 C 
ATOM      7  O   UNL     1      -3.875   0.567   2.170  1.00  0.00    -0.246 OA
BRANCH   6   8
ATOM      8  C   UNL     1      -1.817   0.411   0.983  1.00  0.00     0.061 A 
ATOM      9  C   UNL     1       1.730   1.372   0.018  1.00  0.00     0.044 C 
ATOM     10  C   UNL     1       0.520   0.520   0.299  1.00  0.00    -0.046 A 
ATOM     11  C   UNL     1      -0.663   1.153   0.709  1.00  0.00     0.019 A 
ATOM     12  C   UNL     1       0.551  -0.887   0.187  1.00  0.00    -0.028 A 
ATOM     13  C   UNL     1      -0.644  -1.624   0.411  1.00  0.00     0.088 A 
ATOM     14  C   UNL     1       1.840  -1.607  -0.145  1.00  0.00     0.046 C 
ATOM     15  C   UNL     1      -1.821  -0.981   0.812  1.00  0.00     0.037 A 
BRANCH  13  16
ATOM     16  S   UNL     1      -0.627  -3.368   0.037  1.00  0.00     0.257 S 
ATOM     17  O   UNL     1      -0.296  -3.463  -1.377  1.00  0.00    -0.205 OA
ATOM     18  O   UNL     1       0.146  -4.038   1.044  1.00  0.00    -0.205 OA
BRANCH  16  19
ATOM     19  N   UNL     1      -2.247  -3.956   0.247  1.00  0.00    -0.123 NA
ATOM     20  H   UNL     1      -2.753  -3.288   0.829  1.00  0.00     0.167 HD
BRANCH  19  21
ATOM     21  N   UNL     1      -3.015  -4.145  -1.013  1.00  0.00    -0.273 N 
ATOM     22  C   UNL     1      -2.477  -4.943  -2.007  1.00  0.00     0.268 C 
ATOM     23  H   UNL     1      -3.890  -3.711  -1.137  1.00  0.00     0.186 HD
ATOM     24  O   UNL     1      -2.284  -4.455  -3.122  1.00  0.00    -0.268 OA
BRANCH  22  25
ATOM     25  C   UNL     1      -2.290  -6.380  -1.725  1.00  0.00     0.066 A 
ATOM     26  C   UNL     1      -1.123  -7.130  -1.943  1.00  0.00     0.097 A 
ATOM     27  C   UNL     1      -3.148  -7.252  -2.449  1.00  0.00     0.012 A 
ATOM     28  N   UNL     1      -1.146  -7.160  -3.346  1.00  0.00    -0.360 N 
ATOM     29  C   UNL     1      -2.456  -7.390  -3.670  1.00  0.00     0.046 A 
ATOM     30  C   UNL     1      -4.507  -7.465  -2.384  1.00  0.00     0.011 A 
ATOM     31  H   UNL     1      -0.388  -7.042  -3.962  1.00  0.00     0.166 HD
ATOM     32  C   UNL     1      -3.043  -7.548  -4.888  1.00  0.00     0.027 A 
ATOM     33  C   UNL     1      -5.103  -7.686  -3.589  1.00  0.00     0.001 A 
ATOM     34  C   UNL     1      -4.387  -7.639  -4.753  1.00  0.00     0.002 A 
ENDBRANCH  22  25
ENDBRANCH  19  21
ENDBRANCH  16  19
ENDBRANCH  13  16
ENDBRANCH   6   8
ENDBRANCH   5   6
ENDBRANCH   4   5
ENDBRANCH   3   4
ENDBRANCH   2   3
ENDBRANCH   1   2
BRANCH   1  35
ATOM     35  C   UNL     1      -3.383   1.733  -2.159  1.00  0.00     0.188 C 
BRANCH  35  36
ATOM     36  O   UNL     1      -3.379   3.138  -2.171  1.00  0.00    -0.376 OA
BRANCH  36  37
ATOM     37  C   UNL     1      -4.090   3.845  -3.172  1.00  0.00     0.202 C 
BRANCH  37  38
ATOM     38  C   UNL     1      -5.006   3.227  -4.254  1.00  0.00     0.261 C 
BRANCH  38  39
ATOM     39  O   UNL     1      -5.370   1.841  -4.167  1.00  0.00    -0.460 OA
BRANCH  39  40
ATOM     40  C   UNL     1      -4.770   1.004  -5.054  1.00  0.00     0.338 C 
ATOM     41  O   UNL     1      -3.889   1.292  -5.847  1.00  0.00    -0.246 OA
BRANCH  40  42
ATOM     42  C   UNL     1      -5.247  -0.387  -4.837  1.00  0.00     0.060 A 
ATOM     43  C   UNL     1      -4.360  -1.358  -4.365  1.00  0.00     0.016 A 
ATOM     44  C   UNL     1      -6.554  -0.759  -5.155  1.00  0.00     0.016 A 
ATOM     45  C   UNL     1      -4.794  -2.691  -4.205  1.00  0.00     0.010 A 
ATOM     46  C   UNL     1      -6.972  -2.100  -5.007  1.00  0.00     0.010 A 
ATOM     47  C   UNL     1      -6.101  -3.095  -4.532  1.00  0.00    -0.014 A 
BRANCH  47  48
ATOM     48  C   UNL     1      -6.555  -4.550  -4.480  1.00  0.00     0.031 A 
ATOM     49  C   UNL     1      -6.307  -5.395  -5.790  1.00  0.00     0.074 A 
ATOM     50  C   UNL     1      -6.998  -5.060  -3.283  1.00  0.00     0.049 A 
ATOM     51  N   UNL     1      -6.700  -6.599  -6.164  1.00  0.00    -0.248 NA
ATOM     52  C   UNL     1      -5.379  -4.799  -6.783  1.00  0.00     0.031 C 
ATOM     53  C   UNL     1      -6.816  -4.392  -1.976  1.00  0.00     0.029 A 
ATOM     54  N   UNL     1      -7.546  -6.285  -2.896  1.00  0.00    -0.354 N 
ATOM     55  C   UNL     1      -5.959  -6.965  -7.325  1.00  0.00     0.074 A 
ATOM     56  C   UNL     1      -5.257  -5.745  -7.717  1.00  0.00     0.031 C 
ATOM     57  C   UNL     1      -7.077  -5.261  -0.972  1.00  0.00     0.029 A 
ATOM     58  C   UNL     1      -7.464  -6.571  -1.529  1.00  0.00     0.049 A 
ATOM     59  H   UNL     1      -7.961  -6.904  -3.539  1.00  0.00     0.167 HD
ATOM     60  C   UNL     1      -5.621  -8.225  -7.814  1.00  0.00     0.037 A 
ATOM     61  C   UNL     1      -7.494  -7.748  -0.815  1.00  0.00     0.037 A 
ATOM     62  C   UNL     1      -5.963  -9.531  -7.155  1.00  0.00     0.049 A 
ATOM     63  C   UNL     1      -7.381  -9.145  -1.538  1.00  0.00     0.074 A 
ATOM     64  C   UNL     1      -6.328 -10.760  -7.696  1.00  0.00     0.029 A 
ATOM     65  N   UNL     1      -5.687  -9.908  -5.817  1.00  0.00    -0.354 N 
ATOM     66  N   UNL     1      -7.133  -9.423  -2.800  1.00  0.00    -0.248 NA
ATOM     67  C   UNL     1      -7.437 -10.371  -0.720  1.00  0.00     0.031 C 
ATOM     68  C   UNL     1      -6.593 -11.679  -6.639  1.00  0.00     0.029 A 
ATOM     69  C   UNL     1      -6.371 -11.049  -5.422  1.00  0.00     0.049 A 
ATOM     70  H   UNL     1      -5.074  -9.412  -5.228  1.00  0.00     0.167 HD
ATOM     71  C   UNL     1      -6.848 -10.781  -2.928  1.00  0.00     0.074 A 
ATOM     72  C   UNL     1      -7.042 -11.313  -1.580  1.00  0.00     0.031 C 
ATOM     73  C   UNL     1      -6.516 -11.527  -4.039  1.00  0.00     0.037 A 
BRANCH  60  74
ATOM     74  C   UNL     1      -5.042  -8.255  -9.229  1.00  0.00     0.064 A 
ATOM     75  C   UNL     1      -3.731  -7.907  -9.613  1.00  0.00     0.173 A 
ATOM     76  C   UNL     1      -5.918  -8.614 -10.268  1.00  0.00     0.173 A 
ATOM     77  F   UNL     1      -2.829  -7.524  -8.696  1.00  0.00    -0.203 F 
ATOM     78  C   UNL     1      -3.342  -7.899 -10.966  1.00  0.00     0.198 A 
ATOM     79  C   UNL     1      -5.521  -8.640 -11.605  1.00  0.00     0.198 A 
ATOM     80  F   UNL     1      -7.188  -8.938  -9.986  1.00  0.00    -0.203 F 
ATOM     81  F   UNL     1      -2.106  -7.506 -11.314  1.00  0.00    -0.200 F 
ATOM     82  C   UNL     1      -4.237  -8.271 -11.958  1.00  0.00     0.200 A 
ATOM     83  F   UNL     1      -6.395  -9.013 -12.550  1.00  0.00    -0.200 F 
ATOM     84  F   UNL     1      -3.870  -8.263 -13.248  1.00  0.00    -0.200 F 
ENDBRANCH  60  74
BRANCH  61  85
ATOM     85  C   UNL     1      -7.404  -7.722   0.715  1.00  0.00     0.064 A 
ATOM     86  C   UNL     1      -6.410  -8.398   1.458  1.00  0.00     0.173 A 
ATOM     87  C   UNL     1      -8.384  -7.062   1.481  1.00  0.00     0.173 A 
ATOM     88  F   UNL     1      -5.402  -9.018   0.827  1.00  0.00    -0.203 F 
ATOM     89  C   UNL     1      -6.453  -8.487   2.861  1.00  0.00     0.198 A 
ATOM     90  C   UNL     1      -8.408  -7.122   2.883  1.00  0.00     0.198 A 
ATOM     91  F   UNL     1      -9.343  -6.353   0.869  1.00  0.00    -0.203 F 
ATOM     92  F   UNL     1      -5.535  -9.210   3.519  1.00  0.00    -0.200 F 
ATOM     93  C   UNL     1      -7.460  -7.858   3.571  1.00  0.00     0.200 A 
ATOM     94  F   UNL     1      -9.370  -6.481   3.563  1.00  0.00    -0.200 F 
ATOM     95  F   UNL     1      -7.523  -7.968   4.907  1.00  0.00    -0.200 F 
ENDBRANCH  61  85
BRANCH  73  96
ATOM     96  C   UNL     1      -6.640 -13.022  -3.862  1.00  0.00     0.064 A 
ATOM     97  C   UNL     1      -7.927 -13.543  -3.635  1.00  0.00     0.173 A 
ATOM     98  C   UNL     1      -5.589 -13.939  -4.016  1.00  0.00     0.173 A 
ATOM     99  F   UNL     1      -8.971 -12.712  -3.501  1.00  0.00    -0.203 F 
ATOM    100  C   UNL     1      -8.155 -14.908  -3.527  1.00  0.00     0.198 A 
ATOM    101  C   UNL     1      -5.828 -15.316  -3.932  1.00  0.00     0.198 A 
ATOM    102  F   UNL     1      -4.339 -13.515  -4.256  1.00  0.00    -0.203 F 
ATOM    103  F   UNL     1      -9.393 -15.354  -3.273  1.00  0.00    -0.200 F 
ATOM    104  C   UNL     1      -7.108 -15.796  -3.683  1.00  0.00     0.200 A 
ATOM    105  F   UNL     1      -4.822 -16.188  -4.101  1.00  0.00    -0.200 F 
ATOM    106  F   UNL     1      -7.335 -17.114  -3.597  1.00  0.00    -0.200 F 
ENDBRANCH  73  96
ENDBRANCH  47  48
ENDBRANCH  40  42
ENDBRANCH  39  40
ENDBRANCH  38  39
ENDBRANCH  37  38
ENDBRANCH  36  37
ENDBRANCH  35  36
ENDBRANCH   1  35
TORSDOF 21
