REMARK SMILES Cc1ccc(NS(=O)(=O)c2cc(C(=O)Nc3ccccc3C(=O)OCCOCCOCCOC(=O)c3ccc(-c4c5nc(c(-c6c(F)c(F)c(F)c(F)c6F)c6ccc([nH]6)c(-c6c(F)c(F)c(F)c(F)c6F)c6nc(c(-c7c(F)c(F)c(F)c(F)c7F)c7ccc4[nH]7)C=C6)C=C5)cc3)ccc2Br)cc1
REMARK SMILES IDX 27 1 26 2 25 3 24 4 22 5 23 6 21 7 16 8 17 9 18 10 20 11
REMARK SMILES IDX 19 12 15 13 13 14 14 15 12 17 10 18 11 19 101 20 100 21
REMARK SMILES IDX 102 22 99 23 7 24 8 25 9 26 6 27 5 29 1 30 2 31 3 32 104 33
REMARK SMILES IDX 4 34 103 35 28 36 29 37 30 38 31 39 32 40 33 41 34 42 35 43
REMARK SMILES IDX 36 44 37 45 98 46 38 47 97 48 39 49 40 50 41 51 91 52 42 53
REMARK SMILES IDX 96 54 90 55 92 56 43 57 95 58 89 59 88 60 44 62 76 63 56 64
REMARK SMILES IDX 75 65 57 66 60 67 74 68 93 69 58 70 59 71 73 73 94 74 61 75
REMARK SMILES IDX 45 76 46 77 54 78 47 79 48 80 52 81 55 82 49 83 50 84 53 85
REMARK SMILES IDX 51 86 77 87 78 88 86 89 79 90 80 91 84 92 87 93 81 94 82 95
REMARK SMILES IDX 85 96 83 97 62 98 63 99 71 100 64 101 65 102 69 103 72 104
REMARK SMILES IDX 66 105 67 106 70 107 68 108
REMARK H PARENT 15 16 6 28 92 61 60 72
REMARK Flexibility Score: inf
ROOT
ATOM      1  O   UNL     1      -2.234  -4.947   3.597  1.00  0.00    -0.376 OA
ENDROOT
BRANCH   1   2
ATOM      2  C   UNL     1      -3.330  -4.174   4.100  1.00  0.00     0.202 C 
BRANCH   2   3
ATOM      3  C   UNL     1      -3.705  -2.592   3.582  1.00  0.00     0.261 C 
BRANCH   3   4
ATOM      4  O   UNL     1      -3.182  -1.478   2.236  1.00  0.00    -0.460 OA
BRANCH   4   5
ATOM      5  C   UNL     1      -2.557  -0.139   1.834  1.00  0.00     0.340 C 
ATOM      6  O   UNL     1      -2.277   0.901   2.461  1.00  0.00    -0.246 OA
BRANCH   5   7
ATOM      7  C   UNL     1      -1.791   0.311   0.752  1.00  0.00     0.083 A 
ATOM      8  C   UNL     1      -0.199  -0.088  -0.134  1.00  0.00     0.056 A 
ATOM      9  C   UNL     1       0.178   1.353  -1.507  1.00  0.00     0.027 A 
ATOM     10  C   UNL     1      -0.890   2.764  -1.768  1.00  0.00     0.002 A 
ATOM     11  C   UNL     1      -2.719   1.836   0.386  1.00  0.00     0.018 A 
ATOM     12  C   UNL     1      -2.272   2.964  -0.817  1.00  0.00     0.001 A 
BRANCH   8  13
ATOM     13  N   UNL     1       0.707  -1.625   0.445  1.00  0.00    -0.321 N 
ATOM     14  C   UNL     1       0.185  -3.382   0.656  1.00  0.00     0.255 C 
ATOM     15  O   UNL     1       0.936  -4.250   0.178  1.00  0.00    -0.269 OA
ATOM     16  H   UNL     1       1.648  -1.461   0.684  1.00  0.00     0.170 HD
BRANCH  14  17
ATOM     17  C   UNL     1      -1.588  -4.116   0.829  1.00  0.00     0.041 A 
ATOM     18  C   UNL     1      -4.270  -2.874   0.631  1.00  0.00     0.102 A 
ATOM     19  C   UNL     1      -2.828  -3.360   1.234  1.00  0.00     0.037 A 
ATOM     20  C   UNL     1      -4.820  -3.880  -0.038  1.00  0.00     0.038 A 
ATOM     21  C   UNL     1      -3.829  -4.842  -0.373  1.00  0.00     0.018 A 
ATOM     22  Br  UNL     1      -6.612  -4.065  -0.520  1.00  0.00    -0.049 Br
ATOM     23  C   UNL     1      -2.216  -4.978  -0.042  1.00  0.00     0.015 A 
BRANCH  18  24
ATOM     24  S   UNL     1      -4.810  -0.860  -0.152  1.00  0.00     0.263 S 
ATOM     25  O   UNL     1      -5.096  -0.060   1.021  1.00  0.00    -0.201 OA
ATOM     26  O   UNL     1      -5.861  -1.138  -1.111  1.00  0.00    -0.201 OA
BRANCH  24  27
ATOM     27  N   UNL     1      -3.410   0.270  -1.370  1.00  0.00    -0.280 N 
ATOM     28  H   UNL     1      -3.823   0.612  -2.195  1.00  0.00     0.180 HD
BRANCH  27  29
ATOM     29  C   UNL     1      -1.634   0.740  -1.226  1.00  0.00     0.049 A 
ATOM     30  C   UNL     1       3.483   0.186  -0.699  1.00  0.00     0.044 C 
ATOM     31  C   UNL     1       1.996   0.382  -0.819  1.00  0.00    -0.051 A 
ATOM     32  C   UNL     1       1.081  -0.486  -2.091  1.00  0.00     0.005 A 
ATOM     33  C   UNL     1       1.230   1.516   0.292  1.00  0.00     0.005 A 
ATOM     34  C   UNL     1      -0.685  -0.310  -2.340  1.00  0.00     0.027 A 
ATOM     35  C   UNL     1      -0.555   1.783   0.140  1.00  0.00     0.027 A 
ENDBRANCH  27  29
ENDBRANCH  24  27
ENDBRANCH  18  24
ENDBRANCH  14  17
ENDBRANCH   8  13
ENDBRANCH   5   7
ENDBRANCH   4   5
ENDBRANCH   3   4
ENDBRANCH   2   3
ENDBRANCH   1   2
BRANCH   1  36
ATOM     36  C   UNL     1      -2.414  -6.318   3.139  1.00  0.00     0.188 C 
BRANCH  36  37
ATOM     37  C   UNL     1      -3.629  -6.534   2.223  1.00  0.00     0.188 C 
BRANCH  37  38
ATOM     38  O   UNL     1      -3.755  -7.747   1.480  1.00  0.00    -0.376 OA
BRANCH  38  39
ATOM     39  C   UNL     1      -4.379  -7.558   0.147  1.00  0.00     0.202 C 
BRANCH  39  40
ATOM     40  C   UNL     1      -3.299  -7.533  -1.092  1.00  0.00     0.261 C 
BRANCH  40  41
ATOM     41  O   UNL     1      -3.148  -6.435  -2.368  1.00  0.00    -0.460 OA
BRANCH  41  42
ATOM     42  C   UNL     1      -2.808  -5.222  -3.039  1.00  0.00     0.338 C 
ATOM     43  O   UNL     1      -2.807  -5.259  -4.272  1.00  0.00    -0.246 OA
BRANCH  42  44
ATOM     44  C   UNL     1      -2.320  -3.831  -2.462  1.00  0.00     0.060 A 
ATOM     45  C   UNL     1      -1.019  -3.523  -2.324  1.00  0.00     0.016 A 
ATOM     46  C   UNL     1      -2.979  -2.732  -1.941  1.00  0.00     0.016 A 
ATOM     47  C   UNL     1      -0.630  -2.671  -1.168  1.00  0.00     0.010 A 
ATOM     48  C   UNL     1      -2.406  -1.962  -0.662  1.00  0.00     0.010 A 
ATOM     49  C   UNL     1      -1.346  -2.026   0.204  1.00  0.00    -0.014 A 
BRANCH  49  50
ATOM     50  C   UNL     1      -0.983  -1.897   2.208  1.00  0.00     0.031 A 
ATOM     51  C   UNL     1      -1.640  -0.798   3.705  1.00  0.00     0.074 A 
ATOM     52  C   UNL     1      -0.285  -2.807   3.132  1.00  0.00     0.049 A 
ATOM     53  N   UNL     1      -1.008   0.006   4.582  1.00  0.00    -0.248 NA
ATOM     54  C   UNL     1      -3.310  -0.289   4.081  1.00  0.00     0.031 C 
ATOM     55  C   UNL     1      -0.489  -2.889   4.632  1.00  0.00     0.029 A 
ATOM     56  N   UNL     1       0.600  -3.971   3.011  1.00  0.00    -0.354 N 
ATOM     57  C   UNL     1      -1.995   0.928   5.218  1.00  0.00     0.074 A 
ATOM     58  C   UNL     1      -3.208   0.918   4.548  1.00  0.00     0.031 C 
ATOM     59  C   UNL     1       0.257  -3.836   5.218  1.00  0.00     0.029 A 
ATOM     60  C   UNL     1       1.208  -4.301   4.263  1.00  0.00     0.049 A 
ATOM     61  H   UNL     1       0.757  -4.463   2.173  1.00  0.00     0.167 HD
ATOM     62  C   UNL     1      -2.157   1.337   6.518  1.00  0.00     0.037 A 
ATOM     63  C   UNL     1       2.536  -4.403   4.591  1.00  0.00     0.037 A 
ATOM     64  C   UNL     1      -1.233   0.571   7.278  1.00  0.00     0.049 A 
ATOM     65  C   UNL     1       2.986  -3.215   5.441  1.00  0.00     0.074 A 
ATOM     66  C   UNL     1      -1.329  -0.643   7.929  1.00  0.00     0.029 A 
ATOM     67  N   UNL     1       0.081   0.762   6.944  1.00  0.00    -0.354 N 
ATOM     68  N   UNL     1       2.168  -2.340   5.964  1.00  0.00    -0.248 NA
ATOM     69  C   UNL     1       4.381  -2.900   5.750  1.00  0.00     0.031 C 
ATOM     70  C   UNL     1      -0.023  -1.214   7.911  1.00  0.00     0.029 A 
ATOM     71  C   UNL     1       0.847  -0.307   7.325  1.00  0.00     0.049 A 
ATOM     72  H   UNL     1       0.429   1.563   6.489  1.00  0.00     0.167 HD
ATOM     73  C   UNL     1       2.870  -1.333   6.558  1.00  0.00     0.074 A 
ATOM     74  C   UNL     1       4.248  -1.756   6.443  1.00  0.00     0.031 C 
ATOM     75  C   UNL     1       2.273  -0.222   7.078  1.00  0.00     0.037 A 
BRANCH  62  76
ATOM     76  C   UNL     1      -3.441   2.087   7.056  1.00  0.00     0.064 A 
ATOM     77  C   UNL     1      -3.817   1.976   8.404  1.00  0.00     0.173 A 
ATOM     78  C   UNL     1      -4.345   2.901   6.297  1.00  0.00     0.173 A 
ATOM     79  F   UNL     1      -3.019   1.359   9.282  1.00  0.00    -0.203 F 
ATOM     80  C   UNL     1      -5.016   2.518   8.912  1.00  0.00     0.198 A 
ATOM     81  C   UNL     1      -5.599   3.330   6.770  1.00  0.00     0.198 A 
ATOM     82  F   UNL     1      -4.027   3.373   5.081  1.00  0.00    -0.203 F 
ATOM     83  F   UNL     1      -5.280   2.425  10.223  1.00  0.00    -0.200 F 
ATOM     84  C   UNL     1      -5.930   3.148   8.089  1.00  0.00     0.200 A 
ATOM     85  F   UNL     1      -6.463   3.943   5.943  1.00  0.00    -0.200 F 
ATOM     86  F   UNL     1      -7.087   3.622   8.573  1.00  0.00    -0.200 F 
ENDBRANCH  62  76
BRANCH  63  87
ATOM     87  C   UNL     1       3.404  -5.144   3.634  1.00  0.00     0.064 A 
ATOM     88  C   UNL     1       3.168  -6.528   3.479  1.00  0.00     0.173 A 
ATOM     89  C   UNL     1       3.722  -4.408   2.511  1.00  0.00     0.173 A 
ATOM     90  F   UNL     1       3.041  -7.319   4.556  1.00  0.00    -0.203 F 
ATOM     91  C   UNL     1       2.857  -7.046   2.228  1.00  0.00     0.198 A 
ATOM     92  C   UNL     1       3.267  -4.870   1.296  1.00  0.00     0.198 A 
ATOM     93  F   UNL     1       4.090  -3.124   2.619  1.00  0.00    -0.203 F 
ATOM     94  F   UNL     1       2.476  -8.327   2.095  1.00  0.00    -0.200 F 
ATOM     95  C   UNL     1       2.775  -6.175   1.157  1.00  0.00     0.200 A 
ATOM     96  F   UNL     1       3.133  -3.936   0.345  1.00  0.00    -0.200 F 
ATOM     97  F   UNL     1       2.126  -6.570   0.050  1.00  0.00    -0.200 F 
ENDBRANCH  63  87
BRANCH  75  98
ATOM     98  C   UNL     1       2.995   1.061   7.451  1.00  0.00     0.064 A 
ATOM     99  C   UNL     1       4.232   1.433   6.909  1.00  0.00     0.173 A 
ATOM    100  C   UNL     1       2.394   2.034   8.296  1.00  0.00     0.173 A 
ATOM    101  F   UNL     1       4.812   0.726   5.931  1.00  0.00    -0.203 F 
ATOM    102  C   UNL     1       4.898   2.586   7.322  1.00  0.00     0.198 A 
ATOM    103  C   UNL     1       3.002   3.248   8.594  1.00  0.00     0.198 A 
ATOM    104  F   UNL     1       1.188   1.856   8.853  1.00  0.00    -0.203 F 
ATOM    105  F   UNL     1       6.146   2.814   6.891  1.00  0.00    -0.200 F 
ATOM    106  C   UNL     1       4.282   3.497   8.159  1.00  0.00     0.200 A 
ATOM    107  F   UNL     1       2.337   4.167   9.309  1.00  0.00    -0.200 F 
ATOM    108  F   UNL     1       4.915   4.614   8.533  1.00  0.00    -0.200 F 
ENDBRANCH  75  98
ENDBRANCH  49  50
ENDBRANCH  42  44
ENDBRANCH  41  42
ENDBRANCH  40  41
ENDBRANCH  39  40
ENDBRANCH  38  39
ENDBRANCH  37  38
ENDBRANCH  36  37
ENDBRANCH   1  36
TORSDOF 22
