REMARK SMILES O=C(OCCOCCOCCOC(=O)[C@]1(C2CCCC2)CCOc2ccccc21)c1ccc(-c2c3nc(c(-c4c(F)c(F)c(F)c(F)c4F)c4ccc([nH]4)c(-c4c(F)c(F)c(F)c(F)c4F)c4nc(c(-c5c(F)c(F)c(F)c(F)c5F)c5ccc2[nH]5)C=C4)C=C3)cc1
REMARK SMILES IDX 7 1 6 2 5 3 4 4 3 5 2 6 1 7 30 8 31 9 92 10 32 11 91 12
REMARK SMILES IDX 33 13 34 14 35 15 85 16 36 17 90 18 84 19 86 20 37 21 89 22
REMARK SMILES IDX 83 23 82 24 38 26 70 27 50 28 69 29 51 30 54 31 68 32 87 33
REMARK SMILES IDX 52 34 53 35 67 37 88 38 55 39 39 40 40 41 48 42 41 43 42 44
REMARK SMILES IDX 46 45 49 46 43 47 44 48 47 49 45 50 71 51 72 52 80 53 73 54
REMARK SMILES IDX 74 55 78 56 81 57 75 58 76 59 79 60 77 61 56 62 57 63 65 64
REMARK SMILES IDX 58 65 59 66 63 67 66 68 60 69 61 70 64 71 62 72 8 73 9 74
REMARK SMILES IDX 10 75 11 76 12 77 13 78 14 79 15 80 21 81 29 82 22 83 24 84
REMARK SMILES IDX 28 85 23 86 25 87 27 88 26 89 16 90 17 91 20 92 18 93 19 94
REMARK H PARENT 86 25 54 36
REMARK Flexibility Score: inf
ROOT
ATOM      1  C   UNL     1       2.711  -0.843  -1.873  1.00  0.00     0.188 C 
ENDROOT
BRANCH   1   2
ATOM      2  O   UNL     1       4.011  -0.297  -1.620  1.00  0.00    -0.376 OA
BRANCH   2   3
ATOM      3  C   UNL     1       4.910  -1.245  -1.029  1.00  0.00     0.202 C 
BRANCH   3   4
ATOM      4  C   UNL     1       4.687  -1.507   0.470  1.00  0.00     0.261 C 
BRANCH   4   5
ATOM      5  O   UNL     1       3.305  -1.420   0.856  1.00  0.00    -0.460 OA
BRANCH   5   6
ATOM      6  C   UNL     1       2.643  -0.357   1.368  1.00  0.00     0.338 C 
ATOM      7  O   UNL     1       1.460  -0.506   1.697  1.00  0.00    -0.246 OA
BRANCH   6   8
ATOM      8  C   UNL     1       3.251   0.992   1.581  1.00  0.00     0.060 A 
ATOM      9  C   UNL     1       4.340   1.513   0.880  1.00  0.00     0.016 A 
ATOM     10  C   UNL     1       2.629   1.822   2.531  1.00  0.00     0.016 A 
ATOM     11  C   UNL     1       4.873   2.761   1.188  1.00  0.00     0.010 A 
ATOM     12  C   UNL     1       3.127   3.096   2.816  1.00  0.00     0.010 A 
ATOM     13  C   UNL     1       4.289   3.546   2.181  1.00  0.00    -0.014 A 
BRANCH  13  14
ATOM     14  C   UNL     1       5.039   4.715   2.682  1.00  0.00     0.031 A 
ATOM     15  C   UNL     1       5.764   4.564   3.982  1.00  0.00     0.074 A 
ATOM     16  C   UNL     1       5.154   5.832   1.945  1.00  0.00     0.049 A 
ATOM     17  N   UNL     1       6.532   5.414   4.606  1.00  0.00    -0.248 NA
ATOM     18  C   UNL     1       5.583   3.284   4.685  1.00  0.00     0.031 C 
ATOM     19  C   UNL     1       4.493   6.045   0.666  1.00  0.00     0.029 A 
ATOM     20  N   UNL     1       5.889   6.973   2.135  1.00  0.00    -0.354 N 
ATOM     21  C   UNL     1       6.866   4.799   5.803  1.00  0.00     0.074 A 
ATOM     22  C   UNL     1       6.226   3.505   5.817  1.00  0.00     0.031 C 
ATOM     23  C   UNL     1       4.896   7.217   0.151  1.00  0.00     0.029 A 
ATOM     24  C   UNL     1       5.848   7.834   1.062  1.00  0.00     0.049 A 
ATOM     25  H   UNL     1       6.396   7.159   2.958  1.00  0.00     0.167 HD
ATOM     26  C   UNL     1       7.626   5.290   6.807  1.00  0.00     0.037 A 
ATOM     27  C   UNL     1       6.537   8.970   0.839  1.00  0.00     0.037 A 
ATOM     28  C   UNL     1       8.262   6.576   6.753  1.00  0.00     0.049 A 
ATOM     29  C   UNL     1       7.447   9.456   1.937  1.00  0.00     0.074 A 
ATOM     30  C   UNL     1       9.015   7.214   7.718  1.00  0.00     0.029 A 
ATOM     31  N   UNL     1       8.216   7.423   5.650  1.00  0.00    -0.354 N 
ATOM     32  N   UNL     1       7.735   8.887   3.083  1.00  0.00    -0.248 NA
ATOM     33  C   UNL     1       8.103  10.753   1.726  1.00  0.00     0.031 C 
ATOM     34  C   UNL     1       9.392   8.465   7.214  1.00  0.00     0.029 A 
ATOM     35  C   UNL     1       8.924   8.582   5.913  1.00  0.00     0.049 A 
ATOM     36  H   UNL     1       7.749   7.226   4.806  1.00  0.00     0.167 HD
ATOM     37  C   UNL     1       8.596   9.756   3.736  1.00  0.00     0.074 A 
ATOM     38  C   UNL     1       8.825  10.867   2.832  1.00  0.00     0.031 C 
ATOM     39  C   UNL     1       9.127   9.663   4.981  1.00  0.00     0.037 A 
BRANCH  26  40
ATOM     40  C   UNL     1       7.698   4.462   8.056  1.00  0.00     0.064 A 
ATOM     41  C   UNL     1       8.357   3.224   8.098  1.00  0.00     0.173 A 
ATOM     42  C   UNL     1       7.001   4.873   9.202  1.00  0.00     0.173 A 
ATOM     43  F   UNL     1       9.004   2.765   7.015  1.00  0.00    -0.203 F 
ATOM     44  C   UNL     1       8.269   2.404   9.222  1.00  0.00     0.198 A 
ATOM     45  C   UNL     1       6.946   4.067  10.336  1.00  0.00     0.198 A 
ATOM     46  F   UNL     1       6.343   6.042   9.211  1.00  0.00    -0.203 F 
ATOM     47  F   UNL     1       8.825   1.185   9.204  1.00  0.00    -0.200 F 
ATOM     48  C   UNL     1       7.565   2.827  10.339  1.00  0.00     0.200 A 
ATOM     49  F   UNL     1       6.265   4.479  11.414  1.00  0.00    -0.200 F 
ATOM     50  F   UNL     1       7.462   2.028  11.410  1.00  0.00    -0.200 F 
ENDBRANCH  26  40
BRANCH  27  51
ATOM     51  C   UNL     1       6.449   9.683  -0.468  1.00  0.00     0.064 A 
ATOM     52  C   UNL     1       7.578   9.794  -1.296  1.00  0.00     0.173 A 
ATOM     53  C   UNL     1       5.260  10.270  -0.923  1.00  0.00     0.173 A 
ATOM     54  F   UNL     1       8.748   9.264  -0.909  1.00  0.00    -0.203 F 
ATOM     55  C   UNL     1       7.525  10.477  -2.511  1.00  0.00     0.198 A 
ATOM     56  C   UNL     1       5.199  10.923  -2.155  1.00  0.00     0.198 A 
ATOM     57  F   UNL     1       4.149  10.204  -0.176  1.00  0.00    -0.203 F 
ATOM     58  F   UNL     1       8.633  10.602  -3.256  1.00  0.00    -0.200 F 
ATOM     59  C   UNL     1       6.333  11.035  -2.944  1.00  0.00     0.200 A 
ATOM     60  F   UNL     1       4.040  11.448  -2.577  1.00  0.00    -0.200 F 
ATOM     61  F   UNL     1       6.280  11.683  -4.115  1.00  0.00    -0.200 F 
ENDBRANCH  27  51
BRANCH  39  62
ATOM     62  C   UNL     1      10.009  10.791   5.423  1.00  0.00     0.064 A 
ATOM     63  C   UNL     1       9.483  12.054   5.734  1.00  0.00     0.173 A 
ATOM     64  C   UNL     1      11.387  10.590   5.584  1.00  0.00     0.173 A 
ATOM     65  F   UNL     1       8.172  12.296   5.583  1.00  0.00    -0.203 F 
ATOM     66  C   UNL     1      10.313  13.085   6.162  1.00  0.00     0.198 A 
ATOM     67  C   UNL     1      12.208  11.614   6.043  1.00  0.00     0.198 A 
ATOM     68  F   UNL     1      11.933   9.396   5.307  1.00  0.00    -0.203 F 
ATOM     69  F   UNL     1       9.799  14.298   6.407  1.00  0.00    -0.200 F 
ATOM     70  C   UNL     1      11.672  12.862   6.325  1.00  0.00     0.200 A 
ATOM     71  F   UNL     1      13.519  11.393   6.214  1.00  0.00    -0.200 F 
ATOM     72  F   UNL     1      12.468  13.854   6.746  1.00  0.00    -0.200 F 
ENDBRANCH  39  62
ENDBRANCH  13  14
ENDBRANCH   6   8
ENDBRANCH   5   6
ENDBRANCH   4   5
ENDBRANCH   3   4
ENDBRANCH   2   3
ENDBRANCH   1   2
BRANCH   1  73
ATOM     73  C   UNL     1       2.109  -0.436  -3.218  1.00  0.00     0.188 C 
BRANCH  73  74
ATOM     74  O   UNL     1       2.856  -0.741  -4.386  1.00  0.00    -0.376 OA
BRANCH  74  75
ATOM     75  C   UNL     1       4.164  -0.194  -4.473  1.00  0.00     0.202 C 
BRANCH  75  76
ATOM     76  C   UNL     1       4.348   1.335  -4.496  1.00  0.00     0.261 C 
BRANCH  76  77
ATOM     77  O   UNL     1       3.651   2.128  -3.510  1.00  0.00    -0.463 OA
BRANCH  77  78
ATOM     78  C   UNL     1       2.565   2.804  -3.992  1.00  0.00     0.317 C 
ATOM     79  O   UNL     1       1.992   2.457  -5.028  1.00  0.00    -0.251 OA
BRANCH  78  80
ATOM     80  C   UNL     1       2.156   4.069  -3.157  1.00  0.00     0.102 C 
ATOM     81  C   UNL     1       0.992   4.720  -3.971  1.00  0.00     0.065 C 
ATOM     82  C   UNL     1       3.342   5.062  -3.138  1.00  0.00     0.012 A 
ATOM     83  C   UNL     1       0.900   6.224  -3.829  1.00  0.00     0.231 C 
ATOM     84  C   UNL     1       3.236   6.342  -3.701  1.00  0.00     0.123 A 
ATOM     85  C   UNL     1       4.598   4.697  -2.608  1.00  0.00     0.009 A 
ATOM     86  O   UNL     1       2.097   6.859  -4.251  1.00  0.00    -0.493 OA
ATOM     87  C   UNL     1       4.345   7.191  -3.790  1.00  0.00     0.047 A 
ATOM     88  C   UNL     1       5.711   5.539  -2.713  1.00  0.00     0.001 A 
ATOM     89  C   UNL     1       5.587   6.784  -3.314  1.00  0.00     0.004 A 
BRANCH  80  90
ATOM     90  C   UNL     1       1.715   3.700  -1.687  1.00  0.00     0.011 C 
ATOM     91  C   UNL     1       1.093   4.849  -0.874  1.00  0.00     0.005 C 
ATOM     92  C   UNL     1       0.611   2.640  -1.517  1.00  0.00     0.005 C 
ATOM     93  C   UNL     1       0.546   4.187   0.377  1.00  0.00     0.000 C 
ATOM     94  C   UNL     1       0.069   2.820  -0.092  1.00  0.00     0.000 C 
ENDBRANCH  80  90
ENDBRANCH  78  80
ENDBRANCH  77  78
ENDBRANCH  76  77
ENDBRANCH  75  76
ENDBRANCH  74  75
ENDBRANCH  73  74
ENDBRANCH   1  73
TORSDOF 18
