REMARK SMILES CC(C)(C)[NH+]1CCN(C(=O)CCCC(=O)OCCOCCOCCOC(=O)c2ccc(-c3c4nc(c(-c5c(F)c(F)c(F)c(F)c5F)c5ccc([nH]5)c(-c5c(F)c(F)c(F)c(F)c5F)c5nc(c(-c6c(F)c(F)c(F)c(F)c6F)c6ccc3[nH]6)C=C5)C=C4)cc2)CC1
REMARK SMILES IDX 20 1 19 2 18 3 17 4 16 5 14 6 15 7 13 8 12 9 11 10 9 11 5 12
REMARK SMILES IDX 6 13 92 14 7 16 91 17 8 18 10 19 2 20 1 21 3 22 4 23 21 24
REMARK SMILES IDX 22 25 23 26 24 27 25 28 26 29 27 30 28 31 29 32 90 33 30 34
REMARK SMILES IDX 89 35 31 36 32 37 33 38 83 39 34 40 88 41 82 42 84 43 35 44
REMARK SMILES IDX 87 45 81 46 80 47 36 49 68 50 48 51 67 52 49 53 52 54 66 55
REMARK SMILES IDX 85 56 50 57 51 58 65 60 86 61 53 62 37 63 38 64 46 65 39 66
REMARK SMILES IDX 40 67 44 68 47 69 41 70 42 71 45 72 43 73 69 74 70 75 78 76
REMARK SMILES IDX 71 77 72 78 76 79 79 80 73 81 74 82 77 83 75 84 54 85 55 86
REMARK SMILES IDX 63 87 56 88 57 89 61 90 64 91 58 92 59 93 62 94 60 95
REMARK H PARENT 5 15 84 48 52 59
REMARK Flexibility Score: inf
ROOT
ATOM      1  C   UNL     1      -0.609   8.980  -0.459  1.00  0.00     0.188 C 
ENDROOT
BRANCH   1   2
ATOM      2  O   UNL     1      -0.056   8.660   0.817  1.00  0.00    -0.376 OA
BRANCH   2   3
ATOM      3  C   UNL     1       0.885   7.596   0.903  1.00  0.00     0.202 C 
BRANCH   3   4
ATOM      4  C   UNL     1       0.402   6.242   0.388  1.00  0.00     0.261 C 
BRANCH   4   5
ATOM      5  O   UNL     1       0.064   6.283  -1.016  1.00  0.00    -0.463 OA
BRANCH   5   6
ATOM      6  C   UNL     1      -1.117   5.754  -1.406  1.00  0.00     0.305 C 
ATOM      7  O   UNL     1      -1.941   5.280  -0.632  1.00  0.00    -0.252 OA
BRANCH   6   8
ATOM      8  C   UNL     1      -1.355   5.750  -2.915  1.00  0.00     0.123 C 
BRANCH   8   9
ATOM      9  C   UNL     1      -0.347   6.147  -4.012  1.00  0.00     0.022 C 
BRANCH   9  10
ATOM     10  C   UNL     1       1.154   5.854  -3.924  1.00  0.00     0.101 C 
BRANCH  10  11
ATOM     11  C   UNL     1       1.619   4.465  -4.372  1.00  0.00     0.222 C 
ATOM     12  N   UNL     1       1.792   1.349  -1.383  1.00  0.00    -0.328 N 
ATOM     13  C   UNL     1       2.681   1.372  -2.559  1.00  0.00     0.284 C 
ATOM     14  C   UNL     1       1.446   2.718  -1.025  1.00  0.00     0.284 C 
ATOM     15  H   UNL     1       2.349   0.933  -0.637  1.00  0.00     0.348 HD
ATOM     16  C   UNL     1       2.119   2.115  -3.790  1.00  0.00     0.181 C 
ATOM     17  C   UNL     1       0.882   3.515  -2.196  1.00  0.00     0.181 C 
ATOM     18  N   UNL     1       1.615   3.441  -3.440  1.00  0.00    -0.331 N 
ATOM     19  O   UNL     1       2.027   4.298  -5.523  1.00  0.00    -0.275 OA
BRANCH  12  20
ATOM     20  C   UNL     1       0.735   0.321  -1.259  1.00  0.00     0.089 C 
ATOM     21  C   UNL     1       1.062  -0.380   0.078  1.00  0.00     0.078 C 
ATOM     22  C   UNL     1       0.746  -0.746  -2.371  1.00  0.00     0.078 C 
ATOM     23  C   UNL     1      -0.728   0.826  -1.155  1.00  0.00     0.078 C 
ENDBRANCH  12  20
ENDBRANCH  10  11
ENDBRANCH   9  10
ENDBRANCH   8   9
ENDBRANCH   6   8
ENDBRANCH   5   6
ENDBRANCH   4   5
ENDBRANCH   3   4
ENDBRANCH   2   3
ENDBRANCH   1   2
BRANCH   1  24
ATOM     24  C   UNL     1       0.329   8.997  -1.681  1.00  0.00     0.188 C 
BRANCH  24  25
ATOM     25  O   UNL     1       1.688   9.166  -1.334  1.00  0.00    -0.376 OA
BRANCH  25  26
ATOM     26  C   UNL     1       2.303  10.360  -1.783  1.00  0.00     0.202 C 
BRANCH  26  27
ATOM     27  C   UNL     1       1.757  11.654  -1.162  1.00  0.00     0.261 C 
BRANCH  27  28
ATOM     28  O   UNL     1       0.330  11.843  -1.240  1.00  0.00    -0.460 OA
BRANCH  28  29
ATOM     29  C   UNL     1      -0.224  12.059  -2.456  1.00  0.00     0.338 C 
ATOM     30  O   UNL     1       0.366  12.166  -3.517  1.00  0.00    -0.246 OA
BRANCH  29  31
ATOM     31  C   UNL     1      -1.695  11.885  -2.319  1.00  0.00     0.060 A 
ATOM     32  C   UNL     1      -2.360  10.991  -3.174  1.00  0.00     0.016 A 
ATOM     33  C   UNL     1      -2.409  12.554  -1.323  1.00  0.00     0.016 A 
ATOM     34  C   UNL     1      -3.741  10.792  -3.054  1.00  0.00     0.010 A 
ATOM     35  C   UNL     1      -3.793  12.372  -1.218  1.00  0.00     0.010 A 
ATOM     36  C   UNL     1      -4.473  11.515  -2.102  1.00  0.00    -0.014 A 
BRANCH  36  37
ATOM     37  C   UNL     1      -5.958  11.571  -2.176  1.00  0.00     0.031 A 
ATOM     38  C   UNL     1      -6.579  12.719  -2.928  1.00  0.00     0.074 A 
ATOM     39  C   UNL     1      -6.747  10.654  -1.586  1.00  0.00     0.049 A 
ATOM     40  N   UNL     1      -7.838  13.054  -3.054  1.00  0.00    -0.248 NA
ATOM     41  C   UNL     1      -5.646  13.618  -3.628  1.00  0.00     0.031 C 
ATOM     42  C   UNL     1      -6.286   9.470  -0.867  1.00  0.00     0.029 A 
ATOM     43  N   UNL     1      -8.118  10.592  -1.491  1.00  0.00    -0.354 N 
ATOM     44  C   UNL     1      -7.845  14.207  -3.828  1.00  0.00     0.074 A 
ATOM     45  C   UNL     1      -6.468  14.525  -4.132  1.00  0.00     0.031 C 
ATOM     46  C   UNL     1      -7.355   8.807  -0.387  1.00  0.00     0.029 A 
ATOM     47  C   UNL     1      -8.574   9.539  -0.735  1.00  0.00     0.049 A 
ATOM     48  H   UNL     1      -8.718  11.242  -1.924  1.00  0.00     0.167 HD
ATOM     49  C   UNL     1      -8.903  14.938  -4.249  1.00  0.00     0.037 A 
ATOM     50  C   UNL     1      -9.827   9.223  -0.347  1.00  0.00     0.037 A 
ATOM     51  C   UNL     1     -10.276  14.620  -3.963  1.00  0.00     0.049 A 
ATOM     52  C   UNL     1     -10.984  10.099  -0.771  1.00  0.00     0.074 A 
ATOM     53  C   UNL     1     -11.417  15.280  -4.384  1.00  0.00     0.029 A 
ATOM     54  N   UNL     1     -10.692  13.559  -3.175  1.00  0.00    -0.354 N 
ATOM     55  N   UNL     1     -10.985  11.162  -1.538  1.00  0.00    -0.248 NA
ATOM     56  C   UNL     1     -12.317   9.728  -0.269  1.00  0.00     0.031 C 
ATOM     57  C   UNL     1     -12.523  14.651  -3.805  1.00  0.00     0.029 A 
ATOM     58  C   UNL     1     -12.073  13.566  -3.071  1.00  0.00     0.049 A 
ATOM     59  H   UNL     1     -10.095  12.900  -2.753  1.00  0.00     0.167 HD
ATOM     60  C   UNL     1     -12.314  11.559  -1.642  1.00  0.00     0.074 A 
ATOM     61  C   UNL     1     -13.094  10.619  -0.868  1.00  0.00     0.031 C 
ATOM     62  C   UNL     1     -12.842  12.608  -2.320  1.00  0.00     0.037 A 
BRANCH  49  63
ATOM     63  C   UNL     1      -8.622  16.178  -5.042  1.00  0.00     0.064 A 
ATOM     64  C   UNL     1      -8.181  16.122  -6.372  1.00  0.00     0.173 A 
ATOM     65  C   UNL     1      -8.850  17.442  -4.476  1.00  0.00     0.173 A 
ATOM     66  F   UNL     1      -7.932  14.938  -6.951  1.00  0.00    -0.203 F 
ATOM     67  C   UNL     1      -7.966  17.287  -7.103  1.00  0.00     0.198 A 
ATOM     68  C   UNL     1      -8.660  18.604  -5.218  1.00  0.00     0.198 A 
ATOM     69  F   UNL     1      -9.272  17.548  -3.207  1.00  0.00    -0.203 F 
ATOM     70  F   UNL     1      -7.511  17.213  -8.361  1.00  0.00    -0.200 F 
ATOM     71  C   UNL     1      -8.215  18.526  -6.529  1.00  0.00     0.200 A 
ATOM     72  F   UNL     1      -8.912  19.798  -4.665  1.00  0.00    -0.200 F 
ATOM     73  F   UNL     1      -8.021  19.646  -7.239  1.00  0.00    -0.200 F 
ENDBRANCH  49  63
BRANCH  50  74
ATOM     74  C   UNL     1     -10.078   8.034   0.516  1.00  0.00     0.064 A 
ATOM     75  C   UNL     1     -10.819   6.941   0.042  1.00  0.00     0.173 A 
ATOM     76  C   UNL     1      -9.652   8.000   1.851  1.00  0.00     0.173 A 
ATOM     77  F   UNL     1     -11.282   6.942  -1.218  1.00  0.00    -0.203 F 
ATOM     78  C   UNL     1     -11.150   5.876   0.878  1.00  0.00     0.198 A 
ATOM     79  C   UNL     1      -9.957   6.919   2.678  1.00  0.00     0.198 A 
ATOM     80  F   UNL     1      -8.952   9.024   2.360  1.00  0.00    -0.203 F 
ATOM     81  F   UNL     1     -11.919   4.880   0.417  1.00  0.00    -0.200 F 
ATOM     82  C   UNL     1     -10.716   5.864   2.195  1.00  0.00     0.200 A 
ATOM     83  F   UNL     1      -9.532   6.910   3.949  1.00  0.00    -0.200 F 
ATOM     84  F   UNL     1     -11.045   4.846   3.002  1.00  0.00    -0.200 F 
ENDBRANCH  50  74
BRANCH  62  85
ATOM     85  C   UNL     1     -14.336  12.768  -2.311  1.00  0.00     0.064 A 
ATOM     86  C   UNL     1     -15.029  13.186  -1.166  1.00  0.00     0.173 A 
ATOM     87  C   UNL     1     -15.077  12.550  -3.483  1.00  0.00     0.173 A 
ATOM     88  F   UNL     1     -14.370  13.396  -0.016  1.00  0.00    -0.203 F 
ATOM     89  C   UNL     1     -16.412  13.355  -1.188  1.00  0.00     0.198 A 
ATOM     90  C   UNL     1     -16.454  12.752  -3.511  1.00  0.00     0.198 A 
ATOM     91  F   UNL     1     -14.461  12.160  -4.610  1.00  0.00    -0.203 F 
ATOM     92  F   UNL     1     -17.059  13.711  -0.070  1.00  0.00    -0.200 F 
ATOM     93  C   UNL     1     -17.121  13.147  -2.362  1.00  0.00     0.200 A 
ATOM     94  F   UNL     1     -17.134  12.566  -4.651  1.00  0.00    -0.200 F 
ATOM     95  F   UNL     1     -18.450  13.321  -2.384  1.00  0.00    -0.200 F 
ENDBRANCH  62  85
ENDBRANCH  36  37
ENDBRANCH  29  31
ENDBRANCH  28  29
ENDBRANCH  27  28
ENDBRANCH  26  27
ENDBRANCH  25  26
ENDBRANCH  24  25
ENDBRANCH   1  24
TORSDOF 21
