REMARK SMILES C[C@@H]1C[N@@H+](Cc2cccc(C(=O)OCCOCCOCCOC(=O)c3ccc(-c4c5nc(c(-c6c(F)c(F)c(F)c(F)c6F)c6ccc([nH]6)c(-c6c(F)c(F)c(F)c(F)c6F)c6nc(c(-c7c(F)c(F)c(F)c(F)c7F)c7ccc4[nH]7)C=C6)C=C5)cc3)c2)CCN1C(=O)OC(C)(C)C
REMARK SMILES IDX 16 1 15 2 14 3 13 4 11 5 12 6 10 7 6 8 7 9 88 10 8 11 9 12
REMARK SMILES IDX 5 13 4 14 1 15 2 16 3 17 91 18 90 19 89 20 92 22 93 23 94 24
REMARK SMILES IDX 95 25 96 26 97 27 98 28 17 29 18 30 19 31 20 32 21 33 22 34
REMARK SMILES IDX 23 35 24 36 25 37 26 38 87 39 27 40 86 41 28 42 29 43 30 44
REMARK SMILES IDX 80 45 31 46 85 47 79 48 81 49 32 50 84 51 78 52 77 53 33 55
REMARK SMILES IDX 65 56 45 57 64 58 46 59 49 60 63 61 82 62 47 63 48 64 62 66
REMARK SMILES IDX 83 67 50 68 34 69 35 70 43 71 36 72 37 73 41 74 44 75 38 76
REMARK SMILES IDX 39 77 42 78 40 79 66 80 67 81 75 82 68 83 69 84 73 85 76 86
REMARK SMILES IDX 70 87 71 88 74 89 72 90 51 91 52 92 60 93 53 94 54 95 58 96
REMARK SMILES IDX 61 97 55 98 56 99 59 100 57 101
REMARK H PARENT 4 21 81 54 49 65
REMARK Flexibility Score: inf
ROOT
ATOM      1  O   UNL     1      -4.440   7.636  -4.070  1.00  0.00    -0.376 OA
ENDROOT
BRANCH   1   2
ATOM      2  C   UNL     1      -3.111   7.984  -3.711  1.00  0.00     0.202 C 
BRANCH   2   3
ATOM      3  C   UNL     1      -2.370   7.316  -2.544  1.00  0.00     0.261 C 
BRANCH   3   4
ATOM      4  O   UNL     1      -2.549   5.902  -2.451  1.00  0.00    -0.460 OA
BRANCH   4   5
ATOM      5  C   UNL     1      -3.318   5.463  -1.418  1.00  0.00     0.338 C 
ATOM      6  O   UNL     1      -3.824   6.135  -0.546  1.00  0.00    -0.246 OA
BRANCH   5   7
ATOM      7  C   UNL     1      -3.584   4.011  -1.592  1.00  0.00     0.060 A 
ATOM      8  C   UNL     1      -2.795   1.807  -2.243  1.00  0.00     0.007 A 
ATOM      9  C   UNL     1      -3.987   1.256  -1.757  1.00  0.00     0.009 A 
ATOM     10  C   UNL     1      -2.674   3.198  -2.263  1.00  0.00     0.025 A 
ATOM     11  C   UNL     1      -4.977   2.080  -1.211  1.00  0.00     0.001 A 
ATOM     12  C   UNL     1      -4.754   3.452  -1.080  1.00  0.00     0.016 A 
BRANCH   8  13
ATOM     13  C   UNL     1      -1.610   0.939  -2.627  1.00  0.00     0.299 C 
BRANCH  13  14
ATOM     14  N   UNL     1      -0.384   1.132  -1.815  1.00  0.00    -0.328 N 
ATOM     15  C   UNL     1       1.560   0.086   0.433  1.00  0.00     0.037 C 
ATOM     16  C   UNL     1       0.640   1.307   0.511  1.00  0.00     0.140 C 
ATOM     17  C   UNL     1      -0.640   1.099  -0.352  1.00  0.00     0.287 C 
ATOM     18  N   UNL     1       1.323   2.530   0.054  1.00  0.00    -0.294 N 
ATOM     19  C   UNL     1       1.677   2.525  -1.363  1.00  0.00     0.185 C 
ATOM     20  C   UNL     1       0.406   2.324  -2.200  1.00  0.00     0.284 C 
ATOM     21  H   UNL     1       0.195   0.321  -2.035  1.00  0.00     0.348 HD
BRANCH  18  22
ATOM     22  C   UNL     1       1.290   3.739   0.730  1.00  0.00     0.410 C 
ATOM     23  O   UNL     1       1.596   4.804   0.206  1.00  0.00    -0.224 OA
BRANCH  22  24
ATOM     24  O   UNL     1       0.902   3.617   2.029  1.00  0.00    -0.444 OA
BRANCH  24  25
ATOM     25  C   UNL     1       0.930   4.772   2.915  1.00  0.00     0.106 C 
ATOM     26  C   UNL     1       2.340   5.373   3.013  1.00  0.00     0.056 C 
ATOM     27  C   UNL     1      -0.110   5.824   2.509  1.00  0.00     0.056 C 
ATOM     28  C   UNL     1       0.549   4.228   4.302  1.00  0.00     0.056 C 
ENDBRANCH  24  25
ENDBRANCH  22  24
ENDBRANCH  18  22
ENDBRANCH  13  14
ENDBRANCH   8  13
ENDBRANCH   5   7
ENDBRANCH   4   5
ENDBRANCH   3   4
ENDBRANCH   2   3
ENDBRANCH   1   2
BRANCH   1  29
ATOM     29  C   UNL     1      -4.859   6.285  -4.090  1.00  0.00     0.188 C 
BRANCH  29  30
ATOM     30  C   UNL     1      -4.080   5.224  -4.893  1.00  0.00     0.188 C 
BRANCH  30  31
ATOM     31  O   UNL     1      -2.893   5.611  -5.535  1.00  0.00    -0.376 OA
BRANCH  31  32
ATOM     32  C   UNL     1      -2.949   6.328  -6.755  1.00  0.00     0.202 C 
BRANCH  32  33
ATOM     33  C   UNL     1      -4.222   6.616  -7.581  1.00  0.00     0.261 C 
BRANCH  33  34
ATOM     34  O   UNL     1      -5.501   6.430  -6.965  1.00  0.00    -0.460 OA
BRANCH  34  35
ATOM     35  C   UNL     1      -6.186   5.322  -7.345  1.00  0.00     0.338 C 
ATOM     36  O   UNL     1      -5.830   4.465  -8.134  1.00  0.00    -0.246 OA
BRANCH  35  37
ATOM     37  C   UNL     1      -7.390   5.188  -6.498  1.00  0.00     0.060 A 
ATOM     38  C   UNL     1      -7.468   4.119  -5.593  1.00  0.00     0.016 A 
ATOM     39  C   UNL     1      -8.447   6.090  -6.618  1.00  0.00     0.016 A 
ATOM     40  C   UNL     1      -8.616   3.936  -4.820  1.00  0.00     0.010 A 
ATOM     41  C   UNL     1      -9.606   5.890  -5.861  1.00  0.00     0.010 A 
ATOM     42  C   UNL     1      -9.708   4.798  -4.979  1.00  0.00    -0.014 A 
BRANCH  42  43
ATOM     43  C   UNL     1     -11.017   4.462  -4.363  1.00  0.00     0.031 A 
ATOM     44  C   UNL     1     -12.065   3.803  -5.221  1.00  0.00     0.074 A 
ATOM     45  C   UNL     1     -11.277   4.732  -3.071  1.00  0.00     0.049 A 
ATOM     46  N   UNL     1     -13.305   3.498  -4.935  1.00  0.00    -0.248 NA
ATOM     47  C   UNL     1     -11.658   3.443  -6.589  1.00  0.00     0.031 C 
ATOM     48  C   UNL     1     -10.338   5.327  -2.125  1.00  0.00     0.029 A 
ATOM     49  N   UNL     1     -12.427   4.554  -2.338  1.00  0.00    -0.354 N 
ATOM     50  C   UNL     1     -13.829   2.929  -6.089  1.00  0.00     0.074 A 
ATOM     51  C   UNL     1     -12.781   2.946  -7.086  1.00  0.00     0.031 C 
ATOM     52  C   UNL     1     -10.955   5.488  -0.941  1.00  0.00     0.029 A 
ATOM     53  C   UNL     1     -12.343   5.042  -1.056  1.00  0.00     0.049 A 
ATOM     54  H   UNL     1     -13.233   4.118  -2.697  1.00  0.00     0.167 HD
ATOM     55  C   UNL     1     -15.071   2.434  -6.296  1.00  0.00     0.037 A 
ATOM     56  C   UNL     1     -13.290   5.146  -0.102  1.00  0.00     0.037 A 
ATOM     57  C   UNL     1     -16.111   2.407  -5.301  1.00  0.00     0.049 A 
ATOM     58  C   UNL     1     -14.688   4.649  -0.386  1.00  0.00     0.074 A 
ATOM     59  C   UNL     1     -17.392   1.894  -5.409  1.00  0.00     0.029 A 
ATOM     60  N   UNL     1     -15.993   2.923  -4.021  1.00  0.00    -0.354 N 
ATOM     61  N   UNL     1     -15.164   4.076  -1.465  1.00  0.00    -0.248 NA
ATOM     62  C   UNL     1     -15.681   4.810   0.687  1.00  0.00     0.031 C 
ATOM     63  C   UNL     1     -18.069   2.156  -4.215  1.00  0.00     0.029 A 
ATOM     64  C   UNL     1     -17.189   2.768  -3.339  1.00  0.00     0.049 A 
ATOM     65  H   UNL     1     -15.180   3.338  -3.651  1.00  0.00     0.167 HD
ATOM     66  C   UNL     1     -16.492   3.775  -1.187  1.00  0.00     0.074 A 
ATOM     67  C   UNL     1     -16.745   4.215   0.168  1.00  0.00     0.031 C 
ATOM     68  C   UNL     1     -17.421   3.188  -1.981  1.00  0.00     0.037 A 
BRANCH  55  69
ATOM     69  C   UNL     1     -15.398   1.899  -7.660  1.00  0.00     0.064 A 
ATOM     70  C   UNL     1     -14.870   0.686  -8.124  1.00  0.00     0.173 A 
ATOM     71  C   UNL     1     -16.315   2.574  -8.480  1.00  0.00     0.173 A 
ATOM     72  F   UNL     1     -13.979   0.009  -7.384  1.00  0.00    -0.203 F 
ATOM     73  C   UNL     1     -15.242   0.173  -9.365  1.00  0.00     0.198 A 
ATOM     74  C   UNL     1     -16.707   2.043  -9.706  1.00  0.00     0.198 A 
ATOM     75  F   UNL     1     -16.852   3.737  -8.080  1.00  0.00    -0.203 F 
ATOM     76  F   UNL     1     -14.702  -0.973  -9.802  1.00  0.00    -0.200 F 
ATOM     77  C   UNL     1     -16.168   0.845 -10.148  1.00  0.00     0.200 A 
ATOM     78  F   UNL     1     -17.614   2.687 -10.454  1.00  0.00    -0.200 F 
ATOM     79  F   UNL     1     -16.541   0.339 -11.331  1.00  0.00    -0.200 F 
ENDBRANCH  55  69
BRANCH  56  80
ATOM     80  C   UNL     1     -12.975   5.777   1.210  1.00  0.00     0.064 A 
ATOM     81  C   UNL     1     -13.033   5.040   2.402  1.00  0.00     0.173 A 
ATOM     82  C   UNL     1     -12.681   7.146   1.307  1.00  0.00     0.173 A 
ATOM     83  F   UNL     1     -13.340   3.735   2.368  1.00  0.00    -0.203 F 
ATOM     84  C   UNL     1     -12.849   5.654   3.640  1.00  0.00     0.198 A 
ATOM     85  C   UNL     1     -12.460   7.751   2.543  1.00  0.00     0.198 A 
ATOM     86  F   UNL     1     -12.619   7.900   0.200  1.00  0.00    -0.203 F 
ATOM     87  F   UNL     1     -12.986   4.941   4.766  1.00  0.00    -0.200 F 
ATOM     88  C   UNL     1     -12.559   7.008   3.709  1.00  0.00     0.200 A 
ATOM     89  F   UNL     1     -12.171   9.058   2.604  1.00  0.00    -0.200 F 
ATOM     90  F   UNL     1     -12.393   7.601   4.900  1.00  0.00    -0.200 F 
ENDBRANCH  56  80
BRANCH  68  91
ATOM     91  C   UNL     1     -18.780   2.927  -1.393  1.00  0.00     0.064 A 
ATOM     92  C   UNL     1     -19.676   3.966  -1.102  1.00  0.00     0.173 A 
ATOM     93  C   UNL     1     -19.207   1.610  -1.159  1.00  0.00     0.173 A 
ATOM     94  F   UNL     1     -19.315   5.244  -1.295  1.00  0.00    -0.203 F 
ATOM     95  C   UNL     1     -20.936   3.699  -0.571  1.00  0.00     0.198 A 
ATOM     96  C   UNL     1     -20.480   1.344  -0.663  1.00  0.00     0.198 A 
ATOM     97  F   UNL     1     -18.395   0.577  -1.430  1.00  0.00    -0.203 F 
ATOM     98  F   UNL     1     -21.754   4.710  -0.251  1.00  0.00    -0.200 F 
ATOM     99  C   UNL     1     -21.340   2.389  -0.360  1.00  0.00     0.200 A 
ATOM    100  F   UNL     1     -20.875   0.077  -0.479  1.00  0.00    -0.200 F 
ATOM    101  F   UNL     1     -22.556   2.133   0.141  1.00  0.00    -0.200 F 
ENDBRANCH  68  91
ENDBRANCH  42  43
ENDBRANCH  35  37
ENDBRANCH  34  35
ENDBRANCH  33  34
ENDBRANCH  32  33
ENDBRANCH  31  32
ENDBRANCH  30  31
ENDBRANCH  29  30
ENDBRANCH   1  29
TORSDOF 22
