REMARK SMILES C[NH2+][C@]1(C(=O)OCCOCCOCCOC(=O)c2ccc(-c3c4nc(c(-c5c(F)c(F)c(F)c(F)c5F)c5ccc([nH]5)c(-c5c(F)c(F)c(F)c(F)c5F)c5nc(c(-c6c(F)c(F)c(F)c(F)c6F)c6ccc3[nH]6)C=C5)C=C4)cc2)CCC[C@@H]1CCOC[C@@H]1CCCO1
REMARK SMILES IDX 9 1 8 2 7 3 6 4 4 5 5 6 3 7 81 8 84 9 82 10 83 11 2 12 1 13
REMARK SMILES IDX 85 16 86 17 87 18 88 19 89 20 90 21 93 22 91 23 92 24 10 25
REMARK SMILES IDX 11 26 12 27 13 28 14 29 15 30 16 31 17 32 18 33 19 34 80 35
REMARK SMILES IDX 20 36 79 37 21 38 22 39 23 40 73 41 24 42 78 43 72 44 74 45
REMARK SMILES IDX 25 46 77 47 71 48 70 49 26 51 58 52 38 53 57 54 39 55 42 56
REMARK SMILES IDX 56 57 75 58 40 59 41 60 55 62 76 63 43 64 27 65 28 66 36 67
REMARK SMILES IDX 29 68 30 69 34 70 37 71 31 72 32 73 35 74 33 75 59 76 60 77
REMARK SMILES IDX 68 78 61 79 62 80 66 81 69 82 63 83 64 84 67 85 65 86 44 87
REMARK SMILES IDX 45 88 53 89 46 90 47 91 51 92 54 93 48 94 49 95 52 96 50 97
REMARK H PARENT 2 14 2 15 74 50 42 61
REMARK Flexibility Score: inf
ROOT
ATOM      1  O   UNL     1       3.307  -0.487   1.473  1.00  0.00    -0.376 OA
ENDROOT
BRANCH   1   2
ATOM      2  C   UNL     1       3.474  -0.825   0.104  1.00  0.00     0.202 C 
BRANCH   2   3
ATOM      3  C   UNL     1       2.472  -1.741  -0.626  1.00  0.00     0.261 C 
BRANCH   3   4
ATOM      4  O   UNL     1       1.080  -1.377  -0.551  1.00  0.00    -0.459 OA
BRANCH   4   5
ATOM      5  C   UNL     1       0.333  -2.106   0.326  1.00  0.00     0.368 C 
ATOM      6  O   UNL     1       0.794  -3.031   0.990  1.00  0.00    -0.245 OA
BRANCH   5   7
ATOM      7  C   UNL     1      -1.151  -1.616   0.458  1.00  0.00     0.197 C 
ATOM      8  C   UNL     1      -1.606  -0.436  -0.463  1.00  0.00     0.081 C 
ATOM      9  C   UNL     1      -2.068  -2.692  -0.165  1.00  0.00     0.065 C 
ATOM     10  C   UNL     1      -3.135  -0.574  -0.575  1.00  0.00     0.008 C 
ATOM     11  C   UNL     1      -3.446  -2.017  -0.177  1.00  0.00     0.011 C 
BRANCH   7  12
ATOM     12  N   UNL     1      -1.423  -1.156   1.857  1.00  0.00    -0.334 N 
ATOM     13  C   UNL     1      -1.654  -2.195   2.846  1.00  0.00     0.331 C 
ATOM     14  H   UNL     1      -0.619  -0.608   2.165  1.00  0.00     0.347 HD
ATOM     15  H   UNL     1      -2.297  -0.633   1.805  1.00  0.00     0.347 HD
ENDBRANCH   7  12
BRANCH   9  16
ATOM     16  C   UNL     1      -2.034  -4.124   0.371  1.00  0.00     0.039 C 
BRANCH  16  17
ATOM     17  C   UNL     1      -1.780  -5.201  -0.700  1.00  0.00     0.161 C 
BRANCH  17  18
ATOM     18  O   UNL     1      -0.584  -5.033  -1.441  1.00  0.00    -0.379 OA
BRANCH  18  19
ATOM     19  C   UNL     1      -0.561  -4.395  -2.720  1.00  0.00     0.192 C 
BRANCH  19  20
ATOM     20  C   UNL     1      -1.766  -4.436  -3.683  1.00  0.00     0.144 C 
ATOM     21  C   UNL     1      -2.931  -3.521  -3.355  1.00  0.00     0.037 C 
ATOM     22  O   UNL     1      -2.321  -5.752  -3.837  1.00  0.00    -0.376 OA
ATOM     23  C   UNL     1      -4.082  -4.169  -4.069  1.00  0.00     0.031 C 
ATOM     24  C   UNL     1      -3.753  -5.637  -3.894  1.00  0.00     0.160 C 
ENDBRANCH  19  20
ENDBRANCH  18  19
ENDBRANCH  17  18
ENDBRANCH  16  17
ENDBRANCH   9  16
ENDBRANCH   5   7
ENDBRANCH   4   5
ENDBRANCH   3   4
ENDBRANCH   2   3
ENDBRANCH   1   2
BRANCH   1  25
ATOM     25  C   UNL     1       2.064   0.011   1.942  1.00  0.00     0.188 C 
BRANCH  25  26
ATOM     26  C   UNL     1       1.255   0.977   1.066  1.00  0.00     0.188 C 
BRANCH  26  27
ATOM     27  O   UNL     1       1.879   1.448  -0.097  1.00  0.00    -0.376 OA
BRANCH  27  28
ATOM     28  C   UNL     1       2.579   2.673  -0.070  1.00  0.00     0.202 C 
BRANCH  28  29
ATOM     29  C   UNL     1       3.071   3.376   1.212  1.00  0.00     0.261 C 
BRANCH  29  30
ATOM     30  O   UNL     1       2.570   2.938   2.482  1.00  0.00    -0.460 OA
BRANCH  30  31
ATOM     31  C   UNL     1       1.438   3.530   2.942  1.00  0.00     0.338 C 
ATOM     32  O   UNL     1       0.794   4.402   2.399  1.00  0.00    -0.246 OA
BRANCH  31  33
ATOM     33  C   UNL     1       0.977   2.772   4.135  1.00  0.00     0.060 A 
ATOM     34  C   UNL     1      -0.255   2.103   4.084  1.00  0.00     0.016 A 
ATOM     35  C   UNL     1       1.754   2.721   5.292  1.00  0.00     0.016 A 
ATOM     36  C   UNL     1      -0.727   1.405   5.200  1.00  0.00     0.010 A 
ATOM     37  C   UNL     1       1.269   2.046   6.417  1.00  0.00     0.010 A 
ATOM     38  C   UNL     1       0.013   1.411   6.389  1.00  0.00    -0.014 A 
BRANCH  38  39
ATOM     39  C   UNL     1      -0.602   0.934   7.656  1.00  0.00     0.031 A 
ATOM     40  C   UNL     1      -1.171   1.960   8.600  1.00  0.00     0.074 A 
ATOM     41  C   UNL     1      -0.658  -0.371   7.973  1.00  0.00     0.049 A 
ATOM     42  N   UNL     1      -1.658   1.809   9.805  1.00  0.00    -0.248 NA
ATOM     43  C   UNL     1      -1.187   3.349   8.114  1.00  0.00     0.031 C 
ATOM     44  C   UNL     1      -0.196  -1.469   7.130  1.00  0.00     0.029 A 
ATOM     45  N   UNL     1      -1.116  -0.989   9.113  1.00  0.00    -0.354 N 
ATOM     46  C   UNL     1      -2.021   3.082  10.227  1.00  0.00     0.074 A 
ATOM     47  C   UNL     1      -1.675   3.996   9.161  1.00  0.00     0.031 C 
ATOM     48  C   UNL     1      -0.372  -2.628   7.790  1.00  0.00     0.029 A 
ATOM     49  C   UNL     1      -0.921  -2.349   9.117  1.00  0.00     0.049 A 
ATOM     50  H   UNL     1      -1.544  -0.503   9.855  1.00  0.00     0.167 HD
ATOM     51  C   UNL     1      -2.596   3.455  11.395  1.00  0.00     0.037 A 
ATOM     52  C   UNL     1      -1.130  -3.255  10.094  1.00  0.00     0.037 A 
ATOM     53  C   UNL     1      -2.937   2.545  12.457  1.00  0.00     0.049 A 
ATOM     54  C   UNL     1      -1.688  -2.803  11.423  1.00  0.00     0.074 A 
ATOM     55  C   UNL     1      -3.536   2.825  13.673  1.00  0.00     0.029 A 
ATOM     56  N   UNL     1      -2.697   1.179  12.435  1.00  0.00    -0.354 N 
ATOM     57  N   UNL     1      -2.049  -1.603  11.809  1.00  0.00    -0.248 NA
ATOM     58  C   UNL     1      -1.871  -3.838  12.452  1.00  0.00     0.031 C 
ATOM     59  C   UNL     1      -3.600   1.640  14.412  1.00  0.00     0.029 A 
ATOM     60  C   UNL     1      -3.108   0.608  13.629  1.00  0.00     0.049 A 
ATOM     61  H   UNL     1      -2.294   0.688  11.683  1.00  0.00     0.167 HD
ATOM     62  C   UNL     1      -2.530  -1.744  13.106  1.00  0.00     0.074 A 
ATOM     63  C   UNL     1      -2.429  -3.149  13.437  1.00  0.00     0.031 C 
ATOM     64  C   UNL     1      -3.016  -0.795  13.945  1.00  0.00     0.037 A 
BRANCH  51  65
ATOM     65  C   UNL     1      -2.860   4.919  11.601  1.00  0.00     0.064 A 
ATOM     66  C   UNL     1      -3.842   5.605  10.871  1.00  0.00     0.173 A 
ATOM     67  C   UNL     1      -2.138   5.639  12.566  1.00  0.00     0.173 A 
ATOM     68  F   UNL     1      -4.551   4.968   9.927  1.00  0.00    -0.203 F 
ATOM     69  C   UNL     1      -4.071   6.963  11.078  1.00  0.00     0.198 A 
ATOM     70  C   UNL     1      -2.393   6.988  12.794  1.00  0.00     0.198 A 
ATOM     71  F   UNL     1      -1.190   5.031  13.295  1.00  0.00    -0.203 F 
ATOM     72  F   UNL     1      -4.976   7.610  10.332  1.00  0.00    -0.200 F 
ATOM     73  C   UNL     1      -3.353   7.651  12.045  1.00  0.00     0.200 A 
ATOM     74  F   UNL     1      -1.709   7.647  13.740  1.00  0.00    -0.200 F 
ATOM     75  F   UNL     1      -3.580   8.956  12.249  1.00  0.00    -0.200 F 
ENDBRANCH  51  65
BRANCH  52  76
ATOM     76  C   UNL     1      -0.791  -4.687   9.870  1.00  0.00     0.064 A 
ATOM     77  C   UNL     1      -1.790  -5.671   9.833  1.00  0.00     0.173 A 
ATOM     78  C   UNL     1       0.540  -5.107   9.726  1.00  0.00     0.173 A 
ATOM     79  F   UNL     1      -3.075  -5.325   9.998  1.00  0.00    -0.203 F 
ATOM     80  C   UNL     1      -1.469  -7.019   9.684  1.00  0.00     0.198 A 
ATOM     81  C   UNL     1       0.857  -6.452   9.543  1.00  0.00     0.198 A 
ATOM     82  F   UNL     1       1.536  -4.210   9.764  1.00  0.00    -0.203 F 
ATOM     83  F   UNL     1      -2.440  -7.942   9.712  1.00  0.00    -0.200 F 
ATOM     84  C   UNL     1      -0.147  -7.408   9.532  1.00  0.00     0.200 A 
ATOM     85  F   UNL     1       2.135  -6.822   9.390  1.00  0.00    -0.200 F 
ATOM     86  F   UNL     1       0.160  -8.704   9.390  1.00  0.00    -0.200 F 
ENDBRANCH  52  76
BRANCH  64  87
ATOM     87  C   UNL     1      -3.527  -1.244  15.287  1.00  0.00     0.064 A 
ATOM     88  C   UNL     1      -2.668  -1.707  16.294  1.00  0.00     0.173 A 
ATOM     89  C   UNL     1      -4.898  -1.164  15.584  1.00  0.00     0.173 A 
ATOM     90  F   UNL     1      -1.351  -1.814  16.062  1.00  0.00    -0.203 F 
ATOM     91  C   UNL     1      -3.164  -2.100  17.536  1.00  0.00     0.198 A 
ATOM     92  C   UNL     1      -5.385  -1.523  16.837  1.00  0.00     0.198 A 
ATOM     93  F   UNL     1      -5.765  -0.719  14.662  1.00  0.00    -0.203 F 
ATOM     94  F   UNL     1      -2.329  -2.588  18.464  1.00  0.00    -0.200 F 
ATOM     95  C   UNL     1      -4.520  -2.000  17.809  1.00  0.00     0.200 A 
ATOM     96  F   UNL     1      -6.694  -1.407  17.105  1.00  0.00    -0.200 F 
ATOM     97  F   UNL     1      -4.993  -2.368  19.008  1.00  0.00    -0.200 F 
ENDBRANCH  64  87
ENDBRANCH  38  39
ENDBRANCH  31  33
ENDBRANCH  30  31
ENDBRANCH  29  30
ENDBRANCH  28  29
ENDBRANCH  27  28
ENDBRANCH  26  27
ENDBRANCH  25  26
ENDBRANCH   1  25
TORSDOF 23
