REMARK SMILES C[C@H](NC(=O)C1=Cc2cc(Br)ccc2OC1)C(=O)OCCOCCOCCOC(=O)c1ccc(-c2c3nc(c(-c4c(F)c(F)c(F)c(F)c4F)c4ccc([nH]4)c(-c4c(F)c(F)c(F)c(F)c4F)c4nc(c(-c5c(F)c(F)c(F)c(F)c5F)c5ccc2[nH]5)C=C4)C=C3)cc1
REMARK SMILES IDX 23 1 22 2 21 3 20 4 19 5 17 6 18 7 2 8 1 9 3 10 4 11 5 13
REMARK SMILES IDX 6 14 7 15 16 16 8 17 15 18 9 19 14 20 10 21 13 22 11 23
REMARK SMILES IDX 12 24 24 25 25 26 26 27 27 28 28 29 29 30 30 31 31 32 32 33
REMARK SMILES IDX 93 34 33 35 92 36 34 37 35 38 36 39 86 40 37 41 91 42 85 43
REMARK SMILES IDX 87 44 38 45 90 46 84 47 83 48 39 50 71 51 51 52 70 53 52 54
REMARK SMILES IDX 55 55 69 56 88 57 53 58 54 59 68 61 89 62 56 63 40 64 41 65
REMARK SMILES IDX 49 66 42 67 43 68 47 69 50 70 44 71 45 72 48 73 46 74 72 75
REMARK SMILES IDX 73 76 81 77 74 78 75 79 79 80 82 81 76 82 77 83 80 84 78 85
REMARK SMILES IDX 57 86 58 87 66 88 59 89 60 90 64 91 67 92 61 93 62 94 65 95
REMARK SMILES IDX 63 96
REMARK H PARENT 3 12 87 49 55 60
REMARK Flexibility Score: inf
ROOT
ATOM      1  C   UNL     1      -2.226  -1.541   0.966  1.00  0.00     0.188 C 
ENDROOT
BRANCH   1   2
ATOM      2  O   UNL     1      -3.502  -1.034   1.344  1.00  0.00    -0.376 OA
BRANCH   2   3
ATOM      3  C   UNL     1      -3.919   0.241   0.873  1.00  0.00     0.202 C 
BRANCH   3   4
ATOM      4  C   UNL     1      -3.058   1.453   1.254  1.00  0.00     0.261 C 
BRANCH   4   5
ATOM      5  O   UNL     1      -1.645   1.274   1.029  1.00  0.00    -0.462 OA
BRANCH   5   6
ATOM      6  C   UNL     1      -0.850   1.430   2.121  1.00  0.00     0.328 C 
ATOM      7  O   UNL     1      -1.255   1.807   3.217  1.00  0.00    -0.250 OA
BRANCH   6   8
ATOM      8  C   UNL     1       0.586   0.888   1.925  1.00  0.00     0.189 C 
ATOM      9  C   UNL     1       1.542   1.614   2.862  1.00  0.00     0.043 C 
BRANCH   8  10
ATOM     10  N   UNL     1       1.156   0.615   0.594  1.00  0.00    -0.339 N 
ATOM     11  C   UNL     1       1.646   1.399  -0.398  1.00  0.00     0.251 C 
ATOM     12  H   UNL     1       1.187  -0.344   0.378  1.00  0.00     0.164 HD
ATOM     13  O   UNL     1       2.134   0.881  -1.398  1.00  0.00    -0.270 OA
BRANCH  11  14
ATOM     14  C   UNL     1       1.581   2.853  -0.273  1.00  0.00     0.055 C 
ATOM     15  C   UNL     1       0.618   3.533  -0.909  1.00  0.00     0.025 C 
ATOM     16  C   UNL     1       2.687   3.570   0.426  1.00  0.00     0.271 C 
ATOM     17  C   UNL     1       0.630   4.982  -0.714  1.00  0.00     0.018 A 
ATOM     18  O   UNL     1       2.209   4.734   1.125  1.00  0.00    -0.488 OA
ATOM     19  C   UNL     1      -0.138   5.838  -1.504  1.00  0.00     0.027 A 
ATOM     20  C   UNL     1       1.379   5.513   0.352  1.00  0.00     0.127 A 
ATOM     21  C   UNL     1      -0.190   7.199  -1.190  1.00  0.00     0.018 A 
ATOM     22  C   UNL     1       1.281   6.858   0.693  1.00  0.00     0.048 A 
ATOM     23  Br  UNL     1      -1.212   8.369  -2.268  1.00  0.00    -0.051 Br
ATOM     24  C   UNL     1       0.493   7.706  -0.083  1.00  0.00     0.019 A 
ENDBRANCH  11  14
ENDBRANCH   8  10
ENDBRANCH   6   8
ENDBRANCH   5   6
ENDBRANCH   4   5
ENDBRANCH   3   4
ENDBRANCH   2   3
ENDBRANCH   1   2
BRANCH   1  25
ATOM     25  C   UNL     1      -1.636  -1.220  -0.423  1.00  0.00     0.188 C 
BRANCH  25  26
ATOM     26  O   UNL     1      -2.584  -0.711  -1.339  1.00  0.00    -0.376 OA
BRANCH  26  27
ATOM     27  C   UNL     1      -2.782  -1.456  -2.525  1.00  0.00     0.202 C 
BRANCH  27  28
ATOM     28  C   UNL     1      -3.520  -2.787  -2.331  1.00  0.00     0.261 C 
BRANCH  28  29
ATOM     29  O   UNL     1      -2.992  -3.642  -1.302  1.00  0.00    -0.460 OA
BRANCH  29  30
ATOM     30  C   UNL     1      -1.829  -4.282  -1.560  1.00  0.00     0.338 C 
ATOM     31  O   UNL     1      -1.168  -4.218  -2.582  1.00  0.00    -0.246 OA
BRANCH  30  32
ATOM     32  C   UNL     1      -1.377  -4.924  -0.301  1.00  0.00     0.060 A 
ATOM     33  C   UNL     1      -2.248  -5.722   0.445  1.00  0.00     0.016 A 
ATOM     34  C   UNL     1      -0.068  -4.702   0.150  1.00  0.00     0.016 A 
ATOM     35  C   UNL     1      -1.795  -6.331   1.618  1.00  0.00     0.010 A 
ATOM     36  C   UNL     1       0.382  -5.309   1.329  1.00  0.00     0.010 A 
ATOM     37  C   UNL     1      -0.469  -6.153   2.056  1.00  0.00    -0.014 A 
BRANCH  37  38
ATOM     38  C   UNL     1       0.059  -7.033   3.132  1.00  0.00     0.031 A 
ATOM     39  C   UNL     1       0.228  -6.577   4.548  1.00  0.00     0.074 A 
ATOM     40  C   UNL     1       0.372  -8.300   2.795  1.00  0.00     0.049 A 
ATOM     41  N   UNL     1       0.507  -7.293   5.610  1.00  0.00    -0.248 NA
ATOM     42  C   UNL     1       0.081  -5.140   4.814  1.00  0.00     0.031 C 
ATOM     43  C   UNL     1       0.308  -8.840   1.436  1.00  0.00     0.029 A 
ATOM     44  N   UNL     1       0.781  -9.364   3.559  1.00  0.00    -0.354 N 
ATOM     45  C   UNL     1       0.538  -6.404   6.675  1.00  0.00     0.074 A 
ATOM     46  C   UNL     1       0.305  -5.084   6.122  1.00  0.00     0.031 C 
ATOM     47  C   UNL     1       0.621 -10.143   1.467  1.00  0.00     0.029 A 
ATOM     48  C   UNL     1       0.917 -10.529   2.844  1.00  0.00     0.049 A 
ATOM     49  H   UNL     1       0.960  -9.299   4.525  1.00  0.00     0.167 HD
ATOM     50  C   UNL     1       0.719  -6.677   7.990  1.00  0.00     0.037 A 
ATOM     51  C   UNL     1       1.221 -11.776   3.250  1.00  0.00     0.037 A 
ATOM     52  C   UNL     1       0.958  -7.995   8.527  1.00  0.00     0.049 A 
ATOM     53  C   UNL     1       1.430 -12.046   4.713  1.00  0.00     0.074 A 
ATOM     54  C   UNL     1       1.084  -8.373   9.854  1.00  0.00     0.029 A 
ATOM     55  N   UNL     1       1.121  -9.145   7.770  1.00  0.00    -0.354 N 
ATOM     56  N   UNL     1       1.333 -11.219   5.725  1.00  0.00    -0.248 NA
ATOM     57  C   UNL     1       1.780 -13.422   5.093  1.00  0.00     0.031 C 
ATOM     58  C   UNL     1       1.378  -9.739   9.897  1.00  0.00     0.029 A 
ATOM     59  C   UNL     1       1.382 -10.225   8.600  1.00  0.00     0.049 A 
ATOM     60  H   UNL     1       1.060  -9.189   6.788  1.00  0.00     0.167 HD
ATOM     61  C   UNL     1       1.586 -11.976   6.860  1.00  0.00     0.074 A 
ATOM     62  C   UNL     1       1.828 -13.332   6.416  1.00  0.00     0.031 C 
ATOM     63  C   UNL     1       1.616 -11.575   8.153  1.00  0.00     0.037 A 
BRANCH  50  64
ATOM     64  C   UNL     1       0.634  -5.545   8.973  1.00  0.00     0.064 A 
ATOM     65  C   UNL     1      -0.601  -4.964   9.299  1.00  0.00     0.173 A 
ATOM     66  C   UNL     1       1.763  -5.136   9.699  1.00  0.00     0.173 A 
ATOM     67  F   UNL     1      -1.711  -5.324   8.638  1.00  0.00    -0.203 F 
ATOM     68  C   UNL     1      -0.701  -4.014  10.312  1.00  0.00     0.198 A 
ATOM     69  C   UNL     1       1.655  -4.203  10.728  1.00  0.00     0.198 A 
ATOM     70  F   UNL     1       2.965  -5.673   9.440  1.00  0.00    -0.203 F 
ATOM     71  F   UNL     1      -1.890  -3.466  10.599  1.00  0.00    -0.200 F 
ATOM     72  C   UNL     1       0.424  -3.643  11.033  1.00  0.00     0.200 A 
ATOM     73  F   UNL     1       2.739  -3.861  11.438  1.00  0.00    -0.200 F 
ATOM     74  F   UNL     1       0.320  -2.751  12.028  1.00  0.00    -0.200 F 
ENDBRANCH  50  64
BRANCH  51  75
ATOM     75  C   UNL     1       1.276 -12.874   2.252  1.00  0.00     0.064 A 
ATOM     76  C   UNL     1       0.289 -13.868   2.223  1.00  0.00     0.173 A 
ATOM     77  C   UNL     1       2.292 -12.931   1.287  1.00  0.00     0.173 A 
ATOM     78  F   UNL     1      -0.695 -13.861   3.134  1.00  0.00    -0.203 F 
ATOM     79  C   UNL     1       0.322 -14.886   1.273  1.00  0.00     0.198 A 
ATOM     80  C   UNL     1       2.309 -13.934   0.320  1.00  0.00     0.198 A 
ATOM     81  F   UNL     1       3.254 -11.996   1.268  1.00  0.00    -0.203 F 
ATOM     82  F   UNL     1      -0.616 -15.842   1.287  1.00  0.00    -0.200 F 
ATOM     83  C   UNL     1       1.327 -14.913   0.317  1.00  0.00     0.200 A 
ATOM     84  F   UNL     1       3.271 -13.947  -0.612  1.00  0.00    -0.200 F 
ATOM     85  F   UNL     1       1.351 -15.885  -0.604  1.00  0.00    -0.200 F 
ENDBRANCH  51  75
BRANCH  63  86
ATOM     86  C   UNL     1       1.915 -12.606   9.202  1.00  0.00     0.064 A 
ATOM     87  C   UNL     1       3.212 -13.104   9.385  1.00  0.00     0.173 A 
ATOM     88  C   UNL     1       0.917 -13.021  10.098  1.00  0.00     0.173 A 
ATOM     89  F   UNL     1       4.197 -12.748   8.546  1.00  0.00    -0.203 F 
ATOM     90  C   UNL     1       3.501 -13.980  10.428  1.00  0.00     0.198 A 
ATOM     91  C   UNL     1       1.215 -13.877  11.155  1.00  0.00     0.198 A 
ATOM     92  F   UNL     1      -0.339 -12.569   9.968  1.00  0.00    -0.203 F 
ATOM     93  F   UNL     1       4.745 -14.458  10.574  1.00  0.00    -0.200 F 
ATOM     94  C   UNL     1       2.506 -14.355  11.319  1.00  0.00     0.200 A 
ATOM     95  F   UNL     1       0.256 -14.226  12.023  1.00  0.00    -0.200 F 
ATOM     96  F   UNL     1       2.793 -15.176  12.339  1.00  0.00    -0.200 F 
ENDBRANCH  63  86
ENDBRANCH  37  38
ENDBRANCH  30  32
ENDBRANCH  29  30
ENDBRANCH  28  29
ENDBRANCH  27  28
ENDBRANCH  26  27
ENDBRANCH  25  26
ENDBRANCH   1  25
TORSDOF 19
