REMARK SMILES CC[C@@H](C(=O)OCCOCCOCCOC(=O)c1ccc(-c2c3nc(c(-c4c(F)c(F)c(F)c(F)c4F)c4ccc([nH]4)c(-c4c(F)c(F)c(F)c(F)c4F)c4nc(c(-c5c(F)c(F)c(F)c(F)c5F)c5ccc2[nH]5)C=C4)C=C3)cc1)N1C(=O)/C(=C\c2ccc(C(=O)OC)cc2)SC1=S
REMARK SMILES IDX 10 1 9 2 8 3 7 4 6 5 4 6 5 7 3 8 2 9 1 10 81 11 82 12 97 13
REMARK SMILES IDX 83 14 84 15 96 16 98 17 85 18 86 19 87 20 95 21 88 22 94 23
REMARK SMILES IDX 89 24 90 25 91 26 92 27 93 28 11 29 12 30 13 31 14 32 15 33
REMARK SMILES IDX 16 34 17 35 18 36 19 37 80 38 20 39 79 40 21 41 22 42 23 43
REMARK SMILES IDX 73 44 24 45 78 46 72 47 74 48 25 49 77 50 71 51 70 52 26 54
REMARK SMILES IDX 58 55 38 56 57 57 39 58 42 59 56 60 75 61 40 62 41 63 55 65
REMARK SMILES IDX 76 66 43 67 27 68 28 69 36 70 29 71 30 72 34 73 37 74 31 75
REMARK SMILES IDX 32 76 35 77 33 78 59 79 60 80 68 81 61 82 62 83 66 84 69 85
REMARK SMILES IDX 63 86 64 87 67 88 65 89 44 90 45 91 53 92 46 93 47 94 51 95
REMARK SMILES IDX 54 96 48 97 49 98 52 99 50 100
REMARK H PARENT 74 53 42 64
REMARK Flexibility Score: inf
ROOT
ATOM      1  C   UNL     1      -1.768   1.549   3.015  1.00  0.00     0.188 C 
ENDROOT
BRANCH   1   2
ATOM      2  O   UNL     1      -1.594   2.928   3.317  1.00  0.00    -0.376 OA
BRANCH   2   3
ATOM      3  C   UNL     1      -0.472   3.621   2.775  1.00  0.00     0.202 C 
BRANCH   3   4
ATOM      4  C   UNL     1       0.925   3.022   2.991  1.00  0.00     0.261 C 
BRANCH   4   5
ATOM      5  O   UNL     1       1.001   1.653   2.558  1.00  0.00    -0.462 OA
BRANCH   5   6
ATOM      6  C   UNL     1       2.076   0.940   2.975  1.00  0.00     0.329 C 
ATOM      7  O   UNL     1       3.005   1.408   3.624  1.00  0.00    -0.250 OA
BRANCH   6   8
ATOM      8  C   UNL     1       1.950  -0.561   2.645  1.00  0.00     0.201 C 
BRANCH   8   9
ATOM      9  C   UNL     1       1.526  -0.857   1.167  1.00  0.00     0.034 C 
ATOM     10  C   UNL     1       1.811   0.182   0.093  1.00  0.00     0.007 C 
ENDBRANCH   8   9
BRANCH   8  11
ATOM     11  N   UNL     1       1.250  -1.468   3.639  1.00  0.00    -0.278 N 
ATOM     12  C   UNL     1       1.258  -2.830   3.349  1.00  0.00     0.266 C 
ATOM     13  C   UNL     1       0.747  -1.169   4.894  1.00  0.00     0.149 C 
ATOM     14  O   UNL     1       1.672  -3.334   2.316  1.00  0.00    -0.268 OA
ATOM     15  C   UNL     1       0.712  -3.645   4.469  1.00  0.00     0.081 C 
ATOM     16  S   UNL     1      -0.024  -2.599   5.604  1.00  0.00    -0.054 SA
ATOM     17  S   UNL     1       0.777   0.231   5.793  1.00  0.00    -0.052 S 
ATOM     18  C   UNL     1       0.826  -4.972   4.641  1.00  0.00     0.029 C 
BRANCH  18  19
ATOM     19  C   UNL     1       1.601  -5.863   3.767  1.00  0.00    -0.024 A 
ATOM     20  C   UNL     1       0.998  -6.971   3.167  1.00  0.00     0.009 A 
ATOM     21  C   UNL     1       2.958  -5.606   3.519  1.00  0.00     0.009 A 
ATOM     22  C   UNL     1       1.723  -7.765   2.268  1.00  0.00     0.016 A 
ATOM     23  C   UNL     1       3.675  -6.380   2.606  1.00  0.00     0.016 A 
ATOM     24  C   UNL     1       3.056  -7.456   1.962  1.00  0.00     0.060 A 
BRANCH  24  25
ATOM     25  C   UNL     1       3.769  -8.280   0.949  1.00  0.00     0.337 C 
ATOM     26  O   UNL     1       3.304  -9.295   0.452  1.00  0.00    -0.246 OA
BRANCH  25  27
ATOM     27  O   UNL     1       4.973  -7.728   0.654  1.00  0.00    -0.465 OA
ATOM     28  C   UNL     1       5.719  -8.437  -0.335  1.00  0.00     0.282 C 
ENDBRANCH  25  27
ENDBRANCH  24  25
ENDBRANCH  18  19
ENDBRANCH   8  11
ENDBRANCH   6   8
ENDBRANCH   5   6
ENDBRANCH   4   5
ENDBRANCH   3   4
ENDBRANCH   2   3
ENDBRANCH   1   2
BRANCH   1  29
ATOM     29  C   UNL     1      -1.610   1.065   1.564  1.00  0.00     0.188 C 
BRANCH  29  30
ATOM     30  O   UNL     1      -1.451   2.063   0.592  1.00  0.00    -0.376 OA
BRANCH  30  31
ATOM     31  C   UNL     1      -2.568   2.617  -0.072  1.00  0.00     0.202 C 
BRANCH  31  32
ATOM     32  C   UNL     1      -4.034   2.504   0.392  1.00  0.00     0.261 C 
BRANCH  32  33
ATOM     33  O   UNL     1      -4.348   1.584   1.440  1.00  0.00    -0.460 OA
BRANCH  33  34
ATOM     34  C   UNL     1      -4.688   0.333   1.055  1.00  0.00     0.338 C 
ATOM     35  O   UNL     1      -4.732  -0.103  -0.081  1.00  0.00    -0.246 OA
BRANCH  34  36
ATOM     36  C   UNL     1      -4.800  -0.513   2.264  1.00  0.00     0.060 A 
ATOM     37  C   UNL     1      -3.995  -1.657   2.353  1.00  0.00     0.016 A 
ATOM     38  C   UNL     1      -5.719  -0.211   3.271  1.00  0.00     0.016 A 
ATOM     39  C   UNL     1      -4.159  -2.543   3.416  1.00  0.00     0.010 A 
ATOM     40  C   UNL     1      -5.897  -1.111   4.327  1.00  0.00     0.010 A 
ATOM     41  C   UNL     1      -5.158  -2.307   4.370  1.00  0.00    -0.014 A 
BRANCH  41  42
ATOM     42  C   UNL     1      -5.610  -3.433   5.226  1.00  0.00     0.031 A 
ATOM     43  C   UNL     1      -6.792  -4.241   4.757  1.00  0.00     0.074 A 
ATOM     44  C   UNL     1      -4.969  -3.772   6.357  1.00  0.00     0.049 A 
ATOM     45  N   UNL     1      -7.381  -5.266   5.319  1.00  0.00    -0.248 NA
ATOM     46  C   UNL     1      -7.394  -3.831   3.477  1.00  0.00     0.031 C 
ATOM     47  C   UNL     1      -3.795  -3.096   6.901  1.00  0.00     0.029 A 
ATOM     48  N   UNL     1      -5.226  -4.780   7.253  1.00  0.00    -0.354 N 
ATOM     49  C   UNL     1      -8.421  -5.615   4.467  1.00  0.00     0.074 A 
ATOM     50  C   UNL     1      -8.408  -4.675   3.369  1.00  0.00     0.031 C 
ATOM     51  C   UNL     1      -3.432  -3.708   8.043  1.00  0.00     0.029 A 
ATOM     52  C   UNL     1      -4.365  -4.799   8.323  1.00  0.00     0.049 A 
ATOM     53  H   UNL     1      -5.958  -5.429   7.139  1.00  0.00     0.167 HD
ATOM     54  C   UNL     1      -9.304  -6.636   4.580  1.00  0.00     0.037 A 
ATOM     55  C   UNL     1      -4.349  -5.598   9.408  1.00  0.00     0.037 A 
ATOM     56  C   UNL     1      -9.322  -7.572   5.671  1.00  0.00     0.049 A 
ATOM     57  C   UNL     1      -5.379  -6.694   9.540  1.00  0.00     0.074 A 
ATOM     58  C   UNL     1     -10.177  -8.640   5.878  1.00  0.00     0.029 A 
ATOM     59  N   UNL     1      -8.445  -7.547   6.745  1.00  0.00    -0.354 N 
ATOM     60  N   UNL     1      -6.345  -7.032   8.720  1.00  0.00    -0.248 NA
ATOM     61  C   UNL     1      -5.306  -7.527  10.749  1.00  0.00     0.031 C 
ATOM     62  C   UNL     1      -9.847  -9.233   7.102  1.00  0.00     0.029 A 
ATOM     63  C   UNL     1      -8.747  -8.574   7.625  1.00  0.00     0.049 A 
ATOM     64  H   UNL     1      -7.716  -6.896   6.864  1.00  0.00     0.167 HD
ATOM     65  C   UNL     1      -6.965  -8.138   9.291  1.00  0.00     0.074 A 
ATOM     66  C   UNL     1      -6.259  -8.420  10.523  1.00  0.00     0.031 C 
ATOM     67  C   UNL     1      -8.021  -8.858   8.836  1.00  0.00     0.037 A 
BRANCH  54  68
ATOM     68  C   UNL     1     -10.342  -6.771   3.505  1.00  0.00     0.064 A 
ATOM     69  C   UNL     1     -10.011  -7.183   2.206  1.00  0.00     0.173 A 
ATOM     70  C   UNL     1     -11.690  -6.499   3.784  1.00  0.00     0.173 A 
ATOM     71  F   UNL     1      -8.733  -7.435   1.882  1.00  0.00    -0.203 F 
ATOM     72  C   UNL     1     -10.987  -7.292   1.218  1.00  0.00     0.198 A 
ATOM     73  C   UNL     1     -12.668  -6.641   2.803  1.00  0.00     0.198 A 
ATOM     74  F   UNL     1     -12.061  -6.101   5.010  1.00  0.00    -0.203 F 
ATOM     75  F   UNL     1     -10.639  -7.636  -0.030  1.00  0.00    -0.200 F 
ATOM     76  C   UNL     1     -12.315  -7.029   1.520  1.00  0.00     0.200 A 
ATOM     77  F   UNL     1     -13.952  -6.396   3.099  1.00  0.00    -0.200 F 
ATOM     78  F   UNL     1     -13.254  -7.140   0.570  1.00  0.00    -0.200 F 
ENDBRANCH  54  68
BRANCH  55  79
ATOM     79  C   UNL     1      -3.323  -5.401  10.466  1.00  0.00     0.064 A 
ATOM     80  C   UNL     1      -2.332  -6.364  10.702  1.00  0.00     0.173 A 
ATOM     81  C   UNL     1      -3.341  -4.269  11.294  1.00  0.00     0.173 A 
ATOM     82  F   UNL     1      -2.289  -7.478   9.956  1.00  0.00    -0.203 F 
ATOM     83  C   UNL     1      -1.415  -6.215  11.742  1.00  0.00     0.198 A 
ATOM     84  C   UNL     1      -2.404  -4.106  12.313  1.00  0.00     0.198 A 
ATOM     85  F   UNL     1      -4.271  -3.320  11.114  1.00  0.00    -0.203 F 
ATOM     86  F   UNL     1      -0.517  -7.180  11.982  1.00  0.00    -0.200 F 
ATOM     87  C   UNL     1      -1.449  -5.085  12.543  1.00  0.00     0.200 A 
ATOM     88  F   UNL     1      -2.435  -3.007  13.079  1.00  0.00    -0.200 F 
ATOM     89  F   UNL     1      -0.571  -4.944  13.545  1.00  0.00    -0.200 F 
ENDBRANCH  55  79
BRANCH  67  90
ATOM     90  C   UNL     1      -8.435 -10.064   9.633  1.00  0.00     0.064 A 
ATOM     91  C   UNL     1      -9.041  -9.954  10.893  1.00  0.00     0.173 A 
ATOM     92  C   UNL     1      -8.247 -11.353   9.108  1.00  0.00     0.173 A 
ATOM     93  F   UNL     1      -9.235  -8.747  11.446  1.00  0.00    -0.203 F 
ATOM     94  C   UNL     1      -9.406 -11.088  11.614  1.00  0.00     0.198 A 
ATOM     95  C   UNL     1      -8.646 -12.483   9.816  1.00  0.00     0.198 A 
ATOM     96  F   UNL     1      -7.683 -11.517   7.901  1.00  0.00    -0.203 F 
ATOM     97  F   UNL     1      -9.928 -10.960  12.842  1.00  0.00    -0.200 F 
ATOM     98  C   UNL     1      -9.214 -12.351  11.073  1.00  0.00     0.200 A 
ATOM     99  F   UNL     1      -8.475 -13.701   9.282  1.00  0.00    -0.200 F 
ATOM    100  F   UNL     1      -9.569 -13.441  11.767  1.00  0.00    -0.200 F 
ENDBRANCH  67  90
ENDBRANCH  41  42
ENDBRANCH  34  36
ENDBRANCH  33  34
ENDBRANCH  32  33
ENDBRANCH  31  32
ENDBRANCH  30  31
ENDBRANCH  29  30
ENDBRANCH   1  29
TORSDOF 22
