REMARK SMILES CCOc1ccc(-c2cnc(N)cc2C(=O)OCCOCCOCCOC(=O)c2ccc(-c3c4nc(c(-c5c(F)c(F)c(F)c(F)c5F)c5ccc([nH]5)c(-c5c(F)c(F)c(F)c(F)c5F)c5nc(c(-c6c(F)c(F)c(F)c(F)c6F)c6ccc3[nH]6)C=C5)C=C4)cc2)c(Cl)c1
REMARK SMILES IDX 21 1 20 2 19 3 18 4 17 5 15 6 16 7 14 8 8 9 9 10 10 11 13 12
REMARK SMILES IDX 11 13 7 14 4 15 5 16 94 17 6 18 92 19 93 20 3 21 2 22 1 23
REMARK SMILES IDX 12 24 22 27 23 28 24 29 25 30 26 31 27 32 28 33 29 34 30 35
REMARK SMILES IDX 91 36 31 37 90 38 32 39 33 40 34 41 84 42 35 43 89 44 83 45
REMARK SMILES IDX 85 46 36 47 88 48 82 49 81 50 37 52 69 53 49 54 68 55 50 56
REMARK SMILES IDX 53 57 67 58 86 59 51 60 52 61 66 63 87 64 54 65 38 66 39 67
REMARK SMILES IDX 47 68 40 69 41 70 45 71 48 72 42 73 43 74 46 75 44 76 70 77
REMARK SMILES IDX 71 78 79 79 72 80 73 81 77 82 80 83 74 84 75 85 78 86 76 87
REMARK SMILES IDX 55 88 56 89 64 90 57 91 58 92 62 93 65 94 59 95 60 96 63 97
REMARK SMILES IDX 61 98
REMARK H PARENT 12 25 12 26 85 51 53 62
REMARK Flexibility Score: inf
ROOT
ATOM      1  C   UNL     1       5.378   1.299   5.856  1.00  0.00     0.188 C 
ENDROOT
BRANCH   1   2
ATOM      2  O   UNL     1       5.167   0.111   6.579  1.00  0.00    -0.376 OA
BRANCH   2   3
ATOM      3  C   UNL     1       6.119  -0.932   6.554  1.00  0.00     0.202 C 
BRANCH   3   4
ATOM      4  C   UNL     1       7.136  -1.180   5.422  1.00  0.00     0.261 C 
BRANCH   4   5
ATOM      5  O   UNL     1       7.574  -0.062   4.637  1.00  0.00    -0.460 OA
BRANCH   5   6
ATOM      6  C   UNL     1       7.257  -0.100   3.314  1.00  0.00     0.339 C 
ATOM      7  O   UNL     1       6.569  -0.947   2.769  1.00  0.00    -0.246 OA
BRANCH   6   8
ATOM      8  C   UNL     1       7.841   1.065   2.587  1.00  0.00     0.073 A 
ATOM      9  C   UNL     1       7.103   1.736   1.589  1.00  0.00     0.016 A 
ATOM     10  C   UNL     1       7.749   2.774   0.933  1.00  0.00     0.123 A 
ATOM     11  N   UNL     1       9.002   3.189   1.222  1.00  0.00    -0.239 NA
ATOM     12  C   UNL     1       9.128   1.498   2.912  1.00  0.00     0.062 A 
ATOM     13  C   UNL     1       9.661   2.565   2.212  1.00  0.00     0.124 A 
BRANCH   9  14
ATOM     14  C   UNL     1       5.656   1.555   1.451  1.00  0.00     0.003 A 
ATOM     15  C   UNL     1       2.959   0.784   1.641  1.00  0.00     0.120 A 
ATOM     16  C   UNL     1       3.711   0.462   0.515  1.00  0.00     0.047 A 
ATOM     17  C   UNL     1       3.521   1.620   2.599  1.00  0.00     0.067 A 
ATOM     18  C   UNL     1       5.069   0.796   0.442  1.00  0.00     0.014 A 
ATOM     19  C   UNL     1       4.813   2.091   2.429  1.00  0.00     0.052 A 
ATOM     20  Cl  UNL     1       5.351   3.428   3.372  1.00  0.00    -0.084 Cl
BRANCH  15  21
ATOM     21  O   UNL     1       1.633   0.540   1.817  1.00  0.00    -0.494 OA
BRANCH  21  22
ATOM     22  C   UNL     1       1.049  -0.715   1.485  1.00  0.00     0.226 C 
ATOM     23  C   UNL     1       0.997  -1.037   0.004  1.00  0.00     0.049 C 
ENDBRANCH  21  22
ENDBRANCH  15  21
ENDBRANCH   9  14
BRANCH  13  24
ATOM     24  N   UNL     1      10.876   3.107   2.564  1.00  0.00    -0.384 N 
ATOM     25  H   UNL     1      11.242   3.867   2.057  1.00  0.00     0.158 HD
ATOM     26  H   UNL     1      11.379   2.735   3.324  1.00  0.00     0.158 HD
ENDBRANCH  13  24
ENDBRANCH   6   8
ENDBRANCH   5   6
ENDBRANCH   4   5
ENDBRANCH   3   4
ENDBRANCH   2   3
ENDBRANCH   1   2
BRANCH   1  27
ATOM     27  C   UNL     1       6.531   2.253   6.231  1.00  0.00     0.188 C 
BRANCH  27  28
ATOM     28  O   UNL     1       7.137   2.167   7.507  1.00  0.00    -0.376 OA
BRANCH  28  29
ATOM     29  C   UNL     1       6.296   2.031   8.638  1.00  0.00     0.202 C 
BRANCH  29  30
ATOM     30  C   UNL     1       5.249   3.116   8.930  1.00  0.00     0.261 C 
BRANCH  30  31
ATOM     31  O   UNL     1       4.305   3.382   7.872  1.00  0.00    -0.460 OA
BRANCH  31  32
ATOM     32  C   UNL     1       4.353   4.637   7.345  1.00  0.00     0.338 C 
ATOM     33  O   UNL     1       5.145   5.512   7.632  1.00  0.00    -0.246 OA
BRANCH  32  34
ATOM     34  C   UNL     1       3.348   4.806   6.259  1.00  0.00     0.060 A 
ATOM     35  C   UNL     1       3.732   5.527   5.122  1.00  0.00     0.016 A 
ATOM     36  C   UNL     1       2.039   4.328   6.353  1.00  0.00     0.016 A 
ATOM     37  C   UNL     1       2.837   5.723   4.061  1.00  0.00     0.010 A 
ATOM     38  C   UNL     1       1.123   4.574   5.311  1.00  0.00     0.010 A 
ATOM     39  C   UNL     1       1.514   5.272   4.154  1.00  0.00    -0.014 A 
BRANCH  39  40
ATOM     40  C   UNL     1       0.522   5.660   3.106  1.00  0.00     0.031 A 
ATOM     41  C   UNL     1      -0.072   7.029   3.139  1.00  0.00     0.074 A 
ATOM     42  C   UNL     1       0.179   4.851   2.086  1.00  0.00     0.049 A 
ATOM     43  N   UNL     1      -0.936   7.568   2.318  1.00  0.00    -0.248 NA
ATOM     44  C   UNL     1       0.383   7.915   4.218  1.00  0.00     0.031 C 
ATOM     45  C   UNL     1       0.769   3.553   1.858  1.00  0.00     0.029 A 
ATOM     46  N   UNL     1      -0.717   4.985   1.049  1.00  0.00    -0.354 N 
ATOM     47  C   UNL     1      -1.112   8.864   2.765  1.00  0.00     0.074 A 
ATOM     48  C   UNL     1      -0.283   9.025   3.943  1.00  0.00     0.031 C 
ATOM     49  C   UNL     1       0.231   2.995   0.764  1.00  0.00     0.029 A 
ATOM     50  C   UNL     1      -0.799   3.871   0.245  1.00  0.00     0.049 A 
ATOM     51  H   UNL     1      -1.248   5.800   0.897  1.00  0.00     0.167 HD
ATOM     52  C   UNL     1      -1.898   9.829   2.236  1.00  0.00     0.037 A 
ATOM     53  C   UNL     1      -1.619   3.555  -0.775  1.00  0.00     0.037 A 
ATOM     54  C   UNL     1      -2.764   9.650   1.100  1.00  0.00     0.049 A 
ATOM     55  C   UNL     1      -2.609   4.580  -1.229  1.00  0.00     0.074 A 
ATOM     56  C   UNL     1      -3.619  10.570   0.519  1.00  0.00     0.029 A 
ATOM     57  N   UNL     1      -2.913   8.466   0.390  1.00  0.00    -0.354 N 
ATOM     58  N   UNL     1      -2.771   5.804  -0.797  1.00  0.00    -0.248 NA
ATOM     59  C   UNL     1      -3.520   4.193  -2.314  1.00  0.00     0.031 C 
ATOM     60  C   UNL     1      -4.338   9.924  -0.492  1.00  0.00     0.029 A 
ATOM     61  C   UNL     1      -3.881   8.621  -0.593  1.00  0.00     0.049 A 
ATOM     62  H   UNL     1      -2.407   7.639   0.558  1.00  0.00     0.167 HD
ATOM     63  C   UNL     1      -3.775   6.349  -1.576  1.00  0.00     0.074 A 
ATOM     64  C   UNL     1      -4.182   5.323  -2.515  1.00  0.00     0.031 C 
ATOM     65  C   UNL     1      -4.298   7.596  -1.518  1.00  0.00     0.037 A 
BRANCH  52  66
ATOM     66  C   UNL     1      -1.905  11.145   2.950  1.00  0.00     0.064 A 
ATOM     67  C   UNL     1      -0.799  12.008   2.924  1.00  0.00     0.173 A 
ATOM     68  C   UNL     1      -3.028  11.531   3.695  1.00  0.00     0.173 A 
ATOM     69  F   UNL     1       0.309  11.667   2.248  1.00  0.00    -0.203 F 
ATOM     70  C   UNL     1      -0.807  13.198   3.645  1.00  0.00     0.198 A 
ATOM     71  C   UNL     1      -3.044  12.736   4.389  1.00  0.00     0.198 A 
ATOM     72  F   UNL     1      -4.105  10.735   3.757  1.00  0.00    -0.203 F 
ATOM     73  F   UNL     1       0.282  13.979   3.659  1.00  0.00    -0.200 F 
ATOM     74  C   UNL     1      -1.931  13.563   4.372  1.00  0.00     0.200 A 
ATOM     75  F   UNL     1      -4.133  13.089   5.085  1.00  0.00    -0.200 F 
ATOM     76  F   UNL     1      -1.936  14.707   5.070  1.00  0.00    -0.200 F 
ENDBRANCH  52  66
BRANCH  53  77
ATOM     77  C   UNL     1      -1.584   2.208  -1.412  1.00  0.00     0.064 A 
ATOM     78  C   UNL     1      -1.144   2.033  -2.731  1.00  0.00     0.173 A 
ATOM     79  C   UNL     1      -2.055   1.076  -0.729  1.00  0.00     0.173 A 
ATOM     80  F   UNL     1      -0.716   3.088  -3.440  1.00  0.00    -0.203 F 
ATOM     81  C   UNL     1      -1.194   0.783  -3.349  1.00  0.00     0.198 A 
ATOM     82  C   UNL     1      -2.091  -0.175  -1.343  1.00  0.00     0.198 A 
ATOM     83  F   UNL     1      -2.483   1.183   0.537  1.00  0.00    -0.203 F 
ATOM     84  F   UNL     1      -0.806   0.652  -4.625  1.00  0.00    -0.200 F 
ATOM     85  C   UNL     1      -1.664  -0.320  -2.654  1.00  0.00     0.200 A 
ATOM     86  F   UNL     1      -2.523  -1.243  -0.659  1.00  0.00    -0.200 F 
ATOM     87  F   UNL     1      -1.706  -1.522  -3.245  1.00  0.00    -0.200 F 
ENDBRANCH  53  77
BRANCH  65  88
ATOM     88  C   UNL     1      -5.355   7.933  -2.525  1.00  0.00     0.064 A 
ATOM     89  C   UNL     1      -6.636   7.366  -2.471  1.00  0.00     0.173 A 
ATOM     90  C   UNL     1      -5.082   8.850  -3.551  1.00  0.00     0.173 A 
ATOM     91  F   UNL     1      -6.937   6.463  -1.525  1.00  0.00    -0.203 F 
ATOM     92  C   UNL     1      -7.600   7.688  -3.422  1.00  0.00     0.198 A 
ATOM     93  C   UNL     1      -6.059   9.196  -4.479  1.00  0.00     0.198 A 
ATOM     94  F   UNL     1      -3.869   9.415  -3.650  1.00  0.00    -0.203 F 
ATOM     95  F   UNL     1      -8.800   7.092  -3.386  1.00  0.00    -0.200 F 
ATOM     96  C   UNL     1      -7.314   8.610  -4.419  1.00  0.00     0.200 A 
ATOM     97  F   UNL     1      -5.784  10.095  -5.434  1.00  0.00    -0.200 F 
ATOM     98  F   UNL     1      -8.245   8.925  -5.329  1.00  0.00    -0.200 F 
ENDBRANCH  65  88
ENDBRANCH  39  40
ENDBRANCH  32  34
ENDBRANCH  31  32
ENDBRANCH  30  31
ENDBRANCH  29  30
ENDBRANCH  28  29
ENDBRANCH  27  28
ENDBRANCH   1  27
TORSDOF 21
