REMARK SMILES CCOc1ncnc(N[C@@H]2C=C[C@H](C(=O)OCCOCCOCCOC(=O)c3ccc(-c4c5nc(c(-c6c(F)c(F)c(F)c(F)c6F)c6ccc([nH]6)c(-c6c(F)c(F)c(F)c(F)c6F)c6nc(c(-c7c(F)c(F)c(F)c(F)c7F)c7ccc4[nH]7)C=C6)C=C5)cc3)C2)c1C
REMARK SMILES IDX 20 1 19 2 18 3 17 4 16 5 14 6 15 7 13 8 10 9 11 10 91 11
REMARK SMILES IDX 12 12 9 13 8 15 4 16 5 17 92 18 6 19 93 20 7 21 3 22 2 23
REMARK SMILES IDX 1 24 21 25 22 26 23 27 24 28 25 29 26 30 27 31 28 32 29 33
REMARK SMILES IDX 90 34 30 35 89 36 31 37 32 38 33 39 83 40 34 41 88 42 82 43
REMARK SMILES IDX 84 44 35 45 87 46 81 47 80 48 36 50 68 51 48 52 67 53 49 54
REMARK SMILES IDX 52 55 66 56 85 57 50 58 51 59 65 61 86 62 53 63 37 64 38 65
REMARK SMILES IDX 46 66 39 67 40 68 44 69 47 70 41 71 42 72 45 73 43 74 69 75
REMARK SMILES IDX 70 76 78 77 71 78 72 79 76 80 79 81 73 82 74 83 77 84 75 85
REMARK SMILES IDX 54 86 55 87 63 88 56 89 57 90 61 91 64 92 58 93 59 94 62 95
REMARK SMILES IDX 60 96
REMARK H PARENT 9 14 84 49 52 60
REMARK Flexibility Score: inf
ROOT
ATOM      1  C   UNL     1      10.925   1.792   0.950  1.00  0.00     0.188 C 
ENDROOT
BRANCH   1   2
ATOM      2  O   UNL     1      12.292   2.103   0.730  1.00  0.00    -0.376 OA
BRANCH   2   3
ATOM      3  C   UNL     1      12.716   2.120  -0.626  1.00  0.00     0.202 C 
BRANCH   3   4
ATOM      4  C   UNL     1      12.056   3.183  -1.509  1.00  0.00     0.261 C 
BRANCH   4   5
ATOM      5  O   UNL     1      10.624   3.037  -1.526  1.00  0.00    -0.463 OA
BRANCH   5   6
ATOM      6  C   UNL     1       9.979   2.879  -2.710  1.00  0.00     0.312 C 
ATOM      7  O   UNL     1      10.543   2.845  -3.796  1.00  0.00    -0.252 OA
BRANCH   6   8
ATOM      8  C   UNL     1       8.459   2.920  -2.487  1.00  0.00     0.124 C 
ATOM      9  C   UNL     1       7.084   0.903  -2.129  1.00  0.00     0.104 C 
ATOM     10  C   UNL     1       6.996   1.385  -3.530  1.00  0.00    -0.006 C 
ATOM     11  C   UNL     1       7.898   1.974  -1.407  1.00  0.00     0.048 C 
ATOM     12  C   UNL     1       7.714   2.496  -3.720  1.00  0.00    -0.014 C 
BRANCH   9  13
ATOM     13  N   UNL     1       7.608  -0.441  -2.063  1.00  0.00    -0.363 N 
ATOM     14  H   UNL     1       6.945  -1.157  -1.935  1.00  0.00     0.162 HD
BRANCH  13  15
ATOM     15  C   UNL     1       8.927  -0.846  -2.157  1.00  0.00     0.136 A 
ATOM     16  C   UNL     1      10.616  -2.434  -1.725  1.00  0.00     0.221 A 
ATOM     17  N   UNL     1      11.578  -1.634  -2.192  1.00  0.00    -0.201 NA
ATOM     18  C   UNL     1       9.270  -2.109  -1.705  1.00  0.00     0.054 A 
ATOM     19  C   UNL     1      11.134  -0.460  -2.643  1.00  0.00     0.228 A 
ATOM     20  C   UNL     1       8.235  -3.082  -1.269  1.00  0.00     0.054 C 
ATOM     21  N   UNL     1       9.867  -0.010  -2.601  1.00  0.00    -0.219 NA
BRANCH  16  22
ATOM     22  O   UNL     1      11.031  -3.578  -1.082  1.00  0.00    -0.478 OA
BRANCH  22  23
ATOM     23  C   UNL     1      11.472  -4.579  -2.000  1.00  0.00     0.228 C 
ATOM     24  C   UNL     1      10.501  -5.748  -1.927  1.00  0.00     0.049 C 
ENDBRANCH  22  23
ENDBRANCH  16  22
ENDBRANCH  13  15
ENDBRANCH   9  13
ENDBRANCH   6   8
ENDBRANCH   5   6
ENDBRANCH   4   5
ENDBRANCH   3   4
ENDBRANCH   2   3
ENDBRANCH   1   2
BRANCH   1  25
ATOM     25  C   UNL     1      10.050   3.013   1.320  1.00  0.00     0.188 C 
BRANCH  25  26
ATOM     26  O   UNL     1      10.643   4.213   1.803  1.00  0.00    -0.376 OA
BRANCH  26  27
ATOM     27  C   UNL     1      11.800   4.136   2.617  1.00  0.00     0.202 C 
BRANCH  27  28
ATOM     28  C   UNL     1      11.690   3.412   3.965  1.00  0.00     0.261 C 
BRANCH  28  29
ATOM     29  O   UNL     1      11.095   2.101   3.920  1.00  0.00    -0.460 OA
BRANCH  29  30
ATOM     30  C   UNL     1       9.840   2.010   4.417  1.00  0.00     0.338 C 
ATOM     31  O   UNL     1       9.170   2.912   4.907  1.00  0.00    -0.246 OA
BRANCH  30  32
ATOM     32  C   UNL     1       9.277   0.663   4.186  1.00  0.00     0.060 A 
ATOM     33  C   UNL     1       8.085   0.551   3.455  1.00  0.00     0.016 A 
ATOM     34  C   UNL     1       9.837  -0.466   4.787  1.00  0.00     0.016 A 
ATOM     35  C   UNL     1       7.429  -0.679   3.359  1.00  0.00     0.010 A 
ATOM     36  C   UNL     1       9.164  -1.695   4.710  1.00  0.00     0.010 A 
ATOM     37  C   UNL     1       7.938  -1.801   4.028  1.00  0.00    -0.014 A 
BRANCH  37  38
ATOM     38  C   UNL     1       7.102  -3.025   4.156  1.00  0.00     0.031 A 
ATOM     39  C   UNL     1       6.263  -3.219   5.383  1.00  0.00     0.074 A 
ATOM     40  C   UNL     1       7.088  -3.978   3.210  1.00  0.00     0.049 A 
ATOM     41  N   UNL     1       5.500  -4.232   5.710  1.00  0.00    -0.248 NA
ATOM     42  C   UNL     1       6.317  -2.148   6.386  1.00  0.00     0.031 C 
ATOM     43  C   UNL     1       7.903  -3.961   2.006  1.00  0.00     0.029 A 
ATOM     44  N   UNL     1       6.380  -5.156   3.126  1.00  0.00    -0.354 N 
ATOM     45  C   UNL     1       5.009  -3.938   6.971  1.00  0.00     0.074 A 
ATOM     46  C   UNL     1       5.567  -2.655   7.352  1.00  0.00     0.031 C 
ATOM     47  C   UNL     1       7.648  -5.078   1.306  1.00  0.00     0.029 A 
ATOM     48  C   UNL     1       6.649  -5.877   1.991  1.00  0.00     0.049 A 
ATOM     49  H   UNL     1       5.743  -5.453   3.815  1.00  0.00     0.167 HD
ATOM     50  C   UNL     1       4.179  -4.677   7.747  1.00  0.00     0.037 A 
ATOM     51  C   UNL     1       6.175  -7.051   1.533  1.00  0.00     0.037 A 
ATOM     52  C   UNL     1       3.636  -5.961   7.381  1.00  0.00     0.049 A 
ATOM     53  C   UNL     1       5.232  -7.836   2.387  1.00  0.00     0.074 A 
ATOM     54  C   UNL     1       2.764  -6.763   8.098  1.00  0.00     0.029 A 
ATOM     55  N   UNL     1       3.923  -6.642   6.206  1.00  0.00    -0.354 N 
ATOM     56  N   UNL     1       4.762  -7.541   3.571  1.00  0.00    -0.248 NA
ATOM     57  C   UNL     1       4.785  -9.132   1.859  1.00  0.00     0.031 C 
ATOM     58  C   UNL     1       2.564  -7.949   7.381  1.00  0.00     0.029 A 
ATOM     59  C   UNL     1       3.263  -7.864   6.189  1.00  0.00     0.049 A 
ATOM     60  H   UNL     1       4.509  -6.307   5.489  1.00  0.00     0.167 HD
ATOM     61  C   UNL     1       3.983  -8.622   3.946  1.00  0.00     0.074 A 
ATOM     62  C   UNL     1       4.009  -9.563   2.844  1.00  0.00     0.031 C 
ATOM     63  C   UNL     1       3.321  -8.817   5.111  1.00  0.00     0.037 A 
BRANCH  50  64
ATOM     64  C   UNL     1       3.857  -4.122   9.103  1.00  0.00     0.064 A 
ATOM     65  C   UNL     1       3.054  -2.982   9.265  1.00  0.00     0.173 A 
ATOM     66  C   UNL     1       4.378  -4.728  10.255  1.00  0.00     0.173 A 
ATOM     67  F   UNL     1       2.547  -2.355   8.193  1.00  0.00    -0.203 F 
ATOM     68  C   UNL     1       2.821  -2.446  10.529  1.00  0.00     0.198 A 
ATOM     69  C   UNL     1       4.115  -4.209  11.519  1.00  0.00     0.198 A 
ATOM     70  F   UNL     1       5.151  -5.820  10.154  1.00  0.00    -0.203 F 
ATOM     71  F   UNL     1       2.108  -1.318  10.655  1.00  0.00    -0.200 F 
ATOM     72  C   UNL     1       3.348  -3.062  11.654  1.00  0.00     0.200 A 
ATOM     73  F   UNL     1       4.617  -4.811  12.606  1.00  0.00    -0.200 F 
ATOM     74  F   UNL     1       3.128  -2.542  12.869  1.00  0.00    -0.200 F 
ENDBRANCH  50  64
BRANCH  51  75
ATOM     75  C   UNL     1       6.604  -7.571   0.208  1.00  0.00     0.064 A 
ATOM     76  C   UNL     1       5.734  -7.545  -0.892  1.00  0.00     0.173 A 
ATOM     77  C   UNL     1       7.890  -8.091   0.012  1.00  0.00     0.173 A 
ATOM     78  F   UNL     1       4.485  -7.077  -0.748  1.00  0.00    -0.203 F 
ATOM     79  C   UNL     1       6.136  -8.023  -2.138  1.00  0.00     0.198 A 
ATOM     80  C   UNL     1       8.297  -8.550  -1.239  1.00  0.00     0.198 A 
ATOM     81  F   UNL     1       8.761  -8.126   1.030  1.00  0.00    -0.203 F 
ATOM     82  F   UNL     1       5.279  -8.008  -3.168  1.00  0.00    -0.200 F 
ATOM     83  C   UNL     1       7.420  -8.518  -2.312  1.00  0.00     0.200 A 
ATOM     84  F   UNL     1       9.545  -9.006  -1.408  1.00  0.00    -0.200 F 
ATOM     85  F   UNL     1       7.813  -8.961  -3.514  1.00  0.00    -0.200 F 
ENDBRANCH  51  75
BRANCH  63  86
ATOM     86  C   UNL     1       2.570 -10.107   5.247  1.00  0.00     0.064 A 
ATOM     87  C   UNL     1       3.236 -11.332   5.409  1.00  0.00     0.173 A 
ATOM     88  C   UNL     1       1.169 -10.120   5.200  1.00  0.00     0.173 A 
ATOM     89  F   UNL     1       4.577 -11.374   5.431  1.00  0.00    -0.203 F 
ATOM     90  C   UNL     1       2.525 -12.526   5.491  1.00  0.00     0.198 A 
ATOM     91  C   UNL     1       0.461 -11.313   5.311  1.00  0.00     0.198 A 
ATOM     92  F   UNL     1       0.486  -8.977   5.039  1.00  0.00    -0.203 F 
ATOM     93  F   UNL     1       3.183 -13.690   5.586  1.00  0.00    -0.200 F 
ATOM     94  C   UNL     1       1.139 -12.515   5.447  1.00  0.00     0.200 A 
ATOM     95  F   UNL     1      -0.879 -11.301   5.272  1.00  0.00    -0.200 F 
ATOM     96  F   UNL     1       0.456 -13.666   5.521  1.00  0.00    -0.200 F 
ENDBRANCH  63  86
ENDBRANCH  37  38
ENDBRANCH  30  32
ENDBRANCH  29  30
ENDBRANCH  28  29
ENDBRANCH  27  28
ENDBRANCH  26  27
ENDBRANCH  25  26
ENDBRANCH   1  25
TORSDOF 21
