REMARK SMILES COc1cc2[nH]nc(CC(=O)OCCOCCOCCOC(=O)c3ccc(-c4c5nc(c(-c6c(F)c(F)c(F)c(F)c6F)c6ccc([nH]6)c(-c6c(F)c(F)c(F)c(F)c6F)c6nc(c(-c7c(F)c(F)c(F)c(F)c7F)c7ccc4[nH]7)C=C6)C=C5)cc3)c2cc1OC(C)C
REMARK SMILES IDX 16 1 15 2 14 3 13 4 12 5 10 6 11 7 9 8 8 9 3 10 4 11 89 12
REMARK SMILES IDX 5 13 88 14 6 15 87 16 7 17 2 19 1 20 90 21 91 22 92 23 93 24
REMARK SMILES IDX 17 25 18 26 19 27 20 28 21 29 22 30 23 31 24 32 25 33 86 34
REMARK SMILES IDX 26 35 85 36 27 37 28 38 29 39 79 40 30 41 84 42 78 43 80 44
REMARK SMILES IDX 31 45 83 46 77 47 76 48 32 50 64 51 44 52 63 53 45 54 48 55
REMARK SMILES IDX 62 56 81 57 46 58 47 59 61 61 82 62 49 63 33 64 34 65 42 66
REMARK SMILES IDX 35 67 36 68 40 69 43 70 37 71 38 72 41 73 39 74 65 75 66 76
REMARK SMILES IDX 74 77 67 78 68 79 72 80 75 81 69 82 70 83 73 84 71 85 50 86
REMARK SMILES IDX 51 87 59 88 52 89 53 90 57 91 60 92 54 93 55 94 58 95 56 96
REMARK H PARENT 6 18 80 49 48 60
REMARK Flexibility Score: inf
ROOT
ATOM      1  C   UNL     1       2.484  10.091  -1.520  1.00  0.00     0.188 C 
ENDROOT
BRANCH   1   2
ATOM      2  O   UNL     1       3.501  10.557  -2.401  1.00  0.00    -0.376 OA
BRANCH   2   3
ATOM      3  C   UNL     1       3.900   9.658  -3.437  1.00  0.00     0.202 C 
BRANCH   3   4
ATOM      4  C   UNL     1       4.511   8.316  -2.990  1.00  0.00     0.261 C 
BRANCH   4   5
ATOM      5  O   UNL     1       3.695   7.573  -2.056  1.00  0.00    -0.463 OA
BRANCH   5   6
ATOM      6  C   UNL     1       4.289   7.226  -0.882  1.00  0.00     0.312 C 
ATOM      7  O   UNL     1       5.491   7.357  -0.658  1.00  0.00    -0.252 OA
BRANCH   6   8
ATOM      8  C   UNL     1       3.337   6.827   0.223  1.00  0.00     0.181 C 
BRANCH   8   9
ATOM      9  C   UNL     1       2.087   6.112  -0.160  1.00  0.00     0.081 A 
ATOM     10  C   UNL     1       0.938   2.143  -0.857  1.00  0.00     0.162 A 
ATOM     11  C   UNL     1       0.042   3.233  -0.791  1.00  0.00     0.078 A 
ATOM     12  C   UNL     1       2.317   2.328  -0.685  1.00  0.00     0.162 A 
ATOM     13  C   UNL     1       0.583   4.506  -0.556  1.00  0.00     0.069 A 
ATOM     14  C   UNL     1       2.811   3.619  -0.435  1.00  0.00     0.062 A 
ATOM     15  N   UNL     1       0.020   5.754  -0.472  1.00  0.00    -0.277 N 
ATOM     16  C   UNL     1       1.942   4.718  -0.382  1.00  0.00     0.027 A 
ATOM     17  N   UNL     1       0.897   6.733  -0.161  1.00  0.00    -0.179 NA
ATOM     18  H   UNL     1      -0.938   5.921  -0.626  1.00  0.00     0.190 HD
BRANCH  10  19
ATOM     19  O   UNL     1       0.442   0.942  -1.287  1.00  0.00    -0.493 OA
ATOM     20  C   UNL     1      -0.450   0.295  -0.384  1.00  0.00     0.278 C 
ENDBRANCH  10  19
BRANCH  12  21
ATOM     21  O   UNL     1       3.345   1.436  -0.789  1.00  0.00    -0.487 OA
BRANCH  21  22
ATOM     22  C   UNL     1       3.244   0.040  -0.527  1.00  0.00     0.167 C 
ATOM     23  C   UNL     1       2.609  -0.324   0.813  1.00  0.00     0.052 C 
ATOM     24  C   UNL     1       2.808  -0.755  -1.754  1.00  0.00     0.052 C 
ENDBRANCH  21  22
ENDBRANCH  12  21
ENDBRANCH   8   9
ENDBRANCH   6   8
ENDBRANCH   5   6
ENDBRANCH   4   5
ENDBRANCH   3   4
ENDBRANCH   2   3
ENDBRANCH   1   2
BRANCH   1  25
ATOM     25  C   UNL     1       1.171   9.648  -2.167  1.00  0.00     0.188 C 
BRANCH  25  26
ATOM     26  O   UNL     1       1.300   8.771  -3.277  1.00  0.00    -0.376 OA
BRANCH  26  27
ATOM     27  C   UNL     1       0.093   8.322  -3.895  1.00  0.00     0.202 C 
BRANCH  27  28
ATOM     28  C   UNL     1      -0.968   9.396  -4.205  1.00  0.00     0.261 C 
BRANCH  28  29
ATOM     29  O   UNL     1      -1.480  10.115  -3.061  1.00  0.00    -0.460 OA
BRANCH  29  30
ATOM     30  C   UNL     1      -1.934   9.388  -2.009  1.00  0.00     0.338 C 
ATOM     31  O   UNL     1      -2.196   8.205  -2.002  1.00  0.00    -0.246 OA
BRANCH  30  32
ATOM     32  C   UNL     1      -1.838  10.229  -0.778  1.00  0.00     0.060 A 
ATOM     33  C   UNL     1      -1.487   9.586   0.416  1.00  0.00     0.016 A 
ATOM     34  C   UNL     1      -2.025  11.616  -0.783  1.00  0.00     0.016 A 
ATOM     35  C   UNL     1      -1.404  10.303   1.611  1.00  0.00     0.010 A 
ATOM     36  C   UNL     1      -1.940  12.337   0.417  1.00  0.00     0.010 A 
ATOM     37  C   UNL     1      -1.681  11.676   1.631  1.00  0.00    -0.014 A 
BRANCH  37  38
ATOM     38  C   UNL     1      -1.894  12.345   2.944  1.00  0.00     0.031 A 
ATOM     39  C   UNL     1      -3.308  12.576   3.412  1.00  0.00     0.074 A 
ATOM     40  C   UNL     1      -0.868  12.660   3.756  1.00  0.00     0.049 A 
ATOM     41  N   UNL     1      -3.745  13.064   4.546  1.00  0.00    -0.248 NA
ATOM     42  C   UNL     1      -4.376  12.200   2.472  1.00  0.00     0.031 C 
ATOM     43  C   UNL     1       0.546  12.463   3.452  1.00  0.00     0.029 A 
ATOM     44  N   UNL     1      -0.868  13.206   5.019  1.00  0.00    -0.354 N 
ATOM     45  C   UNL     1      -5.131  13.048   4.456  1.00  0.00     0.074 A 
ATOM     46  C   UNL     1      -5.464  12.548   3.140  1.00  0.00     0.031 C 
ATOM     47  C   UNL     1       1.280  12.876   4.501  1.00  0.00     0.029 A 
ATOM     48  C   UNL     1       0.389  13.387   5.543  1.00  0.00     0.049 A 
ATOM     49  H   UNL     1      -1.692  13.446   5.502  1.00  0.00     0.167 HD
ATOM     50  C   UNL     1      -6.049  13.400   5.389  1.00  0.00     0.037 A 
ATOM     51  C   UNL     1       0.775  13.909   6.725  1.00  0.00     0.037 A 
ATOM     52  C   UNL     1      -5.729  13.901   6.700  1.00  0.00     0.049 A 
ATOM     53  C   UNL     1      -0.266  14.357   7.722  1.00  0.00     0.074 A 
ATOM     54  C   UNL     1      -6.593  14.270   7.716  1.00  0.00     0.029 A 
ATOM     55  N   UNL     1      -4.443  14.114   7.174  1.00  0.00    -0.354 N 
ATOM     56  N   UNL     1      -1.574  14.303   7.642  1.00  0.00    -0.248 NA
ATOM     57  C   UNL     1       0.229  14.929   8.984  1.00  0.00     0.031 C 
ATOM     58  C   UNL     1      -5.833  14.764   8.781  1.00  0.00     0.029 A 
ATOM     59  C   UNL     1      -4.493  14.635   8.458  1.00  0.00     0.049 A 
ATOM     60  H   UNL     1      -3.618  13.922   6.673  1.00  0.00     0.167 HD
ATOM     61  C   UNL     1      -2.054  14.797   8.850  1.00  0.00     0.074 A 
ATOM     62  C   UNL     1      -0.897  15.129   9.653  1.00  0.00     0.031 C 
ATOM     63  C   UNL     1      -3.338  14.960   9.257  1.00  0.00     0.037 A 
BRANCH  50  64
ATOM     64  C   UNL     1      -7.498  13.279   5.011  1.00  0.00     0.064 A 
ATOM     65  C   UNL     1      -8.117  12.031   4.838  1.00  0.00     0.173 A 
ATOM     66  C   UNL     1      -8.286  14.428   4.848  1.00  0.00     0.173 A 
ATOM     67  F   UNL     1      -7.405  10.900   4.966  1.00  0.00    -0.203 F 
ATOM     68  C   UNL     1      -9.462  11.940   4.489  1.00  0.00     0.198 A 
ATOM     69  C   UNL     1      -9.638  14.333   4.532  1.00  0.00     0.198 A 
ATOM     70  F   UNL     1      -7.746  15.646   5.004  1.00  0.00    -0.203 F 
ATOM     71  F   UNL     1     -10.017  10.739   4.276  1.00  0.00    -0.200 F 
ATOM     72  C   UNL     1     -10.223  13.090   4.344  1.00  0.00     0.200 A 
ATOM     73  F   UNL     1     -10.375  15.445   4.407  1.00  0.00    -0.200 F 
ATOM     74  F   UNL     1     -11.519  13.000   4.015  1.00  0.00    -0.200 F 
ENDBRANCH  50  64
BRANCH  51  75
ATOM     75  C   UNL     1       2.224  14.042   7.045  1.00  0.00     0.064 A 
ATOM     76  C   UNL     1       2.813  13.301   8.080  1.00  0.00     0.173 A 
ATOM     77  C   UNL     1       3.038  14.949   6.351  1.00  0.00     0.173 A 
ATOM     78  F   UNL     1       2.071  12.445   8.798  1.00  0.00    -0.203 F 
ATOM     79  C   UNL     1       4.152  13.480   8.423  1.00  0.00     0.198 A 
ATOM     80  C   UNL     1       4.385  15.103   6.673  1.00  0.00     0.198 A 
ATOM     81  F   UNL     1       2.522  15.690   5.359  1.00  0.00    -0.203 F 
ATOM     82  F   UNL     1       4.673  12.805   9.457  1.00  0.00    -0.200 F 
ATOM     83  C   UNL     1       4.938  14.377   7.715  1.00  0.00     0.200 A 
ATOM     84  F   UNL     1       5.142  15.965   5.980  1.00  0.00    -0.200 F 
ATOM     85  F   UNL     1       6.225  14.550   8.047  1.00  0.00    -0.200 F 
ENDBRANCH  51  75
BRANCH  63  86
ATOM     86  C   UNL     1      -3.564  15.475  10.653  1.00  0.00     0.064 A 
ATOM     87  C   UNL     1      -3.236  16.788  11.024  1.00  0.00     0.173 A 
ATOM     88  C   UNL     1      -4.133  14.645  11.632  1.00  0.00     0.173 A 
ATOM     89  F   UNL     1      -2.682  17.624  10.132  1.00  0.00    -0.203 F 
ATOM     90  C   UNL     1      -3.423  17.234  12.331  1.00  0.00     0.198 A 
ATOM     91  C   UNL     1      -4.354  15.105  12.928  1.00  0.00     0.198 A 
ATOM     92  F   UNL     1      -4.480  13.384  11.333  1.00  0.00    -0.203 F 
ATOM     93  F   UNL     1      -3.038  18.470  12.677  1.00  0.00    -0.200 F 
ATOM     94  C   UNL     1      -3.987  16.395  13.280  1.00  0.00     0.200 A 
ATOM     95  F   UNL     1      -4.917  14.298  13.838  1.00  0.00    -0.200 F 
ATOM     96  F   UNL     1      -4.166  16.825  14.536  1.00  0.00    -0.200 F 
ENDBRANCH  63  86
ENDBRANCH  37  38
ENDBRANCH  30  32
ENDBRANCH  29  30
ENDBRANCH  28  29
ENDBRANCH  27  28
ENDBRANCH  26  27
ENDBRANCH  25  26
ENDBRANCH   1  25
TORSDOF 21
