REMARK SMILES CCOc1cc(/C=C2/SC(=O)N(c3ccc(C)c(C)c3)C2=O)ccc1O[C@@H](C)C(=O)OCCOCCOCCOC(=O)c1ccc(-c2c3nc(c(-c4c(F)c(F)c(F)c(F)c4F)c4ccc([nH]4)c(-c4c(F)c(F)c(F)c(F)c4F)c4nc(c(-c5c(F)c(F)c(F)c(F)c5F)c5ccc2[nH]5)C=C4)C=C3)cc1
REMARK SMILES IDX 35 1 34 2 33 3 32 4 31 5 29 6 30 7 27 8 28 9 26 10 25 11
REMARK SMILES IDX 4 12 5 13 6 14 24 15 23 16 3 17 2 18 1 19 7 20 8 21 9 22
REMARK SMILES IDX 21 23 10 24 12 25 22 26 11 27 13 28 14 29 20 30 15 31 18 32
REMARK SMILES IDX 16 33 19 34 17 35 36 36 37 37 38 38 39 39 40 40 41 41 42 42
REMARK SMILES IDX 43 43 44 44 105 45 45 46 104 47 46 48 47 49 48 50 98 51
REMARK SMILES IDX 49 52 103 53 97 54 99 55 50 56 102 57 96 58 95 59 51 61
REMARK SMILES IDX 83 62 63 63 82 64 64 65 67 66 81 67 100 68 65 69 66 70 80 72
REMARK SMILES IDX 101 73 68 74 52 75 53 76 61 77 54 78 55 79 59 80 62 81 56 82
REMARK SMILES IDX 57 83 60 84 58 85 84 86 85 87 93 88 86 89 87 90 91 91 94 92
REMARK SMILES IDX 88 93 89 94 92 95 90 96 69 97 70 98 78 99 71 100 72 101
REMARK SMILES IDX 76 102 79 103 73 104 74 105 77 106 75 107
REMARK H PARENT 99 60 67 71
REMARK Flexibility Score: inf
ROOT
ATOM      1  C   UNL     1       0.138  -3.090   2.273  1.00  0.00     0.188 C 
ENDROOT
BRANCH   1   2
ATOM      2  O   UNL     1      -0.538  -4.194   1.711  1.00  0.00    -0.376 OA
BRANCH   2   3
ATOM      3  C   UNL     1      -1.252  -3.974   0.502  1.00  0.00     0.202 C 
BRANCH   3   4
ATOM      4  C   UNL     1      -0.805  -2.963  -0.578  1.00  0.00     0.261 C 
BRANCH   4   5
ATOM      5  O   UNL     1       0.280  -2.072  -0.276  1.00  0.00    -0.461 OA
BRANCH   5   6
ATOM      6  C   UNL     1       0.110  -0.754   0.028  1.00  0.00     0.347 C 
ATOM      7  O   UNL     1      -0.970  -0.268   0.345  1.00  0.00    -0.248 OA
BRANCH   6   8
ATOM      8  C   UNL     1       1.490   0.014   0.076  1.00  0.00     0.279 C 
ATOM      9  C   UNL     1       1.704   1.413  -0.493  1.00  0.00     0.066 C 
BRANCH   8  10
ATOM     10  O   UNL     1       2.688  -0.659  -0.229  1.00  0.00    -0.475 OA
BRANCH  10  11
ATOM     11  C   UNL     1       2.970  -1.147  -1.469  1.00  0.00     0.162 A 
ATOM     12  C   UNL     1       2.120  -1.475  -2.537  1.00  0.00     0.161 A 
ATOM     13  C   UNL     1       2.578  -2.494  -3.404  1.00  0.00     0.058 A 
ATOM     14  C   UNL     1       3.874  -3.056  -3.259  1.00  0.00    -0.020 A 
ATOM     15  C   UNL     1       4.320  -1.518  -1.495  1.00  0.00     0.051 A 
ATOM     16  C   UNL     1       4.787  -2.431  -2.417  1.00  0.00     0.012 A 
BRANCH  12  17
ATOM     17  O   UNL     1       0.774  -1.170  -2.556  1.00  0.00    -0.490 OA
BRANCH  17  18
ATOM     18  C   UNL     1       0.303  -0.002  -3.251  1.00  0.00     0.226 C 
ATOM     19  C   UNL     1      -0.814   0.722  -2.471  1.00  0.00     0.049 C 
ENDBRANCH  17  18
ENDBRANCH  12  17
BRANCH  14  20
ATOM     20  C   UNL     1       4.317  -4.321  -3.885  1.00  0.00     0.029 C 
ATOM     21  C   UNL     1       4.840  -5.391  -3.237  1.00  0.00     0.083 C 
ATOM     22  S   UNL     1       5.501  -6.747  -4.095  1.00  0.00    -0.022 SA
ATOM     23  C   UNL     1       5.001  -5.650  -1.756  1.00  0.00     0.272 C 
ATOM     24  C   UNL     1       5.988  -7.593  -2.626  1.00  0.00     0.298 C 
ATOM     25  N   UNL     1       5.580  -6.894  -1.528  1.00  0.00    -0.236 N 
ATOM     26  O   UNL     1       4.700  -4.850  -0.884  1.00  0.00    -0.268 OA
ATOM     27  O   UNL     1       6.566  -8.678  -2.669  1.00  0.00    -0.260 OA
BRANCH  25  28
ATOM     28  C   UNL     1       5.685  -7.427  -0.212  1.00  0.00     0.053 A 
ATOM     29  C   UNL     1       4.516  -7.730   0.485  1.00  0.00     0.027 A 
ATOM     30  C   UNL     1       6.915  -7.645   0.421  1.00  0.00     0.030 A 
ATOM     31  C   UNL     1       4.566  -8.141   1.820  1.00  0.00     0.006 A 
ATOM     32  C   UNL     1       6.973  -8.026   1.786  1.00  0.00    -0.046 A 
ATOM     33  C   UNL     1       5.779  -8.218   2.507  1.00  0.00    -0.048 A 
ATOM     34  C   UNL     1       8.306  -8.201   2.461  1.00  0.00     0.044 C 
ATOM     35  C   UNL     1       5.726  -8.375   4.006  1.00  0.00     0.044 C 
ENDBRANCH  25  28
ENDBRANCH  14  20
ENDBRANCH  10  11
ENDBRANCH   8  10
ENDBRANCH   6   8
ENDBRANCH   5   6
ENDBRANCH   4   5
ENDBRANCH   3   4
ENDBRANCH   2   3
ENDBRANCH   1   2
BRANCH   1  36
ATOM     36  C   UNL     1       1.605  -2.969   1.818  1.00  0.00     0.188 C 
BRANCH  36  37
ATOM     37  O   UNL     1       2.069  -3.793   0.770  1.00  0.00    -0.376 OA
BRANCH  37  38
ATOM     38  C   UNL     1       1.958  -5.191   0.972  1.00  0.00     0.202 C 
BRANCH  38  39
ATOM     39  C   UNL     1       2.408  -5.782   2.319  1.00  0.00     0.261 C 
BRANCH  39  40
ATOM     40  O   UNL     1       1.963  -5.108   3.509  1.00  0.00    -0.460 OA
BRANCH  40  41
ATOM     41  C   UNL     1       2.961  -4.588   4.275  1.00  0.00     0.338 C 
ATOM     42  O   UNL     1       4.160  -4.788   4.188  1.00  0.00    -0.246 OA
BRANCH  41  43
ATOM     43  C   UNL     1       2.413  -3.511   5.122  1.00  0.00     0.060 A 
ATOM     44  C   UNL     1       2.799  -2.184   4.853  1.00  0.00     0.016 A 
ATOM     45  C   UNL     1       1.565  -3.806   6.184  1.00  0.00     0.016 A 
ATOM     46  C   UNL     1       2.353  -1.147   5.660  1.00  0.00     0.010 A 
ATOM     47  C   UNL     1       1.163  -2.771   7.029  1.00  0.00     0.010 A 
ATOM     48  C   UNL     1       1.590  -1.450   6.791  1.00  0.00    -0.014 A 
BRANCH  48  49
ATOM     49  C   UNL     1       1.478  -0.435   7.858  1.00  0.00     0.031 A 
ATOM     50  C   UNL     1       2.473  -0.494   8.982  1.00  0.00     0.074 A 
ATOM     51  C   UNL     1       0.549   0.532   7.806  1.00  0.00     0.049 A 
ATOM     52  N   UNL     1       2.555   0.236  10.063  1.00  0.00    -0.248 NA
ATOM     53  C   UNL     1       3.518  -1.527   8.872  1.00  0.00     0.031 C 
ATOM     54  C   UNL     1      -0.417   0.721   6.728  1.00  0.00     0.029 A 
ATOM     55  N   UNL     1       0.269   1.536   8.696  1.00  0.00    -0.354 N 
ATOM     56  C   UNL     1       3.649  -0.256  10.763  1.00  0.00     0.074 A 
ATOM     57  C   UNL     1       4.179  -1.367  10.007  1.00  0.00     0.031 C 
ATOM     58  C   UNL     1      -1.199   1.772   7.027  1.00  0.00     0.029 A 
ATOM     59  C   UNL     1      -0.809   2.303   8.332  1.00  0.00     0.049 A 
ATOM     60  H   UNL     1       0.789   1.692   9.517  1.00  0.00     0.167 HD
ATOM     61  C   UNL     1       4.167   0.189  11.932  1.00  0.00     0.037 A 
ATOM     62  C   UNL     1      -1.418   3.302   8.998  1.00  0.00     0.037 A 
ATOM     63  C   UNL     1       3.624   1.292  12.678  1.00  0.00     0.049 A 
ATOM     64  C   UNL     1      -0.876   3.722  10.341  1.00  0.00     0.074 A 
ATOM     65  C   UNL     1       4.065   1.827  13.873  1.00  0.00     0.029 A 
ATOM     66  N   UNL     1       2.507   2.024  12.297  1.00  0.00    -0.354 N 
ATOM     67  N   UNL     1       0.161   3.262  11.000  1.00  0.00    -0.248 NA
ATOM     68  C   UNL     1      -1.588   4.807  11.031  1.00  0.00     0.031 C 
ATOM     69  C   UNL     1       3.180   2.843  14.248  1.00  0.00     0.029 A 
ATOM     70  C   UNL     1       2.229   2.991  13.249  1.00  0.00     0.049 A 
ATOM     71  H   UNL     1       1.989   1.877  11.473  1.00  0.00     0.167 HD
ATOM     72  C   UNL     1       0.251   4.025  12.158  1.00  0.00     0.074 A 
ATOM     73  C   UNL     1      -0.834   4.983  12.106  1.00  0.00     0.031 C 
ATOM     74  C   UNL     1       1.151   3.945  13.170  1.00  0.00     0.037 A 
BRANCH  61  75
ATOM     75  C   UNL     1       5.353  -0.548  12.486  1.00  0.00     0.064 A 
ATOM     76  C   UNL     1       6.610  -0.507  11.864  1.00  0.00     0.173 A 
ATOM     77  C   UNL     1       5.230  -1.301  13.664  1.00  0.00     0.173 A 
ATOM     78  F   UNL     1       6.779   0.183  10.726  1.00  0.00    -0.203 F 
ATOM     79  C   UNL     1       7.690  -1.218  12.382  1.00  0.00     0.198 A 
ATOM     80  C   UNL     1       6.321  -1.982  14.198  1.00  0.00     0.198 A 
ATOM     81  F   UNL     1       4.051  -1.376  14.300  1.00  0.00    -0.203 F 
ATOM     82  F   UNL     1       8.865  -1.212  11.737  1.00  0.00    -0.200 F 
ATOM     83  C   UNL     1       7.547  -1.948  13.552  1.00  0.00     0.200 A 
ATOM     84  F   UNL     1       6.183  -2.675  15.337  1.00  0.00    -0.200 F 
ATOM     85  F   UNL     1       8.588  -2.627  14.052  1.00  0.00    -0.200 F 
ENDBRANCH  61  75
BRANCH  62  86
ATOM     86  C   UNL     1      -2.606   3.973   8.408  1.00  0.00     0.064 A 
ATOM     87  C   UNL     1      -2.552   5.314   8.005  1.00  0.00     0.173 A 
ATOM     88  C   UNL     1      -3.823   3.293   8.248  1.00  0.00     0.173 A 
ATOM     89  F   UNL     1      -1.419   6.014   8.159  1.00  0.00    -0.203 F 
ATOM     90  C   UNL     1      -3.674   5.955   7.483  1.00  0.00     0.198 A 
ATOM     91  C   UNL     1      -4.935   3.926   7.696  1.00  0.00     0.198 A 
ATOM     92  F   UNL     1      -3.930   2.009   8.619  1.00  0.00    -0.203 F 
ATOM     93  F   UNL     1      -3.607   7.252   7.152  1.00  0.00    -0.200 F 
ATOM     94  C   UNL     1      -4.862   5.259   7.323  1.00  0.00     0.200 A 
ATOM     95  F   UNL     1      -6.078   3.246   7.532  1.00  0.00    -0.200 F 
ATOM     96  F   UNL     1      -5.939   5.876   6.817  1.00  0.00    -0.200 F 
ENDBRANCH  62  86
BRANCH  74  97
ATOM     97  C   UNL     1       1.042   4.959  14.274  1.00  0.00     0.064 A 
ATOM     98  C   UNL     1      -0.015   4.944  15.196  1.00  0.00     0.173 A 
ATOM     99  C   UNL     1       2.037   5.936  14.434  1.00  0.00     0.173 A 
ATOM    100  F   UNL     1      -0.998   4.039  15.083  1.00  0.00    -0.203 F 
ATOM    101  C   UNL     1      -0.088   5.890  16.216  1.00  0.00     0.198 A 
ATOM    102  C   UNL     1       1.981   6.856  15.476  1.00  0.00     0.198 A 
ATOM    103  F   UNL     1       3.076   5.989  13.586  1.00  0.00    -0.203 F 
ATOM    104  F   UNL     1      -1.136   5.893  17.050  1.00  0.00    -0.200 F 
ATOM    105  C   UNL     1       0.913   6.840  16.360  1.00  0.00     0.200 A 
ATOM    106  F   UNL     1       2.960   7.760  15.624  1.00  0.00    -0.200 F 
ATOM    107  F   UNL     1       0.845   7.743  17.347  1.00  0.00    -0.200 F 
ENDBRANCH  74  97
ENDBRANCH  48  49
ENDBRANCH  41  43
ENDBRANCH  40  41
ENDBRANCH  39  40
ENDBRANCH  38  39
ENDBRANCH  37  38
ENDBRANCH  36  37
ENDBRANCH   1  36
TORSDOF 23
