REMARK SMILES Cc1ccc2c(c1)C=C(C(=O)OCCOCCOCCOC(=O)c1ccc(-c3c4nc(c(-c5c(F)c(F)c(F)c(F)c5F)c5ccc([nH]5)c(-c5c(F)c(F)c(F)c(F)c5F)c5nc(c(-c6c(F)c(F)c(F)c(F)c6F)c6ccc3[nH]6)C=C5)C=C4)cc1)[C@@H](C(F)(F)F)O2
REMARK SMILES IDX 17 1 16 2 15 3 14 4 13 5 12 6 10 7 11 8 9 9 1 10 2 11 3 12
REMARK SMILES IDX 7 13 4 14 6 15 5 16 8 17 92 18 87 19 88 20 89 21 90 22 91 23
REMARK SMILES IDX 18 24 19 25 20 26 21 27 22 28 23 29 24 30 25 31 86 32 26 33
REMARK SMILES IDX 85 34 27 35 28 36 29 37 79 38 30 39 84 40 78 41 80 42 31 43
REMARK SMILES IDX 83 44 77 45 76 46 32 48 64 49 44 50 63 51 45 52 48 53 62 54
REMARK SMILES IDX 81 55 46 56 47 57 61 59 82 60 49 61 33 62 34 63 42 64 35 65
REMARK SMILES IDX 36 66 40 67 43 68 37 69 38 70 41 71 39 72 65 73 66 74 74 75
REMARK SMILES IDX 67 76 68 77 72 78 75 79 69 80 70 81 73 82 71 83 50 84 51 85
REMARK SMILES IDX 59 86 52 87 53 88 57 89 60 90 54 91 55 92 58 93 56 94
REMARK H PARENT 80 47 48 58
REMARK Flexibility Score: inf
ROOT
ATOM      1  C   UNL     1       0.461   1.946   7.832  1.00  0.00     0.188 C 
ENDROOT
BRANCH   1   2
ATOM      2  C   UNL     1      -0.414   3.171   7.492  1.00  0.00     0.188 C 
BRANCH   2   3
ATOM      3  O   UNL     1      -1.206   3.809   8.471  1.00  0.00    -0.376 OA
BRANCH   3   4
ATOM      4  C   UNL     1      -2.226   3.116   9.171  1.00  0.00     0.202 C 
BRANCH   4   5
ATOM      5  C   UNL     1      -3.113   2.058   8.508  1.00  0.00     0.261 C 
BRANCH   5   6
ATOM      6  O   UNL     1      -2.424   1.135   7.658  1.00  0.00    -0.460 OA
BRANCH   6   7
ATOM      7  C   UNL     1      -2.794   1.175   6.355  1.00  0.00     0.338 C 
ATOM      8  O   UNL     1      -3.635   1.904   5.856  1.00  0.00    -0.246 OA
BRANCH   7   9
ATOM      9  C   UNL     1      -1.913   0.297   5.564  1.00  0.00     0.087 C 
ATOM     10  C   UNL     1       1.065   0.060   0.166  1.00  0.00     0.044 C 
ATOM     11  C   UNL     1       0.581  -0.419   1.504  1.00  0.00    -0.050 A 
ATOM     12  C   UNL     1       0.850  -1.729   1.918  1.00  0.00     0.007 A 
ATOM     13  C   UNL     1      -0.148   0.426   2.350  1.00  0.00     0.015 A 
ATOM     14  C   UNL     1       0.403  -2.183   3.161  1.00  0.00     0.047 A 
ATOM     15  C   UNL     1      -0.620  -0.039   3.584  1.00  0.00     0.017 A 
ATOM     16  C   UNL     1      -0.331  -1.340   3.994  1.00  0.00     0.128 A 
ATOM     17  C   UNL     1      -1.448   0.811   4.419  1.00  0.00     0.027 C 
ATOM     18  O   UNL     1      -0.730  -1.871   5.187  1.00  0.00    -0.475 OA
ATOM     19  C   UNL     1      -1.589  -1.087   6.060  1.00  0.00     0.316 C 
BRANCH  19  20
ATOM     20  C   UNL     1      -2.853  -1.905   6.362  1.00  0.00     0.430 C 
ATOM     21  F   UNL     1      -2.544  -3.161   6.766  1.00  0.00    -0.167 F 
ATOM     22  F   UNL     1      -3.584  -1.349   7.358  1.00  0.00    -0.167 F 
ATOM     23  F   UNL     1      -3.659  -2.011   5.282  1.00  0.00    -0.167 F 
ENDBRANCH  19  20
ENDBRANCH   7   9
ENDBRANCH   6   7
ENDBRANCH   5   6
ENDBRANCH   4   5
ENDBRANCH   3   4
ENDBRANCH   2   3
ENDBRANCH   1   2
BRANCH   1  24
ATOM     24  O   UNL     1       0.542   1.459   9.157  1.00  0.00    -0.376 OA
BRANCH  24  25
ATOM     25  C   UNL     1       0.964   2.338  10.191  1.00  0.00     0.202 C 
BRANCH  25  26
ATOM     26  C   UNL     1       2.256   3.146  10.034  1.00  0.00     0.261 C 
BRANCH  26  27
ATOM     27  O   UNL     1       2.248   4.011   8.888  1.00  0.00    -0.460 OA
BRANCH  27  28
ATOM     28  C   UNL     1       3.232   3.782   7.977  1.00  0.00     0.338 C 
ATOM     29  O   UNL     1       4.122   2.967   8.033  1.00  0.00    -0.246 OA
BRANCH  28  30
ATOM     30  C   UNL     1       2.927   4.570   6.764  1.00  0.00     0.060 A 
ATOM     31  C   UNL     1       2.832   5.961   6.818  1.00  0.00     0.016 A 
ATOM     32  C   UNL     1       2.725   3.885   5.558  1.00  0.00     0.016 A 
ATOM     33  C   UNL     1       2.547   6.672   5.650  1.00  0.00     0.010 A 
ATOM     34  C   UNL     1       2.418   4.596   4.397  1.00  0.00     0.010 A 
ATOM     35  C   UNL     1       2.344   5.996   4.433  1.00  0.00    -0.014 A 
BRANCH  35  36
ATOM     36  C   UNL     1       2.211   6.766   3.175  1.00  0.00     0.031 A 
ATOM     37  C   UNL     1       0.876   7.065   2.568  1.00  0.00     0.074 A 
ATOM     38  C   UNL     1       3.338   7.200   2.581  1.00  0.00     0.049 A 
ATOM     39  N   UNL     1       0.599   7.792   1.514  1.00  0.00    -0.248 NA
ATOM     40  C   UNL     1      -0.299   6.471   3.219  1.00  0.00     0.031 C 
ATOM     41  C   UNL     1       4.692   6.947   3.075  1.00  0.00     0.029 A 
ATOM     42  N   UNL     1       3.526   7.946   1.447  1.00  0.00    -0.354 N 
ATOM     43  C   UNL     1      -0.783   7.772   1.391  1.00  0.00     0.074 A 
ATOM     44  C   UNL     1      -1.285   6.917   2.448  1.00  0.00     0.031 C 
ATOM     45  C   UNL     1       5.572   7.546   2.259  1.00  0.00     0.029 A 
ATOM     46  C   UNL     1       4.846   8.206   1.178  1.00  0.00     0.049 A 
ATOM     47  H   UNL     1       2.786   8.263   0.880  1.00  0.00     0.167 HD
ATOM     48  C   UNL     1      -1.554   8.426   0.488  1.00  0.00     0.037 A 
ATOM     49  C   UNL     1       5.410   8.907   0.176  1.00  0.00     0.037 A 
ATOM     50  C   UNL     1      -1.044   9.258  -0.574  1.00  0.00     0.049 A 
ATOM     51  C   UNL     1       4.530   9.576  -0.841  1.00  0.00     0.074 A 
ATOM     52  C   UNL     1      -1.753   9.983  -1.518  1.00  0.00     0.029 A 
ATOM     53  N   UNL     1       0.301   9.467  -0.845  1.00  0.00    -0.354 N 
ATOM     54  N   UNL     1       3.222   9.608  -0.909  1.00  0.00    -0.248 NA
ATOM     55  C   UNL     1       5.207  10.317  -1.915  1.00  0.00     0.031 C 
ATOM     56  C   UNL     1      -0.840  10.586  -2.389  1.00  0.00     0.029 A 
ATOM     57  C   UNL     1       0.441  10.285  -1.957  1.00  0.00     0.049 A 
ATOM     58  H   UNL     1       1.047   9.091  -0.324  1.00  0.00     0.167 HD
ATOM     59  C   UNL     1       2.917  10.388  -2.016  1.00  0.00     0.074 A 
ATOM     60  C   UNL     1       4.178  10.825  -2.579  1.00  0.00     0.031 C 
ATOM     61  C   UNL     1       1.700  10.710  -2.518  1.00  0.00     0.037 A 
BRANCH  48  62
ATOM     62  C   UNL     1      -3.045   8.287   0.607  1.00  0.00     0.064 A 
ATOM     63  C   UNL     1      -3.754   8.919   1.640  1.00  0.00     0.173 A 
ATOM     64  C   UNL     1      -3.782   7.608  -0.375  1.00  0.00     0.173 A 
ATOM     65  F   UNL     1      -3.095   9.580   2.604  1.00  0.00    -0.203 F 
ATOM     66  C   UNL     1      -5.144   8.867   1.691  1.00  0.00     0.198 A 
ATOM     67  C   UNL     1      -5.174   7.580  -0.335  1.00  0.00     0.198 A 
ATOM     68  F   UNL     1      -3.154   6.997  -1.391  1.00  0.00    -0.203 F 
ATOM     69  F   UNL     1      -5.799   9.461   2.698  1.00  0.00    -0.200 F 
ATOM     70  C   UNL     1      -5.854   8.207   0.699  1.00  0.00     0.200 A 
ATOM     71  F   UNL     1      -5.859   6.958  -1.305  1.00  0.00    -0.200 F 
ATOM     72  F   UNL     1      -7.193   8.180   0.736  1.00  0.00    -0.200 F 
ENDBRANCH  48  62
BRANCH  49  73
ATOM     73  C   UNL     1       6.887   9.040   0.123  1.00  0.00     0.064 A 
ATOM     74  C   UNL     1       7.507  10.266   0.400  1.00  0.00     0.173 A 
ATOM     75  C   UNL     1       7.707   7.942  -0.171  1.00  0.00     0.173 A 
ATOM     76  F   UNL     1       6.761  11.348   0.669  1.00  0.00    -0.203 F 
ATOM     77  C   UNL     1       8.894  10.390   0.375  1.00  0.00     0.198 A 
ATOM     78  C   UNL     1       9.095   8.061  -0.168  1.00  0.00     0.198 A 
ATOM     79  F   UNL     1       7.160   6.747  -0.437  1.00  0.00    -0.203 F 
ATOM     80  F   UNL     1       9.461  11.581   0.612  1.00  0.00    -0.200 F 
ATOM     81  C   UNL     1       9.687   9.286   0.100  1.00  0.00     0.200 A 
ATOM     82  F   UNL     1       9.857   6.988  -0.418  1.00  0.00    -0.200 F 
ATOM     83  F   UNL     1      11.021   9.403   0.090  1.00  0.00    -0.200 F 
ENDBRANCH  49  73
BRANCH  61  84
ATOM     84  C   UNL     1       1.667  11.589  -3.736  1.00  0.00     0.064 A 
ATOM     85  C   UNL     1       2.065  11.115  -4.995  1.00  0.00     0.173 A 
ATOM     86  C   UNL     1       1.192  12.907  -3.652  1.00  0.00     0.173 A 
ATOM     87  F   UNL     1       2.541   9.867  -5.126  1.00  0.00    -0.203 F 
ATOM     88  C   UNL     1       2.012  11.934  -6.119  1.00  0.00     0.198 A 
ATOM     89  C   UNL     1       1.111  13.714  -4.784  1.00  0.00     0.198 A 
ATOM     90  F   UNL     1       0.792  13.409  -2.474  1.00  0.00    -0.203 F 
ATOM     91  F   UNL     1       2.442  11.474  -7.302  1.00  0.00    -0.200 F 
ATOM     92  C   UNL     1       1.527  13.230  -6.015  1.00  0.00     0.200 A 
ATOM     93  F   UNL     1       0.629  14.961  -4.684  1.00  0.00    -0.200 F 
ATOM     94  F   UNL     1       1.468  14.014  -7.100  1.00  0.00    -0.200 F 
ENDBRANCH  61  84
ENDBRANCH  35  36
ENDBRANCH  28  30
ENDBRANCH  27  28
ENDBRANCH  26  27
ENDBRANCH  25  26
ENDBRANCH  24  25
ENDBRANCH   1  24
TORSDOF 18
