REMARK SMILES O=C(C[C@@H]([NH2+]C[C@H]1CCCO1)C(=O)OCCOCCOCCOC(=O)c1ccc(-c2c3nc(c(-c4c(F)c(F)c(F)c(F)c4F)c4ccc([nH]4)c(-c4c(F)c(F)c(F)c(F)c4F)c4nc(c(-c5c(F)c(F)c(F)c(F)c5F)c5ccc2[nH]5)C=C4)C=C3)cc1)Nc1cccc(Cl)c1
REMARK SMILES IDX 18 1 17 2 16 3 15 4 14 5 12 6 13 7 4 8 3 9 2 10 1 11 89 12
REMARK SMILES IDX 90 14 91 15 96 16 92 17 94 18 93 19 95 20 5 21 6 24 7 25
REMARK SMILES IDX 8 26 11 27 9 28 10 29 19 30 20 31 21 32 22 33 23 34 24 35
REMARK SMILES IDX 25 36 26 37 27 38 88 39 28 40 87 41 29 42 30 43 31 44 81 45
REMARK SMILES IDX 32 46 86 47 80 48 82 49 33 50 85 51 79 52 78 53 34 55 66 56
REMARK SMILES IDX 46 57 65 58 47 59 50 60 64 61 83 62 48 63 49 64 63 66 84 67
REMARK SMILES IDX 51 68 35 69 36 70 44 71 37 72 38 73 42 74 45 75 39 76 40 77
REMARK SMILES IDX 43 78 41 79 67 80 68 81 76 82 69 83 70 84 74 85 77 86 71 87
REMARK SMILES IDX 72 88 75 89 73 90 52 91 53 92 61 93 54 94 55 95 59 96 62 97
REMARK SMILES IDX 56 98 57 99 60 100 58 101
REMARK H PARENT 89 13 5 22 5 23 82 54 50 65
REMARK Flexibility Score: inf
ROOT
ATOM      1  C   UNL     1       0.909   4.897  -4.058  1.00  0.00     0.188 C 
ENDROOT
BRANCH   1   2
ATOM      2  O   UNL     1       0.055   3.972  -4.707  1.00  0.00    -0.376 OA
BRANCH   2   3
ATOM      3  C   UNL     1      -0.837   3.176  -3.933  1.00  0.00     0.202 C 
BRANCH   3   4
ATOM      4  C   UNL     1      -0.408   2.520  -2.602  1.00  0.00     0.261 C 
BRANCH   4   5
ATOM      5  O   UNL     1       0.225   3.382  -1.629  1.00  0.00    -0.459 OA
BRANCH   5   6
ATOM      6  C   UNL     1       1.528   3.105  -1.365  1.00  0.00     0.365 C 
ATOM      7  O   UNL     1       2.109   2.167  -1.903  1.00  0.00    -0.245 OA
BRANCH   6   8
ATOM      8  C   UNL     1       2.256   4.192  -0.520  1.00  0.00     0.302 C 
BRANCH   8   9
ATOM      9  C   UNL     1       1.349   5.071   0.369  1.00  0.00     0.177 C 
BRANCH   9  10
ATOM     10  C   UNL     1       2.116   6.254   0.971  1.00  0.00     0.231 C 
ATOM     11  O   UNL     1       2.044   7.383   0.497  1.00  0.00    -0.274 OA
ATOM     12  N   UNL     1       2.932   5.861   2.018  1.00  0.00    -0.326 N 
ATOM     13  H   UNL     1       2.950   4.894   2.205  1.00  0.00     0.169 HD
BRANCH  12  14
ATOM     14  C   UNL     1       3.739   6.658   2.850  1.00  0.00     0.042 A 
ATOM     15  C   UNL     1       4.794   6.010   3.509  1.00  0.00     0.026 A 
ATOM     16  C   UNL     1       3.502   8.009   3.101  1.00  0.00     0.046 A 
ATOM     17  C   UNL     1       5.600   6.695   4.419  1.00  0.00     0.004 A 
ATOM     18  C   UNL     1       4.286   8.679   4.048  1.00  0.00     0.043 A 
ATOM     19  C   UNL     1       5.333   8.030   4.705  1.00  0.00     0.020 A 
ATOM     20  Cl  UNL     1       3.935  10.317   4.451  1.00  0.00    -0.084 Cl
ENDBRANCH  12  14
ENDBRANCH   9  10
ENDBRANCH   8   9
BRANCH   8  21
ATOM     21  N   UNL     1       3.351   3.631   0.330  1.00  0.00    -0.332 N 
ATOM     22  H   UNL     1       2.914   3.084   1.072  1.00  0.00     0.347 HD
ATOM     23  H   UNL     1       3.881   4.444   0.645  1.00  0.00     0.347 HD
BRANCH  21  24
ATOM     24  C   UNL     1       4.347   2.763  -0.333  1.00  0.00     0.293 C 
BRANCH  24  25
ATOM     25  C   UNL     1       5.368   3.505  -1.223  1.00  0.00     0.173 C 
ATOM     26  C   UNL     1       5.032   3.664  -2.698  1.00  0.00     0.040 C 
ATOM     27  O   UNL     1       5.566   4.824  -0.673  1.00  0.00    -0.372 OA
ATOM     28  C   UNL     1       4.850   5.144  -2.919  1.00  0.00     0.031 C 
ATOM     29  C   UNL     1       5.508   5.791  -1.722  1.00  0.00     0.161 C 
ENDBRANCH  24  25
ENDBRANCH  21  24
ENDBRANCH   8  21
ENDBRANCH   6   8
ENDBRANCH   5   6
ENDBRANCH   4   5
ENDBRANCH   3   4
ENDBRANCH   2   3
ENDBRANCH   1   2
BRANCH   1  30
ATOM     30  C   UNL     1       0.314   5.900  -3.061  1.00  0.00     0.188 C 
BRANCH  30  31
ATOM     31  O   UNL     1      -0.960   5.563  -2.571  1.00  0.00    -0.376 OA
BRANCH  31  32
ATOM     32  C   UNL     1      -2.108   6.282  -2.992  1.00  0.00     0.202 C 
BRANCH  32  33
ATOM     33  C   UNL     1      -2.254   6.952  -4.376  1.00  0.00     0.261 C 
BRANCH  33  34
ATOM     34  O   UNL     1      -1.070   7.433  -5.025  1.00  0.00    -0.460 OA
BRANCH  34  35
ATOM     35  C   UNL     1      -0.588   8.630  -4.616  1.00  0.00     0.338 C 
ATOM     36  O   UNL     1      -1.069   9.368  -3.768  1.00  0.00    -0.246 OA
BRANCH  35  37
ATOM     37  C   UNL     1       0.766   8.781  -5.194  1.00  0.00     0.060 A 
ATOM     38  C   UNL     1       1.873   8.840  -4.332  1.00  0.00     0.016 A 
ATOM     39  C   UNL     1       0.949   8.824  -6.577  1.00  0.00     0.016 A 
ATOM     40  C   UNL     1       3.163   8.959  -4.852  1.00  0.00     0.010 A 
ATOM     41  C   UNL     1       2.239   8.974  -7.095  1.00  0.00     0.010 A 
ATOM     42  C   UNL     1       3.349   9.068  -6.235  1.00  0.00    -0.014 A 
BRANCH  42  43
ATOM     43  C   UNL     1       4.668   9.476  -6.780  1.00  0.00     0.031 A 
ATOM     44  C   UNL     1       4.878  10.925  -7.124  1.00  0.00     0.074 A 
ATOM     45  C   UNL     1       5.662   8.590  -6.968  1.00  0.00     0.049 A 
ATOM     46  N   UNL     1       5.899  11.507  -7.699  1.00  0.00    -0.248 NA
ATOM     47  C   UNL     1       3.779  11.840  -6.777  1.00  0.00     0.031 C 
ATOM     48  C   UNL     1       5.604   7.170  -6.634  1.00  0.00     0.029 A 
ATOM     49  N   UNL     1       6.914   8.760  -7.506  1.00  0.00    -0.354 N 
ATOM     50  C   UNL     1       5.561  12.851  -7.793  1.00  0.00     0.074 A 
ATOM     51  C   UNL     1       4.230  12.993  -7.245  1.00  0.00     0.031 C 
ATOM     52  C   UNL     1       6.765   6.592  -6.989  1.00  0.00     0.029 A 
ATOM     53  C   UNL     1       7.630   7.593  -7.615  1.00  0.00     0.049 A 
ATOM     54  H   UNL     1       7.266   9.636  -7.788  1.00  0.00     0.167 HD
ATOM     55  C   UNL     1       6.296  13.875  -8.288  1.00  0.00     0.037 A 
ATOM     56  C   UNL     1       8.829   7.358  -8.186  1.00  0.00     0.037 A 
ATOM     57  C   UNL     1       7.618  13.731  -8.838  1.00  0.00     0.049 A 
ATOM     58  C   UNL     1       9.592   8.501  -8.811  1.00  0.00     0.074 A 
ATOM     59  C   UNL     1       8.451  14.712  -9.348  1.00  0.00     0.029 A 
ATOM     60  N   UNL     1       8.297  12.528  -8.959  1.00  0.00    -0.354 N 
ATOM     61  N   UNL     1       9.278   9.773  -8.878  1.00  0.00    -0.248 NA
ATOM     62  C   UNL     1      10.880   8.173  -9.440  1.00  0.00     0.031 C 
ATOM     63  C   UNL     1       9.605  14.094  -9.838  1.00  0.00     0.029 A 
ATOM     64  C   UNL     1       9.525  12.738  -9.567  1.00  0.00     0.049 A 
ATOM     65  H   UNL     1       7.957  11.654  -8.658  1.00  0.00     0.167 HD
ATOM     66  C   UNL     1      10.339  10.398  -9.523  1.00  0.00     0.074 A 
ATOM     67  C   UNL     1      11.314   9.368  -9.815  1.00  0.00     0.031 C 
ATOM     68  C   UNL     1      10.494  11.707  -9.844  1.00  0.00     0.037 A 
BRANCH  55  69
ATOM     69  C   UNL     1       5.670  15.240  -8.290  1.00  0.00     0.064 A 
ATOM     70  C   UNL     1       5.435  15.950  -7.103  1.00  0.00     0.173 A 
ATOM     71  C   UNL     1       5.328  15.859  -9.502  1.00  0.00     0.173 A 
ATOM     72  F   UNL     1       5.730  15.398  -5.916  1.00  0.00    -0.203 F 
ATOM     73  C   UNL     1       4.856  17.216  -7.128  1.00  0.00     0.198 A 
ATOM     74  C   UNL     1       4.782  17.139  -9.525  1.00  0.00     0.198 A 
ATOM     75  F   UNL     1       5.534  15.226 -10.667  1.00  0.00    -0.203 F 
ATOM     76  F   UNL     1       4.594  17.854  -5.979  1.00  0.00    -0.200 F 
ATOM     77  C   UNL     1       4.539  17.813  -8.339  1.00  0.00     0.200 A 
ATOM     78  F   UNL     1       4.491  17.720 -10.698  1.00  0.00    -0.200 F 
ATOM     79  F   UNL     1       3.991  19.036  -8.362  1.00  0.00    -0.200 F 
ENDBRANCH  55  69
BRANCH  56  80
ATOM     80  C   UNL     1       9.383   5.977  -8.218  1.00  0.00     0.064 A 
ATOM     81  C   UNL     1      10.547   5.648  -7.510  1.00  0.00     0.173 A 
ATOM     82  C   UNL     1       8.782   4.968  -8.986  1.00  0.00     0.173 A 
ATOM     83  F   UNL     1      11.177   6.584  -6.784  1.00  0.00    -0.203 F 
ATOM     84  C   UNL     1      11.101   4.371  -7.586  1.00  0.00     0.198 A 
ATOM     85  C   UNL     1       9.318   3.683  -9.034  1.00  0.00     0.198 A 
ATOM     86  F   UNL     1       7.670   5.230  -9.688  1.00  0.00    -0.203 F 
ATOM     87  F   UNL     1      12.245   4.100  -6.944  1.00  0.00    -0.200 F 
ATOM     88  C   UNL     1      10.482   3.388  -8.342  1.00  0.00     0.200 A 
ATOM     89  F   UNL     1       8.709   2.733  -9.757  1.00  0.00    -0.200 F 
ATOM     90  F   UNL     1      11.013   2.159  -8.413  1.00  0.00    -0.200 F 
ENDBRANCH  56  80
BRANCH  68  91
ATOM     91  C   UNL     1      11.782  12.117 -10.503  1.00  0.00     0.064 A 
ATOM     92  C   UNL     1      12.095  11.745 -11.819  1.00  0.00     0.173 A 
ATOM     93  C   UNL     1      12.699  12.933  -9.820  1.00  0.00     0.173 A 
ATOM     94  F   UNL     1      11.261  10.956 -12.514  1.00  0.00    -0.203 F 
ATOM     95  C   UNL     1      13.288  12.148 -12.415  1.00  0.00     0.198 A 
ATOM     96  C   UNL     1      13.873  13.364 -10.431  1.00  0.00     0.198 A 
ATOM     97  F   UNL     1      12.447  13.327  -8.563  1.00  0.00    -0.203 F 
ATOM     98  F   UNL     1      13.589  11.734 -13.654  1.00  0.00    -0.200 F 
ATOM     99  C   UNL     1      14.172  12.963 -11.724  1.00  0.00     0.200 A 
ATOM    100  F   UNL     1      14.716  14.168  -9.768  1.00  0.00    -0.200 F 
ATOM    101  F   UNL     1      15.315  13.358 -12.302  1.00  0.00    -0.200 F 
ENDBRANCH  68  91
ENDBRANCH  42  43
ENDBRANCH  35  37
ENDBRANCH  34  35
ENDBRANCH  33  34
ENDBRANCH  32  33
ENDBRANCH  31  32
ENDBRANCH  30  31
ENDBRANCH   1  30
TORSDOF 23
