REMARK SMILES O=C1C[N@@H+](Cc2ccc(C(=O)OCCOCCOCCOC(=O)c3ccc(-c4c5nc(c(-c6c(F)c(F)c(F)c(F)c6F)c6ccc([nH]6)c(-c6c(F)c(F)c(F)c(F)c6F)c6nc(c(-c7c(F)c(F)c(F)c(F)c7F)c7ccc4[nH]7)C=C6)C=C5)cc3)cc2)CCN1
REMARK SMILES IDX 16 1 15 2 14 3 13 4 12 5 10 6 11 7 9 8 6 9 7 10 88 11 8 12
REMARK SMILES IDX 87 13 5 14 4 15 1 16 2 17 3 18 91 19 90 20 89 22 17 24 18 25
REMARK SMILES IDX 19 26 20 27 21 28 22 29 23 30 24 31 25 32 86 33 26 34 85 35
REMARK SMILES IDX 27 36 28 37 29 38 79 39 30 40 84 41 78 42 80 43 31 44 83 45
REMARK SMILES IDX 77 46 76 47 32 49 64 50 44 51 63 52 45 53 48 54 62 55 81 56
REMARK SMILES IDX 46 57 47 58 61 60 82 61 49 62 33 63 34 64 42 65 35 66 36 67
REMARK SMILES IDX 40 68 43 69 37 70 38 71 41 72 39 73 65 74 66 75 74 76 67 77
REMARK SMILES IDX 68 78 72 79 75 80 69 81 70 82 73 83 71 84 50 85 51 86 59 87
REMARK SMILES IDX 52 88 53 89 57 90 60 91 54 92 55 93 58 94 56 95
REMARK H PARENT 91 21 4 23 80 48 48 59
REMARK Flexibility Score: inf
ROOT
ATOM      1  C   UNL     1       0.389   4.048   6.270  1.00  0.00     0.188 C 
ENDROOT
BRANCH   1   2
ATOM      2  O   UNL     1       1.236   5.174   6.479  1.00  0.00    -0.376 OA
BRANCH   2   3
ATOM      3  C   UNL     1       1.367   6.166   5.464  1.00  0.00     0.202 C 
BRANCH   3   4
ATOM      4  C   UNL     1       1.775   5.743   4.046  1.00  0.00     0.261 C 
BRANCH   4   5
ATOM      5  O   UNL     1       0.971   4.691   3.502  1.00  0.00    -0.460 OA
BRANCH   5   6
ATOM      6  C   UNL     1       1.635   3.528   3.248  1.00  0.00     0.338 C 
ATOM      7  O   UNL     1       2.828   3.346   3.332  1.00  0.00    -0.246 OA
BRANCH   6   8
ATOM      8  C   UNL     1       0.665   2.435   2.985  1.00  0.00     0.060 A 
ATOM      9  C   UNL     1      -0.980   0.273   2.334  1.00  0.00     0.006 A 
ATOM     10  C   UNL     1       0.259   0.052   2.951  1.00  0.00     0.010 A 
ATOM     11  C   UNL     1      -1.461   1.581   2.208  1.00  0.00     0.010 A 
ATOM     12  C   UNL     1       1.081   1.130   3.268  1.00  0.00     0.016 A 
ATOM     13  C   UNL     1      -0.625   2.662   2.492  1.00  0.00     0.016 A 
BRANCH   9  14
ATOM     14  C   UNL     1      -1.695  -0.870   1.653  1.00  0.00     0.299 C 
BRANCH  14  15
ATOM     15  N   UNL     1      -1.337  -1.089   0.243  1.00  0.00    -0.322 N 
ATOM     16  O   UNL     1       2.224  -0.345   0.154  1.00  0.00    -0.269 OA
ATOM     17  C   UNL     1       1.029  -0.261  -0.128  1.00  0.00     0.275 C 
ATOM     18  C   UNL     1       0.074  -1.451   0.002  1.00  0.00     0.363 C 
ATOM     19  N   UNL     1       0.538   0.896  -0.666  1.00  0.00    -0.346 N 
ATOM     20  C   UNL     1      -0.860   1.136  -0.941  1.00  0.00     0.177 C 
ATOM     21  H   UNL     1       1.179   1.612  -0.880  1.00  0.00     0.163 HD
ATOM     22  C   UNL     1      -1.788  -0.073  -0.714  1.00  0.00     0.284 C 
ATOM     23  H   UNL     1      -1.899  -1.917   0.045  1.00  0.00     0.348 HD
ENDBRANCH  14  15
ENDBRANCH   9  14
ENDBRANCH   6   8
ENDBRANCH   5   6
ENDBRANCH   4   5
ENDBRANCH   3   4
ENDBRANCH   2   3
ENDBRANCH   1   2
BRANCH   1  24
ATOM     24  C   UNL     1      -1.015   4.242   5.665  1.00  0.00     0.188 C 
BRANCH  24  25
ATOM     25  O   UNL     1      -1.322   5.579   5.341  1.00  0.00    -0.376 OA
BRANCH  25  26
ATOM     26  C   UNL     1      -2.254   6.260   6.164  1.00  0.00     0.202 C 
BRANCH  26  27
ATOM     27  C   UNL     1      -2.123   6.225   7.700  1.00  0.00     0.261 C 
BRANCH  27  28
ATOM     28  O   UNL     1      -1.690   4.993   8.301  1.00  0.00    -0.460 OA
BRANCH  28  29
ATOM     29  C   UNL     1      -2.629   4.044   8.516  1.00  0.00     0.338 C 
ATOM     30  O   UNL     1      -3.813   4.107   8.242  1.00  0.00    -0.246 OA
BRANCH  29  31
ATOM     31  C   UNL     1      -1.946   2.809   8.970  1.00  0.00     0.060 A 
ATOM     32  C   UNL     1      -2.042   1.660   8.175  1.00  0.00     0.016 A 
ATOM     33  C   UNL     1      -1.236   2.774  10.173  1.00  0.00     0.016 A 
ATOM     34  C   UNL     1      -1.466   0.462   8.602  1.00  0.00     0.010 A 
ATOM     35  C   UNL     1      -0.672   1.567  10.608  1.00  0.00     0.010 A 
ATOM     36  C   UNL     1      -0.815   0.396   9.842  1.00  0.00    -0.014 A 
BRANCH  36  37
ATOM     37  C   UNL     1      -0.447  -0.932  10.399  1.00  0.00     0.031 A 
ATOM     38  C   UNL     1      -1.379  -1.589  11.383  1.00  0.00     0.074 A 
ATOM     39  C   UNL     1       0.664  -1.576  10.001  1.00  0.00     0.049 A 
ATOM     40  N   UNL     1      -1.290  -2.759  11.965  1.00  0.00    -0.248 NA
ATOM     41  C   UNL     1      -2.576  -0.820  11.760  1.00  0.00     0.031 C 
ATOM     42  C   UNL     1       1.636  -1.065   9.037  1.00  0.00     0.029 A 
ATOM     43  N   UNL     1       1.159  -2.806  10.360  1.00  0.00    -0.354 N 
ATOM     44  C   UNL     1      -2.417  -2.867  12.770  1.00  0.00     0.074 A 
ATOM     45  C   UNL     1      -3.155  -1.630  12.633  1.00  0.00     0.031 C 
ATOM     46  C   UNL     1       2.614  -1.975   8.882  1.00  0.00     0.029 A 
ATOM     47  C   UNL     1       2.348  -3.122   9.750  1.00  0.00     0.049 A 
ATOM     48  H   UNL     1       0.704  -3.405  10.996  1.00  0.00     0.167 HD
ATOM     49  C   UNL     1      -2.811  -3.908  13.542  1.00  0.00     0.037 A 
ATOM     50  C   UNL     1       3.133  -4.210   9.884  1.00  0.00     0.037 A 
ATOM     51  C   UNL     1      -2.077  -5.138  13.686  1.00  0.00     0.049 A 
ATOM     52  C   UNL     1       2.702  -5.331  10.796  1.00  0.00     0.074 A 
ATOM     53  C   UNL     1      -2.402  -6.255  14.435  1.00  0.00     0.029 A 
ATOM     54  N   UNL     1      -0.861  -5.407  13.075  1.00  0.00    -0.354 N 
ATOM     55  N   UNL     1       1.615  -5.442  11.521  1.00  0.00    -0.248 NA
ATOM     56  C   UNL     1       3.607  -6.486  10.898  1.00  0.00     0.031 C 
ATOM     57  C   UNL     1      -1.359  -7.180  14.319  1.00  0.00     0.029 A 
ATOM     58  C   UNL     1      -0.412  -6.665  13.449  1.00  0.00     0.049 A 
ATOM     59  H   UNL     1      -0.387  -4.796  12.466  1.00  0.00     0.167 HD
ATOM     60  C   UNL     1       1.688  -6.687  12.134  1.00  0.00     0.074 A 
ATOM     61  C   UNL     1       2.919  -7.301  11.685  1.00  0.00     0.031 C 
ATOM     62  C   UNL     1       0.812  -7.271  12.989  1.00  0.00     0.037 A 
BRANCH  49  63
ATOM     63  C   UNL     1      -4.091  -3.751  14.312  1.00  0.00     0.064 A 
ATOM     64  C   UNL     1      -5.340  -3.743  13.673  1.00  0.00     0.173 A 
ATOM     65  C   UNL     1      -4.069  -3.639  15.711  1.00  0.00     0.173 A 
ATOM     66  F   UNL     1      -5.415  -3.832  12.336  1.00  0.00    -0.203 F 
ATOM     67  C   UNL     1      -6.518  -3.602  14.403  1.00  0.00     0.198 A 
ATOM     68  C   UNL     1      -5.250  -3.529  16.440  1.00  0.00     0.198 A 
ATOM     69  F   UNL     1      -2.902  -3.645  16.372  1.00  0.00    -0.203 F 
ATOM     70  F   UNL     1      -7.696  -3.549  13.767  1.00  0.00    -0.200 F 
ATOM     71  C   UNL     1      -6.472  -3.503  15.786  1.00  0.00     0.200 A 
ATOM     72  F   UNL     1      -5.205  -3.446  17.777  1.00  0.00    -0.200 F 
ATOM     73  F   UNL     1      -7.607  -3.375  16.487  1.00  0.00    -0.200 F 
ENDBRANCH  49  63
BRANCH  50  74
ATOM     74  C   UNL     1       4.412  -4.302   9.130  1.00  0.00     0.064 A 
ATOM     75  C   UNL     1       4.585  -5.244   8.106  1.00  0.00     0.173 A 
ATOM     76  C   UNL     1       5.498  -3.470   9.440  1.00  0.00     0.173 A 
ATOM     77  F   UNL     1       3.586  -6.083   7.793  1.00  0.00    -0.203 F 
ATOM     78  C   UNL     1       5.802  -5.366   7.437  1.00  0.00     0.198 A 
ATOM     79  C   UNL     1       6.704  -3.573   8.750  1.00  0.00     0.198 A 
ATOM     80  F   UNL     1       5.387  -2.557  10.416  1.00  0.00    -0.203 F 
ATOM     81  F   UNL     1       5.957  -6.313   6.502  1.00  0.00    -0.200 F 
ATOM     82  C   UNL     1       6.858  -4.526   7.755  1.00  0.00     0.200 A 
ATOM     83  F   UNL     1       7.720  -2.755   9.057  1.00  0.00    -0.200 F 
ATOM     84  F   UNL     1       8.028  -4.646   7.114  1.00  0.00    -0.200 F 
ENDBRANCH  50  74
BRANCH  62  85
ATOM     85  C   UNL     1       1.128  -8.663  13.460  1.00  0.00     0.064 A 
ATOM     86  C   UNL     1       2.187  -8.926  14.342  1.00  0.00     0.173 A 
ATOM     87  C   UNL     1       0.343  -9.748  13.040  1.00  0.00     0.173 A 
ATOM     88  F   UNL     1       2.975  -7.927  14.767  1.00  0.00    -0.203 F 
ATOM     89  C   UNL     1       2.471 -10.226  14.755  1.00  0.00     0.198 A 
ATOM     90  C   UNL     1       0.609 -11.042  13.481  1.00  0.00     0.198 A 
ATOM     91  F   UNL     1      -0.690  -9.554  12.205  1.00  0.00    -0.203 F 
ATOM     92  F   UNL     1       3.524 -10.459  15.550  1.00  0.00    -0.200 F 
ATOM     93  C   UNL     1       1.679 -11.281  14.329  1.00  0.00     0.200 A 
ATOM     94  F   UNL     1      -0.168 -12.058  13.081  1.00  0.00    -0.200 F 
ATOM     95  F   UNL     1       1.953 -12.531  14.728  1.00  0.00    -0.200 F 
ENDBRANCH  62  85
ENDBRANCH  36  37
ENDBRANCH  29  31
ENDBRANCH  28  29
ENDBRANCH  27  28
ENDBRANCH  26  27
ENDBRANCH  25  26
ENDBRANCH  24  25
ENDBRANCH   1  24
TORSDOF 19
