REMARK SMILES CO[C@@H]1C[C@@H](C(=O)OCCOCCOCCOC(=O)c2ccc(-c3c4nc(c(-c5c(F)c(F)c(F)c(F)c5F)c5ccc([nH]5)c(-c5c(F)c(F)c(F)c(F)c5F)c5nc(c(-c6c(F)c(F)c(F)c(F)c6F)c6ccc3[nH]6)C=C5)C=C4)cc2)N(S(=O)(=O)/C=C/c2ccccc2)C1
REMARK SMILES IDX 12 1 11 2 10 3 9 4 8 5 6 6 7 7 5 8 3 9 4 10 95 11 83 12 2 13
REMARK SMILES IDX 1 14 84 15 85 16 86 17 87 18 88 19 89 20 90 21 94 22 91 23
REMARK SMILES IDX 93 24 92 25 13 26 14 27 15 28 16 29 17 30 18 31 19 32 20 33
REMARK SMILES IDX 21 34 82 35 22 36 81 37 23 38 24 39 25 40 75 41 26 42 80 43
REMARK SMILES IDX 74 44 76 45 27 46 79 47 73 48 72 49 28 51 60 52 40 53 59 54
REMARK SMILES IDX 41 55 44 56 58 57 77 58 42 59 43 60 57 62 78 63 45 64 29 65
REMARK SMILES IDX 30 66 38 67 31 68 32 69 36 70 39 71 33 72 34 73 37 74 35 75
REMARK SMILES IDX 61 76 62 77 70 78 63 79 64 80 68 81 71 82 65 83 66 84 69 85
REMARK SMILES IDX 67 86 46 87 47 88 55 89 48 90 49 91 53 92 56 93 50 94 51 95
REMARK SMILES IDX 54 96 52 97
REMARK H PARENT 76 50 44 61
REMARK Flexibility Score: inf
ROOT
ATOM      1  C   UNL     1       5.356  -1.992   2.061  1.00  0.00     0.188 C 
ENDROOT
BRANCH   1   2
ATOM      2  O   UNL     1       6.104  -2.644   1.035  1.00  0.00    -0.376 OA
BRANCH   2   3
ATOM      3  C   UNL     1       6.895  -1.770   0.227  1.00  0.00     0.202 C 
BRANCH   3   4
ATOM      4  C   UNL     1       6.228  -0.519  -0.387  1.00  0.00     0.261 C 
BRANCH   4   5
ATOM      5  O   UNL     1       4.849  -0.357  -0.018  1.00  0.00    -0.462 OA
BRANCH   5   6
ATOM      6  C   UNL     1       3.917  -0.730  -0.925  1.00  0.00     0.324 C 
ATOM      7  O   UNL     1       4.163  -0.960  -2.104  1.00  0.00    -0.250 OA
BRANCH   6   8
ATOM      8  C   UNL     1       2.514  -0.771  -0.367  1.00  0.00     0.185 C 
ATOM      9  C   UNL     1       0.797  -0.445   1.269  1.00  0.00     0.135 C 
ATOM     10  C   UNL     1       2.269  -0.163   1.012  1.00  0.00     0.065 C 
ATOM     11  C   UNL     1       0.469  -1.712   0.457  1.00  0.00     0.135 C 
ATOM     12  N   UNL     1       1.684  -2.013  -0.416  1.00  0.00    -0.181 NA
BRANCH   9  13
ATOM     13  O   UNL     1      -0.059   0.668   1.019  1.00  0.00    -0.380 OA
ATOM     14  C   UNL     1      -0.082   1.199  -0.295  1.00  0.00     0.195 C 
ENDBRANCH   9  13
BRANCH  12  15
ATOM     15  S   UNL     1       2.319  -3.550  -0.024  1.00  0.00     0.237 S 
ATOM     16  O   UNL     1       2.596  -3.475   1.392  1.00  0.00    -0.207 OA
ATOM     17  O   UNL     1       1.315  -4.501  -0.481  1.00  0.00    -0.207 OA
BRANCH  15  18
ATOM     18  C   UNL     1       3.799  -3.928  -0.810  1.00  0.00     0.123 C 
ATOM     19  C   UNL     1       3.973  -3.862  -2.135  1.00  0.00     0.021 C 
BRANCH  19  20
ATOM     20  C   UNL     1       5.289  -4.189  -2.704  1.00  0.00    -0.025 A 
ATOM     21  C   UNL     1       6.030  -3.197  -3.358  1.00  0.00     0.008 A 
ATOM     22  C   UNL     1       5.848  -5.464  -2.562  1.00  0.00     0.008 A 
ATOM     23  C   UNL     1       7.322  -3.457  -3.820  1.00  0.00     0.001 A 
ATOM     24  C   UNL     1       7.134  -5.731  -3.043  1.00  0.00     0.001 A 
ATOM     25  C   UNL     1       7.875  -4.725  -3.661  1.00  0.00     0.000 A 
ENDBRANCH  19  20
ENDBRANCH  15  18
ENDBRANCH  12  15
ENDBRANCH   6   8
ENDBRANCH   5   6
ENDBRANCH   4   5
ENDBRANCH   3   4
ENDBRANCH   2   3
ENDBRANCH   1   2
BRANCH   1  26
ATOM     26  C   UNL     1       5.015  -2.896   3.237  1.00  0.00     0.188 C 
BRANCH  26  27
ATOM     27  O   UNL     1       6.006  -2.883   4.258  1.00  0.00    -0.376 OA
BRANCH  27  28
ATOM     28  C   UNL     1       7.274  -3.400   3.869  1.00  0.00     0.202 C 
BRANCH  28  29
ATOM     29  C   UNL     1       7.380  -4.926   3.931  1.00  0.00     0.261 C 
BRANCH  29  30
ATOM     30  O   UNL     1       6.519  -5.614   2.999  1.00  0.00    -0.460 OA
BRANCH  30  31
ATOM     31  C   UNL     1       5.470  -6.261   3.549  1.00  0.00     0.338 C 
ATOM     32  O   UNL     1       5.150  -6.296   4.741  1.00  0.00    -0.246 OA
BRANCH  31  33
ATOM     33  C   UNL     1       4.672  -6.937   2.517  1.00  0.00     0.060 A 
ATOM     34  C   UNL     1       3.359  -6.513   2.285  1.00  0.00     0.016 A 
ATOM     35  C   UNL     1       5.160  -8.088   1.893  1.00  0.00     0.016 A 
ATOM     36  C   UNL     1       2.525  -7.241   1.433  1.00  0.00     0.010 A 
ATOM     37  C   UNL     1       4.315  -8.832   1.061  1.00  0.00     0.010 A 
ATOM     38  C   UNL     1       2.985  -8.427   0.846  1.00  0.00    -0.014 A 
BRANCH  38  39
ATOM     39  C   UNL     1       2.037  -9.326   0.140  1.00  0.00     0.031 A 
ATOM     40  C   UNL     1       1.378 -10.438   0.904  1.00  0.00     0.074 A 
ATOM     41  C   UNL     1       1.751  -9.153  -1.161  1.00  0.00     0.049 A 
ATOM     42  N   UNL     1       0.595 -11.398   0.477  1.00  0.00    -0.248 NA
ATOM     43  C   UNL     1       1.631 -10.466   2.352  1.00  0.00     0.031 C 
ATOM     44  C   UNL     1       2.248  -8.063  -1.994  1.00  0.00     0.029 A 
ATOM     45  N   UNL     1       0.976  -9.905  -2.010  1.00  0.00    -0.354 N 
ATOM     46  C   UNL     1       0.265 -12.144   1.600  1.00  0.00     0.074 A 
ATOM     47  C   UNL     1       0.946 -11.536   2.725  1.00  0.00     0.031 C 
ATOM     48  C   UNL     1       1.787  -8.229  -3.245  1.00  0.00     0.029 A 
ATOM     49  C   UNL     1       0.995  -9.458  -3.307  1.00  0.00     0.049 A 
ATOM     50  H   UNL     1       0.456 -10.688  -1.716  1.00  0.00     0.167 HD
ATOM     51  C   UNL     1      -0.527 -13.240   1.687  1.00  0.00     0.037 A 
ATOM     52  C   UNL     1       0.463  -9.997  -4.422  1.00  0.00     0.037 A 
ATOM     53  C   UNL     1      -1.182 -13.861   0.564  1.00  0.00     0.049 A 
ATOM     54  C   UNL     1      -0.329 -11.277  -4.325  1.00  0.00     0.074 A 
ATOM     55  C   UNL     1      -1.981 -14.991   0.544  1.00  0.00     0.029 A 
ATOM     56  N   UNL     1      -1.098 -13.409  -0.745  1.00  0.00    -0.354 N 
ATOM     57  N   UNL     1      -0.624 -11.992  -3.265  1.00  0.00    -0.248 NA
ATOM     58  C   UNL     1      -0.857 -11.829  -5.581  1.00  0.00     0.031 C 
ATOM     59  C   UNL     1      -2.331 -15.256  -0.785  1.00  0.00     0.029 A 
ATOM     60  C   UNL     1      -1.801 -14.257  -1.587  1.00  0.00     0.049 A 
ATOM     61  H   UNL     1      -0.611 -12.604  -1.034  1.00  0.00     0.167 HD
ATOM     62  C   UNL     1      -1.384 -13.062  -3.721  1.00  0.00     0.074 A 
ATOM     63  C   UNL     1      -1.518 -12.897  -5.153  1.00  0.00     0.031 C 
ATOM     64  C   UNL     1      -1.923 -14.087  -3.014  1.00  0.00     0.037 A 
BRANCH  51  65
ATOM     65  C   UNL     1      -0.658 -13.873   3.042  1.00  0.00     0.064 A 
ATOM     66  C   UNL     1      -1.366 -13.257   4.085  1.00  0.00     0.173 A 
ATOM     67  C   UNL     1      -0.029 -15.098   3.311  1.00  0.00     0.173 A 
ATOM     68  F   UNL     1      -1.975 -12.078   3.885  1.00  0.00    -0.203 F 
ATOM     69  C   UNL     1      -1.395 -13.818   5.360  1.00  0.00     0.198 A 
ATOM     70  C   UNL     1      -0.086 -15.671   4.579  1.00  0.00     0.198 A 
ATOM     71  F   UNL     1       0.655 -15.734   2.348  1.00  0.00    -0.203 F 
ATOM     72  F   UNL     1      -2.015 -13.175   6.360  1.00  0.00    -0.200 F 
ATOM     73  C   UNL     1      -0.755 -15.023   5.606  1.00  0.00     0.200 A 
ATOM     74  F   UNL     1       0.524 -16.842   4.810  1.00  0.00    -0.200 F 
ATOM     75  F   UNL     1      -0.769 -15.554   6.836  1.00  0.00    -0.200 F 
ENDBRANCH  51  65
BRANCH  52  76
ATOM     76  C   UNL     1       0.702  -9.345  -5.736  1.00  0.00     0.064 A 
ATOM     77  C   UNL     1      -0.338  -8.736  -6.450  1.00  0.00     0.173 A 
ATOM     78  C   UNL     1       1.986  -9.319  -6.304  1.00  0.00     0.173 A 
ATOM     79  F   UNL     1      -1.589  -8.764  -5.967  1.00  0.00    -0.203 F 
ATOM     80  C   UNL     1      -0.105  -8.130  -7.683  1.00  0.00     0.198 A 
ATOM     81  C   UNL     1       2.223  -8.688  -7.523  1.00  0.00     0.198 A 
ATOM     82  F   UNL     1       3.014  -9.898  -5.667  1.00  0.00    -0.203 F 
ATOM     83  F   UNL     1      -1.124  -7.590  -8.366  1.00  0.00    -0.200 F 
ATOM     84  C   UNL     1       1.176  -8.098  -8.214  1.00  0.00     0.200 A 
ATOM     85  F   UNL     1       3.463  -8.655  -8.028  1.00  0.00    -0.200 F 
ATOM     86  F   UNL     1       1.400  -7.509  -9.396  1.00  0.00    -0.200 F 
ENDBRANCH  52  76
BRANCH  64  87
ATOM     87  C   UNL     1      -2.726 -15.107  -3.772  1.00  0.00     0.064 A 
ATOM     88  C   UNL     1      -2.117 -16.039  -4.627  1.00  0.00     0.173 A 
ATOM     89  C   UNL     1      -4.116 -15.190  -3.599  1.00  0.00     0.173 A 
ATOM     90  F   UNL     1      -0.793 -15.995  -4.840  1.00  0.00    -0.203 F 
ATOM     91  C   UNL     1      -2.872 -17.003  -5.292  1.00  0.00     0.198 A 
ATOM     92  C   UNL     1      -4.864 -16.173  -4.242  1.00  0.00     0.198 A 
ATOM     93  F   UNL     1      -4.749 -14.328  -2.789  1.00  0.00    -0.203 F 
ATOM     94  F   UNL     1      -2.274 -17.857  -6.134  1.00  0.00    -0.200 F 
ATOM     95  C   UNL     1      -4.242 -17.075  -5.093  1.00  0.00     0.200 A 
ATOM     96  F   UNL     1      -6.186 -16.250  -4.037  1.00  0.00    -0.200 F 
ATOM     97  F   UNL     1      -4.965 -18.010  -5.724  1.00  0.00    -0.200 F 
ENDBRANCH  64  87
ENDBRANCH  38  39
ENDBRANCH  31  33
ENDBRANCH  30  31
ENDBRANCH  29  30
ENDBRANCH  28  29
ENDBRANCH  27  28
ENDBRANCH  26  27
ENDBRANCH   1  26
TORSDOF 21
