REMARK SMILES O=C1C[C@H](C(=O)N2CCCn3nc(CCC(=O)OCCOCCOCCOC(=O)c4ccc(-c5c6nc(c(-c7c(F)c(F)c(F)c(F)c7F)c7ccc([nH]7)c(-c7c(F)c(F)c(F)c(F)c7F)c7nc(c(-c8c(F)c(F)c(F)c(F)c8F)c8ccc5[nH]8)C=C7)C=C6)cc4)cc3C2)c2ccccc2N1
REMARK SMILES IDX 20 1 19 2 18 3 16 4 17 5 15 6 14 7 13 8 94 9 11 10 93 11
REMARK SMILES IDX 12 12 95 13 7 14 5 15 6 16 4 17 1 18 2 19 3 20 102 21 101 22
REMARK SMILES IDX 96 24 100 25 97 26 99 27 98 28 8 29 9 30 10 32 21 34 22 35
REMARK SMILES IDX 23 36 24 37 25 38 26 39 27 40 28 41 29 42 30 43 31 44 92 45
REMARK SMILES IDX 32 46 91 47 33 48 34 49 35 50 85 51 36 52 90 53 84 54 86 55
REMARK SMILES IDX 37 56 89 57 83 58 82 59 38 61 70 62 50 63 69 64 51 65 54 66
REMARK SMILES IDX 68 67 87 68 52 69 53 70 67 72 88 73 55 74 39 75 40 76 48 77
REMARK SMILES IDX 41 78 42 79 46 80 49 81 43 82 44 83 47 84 45 85 71 86 72 87
REMARK SMILES IDX 80 88 73 89 74 90 78 91 81 92 75 93 76 94 79 95 77 96 56 97
REMARK SMILES IDX 57 98 65 99 58 100 59 101 63 102 66 103 60 104 61 105 64 106
REMARK SMILES IDX 62 107
REMARK H PARENT 102 23 86 60 54 71
REMARK Flexibility Score: 90.00
ROOT
ATOM      1  C   UNL     1      -6.684  -3.473  -2.074  1.00  0.00     0.202 C 
ENDROOT
BRANCH   1   2
ATOM      2  C   UNL     1      -6.158  -4.883  -2.348  1.00  0.00     0.261 C 
BRANCH   2   3
ATOM      3  O   UNL     1      -5.387  -4.918  -3.564  1.00  0.00    -0.463 OA
BRANCH   3   4
ATOM      4  C   UNL     1      -5.665  -5.878  -4.472  1.00  0.00     0.306 C 
ATOM      5  O   UNL     1      -6.511  -6.751  -4.308  1.00  0.00    -0.252 OA
BRANCH   4   6
ATOM      6  C   UNL     1      -4.863  -5.776  -5.758  1.00  0.00     0.129 C 
BRANCH   6   7
ATOM      7  C   UNL     1      -3.939  -4.578  -5.996  1.00  0.00     0.070 C 
BRANCH   7   8
ATOM      8  C   UNL     1      -2.738  -4.530  -5.109  1.00  0.00     0.063 A 
ATOM      9  C   UNL     1      -1.415  -4.363  -3.335  1.00  0.00     0.058 A 
ATOM     10  N   UNL     1      -0.728  -4.730  -4.451  1.00  0.00    -0.267 N 
ATOM     11  C   UNL     1      -2.687  -4.112  -3.769  1.00  0.00     0.051 A 
ATOM     12  N   UNL     1      -1.524  -4.909  -5.532  1.00  0.00    -0.178 NA
BRANCH   9  13
ATOM     13  C   UNL     1      -0.868  -4.340  -1.969  1.00  0.00     0.175 C 
BRANCH  13  14
ATOM     14  N   UNL     1       0.121  -3.296  -1.758  1.00  0.00    -0.336 N 
BRANCH  14  15
ATOM     15  C   UNL     1       0.363  -3.024  -0.412  1.00  0.00     0.231 C 
ATOM     16  O   UNL     1       0.103  -3.890   0.438  1.00  0.00    -0.274 OA
BRANCH  15  17
ATOM     17  C   UNL     1       0.699  -1.609   0.091  1.00  0.00     0.120 C 
ATOM     18  O   UNL     1       3.281   0.850   0.298  1.00  0.00    -0.275 OA
ATOM     19  C   UNL     1       2.156   0.415   0.072  1.00  0.00     0.225 C 
ATOM     20  C   UNL     1       1.912  -0.944  -0.527  1.00  0.00     0.118 C 
ATOM     21  N   UNL     1       1.043   1.201   0.203  1.00  0.00    -0.326 N 
ATOM     22  C   UNL     1      -0.267   0.716   0.136  1.00  0.00     0.045 A 
ATOM     23  H   UNL     1       1.172   2.165   0.355  1.00  0.00     0.169 HD
ATOM     24  C   UNL     1      -0.499  -0.668   0.102  1.00  0.00    -0.011 A 
ATOM     25  C   UNL     1      -1.325   1.623   0.201  1.00  0.00     0.026 A 
ATOM     26  C   UNL     1      -1.818  -1.124   0.246  1.00  0.00     0.007 A 
ATOM     27  C   UNL     1      -2.631   1.153   0.301  1.00  0.00     0.002 A 
ATOM     28  C   UNL     1      -2.873  -0.218   0.354  1.00  0.00     0.000 A 
ENDBRANCH  15  17
ENDBRANCH  14  15
BRANCH  14  29
ATOM     29  C   UNL     1       1.037  -2.981  -2.862  1.00  0.00     0.122 C 
BRANCH  29  30
ATOM     30  C   UNL     1       1.600  -4.228  -3.560  1.00  0.00     0.045 CG0
ATOM     31  G   UNL     1       0.695  -4.932  -4.580  1.00  0.00     0.000 G0
ENDBRANCH  29  30
ENDBRANCH  14  29
ENDBRANCH  13  14
ENDBRANCH   9  13
BRANCH  10  32
ATOM     32  C   UNL     1       0.695  -4.932  -4.580  1.00  0.00     0.146 CG0
ATOM     33  G   UNL     1       1.600  -4.228  -3.560  1.00  0.00     0.000 G0
ENDBRANCH  10  32
ENDBRANCH   7   8
ENDBRANCH   6   7
ENDBRANCH   4   6
ENDBRANCH   3   4
ENDBRANCH   2   3
ENDBRANCH   1   2
BRANCH   1  34
ATOM     34  O   UNL     1      -7.631  -2.995  -3.025  1.00  0.00    -0.376 OA
BRANCH  34  35
ATOM     35  C   UNL     1      -7.130  -2.703  -4.330  1.00  0.00     0.188 C 
BRANCH  35  36
ATOM     36  C   UNL     1      -6.152  -1.529  -4.379  1.00  0.00     0.188 C 
BRANCH  36  37
ATOM     37  O   UNL     1      -4.793  -1.839  -4.104  1.00  0.00    -0.376 OA
BRANCH  37  38
ATOM     38  C   UNL     1      -4.053  -1.182  -3.071  1.00  0.00     0.202 C 
BRANCH  38  39
ATOM     39  C   UNL     1      -4.157   0.306  -2.749  1.00  0.00     0.261 C 
BRANCH  39  40
ATOM     40  O   UNL     1      -5.140   1.006  -3.453  1.00  0.00    -0.460 OA
BRANCH  40  41
ATOM     41  C   UNL     1      -4.940   1.131  -4.774  1.00  0.00     0.338 C 
ATOM     42  O   UNL     1      -3.939   0.869  -5.414  1.00  0.00    -0.246 OA
BRANCH  41  43
ATOM     43  C   UNL     1      -6.194   1.696  -5.282  1.00  0.00     0.060 A 
ATOM     44  C   UNL     1      -6.179   2.179  -6.583  1.00  0.00     0.016 A 
ATOM     45  C   UNL     1      -7.270   1.931  -4.397  1.00  0.00     0.016 A 
ATOM     46  C   UNL     1      -7.097   3.146  -6.899  1.00  0.00     0.010 A 
ATOM     47  C   UNL     1      -8.171   2.907  -4.702  1.00  0.00     0.010 A 
ATOM     48  C   UNL     1      -7.985   3.571  -5.902  1.00  0.00    -0.014 A 
BRANCH  48  49
ATOM     49  C   UNL     1      -8.708   4.790  -6.135  1.00  0.00     0.031 A 
ATOM     50  C   UNL     1      -9.897   4.585  -6.963  1.00  0.00     0.074 A 
ATOM     51  C   UNL     1      -8.297   5.952  -5.595  1.00  0.00     0.049 A 
ATOM     52  N   UNL     1     -10.033   4.892  -8.206  1.00  0.00    -0.248 NA
ATOM     53  C   UNL     1     -10.991   3.774  -6.407  1.00  0.00     0.031 C 
ATOM     54  C   UNL     1      -7.318   6.130  -4.516  1.00  0.00     0.029 A 
ATOM     55  N   UNL     1      -8.738   7.216  -5.832  1.00  0.00    -0.354 N 
ATOM     56  C   UNL     1     -11.341   4.549  -8.508  1.00  0.00     0.074 A 
ATOM     57  C   UNL     1     -11.788   3.660  -7.470  1.00  0.00     0.031 C 
ATOM     58  C   UNL     1      -7.400   7.395  -4.048  1.00  0.00     0.029 A 
ATOM     59  C   UNL     1      -8.322   8.142  -4.887  1.00  0.00     0.049 A 
ATOM     60  H   UNL     1      -9.301   7.453  -6.604  1.00  0.00     0.167 HD
ATOM     61  C   UNL     1     -12.049   5.331  -9.364  1.00  0.00     0.037 A 
ATOM     62  C   UNL     1      -8.764   9.416  -4.777  1.00  0.00     0.037 A 
ATOM     63  C   UNL     1     -11.179   6.199 -10.117  1.00  0.00     0.049 A 
ATOM     64  C   UNL     1      -9.338   9.815  -6.085  1.00  0.00     0.074 A 
ATOM     65  C   UNL     1     -10.360   6.087 -11.217  1.00  0.00     0.029 A 
ATOM     66  N   UNL     1     -10.814   7.340  -9.452  1.00  0.00    -0.354 N 
ATOM     67  N   UNL     1      -8.624   9.973  -7.166  1.00  0.00    -0.248 NA
ATOM     68  C   UNL     1     -10.779   9.711  -6.300  1.00  0.00     0.031 C 
ATOM     69  C   UNL     1      -9.432   7.169 -11.148  1.00  0.00     0.029 A 
ATOM     70  C   UNL     1      -9.709   7.925 -10.012  1.00  0.00     0.049 A 
ATOM     71  H   UNL     1     -11.288   7.697  -8.667  1.00  0.00     0.167 HD
ATOM     72  C   UNL     1      -9.461   9.574  -8.188  1.00  0.00     0.074 A 
ATOM     73  C   UNL     1     -10.805   9.600  -7.631  1.00  0.00     0.031 C 
ATOM     74  C   UNL     1      -8.969   8.926  -9.280  1.00  0.00     0.037 A 
BRANCH  61  75
ATOM     75  C   UNL     1     -13.502   5.686  -9.164  1.00  0.00     0.064 A 
ATOM     76  C   UNL     1     -14.173   6.369 -10.196  1.00  0.00     0.173 A 
ATOM     77  C   UNL     1     -14.162   5.668  -7.914  1.00  0.00     0.173 A 
ATOM     78  F   UNL     1     -13.623   6.471 -11.415  1.00  0.00    -0.203 F 
ATOM     79  C   UNL     1     -15.381   7.034  -9.974  1.00  0.00     0.198 A 
ATOM     80  C   UNL     1     -15.395   6.283  -7.713  1.00  0.00     0.198 A 
ATOM     81  F   UNL     1     -13.598   5.167  -6.810  1.00  0.00    -0.203 F 
ATOM     82  F   UNL     1     -15.923   7.770 -10.952  1.00  0.00    -0.200 F 
ATOM     83  C   UNL     1     -15.990   6.991  -8.732  1.00  0.00     0.200 A 
ATOM     84  F   UNL     1     -15.954   6.251  -6.494  1.00  0.00    -0.200 F 
ATOM     85  F   UNL     1     -17.120   7.671  -8.503  1.00  0.00    -0.200 F 
ENDBRANCH  61  75
BRANCH  62  86
ATOM     86  C   UNL     1      -8.953  10.216  -3.549  1.00  0.00     0.064 A 
ATOM     87  C   UNL     1      -9.084  11.612  -3.612  1.00  0.00     0.173 A 
ATOM     88  C   UNL     1      -9.291   9.606  -2.325  1.00  0.00     0.173 A 
ATOM     89  F   UNL     1      -8.814  12.262  -4.754  1.00  0.00    -0.203 F 
ATOM     90  C   UNL     1      -9.564  12.351  -2.528  1.00  0.00     0.198 A 
ATOM     91  C   UNL     1      -9.762  10.346  -1.240  1.00  0.00     0.198 A 
ATOM     92  F   UNL     1      -9.264   8.272  -2.189  1.00  0.00    -0.203 F 
ATOM     93  F   UNL     1      -9.743  13.673  -2.650  1.00  0.00    -0.200 F 
ATOM     94  C   UNL     1      -9.915  11.716  -1.348  1.00  0.00     0.200 A 
ATOM     95  F   UNL     1     -10.129   9.716  -0.116  1.00  0.00    -0.200 F 
ATOM     96  F   UNL     1     -10.441  12.415  -0.333  1.00  0.00    -0.200 F 
ENDBRANCH  62  86
BRANCH  74  97
ATOM     97  C   UNL     1      -7.532   9.156  -9.622  1.00  0.00     0.064 A 
ATOM     98  C   UNL     1      -6.453   8.713  -8.842  1.00  0.00     0.173 A 
ATOM     99  C   UNL     1      -7.241   9.815 -10.823  1.00  0.00     0.173 A 
ATOM    100  F   UNL     1      -6.658   8.013  -7.718  1.00  0.00    -0.203 F 
ATOM    101  C   UNL     1      -5.138   8.959  -9.234  1.00  0.00     0.198 A 
ATOM    102  C   UNL     1      -5.928  10.029 -11.229  1.00  0.00     0.198 A 
ATOM    103  F   UNL     1      -8.238  10.228 -11.622  1.00  0.00    -0.203 F 
ATOM    104  F   UNL     1      -4.119   8.549  -8.464  1.00  0.00    -0.200 F 
ATOM    105  C   UNL     1      -4.877   9.612 -10.429  1.00  0.00     0.200 A 
ATOM    106  F   UNL     1      -5.684  10.626 -12.404  1.00  0.00    -0.200 F 
ATOM    107  F   UNL     1      -3.613   9.823 -10.820  1.00  0.00    -0.200 F 
ENDBRANCH  74  97
ENDBRANCH  48  49
ENDBRANCH  41  43
ENDBRANCH  40  41
ENDBRANCH  39  40
ENDBRANCH  38  39
ENDBRANCH  37  38
ENDBRANCH  36  37
ENDBRANCH  35  36
ENDBRANCH  34  35
ENDBRANCH   1  34
TORSDOF 21
