REMARK SMILES O=C(COc1ccc(/C=C/C(=O)c2ccc(F)cc2F)cc1[N+](=O)[O-])OCCOCCOCCOC(=O)c1ccc(-c2c3nc(c(-c4c(F)c(F)c(F)c(F)c4F)c4ccc([nH]4)c(-c4c(F)c(F)c(F)c(F)c4F)c4nc(c(-c5c(F)c(F)c(F)c(F)c5F)c5ccc2[nH]5)C=C4)C=C3)cc1
REMARK SMILES IDX 29 1 28 2 27 3 26 4 2 5 1 6 3 7 4 8 5 9 6 10 22 11 7 12
REMARK SMILES IDX 21 13 8 14 23 15 24 16 25 17 9 18 10 19 11 20 12 21 13 22
REMARK SMILES IDX 14 23 19 24 15 25 18 26 20 27 16 28 17 29 30 30 31 31 32 32
REMARK SMILES IDX 33 33 34 34 35 35 36 36 37 37 38 38 39 39 100 40 40 41 99 42
REMARK SMILES IDX 41 43 42 44 43 45 93 46 44 47 98 48 92 49 94 50 45 51 97 52
REMARK SMILES IDX 91 53 90 54 46 56 78 57 58 58 77 59 59 60 62 61 76 62 95 63
REMARK SMILES IDX 60 64 61 65 75 67 96 68 63 69 47 70 48 71 56 72 49 73 50 74
REMARK SMILES IDX 54 75 57 76 51 77 52 78 55 79 53 80 79 81 80 82 88 83 81 84
REMARK SMILES IDX 82 85 86 86 89 87 83 88 84 89 87 90 85 91 64 92 65 93 73 94
REMARK SMILES IDX 66 95 67 96 71 97 74 98 68 99 69 100 72 101 70 102
REMARK H PARENT 94 55 62 66
REMARK Flexibility Score: inf
ROOT
ATOM      1  O   UNL     1       4.952  -0.058  -1.841  1.00  0.00    -0.376 OA
ENDROOT
BRANCH   1   2
ATOM      2  C   UNL     1       5.198  -0.169  -0.456  1.00  0.00     0.202 C 
BRANCH   2   3
ATOM      3  C   UNL     1       4.271  -1.112   0.304  1.00  0.00     0.261 C 
BRANCH   3   4
ATOM      4  O   UNL     1       2.840  -0.878   0.194  1.00  0.00    -0.461 OA
BRANCH   4   5
ATOM      5  C   UNL     1       2.117   0.236   0.433  1.00  0.00     0.344 C 
ATOM      6  O   UNL     1       0.943   0.311   0.072  1.00  0.00    -0.248 OA
BRANCH   5   7
ATOM      7  C   UNL     1       2.787   1.422   1.083  1.00  0.00     0.352 C 
BRANCH   7   8
ATOM      8  O   UNL     1       3.824   1.055   1.986  1.00  0.00    -0.475 OA
BRANCH   8   9
ATOM      9  C   UNL     1       3.355   1.148   3.259  1.00  0.00     0.197 A 
ATOM     10  C   UNL     1       3.712   2.310   3.942  1.00  0.00     0.054 A 
ATOM     11  C   UNL     1       2.479   0.229   3.838  1.00  0.00     0.311 A 
ATOM     12  C   UNL     1       3.111   2.593   5.162  1.00  0.00     0.012 A 
ATOM     13  C   UNL     1       1.846   0.523   5.032  1.00  0.00     0.098 A 
ATOM     14  C   UNL     1       2.159   1.713   5.689  1.00  0.00    -0.018 A 
BRANCH  11  15
ATOM     15  N   UNL     1       2.191  -1.062   3.256  1.00  0.00     0.066 N 
ATOM     16  O   UNL     1       1.013  -1.287   2.953  1.00  0.00    -0.258 OA
ATOM     17  O   UNL     1       3.131  -1.859   3.157  1.00  0.00    -0.258 OA
ENDBRANCH  11  15
BRANCH  14  18
ATOM     18  C   UNL     1       1.448   1.952   6.930  1.00  0.00     0.012 C 
ATOM     19  C   UNL     1       2.063   2.347   8.050  1.00  0.00     0.053 C 
BRANCH  19  20
ATOM     20  C   UNL     1       1.342   2.317   9.341  1.00  0.00     0.188 C 
ATOM     21  O   UNL     1       1.579   3.157  10.200  1.00  0.00    -0.289 OA
BRANCH  20  22
ATOM     22  C   UNL     1       0.319   1.270   9.566  1.00  0.00     0.058 A 
ATOM     23  C   UNL     1      -0.897   1.648  10.143  1.00  0.00     0.018 A 
ATOM     24  C   UNL     1       0.526  -0.065   9.190  1.00  0.00     0.137 A 
ATOM     25  C   UNL     1      -1.902   0.695  10.314  1.00  0.00     0.040 A 
ATOM     26  C   UNL     1      -0.476  -1.014   9.355  1.00  0.00     0.079 A 
ATOM     27  F   UNL     1       1.686  -0.459   8.645  1.00  0.00    -0.206 F 
ATOM     28  C   UNL     1      -1.683  -0.623   9.916  1.00  0.00     0.126 A 
ATOM     29  F   UNL     1      -2.656  -1.528  10.078  1.00  0.00    -0.207 F 
ENDBRANCH  20  22
ENDBRANCH  19  20
ENDBRANCH  14  18
ENDBRANCH   8   9
ENDBRANCH   7   8
ENDBRANCH   5   7
ENDBRANCH   4   5
ENDBRANCH   3   4
ENDBRANCH   2   3
ENDBRANCH   1   2
BRANCH   1  30
ATOM     30  C   UNL     1       3.693   0.450  -2.236  1.00  0.00     0.188 C 
BRANCH  30  31
ATOM     31  C   UNL     1       2.704  -0.612  -2.762  1.00  0.00     0.188 C 
BRANCH  31  32
ATOM     32  O   UNL     1       3.199  -1.831  -3.292  1.00  0.00    -0.376 OA
BRANCH  32  33
ATOM     33  C   UNL     1       4.442  -1.830  -3.968  1.00  0.00     0.202 C 
BRANCH  33  34
ATOM     34  C   UNL     1       4.596  -0.931  -5.209  1.00  0.00     0.261 C 
BRANCH  34  35
ATOM     35  O   UNL     1       4.252   0.464  -5.044  1.00  0.00    -0.460 OA
BRANCH  35  36
ATOM     36  C   UNL     1       3.056   0.866  -5.555  1.00  0.00     0.338 C 
ATOM     37  O   UNL     1       2.278   0.192  -6.200  1.00  0.00    -0.246 OA
BRANCH  36  38
ATOM     38  C   UNL     1       2.708   2.235  -5.071  1.00  0.00     0.060 A 
ATOM     39  C   UNL     1       1.503   2.425  -4.372  1.00  0.00     0.016 A 
ATOM     40  C   UNL     1       3.517   3.336  -5.352  1.00  0.00     0.016 A 
ATOM     41  C   UNL     1       1.081   3.709  -4.001  1.00  0.00     0.010 A 
ATOM     42  C   UNL     1       3.079   4.627  -5.004  1.00  0.00     0.010 A 
ATOM     43  C   UNL     1       1.840   4.828  -4.364  1.00  0.00    -0.014 A 
BRANCH  43  44
ATOM     44  C   UNL     1       1.251   6.198  -4.289  1.00  0.00     0.031 A 
ATOM     45  C   UNL     1       0.686   6.803  -5.550  1.00  0.00     0.074 A 
ATOM     46  C   UNL     1       1.204   6.906  -3.144  1.00  0.00     0.049 A 
ATOM     47  N   UNL     1       0.222   8.009  -5.768  1.00  0.00    -0.248 NA
ATOM     48  C   UNL     1       0.646   5.923  -6.729  1.00  0.00     0.031 C 
ATOM     49  C   UNL     1       1.655   6.436  -1.838  1.00  0.00     0.029 A 
ATOM     50  N   UNL     1       0.766   8.190  -2.907  1.00  0.00    -0.354 N 
ATOM     51  C   UNL     1      -0.146   8.036  -7.108  1.00  0.00     0.074 A 
ATOM     52  C   UNL     1       0.173   6.738  -7.660  1.00  0.00     0.031 C 
ATOM     53  C   UNL     1       1.492   7.425  -0.940  1.00  0.00     0.029 A 
ATOM     54  C   UNL     1       0.962   8.612  -1.614  1.00  0.00     0.049 A 
ATOM     55  H   UNL     1       0.351   8.753  -3.600  1.00  0.00     0.167 HD
ATOM     56  C   UNL     1      -0.705   9.047  -7.816  1.00  0.00     0.037 A 
ATOM     57  C   UNL     1       0.766   9.821  -1.047  1.00  0.00     0.037 A 
ATOM     58  C   UNL     1      -1.031  10.341  -7.274  1.00  0.00     0.049 A 
ATOM     59  C   UNL     1       0.222  10.961  -1.878  1.00  0.00     0.074 A 
ATOM     60  C   UNL     1      -1.617  11.420  -7.912  1.00  0.00     0.029 A 
ATOM     61  N   UNL     1      -0.790  10.734  -5.966  1.00  0.00    -0.354 N 
ATOM     62  N   UNL     1      -0.139  10.973  -3.138  1.00  0.00    -0.248 NA
ATOM     63  C   UNL     1       0.057  12.259  -1.202  1.00  0.00     0.031 C 
ATOM     64  C   UNL     1      -1.671  12.487  -7.011  1.00  0.00     0.029 A 
ATOM     65  C   UNL     1      -1.188  12.050  -5.788  1.00  0.00     0.049 A 
ATOM     66  H   UNL     1      -0.396  10.163  -5.268  1.00  0.00     0.167 HD
ATOM     67  C   UNL     1      -0.609  12.258  -3.392  1.00  0.00     0.074 A 
ATOM     68  C   UNL     1      -0.497  12.996  -2.154  1.00  0.00     0.031 C 
ATOM     69  C   UNL     1      -1.092  12.777  -4.548  1.00  0.00     0.037 A 
BRANCH  56  70
ATOM     70  C   UNL     1      -0.975   8.810  -9.275  1.00  0.00     0.064 A 
ATOM     71  C   UNL     1      -1.980   7.934  -9.710  1.00  0.00     0.173 A 
ATOM     72  C   UNL     1      -0.246   9.507 -10.252  1.00  0.00     0.173 A 
ATOM     73  F   UNL     1      -2.699   7.234  -8.819  1.00  0.00    -0.203 F 
ATOM     74  C   UNL     1      -2.227   7.744 -11.068  1.00  0.00     0.198 A 
ATOM     75  C   UNL     1      -0.519   9.341 -11.607  1.00  0.00     0.198 A 
ATOM     76  F   UNL     1       0.722  10.363  -9.891  1.00  0.00    -0.203 F 
ATOM     77  F   UNL     1      -3.159   6.865 -11.461  1.00  0.00    -0.200 F 
ATOM     78  C   UNL     1      -1.503   8.454 -12.014  1.00  0.00     0.200 A 
ATOM     79  F   UNL     1       0.169  10.043 -12.518  1.00  0.00    -0.200 F 
ATOM     80  F   UNL     1      -1.751   8.280 -13.320  1.00  0.00    -0.200 F 
ENDBRANCH  56  70
BRANCH  57  81
ATOM     81  C   UNL     1       1.108  10.044   0.386  1.00  0.00     0.064 A 
ATOM     82  C   UNL     1       0.115  10.340   1.332  1.00  0.00     0.173 A 
ATOM     83  C   UNL     1       2.438  10.013   0.832  1.00  0.00     0.173 A 
ATOM     84  F   UNL     1      -1.170  10.413   0.953  1.00  0.00    -0.203 F 
ATOM     85  C   UNL     1       0.441  10.621   2.658  1.00  0.00     0.198 A 
ATOM     86  C   UNL     1       2.759  10.260   2.165  1.00  0.00     0.198 A 
ATOM     87  F   UNL     1       3.429   9.741  -0.029  1.00  0.00    -0.203 F 
ATOM     88  F   UNL     1      -0.523  10.960   3.526  1.00  0.00    -0.200 F 
ATOM     89  C   UNL     1       1.762  10.575   3.075  1.00  0.00     0.200 A 
ATOM     90  F   UNL     1       4.036  10.199   2.567  1.00  0.00    -0.200 F 
ATOM     91  F   UNL     1       2.075  10.841   4.350  1.00  0.00    -0.200 F 
ENDBRANCH  57  81
BRANCH  69  92
ATOM     92  C   UNL     1      -1.597  14.194  -4.526  1.00  0.00     0.064 A 
ATOM     93  C   UNL     1      -0.734  15.291  -4.388  1.00  0.00     0.173 A 
ATOM     94  C   UNL     1      -2.966  14.459  -4.695  1.00  0.00     0.173 A 
ATOM     95  F   UNL     1       0.582  15.097  -4.213  1.00  0.00    -0.203 F 
ATOM     96  C   UNL     1      -1.224  16.596  -4.391  1.00  0.00     0.198 A 
ATOM     97  C   UNL     1      -3.449  15.765  -4.734  1.00  0.00     0.198 A 
ATOM     98  F   UNL     1      -3.838  13.449  -4.841  1.00  0.00    -0.203 F 
ATOM     99  F   UNL     1      -0.386  17.625  -4.205  1.00  0.00    -0.200 F 
ATOM    100  C   UNL     1      -2.579  16.832  -4.572  1.00  0.00     0.200 A 
ATOM    101  F   UNL     1      -4.755  15.990  -4.928  1.00  0.00    -0.200 F 
ATOM    102  F   UNL     1      -3.047  18.087  -4.585  1.00  0.00    -0.200 F 
ENDBRANCH  69  92
ENDBRANCH  43  44
ENDBRANCH  36  38
ENDBRANCH  35  36
ENDBRANCH  34  35
ENDBRANCH  33  34
ENDBRANCH  32  33
ENDBRANCH  31  32
ENDBRANCH  30  31
ENDBRANCH   1  30
TORSDOF 23
