REMARK SMILES C[C@H](NC(=O)N(CC(=O)OCCOCCOCCOC(=O)c1ccc(-c2c3nc(c(-c4c(F)c(F)c(F)c(F)c4F)c4ccc([nH]4)c(-c4c(F)c(F)c(F)c(F)c4F)c4nc(c(-c5c(F)c(F)c(F)c(F)c5F)c5ccc2[nH]5)C=C4)C=C3)cc1)C(C)(C)C)c1ccccc1
REMARK SMILES IDX 14 1 13 2 12 3 11 4 10 5 8 6 9 7 7 8 6 9 4 10 3 11 5 13 2 14
REMARK SMILES IDX 1 15 89 16 90 17 94 18 91 19 93 20 92 21 85 22 86 23 87 24
REMARK SMILES IDX 88 25 15 26 16 27 17 28 18 29 19 30 20 31 21 32 22 33 23 34
REMARK SMILES IDX 84 35 24 36 83 37 25 38 26 39 27 40 77 41 28 42 82 43 76 44
REMARK SMILES IDX 78 45 29 46 81 47 75 48 74 49 30 51 62 52 42 53 61 54 43 55
REMARK SMILES IDX 46 56 60 57 79 58 44 59 45 60 59 62 80 63 47 64 31 65 32 66
REMARK SMILES IDX 40 67 33 68 34 69 38 70 41 71 35 72 36 73 39 74 37 75 63 76
REMARK SMILES IDX 64 77 72 78 65 79 66 80 70 81 73 82 67 83 68 84 71 85 69 86
REMARK SMILES IDX 48 87 49 88 57 89 50 90 51 91 55 92 58 93 52 94 53 95 56 96
REMARK SMILES IDX 54 97
REMARK H PARENT 3 12 78 50 46 61
REMARK Flexibility Score: inf
ROOT
ATOM      1  C   UNL     1       2.425   5.481   2.682  1.00  0.00     0.188 C 
ENDROOT
BRANCH   1   2
ATOM      2  O   UNL     1       1.078   5.942   2.630  1.00  0.00    -0.376 OA
BRANCH   2   3
ATOM      3  C   UNL     1       0.025   5.018   2.867  1.00  0.00     0.202 C 
BRANCH   3   4
ATOM      4  C   UNL     1      -0.384   4.174   1.656  1.00  0.00     0.261 C 
BRANCH   4   5
ATOM      5  O   UNL     1       0.652   3.274   1.215  1.00  0.00    -0.462 OA
BRANCH   5   6
ATOM      6  C   UNL     1       1.240   3.563   0.029  1.00  0.00     0.325 C 
ATOM      7  O   UNL     1       0.985   4.552  -0.653  1.00  0.00    -0.250 OA
BRANCH   6   8
ATOM      8  C   UNL     1       2.292   2.536  -0.424  1.00  0.00     0.244 C 
BRANCH   8   9
ATOM      9  N   UNL     1       2.530   1.307   0.357  1.00  0.00    -0.309 N 
BRANCH   9  10
ATOM     10  C   UNL     1       1.600   0.300   0.462  1.00  0.00     0.318 C 
ATOM     11  N   UNL     1       0.444   0.267  -0.211  1.00  0.00    -0.331 N 
ATOM     12  H   UNL     1      -0.160  -0.405   0.181  1.00  0.00     0.165 HD
ATOM     13  O   UNL     1       1.762  -0.680   1.194  1.00  0.00    -0.249 OA
BRANCH  11  14
ATOM     14  C   UNL     1      -0.196   0.921  -1.345  1.00  0.00     0.111 C 
ATOM     15  C   UNL     1       0.278   0.318  -2.668  1.00  0.00     0.036 C 
BRANCH  14  16
ATOM     16  C   UNL     1      -1.704   0.851  -1.182  1.00  0.00    -0.026 A 
ATOM     17  C   UNL     1      -2.443   2.037  -1.051  1.00  0.00     0.006 A 
ATOM     18  C   UNL     1      -2.381  -0.378  -1.101  1.00  0.00     0.006 A 
ATOM     19  C   UNL     1      -3.821   1.996  -0.834  1.00  0.00     0.000 A 
ATOM     20  C   UNL     1      -3.757  -0.416  -0.875  1.00  0.00     0.000 A 
ATOM     21  C   UNL     1      -4.475   0.770  -0.741  1.00  0.00     0.000 A 
ENDBRANCH  14  16
ENDBRANCH  11  14
ENDBRANCH   9  10
BRANCH   9  22
ATOM     22  C   UNL     1       3.908   1.035   0.943  1.00  0.00     0.037 C 
ATOM     23  C   UNL     1       3.838   0.701   2.455  1.00  0.00     0.034 C 
ATOM     24  C   UNL     1       4.583  -0.131   0.188  1.00  0.00     0.034 C 
ATOM     25  C   UNL     1       4.878   2.224   0.820  1.00  0.00     0.034 C 
ENDBRANCH   9  22
ENDBRANCH   8   9
ENDBRANCH   6   8
ENDBRANCH   5   6
ENDBRANCH   4   5
ENDBRANCH   3   4
ENDBRANCH   2   3
ENDBRANCH   1   2
BRANCH   1  26
ATOM     26  C   UNL     1       2.748   4.162   3.402  1.00  0.00     0.188 C 
BRANCH  26  27
ATOM     27  O   UNL     1       2.389   4.078   4.775  1.00  0.00    -0.376 OA
BRANCH  27  28
ATOM     28  C   UNL     1       3.000   5.013   5.661  1.00  0.00     0.202 C 
BRANCH  28  29
ATOM     29  C   UNL     1       4.530   4.982   5.655  1.00  0.00     0.261 C 
BRANCH  29  30
ATOM     30  O   UNL     1       5.038   5.692   4.505  1.00  0.00    -0.460 OA
BRANCH  30  31
ATOM     31  C   UNL     1       6.230   5.251   4.059  1.00  0.00     0.338 C 
ATOM     32  O   UNL     1       6.919   4.354   4.538  1.00  0.00    -0.246 OA
BRANCH  31  33
ATOM     33  C   UNL     1       6.627   5.954   2.833  1.00  0.00     0.060 A 
ATOM     34  C   UNL     1       6.130   5.513   1.607  1.00  0.00     0.016 A 
ATOM     35  C   UNL     1       7.670   6.875   2.873  1.00  0.00     0.016 A 
ATOM     36  C   UNL     1       6.751   5.888   0.416  1.00  0.00     0.010 A 
ATOM     37  C   UNL     1       8.246   7.310   1.675  1.00  0.00     0.010 A 
ATOM     38  C   UNL     1       7.836   6.772   0.440  1.00  0.00    -0.014 A 
BRANCH  38  39
ATOM     39  C   UNL     1       8.639   7.039  -0.786  1.00  0.00     0.031 A 
ATOM     40  C   UNL     1      10.094   6.649  -0.803  1.00  0.00     0.074 A 
ATOM     41  C   UNL     1       8.096   7.598  -1.883  1.00  0.00     0.049 A 
ATOM     42  N   UNL     1      11.050   7.029  -1.613  1.00  0.00    -0.248 NA
ATOM     43  C   UNL     1      10.533   5.710   0.243  1.00  0.00     0.031 C 
ATOM     44  C   UNL     1       6.684   7.931  -2.061  1.00  0.00     0.029 A 
ATOM     45  N   UNL     1       8.682   7.992  -3.063  1.00  0.00    -0.354 N 
ATOM     46  C   UNL     1      12.212   6.443  -1.126  1.00  0.00     0.074 A 
ATOM     47  C   UNL     1      11.840   5.659   0.032  1.00  0.00     0.031 C 
ATOM     48  C   UNL     1       6.509   8.464  -3.281  1.00  0.00     0.029 A 
ATOM     49  C   UNL     1       7.809   8.598  -3.932  1.00  0.00     0.049 A 
ATOM     50  H   UNL     1       9.636   7.853  -3.265  1.00  0.00     0.167 HD
ATOM     51  C   UNL     1      13.476   6.566  -1.597  1.00  0.00     0.037 A 
ATOM     52  C   UNL     1       8.038   9.241  -5.093  1.00  0.00     0.037 A 
ATOM     53  C   UNL     1      13.826   7.290  -2.790  1.00  0.00     0.049 A 
ATOM     54  C   UNL     1       9.452   9.392  -5.586  1.00  0.00     0.074 A 
ATOM     55  C   UNL     1      15.078   7.494  -3.344  1.00  0.00     0.029 A 
ATOM     56  N   UNL     1      12.911   7.903  -3.631  1.00  0.00    -0.354 N 
ATOM     57  N   UNL     1      10.565   8.944  -5.058  1.00  0.00    -0.248 NA
ATOM     58  C   UNL     1       9.644  10.168  -6.820  1.00  0.00     0.031 C 
ATOM     59  C   UNL     1      14.921   8.249  -4.513  1.00  0.00     0.029 A 
ATOM     60  C   UNL     1      13.569   8.485  -4.701  1.00  0.00     0.049 A 
ATOM     61  H   UNL     1      11.937   7.922  -3.489  1.00  0.00     0.167 HD
ATOM     62  C   UNL     1      11.585   9.373  -5.897  1.00  0.00     0.074 A 
ATOM     63  C   UNL     1      10.958  10.101  -6.980  1.00  0.00     0.031 C 
ATOM     64  C   UNL     1      12.922   9.191  -5.776  1.00  0.00     0.037 A 
BRANCH  51  65
ATOM     65  C   UNL     1      14.580   5.947  -0.794  1.00  0.00     0.064 A 
ATOM     66  C   UNL     1      14.814   4.566  -0.787  1.00  0.00     0.173 A 
ATOM     67  C   UNL     1      15.441   6.765  -0.045  1.00  0.00     0.173 A 
ATOM     68  F   UNL     1      14.008   3.742  -1.473  1.00  0.00    -0.203 F 
ATOM     69  C   UNL     1      15.859   4.022  -0.043  1.00  0.00     0.198 A 
ATOM     70  C   UNL     1      16.499   6.221   0.678  1.00  0.00     0.198 A 
ATOM     71  F   UNL     1      15.261   8.094  -0.021  1.00  0.00    -0.203 F 
ATOM     72  F   UNL     1      16.043   2.695  -0.019  1.00  0.00    -0.200 F 
ATOM     73  C   UNL     1      16.704   4.850   0.683  1.00  0.00     0.200 A 
ATOM     74  F   UNL     1      17.318   7.024   1.372  1.00  0.00    -0.200 F 
ATOM     75  F   UNL     1      17.712   4.325   1.393  1.00  0.00    -0.200 F 
ENDBRANCH  51  65
BRANCH  52  76
ATOM     76  C   UNL     1       6.907   9.851  -5.840  1.00  0.00     0.064 A 
ATOM     77  C   UNL     1       6.507   9.344  -7.084  1.00  0.00     0.173 A 
ATOM     78  C   UNL     1       6.211  10.959  -5.333  1.00  0.00     0.173 A 
ATOM     79  F   UNL     1       7.162   8.306  -7.625  1.00  0.00    -0.203 F 
ATOM     80  C   UNL     1       5.461   9.928  -7.796  1.00  0.00     0.198 A 
ATOM     81  C   UNL     1       5.146  11.523  -6.031  1.00  0.00     0.198 A 
ATOM     82  F   UNL     1       6.559  11.486  -4.149  1.00  0.00    -0.203 F 
ATOM     83  F   UNL     1       5.127   9.451  -9.002  1.00  0.00    -0.200 F 
ATOM     84  C   UNL     1       4.776  11.011  -7.265  1.00  0.00     0.200 A 
ATOM     85  F   UNL     1       4.481  12.562  -5.509  1.00  0.00    -0.200 F 
ATOM     86  F   UNL     1       3.766  11.568  -7.948  1.00  0.00    -0.200 F 
ENDBRANCH  52  76
BRANCH  64  87
ATOM     87  C   UNL     1      13.790   9.757  -6.858  1.00  0.00     0.064 A 
ATOM     88  C   UNL     1      14.066  11.130  -6.930  1.00  0.00     0.173 A 
ATOM     89  C   UNL     1      14.381   8.912  -7.808  1.00  0.00     0.173 A 
ATOM     90  F   UNL     1      13.510  11.977  -6.051  1.00  0.00    -0.203 F 
ATOM     91  C   UNL     1      14.890  11.639  -7.929  1.00  0.00     0.198 A 
ATOM     92  C   UNL     1      15.221   9.422  -8.793  1.00  0.00     0.198 A 
ATOM     93  F   UNL     1      14.148   7.591  -7.776  1.00  0.00    -0.203 F 
ATOM     94  F   UNL     1      15.113  12.959  -8.004  1.00  0.00    -0.200 F 
ATOM     95  C   UNL     1      15.471  10.785  -8.856  1.00  0.00     0.200 A 
ATOM     96  F   UNL     1      15.787   8.596  -9.683  1.00  0.00    -0.200 F 
ATOM     97  F   UNL     1      16.267  11.277  -9.815  1.00  0.00    -0.200 F 
ENDBRANCH  64  87
ENDBRANCH  38  39
ENDBRANCH  31  33
ENDBRANCH  30  31
ENDBRANCH  29  30
ENDBRANCH  28  29
ENDBRANCH  27  28
ENDBRANCH  26  27
ENDBRANCH   1  26
TORSDOF 22
