REMARK SMILES C[C@@H](C(=O)OCCOCCOCCOC(=O)c1ccc(-c2c3nc(c(-c4c(F)c(F)c(F)c(F)c4F)c4ccc([nH]4)c(-c4c(F)c(F)c(F)c(F)c4F)c4nc(c(-c5c(F)c(F)c(F)c(F)c5F)c5ccc2[nH]5)C=C4)C=C3)cc1)c1ccc(C[C@H]2CCC[C@@H]2O)cc1F
REMARK SMILES IDX 9 1 8 2 7 3 6 4 5 5 3 6 4 7 2 8 1 9 80 10 81 11 92 12 82 13
REMARK SMILES IDX 91 14 93 15 83 16 84 17 85 18 86 19 89 20 87 21 88 22 90 23
REMARK SMILES IDX 10 25 11 26 12 27 13 28 14 29 15 30 16 31 17 32 18 33 79 34
REMARK SMILES IDX 19 35 78 36 20 37 21 38 22 39 72 40 23 41 77 42 71 43 73 44
REMARK SMILES IDX 24 45 76 46 70 47 69 48 25 50 57 51 37 52 56 53 38 54 41 55
REMARK SMILES IDX 55 56 74 57 39 58 40 59 54 61 75 62 42 63 26 64 27 65 35 66
REMARK SMILES IDX 28 67 29 68 33 69 36 70 30 71 31 72 34 73 32 74 58 75 59 76
REMARK SMILES IDX 67 77 60 78 61 79 65 80 68 81 62 82 63 83 66 84 64 85 43 86
REMARK SMILES IDX 44 87 52 88 45 89 46 90 50 91 53 92 47 93 48 94 51 95 49 96
REMARK H PARENT 90 24 73 49 41 60
REMARK Flexibility Score: inf
ROOT
ATOM      1  C   UNL     1       0.224  -2.512   2.862  1.00  0.00     0.188 C 
ENDROOT
BRANCH   1   2
ATOM      2  O   UNL     1       0.951  -3.583   3.456  1.00  0.00    -0.376 OA
BRANCH   2   3
ATOM      3  C   UNL     1       2.238  -3.902   2.922  1.00  0.00     0.202 C 
BRANCH   3   4
ATOM      4  C   UNL     1       2.428  -3.972   1.395  1.00  0.00     0.261 C 
BRANCH   4   5
ATOM      5  O   UNL     1       1.966  -2.794   0.711  1.00  0.00    -0.463 OA
BRANCH   5   6
ATOM      6  C   UNL     1       1.514  -2.976  -0.558  1.00  0.00     0.313 C 
ATOM      7  O   UNL     1       1.586  -4.038  -1.166  1.00  0.00    -0.252 OA
BRANCH   6   8
ATOM      8  C   UNL     1       0.914  -1.703  -1.159  1.00  0.00     0.129 C 
ATOM      9  C   UNL     1       1.758  -0.468  -0.801  1.00  0.00     0.025 C 
BRANCH   8  10
ATOM     10  C   UNL     1      -0.603  -1.513  -1.026  1.00  0.00     0.002 A 
ATOM     11  C   UNL     1      -1.186  -0.244  -1.211  1.00  0.00     0.008 A 
ATOM     12  C   UNL     1      -1.490  -2.590  -0.913  1.00  0.00     0.127 A 
ATOM     13  C   UNL     1      -2.574  -0.077  -1.348  1.00  0.00     0.004 A 
ATOM     14  C   UNL     1      -2.876  -2.430  -1.047  1.00  0.00     0.043 A 
ATOM     15  F   UNL     1      -1.036  -3.830  -0.700  1.00  0.00    -0.207 F 
ATOM     16  C   UNL     1      -3.438  -1.172  -1.300  1.00  0.00    -0.045 A 
BRANCH  16  17
ATOM     17  C   UNL     1      -4.924  -1.018  -1.560  1.00  0.00     0.041 C 
BRANCH  17  18
ATOM     18  C   UNL     1      -5.839  -0.632  -0.382  1.00  0.00     0.022 C 
ATOM     19  C   UNL     1      -5.587  -1.500   0.853  1.00  0.00     0.007 C 
ATOM     20  C   UNL     1      -5.663   0.824   0.109  1.00  0.00     0.117 C 
ATOM     21  C   UNL     1      -4.739  -0.611   1.737  1.00  0.00     0.003 C 
ATOM     22  C   UNL     1      -5.452   0.719   1.614  1.00  0.00     0.032 C 
BRANCH  20  23
ATOM     23  O   UNL     1      -6.809   1.615  -0.147  1.00  0.00    -0.393 OA
ATOM     24  H   UNL     1      -7.578   1.225   0.297  1.00  0.00     0.210 HD
ENDBRANCH  20  23
ENDBRANCH  17  18
ENDBRANCH  16  17
ENDBRANCH   8  10
ENDBRANCH   6   8
ENDBRANCH   5   6
ENDBRANCH   4   5
ENDBRANCH   3   4
ENDBRANCH   2   3
ENDBRANCH   1   2
BRANCH   1  25
ATOM     25  C   UNL     1       0.863  -1.111   2.842  1.00  0.00     0.188 C 
BRANCH  25  26
ATOM     26  O   UNL     1       2.270  -1.112   2.924  1.00  0.00    -0.376 OA
BRANCH  26  27
ATOM     27  C   UNL     1       2.921  -0.656   4.101  1.00  0.00     0.202 C 
BRANCH  27  28
ATOM     28  C   UNL     1       2.354  -0.801   5.533  1.00  0.00     0.261 C 
BRANCH  28  29
ATOM     29  O   UNL     1       0.932  -0.898   5.696  1.00  0.00    -0.460 OA
BRANCH  29  30
ATOM     30  C   UNL     1       0.260   0.263   5.839  1.00  0.00     0.338 C 
ATOM     31  O   UNL     1       0.738   1.396   5.832  1.00  0.00    -0.246 OA
BRANCH  30  32
ATOM     32  C   UNL     1      -1.190  -0.013   5.753  1.00  0.00     0.060 A 
ATOM     33  C   UNL     1      -1.908   0.634   4.748  1.00  0.00     0.016 A 
ATOM     34  C   UNL     1      -1.849  -0.890   6.623  1.00  0.00     0.016 A 
ATOM     35  C   UNL     1      -3.275   0.401   4.617  1.00  0.00     0.010 A 
ATOM     36  C   UNL     1      -3.236  -1.108   6.494  1.00  0.00     0.010 A 
ATOM     37  C   UNL     1      -3.969  -0.465   5.486  1.00  0.00    -0.014 A 
BRANCH  37  38
ATOM     38  C   UNL     1      -5.461  -0.569   5.359  1.00  0.00     0.031 A 
ATOM     39  C   UNL     1      -6.294   0.652   5.657  1.00  0.00     0.074 A 
ATOM     40  C   UNL     1      -6.074  -1.653   4.832  1.00  0.00     0.049 A 
ATOM     41  N   UNL     1      -7.573   0.861   5.463  1.00  0.00    -0.248 NA
ATOM     42  C   UNL     1      -5.580   1.796   6.245  1.00  0.00     0.031 C 
ATOM     43  C   UNL     1      -5.397  -2.865   4.373  1.00  0.00     0.029 A 
ATOM     44  N   UNL     1      -7.392  -1.852   4.463  1.00  0.00    -0.354 N 
ATOM     45  C   UNL     1      -7.823   2.138   5.948  1.00  0.00     0.074 A 
ATOM     46  C   UNL     1      -6.553   2.684   6.375  1.00  0.00     0.031 C 
ATOM     47  C   UNL     1      -6.267  -3.609   3.665  1.00  0.00     0.029 A 
ATOM     48  C   UNL     1      -7.582  -2.968   3.673  1.00  0.00     0.049 A 
ATOM     49  H   UNL     1      -8.124  -1.254   4.738  1.00  0.00     0.167 HD
ATOM     50  C   UNL     1      -9.009   2.776   6.095  1.00  0.00     0.037 A 
ATOM     51  C   UNL     1      -8.675  -3.392   2.998  1.00  0.00     0.037 A 
ATOM     52  C   UNL     1     -10.287   2.243   5.712  1.00  0.00     0.049 A 
ATOM     53  C   UNL     1      -9.991  -2.662   3.175  1.00  0.00     0.074 A 
ATOM     54  C   UNL     1     -11.547   2.768   5.947  1.00  0.00     0.029 A 
ATOM     55  N   UNL     1     -10.472   1.062   5.012  1.00  0.00    -0.354 N 
ATOM     56  N   UNL     1     -10.234  -1.493   3.710  1.00  0.00    -0.248 NA
ATOM     57  C   UNL     1     -11.198  -3.352   2.683  1.00  0.00     0.031 C 
ATOM     58  C   UNL     1     -12.497   1.875   5.441  1.00  0.00     0.029 A 
ATOM     59  C   UNL     1     -11.826   0.826   4.836  1.00  0.00     0.049 A 
ATOM     60  H   UNL     1      -9.748   0.478   4.688  1.00  0.00     0.167 HD
ATOM     61  C   UNL     1     -11.612  -1.316   3.634  1.00  0.00     0.074 A 
ATOM     62  C   UNL     1     -12.148  -2.462   2.935  1.00  0.00     0.031 C 
ATOM     63  C   UNL     1     -12.368  -0.311   4.139  1.00  0.00     0.037 A 
BRANCH  50  64
ATOM     64  C   UNL     1      -8.983   4.069   6.852  1.00  0.00     0.064 A 
ATOM     65  C   UNL     1      -8.515   5.263   6.289  1.00  0.00     0.173 A 
ATOM     66  C   UNL     1      -9.420   4.091   8.186  1.00  0.00     0.173 A 
ATOM     67  F   UNL     1      -8.058   5.284   5.029  1.00  0.00    -0.203 F 
ATOM     68  C   UNL     1      -8.461   6.431   7.047  1.00  0.00     0.198 A 
ATOM     69  C   UNL     1      -9.391   5.264   8.930  1.00  0.00     0.198 A 
ATOM     70  F   UNL     1      -9.871   2.970   8.768  1.00  0.00    -0.203 F 
ATOM     71  F   UNL     1      -7.957   7.552   6.513  1.00  0.00    -0.200 F 
ATOM     72  C   UNL     1      -8.903   6.431   8.363  1.00  0.00     0.200 A 
ATOM     73  F   UNL     1      -9.824   5.262  10.198  1.00  0.00    -0.200 F 
ATOM     74  F   UNL     1      -8.844   7.554   9.092  1.00  0.00    -0.200 F 
ENDBRANCH  50  64
BRANCH  51  75
ATOM     75  C   UNL     1      -8.630  -4.561   2.065  1.00  0.00     0.064 A 
ATOM     76  C   UNL     1      -9.002  -4.407   0.716  1.00  0.00     0.173 A 
ATOM     77  C   UNL     1      -8.329  -5.859   2.499  1.00  0.00     0.173 A 
ATOM     78  F   UNL     1      -9.334  -3.195   0.247  1.00  0.00    -0.203 F 
ATOM     79  C   UNL     1      -9.111  -5.502  -0.141  1.00  0.00     0.198 A 
ATOM     80  C   UNL     1      -8.394  -6.949   1.629  1.00  0.00     0.198 A 
ATOM     81  F   UNL     1      -7.992  -6.081   3.777  1.00  0.00    -0.203 F 
ATOM     82  F   UNL     1      -9.553  -5.330  -1.394  1.00  0.00    -0.200 F 
ATOM     83  C   UNL     1      -8.802  -6.773   0.316  1.00  0.00     0.200 A 
ATOM     84  F   UNL     1      -8.086  -8.175   2.072  1.00  0.00    -0.200 F 
ATOM     85  F   UNL     1      -8.917  -7.828  -0.502  1.00  0.00    -0.200 F 
ENDBRANCH  51  75
BRANCH  63  86
ATOM     86  C   UNL     1     -13.864  -0.405   3.998  1.00  0.00     0.064 A 
ATOM     87  C   UNL     1     -14.603  -1.371   4.700  1.00  0.00     0.173 A 
ATOM     88  C   UNL     1     -14.576   0.523   3.223  1.00  0.00     0.173 A 
ATOM     89  F   UNL     1     -13.975  -2.286   5.453  1.00  0.00    -0.203 F 
ATOM     90  C   UNL     1     -15.993  -1.417   4.614  1.00  0.00     0.198 A 
ATOM     91  C   UNL     1     -15.969   0.493   3.164  1.00  0.00     0.198 A 
ATOM     92  F   UNL     1     -13.925   1.476   2.539  1.00  0.00    -0.203 F 
ATOM     93  F   UNL     1     -16.671  -2.372   5.265  1.00  0.00    -0.200 F 
ATOM     94  C   UNL     1     -16.675  -0.479   3.855  1.00  0.00     0.200 A 
ATOM     95  F   UNL     1     -16.628   1.411   2.443  1.00  0.00    -0.200 F 
ATOM     96  F   UNL     1     -18.013  -0.514   3.788  1.00  0.00    -0.200 F 
ENDBRANCH  63  86
ENDBRANCH  37  38
ENDBRANCH  30  32
ENDBRANCH  29  30
ENDBRANCH  28  29
ENDBRANCH  27  28
ENDBRANCH  26  27
ENDBRANCH  25  26
ENDBRANCH   1  25
TORSDOF 21
