REMARK SMILES CCCSc1nc2n(n1)[C@@H](c1ccccc1C(=O)OCCOCCOCCOC(=O)c1ccc(-c3c4nc(c(-c5c(F)c(F)c(F)c(F)c5F)c5ccc([nH]5)c(-c5c(F)c(F)c(F)c(F)c5F)c5nc(c(-c6c(F)c(F)c(F)c(F)c6F)c6ccc3[nH]6)C=C5)C=C4)cc1)C(C(=O)Nc1cccc(C)c1C)=C(C)N2
REMARK SMILES IDX 23 1 22 2 21 3 20 4 19 5 17 6 18 7 16 8 11 9 12 10 13 11
REMARK SMILES IDX 15 12 14 13 10 14 5 15 6 16 9 17 7 18 8 19 108 20 106 21
REMARK SMILES IDX 94 23 107 24 4 25 3 26 2 27 1 28 95 29 96 30 97 31 98 33
REMARK SMILES IDX 99 34 104 35 100 36 102 37 105 38 101 39 103 40 24 41 25 42
REMARK SMILES IDX 26 43 27 44 28 45 29 46 30 47 31 48 32 49 93 50 33 51 92 52
REMARK SMILES IDX 34 53 35 54 36 55 86 56 37 57 91 58 85 59 87 60 38 61 90 62
REMARK SMILES IDX 84 63 83 64 39 66 71 67 51 68 70 69 52 70 55 71 69 72 88 73
REMARK SMILES IDX 53 74 54 75 68 77 89 78 56 79 40 80 41 81 49 82 42 83 43 84
REMARK SMILES IDX 47 85 50 86 44 87 45 88 48 89 46 90 72 91 73 92 81 93 74 94
REMARK SMILES IDX 75 95 79 96 82 97 76 98 77 99 80 100 78 101 57 102 58 103
REMARK SMILES IDX 66 104 59 105 60 106 64 107 67 108 61 109 62 110 65 111
REMARK SMILES IDX 63 112
REMARK H PARENT 108 22 97 32 87 65 55 76
REMARK Flexibility Score: inf
ROOT
ATOM      1  C   UNL     1      -2.483  -7.760  -3.724  1.00  0.00     0.188 C 
ENDROOT
BRANCH   1   2
ATOM      2  O   UNL     1      -2.274  -8.428  -2.490  1.00  0.00    -0.376 OA
BRANCH   2   3
ATOM      3  C   UNL     1      -1.009  -9.075  -2.395  1.00  0.00     0.202 C 
BRANCH   3   4
ATOM      4  C   UNL     1       0.181  -8.139  -2.153  1.00  0.00     0.261 C 
BRANCH   4   5
ATOM      5  O   UNL     1       0.295  -7.006  -3.034  1.00  0.00    -0.460 OA
BRANCH   5   6
ATOM      6  C   UNL     1       0.671  -7.243  -4.308  1.00  0.00     0.338 C 
ATOM      7  O   UNL     1       0.840  -8.355  -4.782  1.00  0.00    -0.246 OA
BRANCH   6   8
ATOM      8  C   UNL     1       0.723  -5.967  -5.099  1.00  0.00     0.065 A 
ATOM      9  C   UNL     1       1.096  -4.682  -4.615  1.00  0.00    -0.004 A 
ATOM     10  C   UNL     1       1.079  -3.616  -5.554  1.00  0.00     0.007 A 
ATOM     11  C   UNL     1       0.698  -3.795  -6.885  1.00  0.00     0.000 A 
ATOM     12  C   UNL     1       0.371  -6.132  -6.457  1.00  0.00     0.016 A 
ATOM     13  C   UNL     1       0.350  -5.055  -7.339  1.00  0.00     0.001 A 
BRANCH   9  14
ATOM     14  C   UNL     1       1.605  -4.421  -3.175  1.00  0.00     0.180 C 
ATOM     15  C   UNL     1       0.845  -1.033  -2.569  1.00  0.00     0.210 A 
ATOM     16  N   UNL     1       2.209  -0.928  -2.494  1.00  0.00    -0.185 NA
ATOM     17  N   UNL     1       0.369  -2.275  -2.728  1.00  0.00    -0.141 NA
ATOM     18  C   UNL     1       2.605  -2.164  -2.648  1.00  0.00     0.227 A 
ATOM     19  N   UNL     1       1.516  -2.983  -2.814  1.00  0.00    -0.218 N 
ATOM     20  N   UNL     1       3.841  -2.685  -2.693  1.00  0.00    -0.328 N 
ATOM     21  C   UNL     1       4.087  -4.042  -2.836  1.00  0.00     0.026 C 
ATOM     22  H   UNL     1       4.610  -2.075  -2.620  1.00  0.00     0.169 HD
ATOM     23  C   UNL     1       3.050  -4.898  -2.987  1.00  0.00     0.065 C 
ATOM     24  C   UNL     1       5.538  -4.446  -2.824  1.00  0.00     0.065 C 
BRANCH  15  25
ATOM     25  S   UNL     1      -0.214   0.350  -2.516  1.00  0.00    -0.084 SA
BRANCH  25  26
ATOM     26  C   UNL     1       0.725   1.474  -1.436  1.00  0.00     0.078 C 
BRANCH  26  27
ATOM     27  C   UNL     1       0.411   1.275   0.048  1.00  0.00     0.008 C 
ATOM     28  C   UNL     1       0.891  -0.049   0.625  1.00  0.00     0.005 C 
ENDBRANCH  26  27
ENDBRANCH  25  26
ENDBRANCH  15  25
BRANCH  23  29
ATOM     29  C   UNL     1       3.289  -6.347  -3.094  1.00  0.00     0.255 C 
ATOM     30  O   UNL     1       3.487  -6.859  -4.192  1.00  0.00    -0.269 OA
ATOM     31  N   UNL     1       3.225  -7.133  -1.967  1.00  0.00    -0.322 N 
ATOM     32  H   UNL     1       2.526  -7.822  -1.889  1.00  0.00     0.170 HD
BRANCH  31  33
ATOM     33  C   UNL     1       4.157  -6.955  -0.922  1.00  0.00     0.044 A 
ATOM     34  C   UNL     1       5.273  -7.802  -0.984  1.00  0.00     0.026 A 
ATOM     35  C   UNL     1       4.081  -5.924   0.027  1.00  0.00    -0.025 A 
ATOM     36  C   UNL     1       6.394  -7.534  -0.216  1.00  0.00     0.002 A 
ATOM     37  C   UNL     1       5.252  -5.609   0.750  1.00  0.00    -0.046 A 
ATOM     38  C   UNL     1       2.789  -5.200   0.302  1.00  0.00     0.047 C 
ATOM     39  C   UNL     1       6.399  -6.415   0.609  1.00  0.00     0.004 A 
ATOM     40  C   UNL     1       5.385  -4.368   1.591  1.00  0.00     0.044 C 
ENDBRANCH  31  33
ENDBRANCH  23  29
ENDBRANCH   9  14
ENDBRANCH   6   8
ENDBRANCH   5   6
ENDBRANCH   4   5
ENDBRANCH   3   4
ENDBRANCH   2   3
ENDBRANCH   1   2
BRANCH   1  41
ATOM     41  C   UNL     1      -2.549  -6.221  -3.646  1.00  0.00     0.188 C 
BRANCH  41  42
ATOM     42  O   UNL     1      -2.155  -5.513  -2.479  1.00  0.00    -0.376 OA
BRANCH  42  43
ATOM     43  C   UNL     1      -2.558  -5.931  -1.182  1.00  0.00     0.202 C 
BRANCH  43  44
ATOM     44  C   UNL     1      -4.044  -6.028  -0.844  1.00  0.00     0.261 C 
BRANCH  44  45
ATOM     45  O   UNL     1      -4.754  -6.880  -1.734  1.00  0.00    -0.460 OA
BRANCH  45  46
ATOM     46  C   UNL     1      -5.474  -6.227  -2.671  1.00  0.00     0.338 C 
ATOM     47  O   UNL     1      -5.593  -5.024  -2.808  1.00  0.00    -0.246 OA
BRANCH  46  48
ATOM     48  C   UNL     1      -6.094  -7.207  -3.578  1.00  0.00     0.060 A 
ATOM     49  C   UNL     1      -6.688  -6.704  -4.739  1.00  0.00     0.016 A 
ATOM     50  C   UNL     1      -6.198  -8.562  -3.231  1.00  0.00     0.016 A 
ATOM     51  C   UNL     1      -7.561  -7.508  -5.439  1.00  0.00     0.010 A 
ATOM     52  C   UNL     1      -7.069  -9.370  -3.934  1.00  0.00     0.010 A 
ATOM     53  C   UNL     1      -7.814  -8.799  -4.965  1.00  0.00    -0.014 A 
BRANCH  53  54
ATOM     54  C   UNL     1      -9.004  -9.460  -5.470  1.00  0.00     0.031 A 
ATOM     55  C   UNL     1      -8.890 -10.112  -6.784  1.00  0.00     0.074 A 
ATOM     56  C   UNL     1     -10.141  -9.472  -4.745  1.00  0.00     0.049 A 
ATOM     57  N   UNL     1      -9.545  -9.825  -7.859  1.00  0.00    -0.248 NA
ATOM     58  C   UNL     1      -7.902 -11.188  -6.938  1.00  0.00     0.031 C 
ATOM     59  C   UNL     1     -10.272  -9.100  -3.331  1.00  0.00     0.029 A 
ATOM     60  N   UNL     1     -11.399  -9.894  -5.080  1.00  0.00    -0.354 N 
ATOM     61  C   UNL     1      -9.206 -10.814  -8.772  1.00  0.00     0.074 A 
ATOM     62  C   UNL     1      -8.099 -11.546  -8.207  1.00  0.00     0.031 C 
ATOM     63  C   UNL     1     -11.481  -9.491  -2.879  1.00  0.00     0.029 A 
ATOM     64  C   UNL     1     -12.255 -10.010  -3.995  1.00  0.00     0.049 A 
ATOM     65  H   UNL     1     -11.671 -10.097  -6.004  1.00  0.00     0.167 HD
ATOM     66  C   UNL     1     -10.052 -11.138  -9.783  1.00  0.00     0.037 A 
ATOM     67  C   UNL     1     -13.509 -10.514  -3.978  1.00  0.00     0.037 A 
ATOM     68  C   UNL     1     -11.045 -10.128 -10.023  1.00  0.00     0.049 A 
ATOM     69  C   UNL     1     -14.071 -10.468  -5.345  1.00  0.00     0.074 A 
ATOM     70  C   UNL     1     -11.149  -8.969 -10.758  1.00  0.00     0.029 A 
ATOM     71  N   UNL     1     -12.106 -10.160  -9.164  1.00  0.00    -0.354 N 
ATOM     72  N   UNL     1     -14.412  -9.368  -5.954  1.00  0.00    -0.248 NA
ATOM     73  C   UNL     1     -14.026 -11.662  -6.186  1.00  0.00     0.031 C 
ATOM     74  C   UNL     1     -12.282  -8.261 -10.252  1.00  0.00     0.029 A 
ATOM     75  C   UNL     1     -12.836  -9.002  -9.216  1.00  0.00     0.049 A 
ATOM     76  H   UNL     1     -12.320 -10.922  -8.579  1.00  0.00     0.167 HD
ATOM     77  C   UNL     1     -14.216  -9.649  -7.289  1.00  0.00     0.074 A 
ATOM     78  C   UNL     1     -14.166 -11.098  -7.389  1.00  0.00     0.031 C 
ATOM     79  C   UNL     1     -13.747  -8.697  -8.140  1.00  0.00     0.037 A 
BRANCH  66  80
ATOM     80  C   UNL     1     -10.282 -12.555 -10.240  1.00  0.00     0.064 A 
ATOM     81  C   UNL     1     -10.952 -12.791 -11.454  1.00  0.00     0.173 A 
ATOM     82  C   UNL     1     -10.155 -13.666  -9.377  1.00  0.00     0.173 A 
ATOM     83  F   UNL     1     -11.162 -11.790 -12.322  1.00  0.00    -0.203 F 
ATOM     84  C   UNL     1     -11.489 -14.044 -11.763  1.00  0.00     0.198 A 
ATOM     85  C   UNL     1     -10.643 -14.927  -9.714  1.00  0.00     0.198 A 
ATOM     86  F   UNL     1      -9.664 -13.545  -8.137  1.00  0.00    -0.203 F 
ATOM     87  F   UNL     1     -12.211 -14.201 -12.880  1.00  0.00    -0.200 F 
ATOM     88  C   UNL     1     -11.332 -15.110 -10.894  1.00  0.00     0.200 A 
ATOM     89  F   UNL     1     -10.507 -15.940  -8.847  1.00  0.00    -0.200 F 
ATOM     90  F   UNL     1     -11.884 -16.299 -11.169  1.00  0.00    -0.200 F 
ENDBRANCH  66  80
BRANCH  67  91
ATOM     91  C   UNL     1     -14.229 -11.149  -2.855  1.00  0.00     0.064 A 
ATOM     92  C   UNL     1     -15.630 -11.205  -2.824  1.00  0.00     0.173 A 
ATOM     93  C   UNL     1     -13.543 -11.933  -1.907  1.00  0.00     0.173 A 
ATOM     94  F   UNL     1     -16.355 -10.518  -3.719  1.00  0.00    -0.203 F 
ATOM     95  C   UNL     1     -16.307 -12.019  -1.913  1.00  0.00     0.198 A 
ATOM     96  C   UNL     1     -14.220 -12.734  -0.989  1.00  0.00     0.198 A 
ATOM     97  F   UNL     1     -12.204 -12.004  -1.914  1.00  0.00    -0.203 F 
ATOM     98  F   UNL     1     -17.644 -12.096  -1.953  1.00  0.00    -0.200 F 
ATOM     99  C   UNL     1     -15.602 -12.788  -1.002  1.00  0.00     0.200 A 
ATOM    100  F   UNL     1     -13.525 -13.496  -0.133  1.00  0.00    -0.200 F 
ATOM    101  F   UNL     1     -16.249 -13.610  -0.165  1.00  0.00    -0.200 F 
ENDBRANCH  67  91
BRANCH  79 102
ATOM    102  C   UNL     1     -14.033  -7.275  -7.792  1.00  0.00     0.064 A 
ATOM    103  C   UNL     1     -13.476  -6.614  -6.686  1.00  0.00     0.173 A 
ATOM    104  C   UNL     1     -14.903  -6.551  -8.617  1.00  0.00     0.173 A 
ATOM    105  F   UNL     1     -12.581  -7.228  -5.899  1.00  0.00    -0.203 F 
ATOM    106  C   UNL     1     -13.826  -5.298  -6.390  1.00  0.00     0.198 A 
ATOM    107  C   UNL     1     -15.225  -5.227  -8.337  1.00  0.00     0.198 A 
ATOM    108  F   UNL     1     -15.433  -7.128  -9.708  1.00  0.00    -0.203 F 
ATOM    109  F   UNL     1     -13.313  -4.693  -5.309  1.00  0.00    -0.200 F 
ATOM    110  C   UNL     1     -14.699  -4.606  -7.216  1.00  0.00     0.200 A 
ATOM    111  F   UNL     1     -16.043  -4.552  -9.157  1.00  0.00    -0.200 F 
ATOM    112  F   UNL     1     -15.024  -3.336  -6.939  1.00  0.00    -0.200 F 
ENDBRANCH  79 102
ENDBRANCH  53  54
ENDBRANCH  46  48
ENDBRANCH  45  46
ENDBRANCH  44  45
ENDBRANCH  43  44
ENDBRANCH  42  43
ENDBRANCH  41  42
ENDBRANCH   1  41
TORSDOF 23
