REMARK SMILES O=C(OCCOCCOCCOC(=O)[C@@H]1[C@@H](C(=O)NCc2ccccc2Br)[C@H]2C=C[C@@H]1O2)c1ccc(-c2c3nc(c(-c4c(F)c(F)c(F)c(F)c4F)c4ccc([nH]4)c(-c4c(F)c(F)c(F)c(F)c4F)c4nc(c(-c5c(F)c(F)c(F)c(F)c5F)c5ccc2[nH]5)C=C4)C=C3)cc1
REMARK SMILES IDX 8 1 7 2 6 3 5 4 4 5 3 6 2 7 1 8 33 9 34 10 95 11 35 12 94 13
REMARK SMILES IDX 36 14 37 15 38 16 88 17 39 18 93 19 87 20 89 21 40 22 92 23
REMARK SMILES IDX 86 24 85 25 41 27 73 28 53 29 72 30 54 31 57 32 71 33 90 34
REMARK SMILES IDX 55 35 56 36 70 38 91 39 58 40 42 41 43 42 51 43 44 44 45 45
REMARK SMILES IDX 49 46 52 47 46 48 47 49 50 50 48 51 74 52 75 53 83 54 76 55
REMARK SMILES IDX 77 56 81 57 84 58 78 59 79 60 82 61 80 62 59 63 60 64 68 65
REMARK SMILES IDX 61 66 62 67 66 68 69 69 63 70 64 71 67 72 65 73 9 74 10 75
REMARK SMILES IDX 11 76 12 77 13 78 14 79 15 80 16 81 31 82 28 83 30 84 32 85
REMARK SMILES IDX 29 86 17 87 18 88 19 89 20 91 21 92 22 93 26 94 23 95 25 96
REMARK SMILES IDX 27 97 24 98
REMARK H PARENT 89 26 57 37 19 90
REMARK Flexibility Score: inf
ROOT
ATOM      1  C   UNL     1       1.895  -2.566  -1.812  1.00  0.00     0.188 C 
ENDROOT
BRANCH   1   2
ATOM      2  C   UNL     1       2.558  -1.734  -0.718  1.00  0.00     0.188 C 
BRANCH   2   3
ATOM      3  O   UNL     1       3.892  -1.302  -1.020  1.00  0.00    -0.376 OA
BRANCH   3   4
ATOM      4  C   UNL     1       4.804  -1.494   0.070  1.00  0.00     0.202 C 
BRANCH   4   5
ATOM      5  C   UNL     1       4.616  -0.566   1.285  1.00  0.00     0.261 C 
BRANCH   5   6
ATOM      6  O   UNL     1       3.268  -0.113   1.480  1.00  0.00    -0.460 OA
BRANCH   6   7
ATOM      7  C   UNL     1       2.639   0.971   0.963  1.00  0.00     0.338 C 
ATOM      8  O   UNL     1       1.490   1.201   1.342  1.00  0.00    -0.246 OA
BRANCH   7   9
ATOM      9  C   UNL     1       3.242   1.905  -0.045  1.00  0.00     0.060 A 
ATOM     10  C   UNL     1       4.430   1.702  -0.754  1.00  0.00     0.016 A 
ATOM     11  C   UNL     1       2.529   3.088  -0.307  1.00  0.00     0.016 A 
ATOM     12  C   UNL     1       4.952   2.663  -1.614  1.00  0.00     0.010 A 
ATOM     13  C   UNL     1       3.026   4.048  -1.192  1.00  0.00     0.010 A 
ATOM     14  C   UNL     1       4.267   3.853  -1.814  1.00  0.00    -0.014 A 
BRANCH  14  15
ATOM     15  C   UNL     1       4.933   4.972  -2.501  1.00  0.00     0.031 A 
ATOM     16  C   UNL     1       5.470   6.068  -1.653  1.00  0.00     0.074 A 
ATOM     17  C   UNL     1       5.112   4.992  -3.831  1.00  0.00     0.049 A 
ATOM     18  N   UNL     1       6.010   7.195  -2.017  1.00  0.00    -0.248 NA
ATOM     19  C   UNL     1       5.445   5.837  -0.200  1.00  0.00     0.031 C 
ATOM     20  C   UNL     1       4.862   3.867  -4.711  1.00  0.00     0.029 A 
ATOM     21  N   UNL     1       5.512   5.987  -4.682  1.00  0.00    -0.354 N 
ATOM     22  C   UNL     1       6.408   7.801  -0.840  1.00  0.00     0.074 A 
ATOM     23  C   UNL     1       6.000   6.947   0.253  1.00  0.00     0.031 C 
ATOM     24  C   UNL     1       4.960   4.266  -5.985  1.00  0.00     0.029 A 
ATOM     25  C   UNL     1       5.310   5.669  -6.004  1.00  0.00     0.049 A 
ATOM     26  H   UNL     1       5.903   6.839  -4.379  1.00  0.00     0.167 HD
ATOM     27  C   UNL     1       7.079   8.965  -0.706  1.00  0.00     0.037 A 
ATOM     28  C   UNL     1       5.382   6.420  -7.115  1.00  0.00     0.037 A 
ATOM     29  C   UNL     1       7.421   9.799  -1.825  1.00  0.00     0.049 A 
ATOM     30  C   UNL     1       5.938   7.795  -6.946  1.00  0.00     0.074 A 
ATOM     31  C   UNL     1       8.040  11.032  -1.829  1.00  0.00     0.029 A 
ATOM     32  N   UNL     1       7.141   9.482  -3.154  1.00  0.00    -0.354 N 
ATOM     33  N   UNL     1       6.296   8.389  -5.832  1.00  0.00    -0.248 NA
ATOM     34  C   UNL     1       6.173   8.578  -8.160  1.00  0.00     0.031 C 
ATOM     35  C   UNL     1       8.070  11.493  -3.150  1.00  0.00     0.029 A 
ATOM     36  C   UNL     1       7.540  10.516  -3.983  1.00  0.00     0.049 A 
ATOM     37  H   UNL     1       6.722   8.645  -3.458  1.00  0.00     0.167 HD
ATOM     38  C   UNL     1       6.861   9.590  -6.207  1.00  0.00     0.074 A 
ATOM     39  C   UNL     1       6.774   9.649  -7.657  1.00  0.00     0.031 C 
ATOM     40  C   UNL     1       7.428  10.539  -5.423  1.00  0.00     0.037 A 
BRANCH  27  41
ATOM     41  C   UNL     1       7.372   9.397   0.698  1.00  0.00     0.064 A 
ATOM     42  C   UNL     1       8.266   8.692   1.522  1.00  0.00     0.173 A 
ATOM     43  C   UNL     1       6.653  10.457   1.266  1.00  0.00     0.173 A 
ATOM     44  F   UNL     1       8.946   7.641   1.038  1.00  0.00    -0.203 F 
ATOM     45  C   UNL     1       8.386   9.000   2.875  1.00  0.00     0.198 A 
ATOM     46  C   UNL     1       6.803  10.784   2.610  1.00  0.00     0.198 A 
ATOM     47  F   UNL     1       5.774  11.151   0.527  1.00  0.00    -0.203 F 
ATOM     48  F   UNL     1       9.171   8.252   3.663  1.00  0.00    -0.200 F 
ATOM     49  C   UNL     1       7.655  10.046   3.417  1.00  0.00     0.200 A 
ATOM     50  F   UNL     1       6.093  11.793   3.134  1.00  0.00    -0.200 F 
ATOM     51  F   UNL     1       7.750  10.324   4.724  1.00  0.00    -0.200 F 
ENDBRANCH  27  41
BRANCH  28  52
ATOM     52  C   UNL     1       4.975   5.855  -8.428  1.00  0.00     0.064 A 
ATOM     53  C   UNL     1       5.920   5.498  -9.397  1.00  0.00     0.173 A 
ATOM     54  C   UNL     1       3.623   5.596  -8.716  1.00  0.00     0.173 A 
ATOM     55  F   UNL     1       7.223   5.717  -9.171  1.00  0.00    -0.203 F 
ATOM     56  C   UNL     1       5.533   4.920 -10.606  1.00  0.00     0.198 A 
ATOM     57  C   UNL     1       3.237   5.004  -9.919  1.00  0.00     0.198 A 
ATOM     58  F   UNL     1       2.675   5.911  -7.819  1.00  0.00    -0.203 F 
ATOM     59  F   UNL     1       6.460   4.607 -11.523  1.00  0.00    -0.200 F 
ATOM     60  C   UNL     1       4.193   4.670 -10.865  1.00  0.00     0.200 A 
ATOM     61  F   UNL     1       1.942   4.761 -10.165  1.00  0.00    -0.200 F 
ATOM     62  F   UNL     1       3.826   4.113 -12.028  1.00  0.00    -0.200 F 
ENDBRANCH  28  52
BRANCH  40  63
ATOM     63  C   UNL     1       8.035  11.708  -6.130  1.00  0.00     0.064 A 
ATOM     64  C   UNL     1       7.245  12.693  -6.736  1.00  0.00     0.173 A 
ATOM     65  C   UNL     1       9.428  11.870  -6.138  1.00  0.00     0.173 A 
ATOM     66  F   UNL     1       5.910  12.563  -6.770  1.00  0.00    -0.203 F 
ATOM     67  C   UNL     1       7.832  13.799  -7.338  1.00  0.00     0.198 A 
ATOM     68  C   UNL     1      10.008  12.995  -6.709  1.00  0.00     0.198 A 
ATOM     69  F   UNL     1      10.220  10.948  -5.570  1.00  0.00    -0.203 F 
ATOM     70  F   UNL     1       7.065  14.712  -7.949  1.00  0.00    -0.200 F 
ATOM     71  C   UNL     1       9.211  13.956  -7.312  1.00  0.00     0.200 A 
ATOM     72  F   UNL     1      11.338  13.152  -6.669  1.00  0.00    -0.200 F 
ATOM     73  F   UNL     1       9.773  15.035  -7.872  1.00  0.00    -0.200 F 
ENDBRANCH  40  63
ENDBRANCH  14  15
ENDBRANCH   7   9
ENDBRANCH   6   7
ENDBRANCH   5   6
ENDBRANCH   4   5
ENDBRANCH   3   4
ENDBRANCH   2   3
ENDBRANCH   1   2
BRANCH   1  74
ATOM     74  O   UNL     1       2.504  -3.802  -2.164  1.00  0.00    -0.376 OA
BRANCH  74  75
ATOM     75  C   UNL     1       3.868  -3.775  -2.556  1.00  0.00     0.202 C 
BRANCH  75  76
ATOM     76  C   UNL     1       4.246  -3.072  -3.868  1.00  0.00     0.261 C 
BRANCH  76  77
ATOM     77  O   UNL     1       3.661  -1.779  -4.094  1.00  0.00    -0.463 OA
BRANCH  77  78
ATOM     78  C   UNL     1       2.598  -1.755  -4.939  1.00  0.00     0.312 C 
ATOM     79  O   UNL     1       2.057  -2.758  -5.404  1.00  0.00    -0.252 OA
BRANCH  78  80
ATOM     80  C   UNL     1       2.118  -0.376  -5.298  1.00  0.00     0.147 C 
ATOM     81  C   UNL     1       3.096   0.789  -5.022  1.00  0.00     0.128 C 
ATOM     82  C   UNL     1       0.891   0.032  -4.468  1.00  0.00     0.157 C 
ATOM     83  C   UNL     1       2.174   1.770  -4.279  1.00  0.00     0.155 C 
ATOM     84  C   UNL     1       0.180   1.157  -5.163  1.00  0.00     0.004 C 
ATOM     85  O   UNL     1       1.521   0.801  -3.405  1.00  0.00    -0.365 OA
ATOM     86  C   UNL     1       0.980   2.225  -5.056  1.00  0.00     0.004 C 
BRANCH  81  87
ATOM     87  C   UNL     1       3.674   1.288  -6.326  1.00  0.00     0.227 C 
ATOM     88  O   UNL     1       3.038   1.967  -7.132  1.00  0.00    -0.275 OA
ATOM     89  N   UNL     1       4.948   0.953  -6.672  1.00  0.00    -0.352 N 
ATOM     90  H   UNL     1       5.274   1.390  -7.492  1.00  0.00     0.163 HD
BRANCH  89  91
ATOM     91  C   UNL     1       5.912   0.064  -6.045  1.00  0.00     0.152 C 
BRANCH  91  92
ATOM     92  C   UNL     1       6.051  -1.230  -6.812  1.00  0.00    -0.015 A 
ATOM     93  C   UNL     1       4.965  -1.727  -7.560  1.00  0.00     0.007 A 
ATOM     94  C   UNL     1       7.228  -1.997  -6.781  1.00  0.00     0.022 A 
ATOM     95  C   UNL     1       5.058  -2.917  -8.278  1.00  0.00     0.000 A 
ATOM     96  C   UNL     1       7.324  -3.186  -7.515  1.00  0.00     0.016 A 
ATOM     97  Br  UNL     1       8.743  -1.494  -5.750  1.00  0.00    -0.050 Br
ATOM     98  C   UNL     1       6.241  -3.641  -8.265  1.00  0.00     0.001 A 
ENDBRANCH  91  92
ENDBRANCH  89  91
ENDBRANCH  81  87
ENDBRANCH  78  80
ENDBRANCH  77  78
ENDBRANCH  76  77
ENDBRANCH  75  76
ENDBRANCH  74  75
ENDBRANCH   1  74
TORSDOF 20
