REMARK SMILES CCC[C@@]1(C(=O)OCCOCCOCCOC(=O)c2ccc(-c3c4nc(c(-c5c(F)c(F)c(F)c(F)c5F)c5ccc([nH]5)c(-c5c(F)c(F)c(F)c(F)c5F)c5nc(c(-c6c(F)c(F)c(F)c(F)c6F)c6ccc3[nH]6)C=C5)C=C4)cc2)CCCN(C(=O)C[C@H]2CCCCO2)C1
REMARK SMILES IDX 11 1 10 2 9 3 8 4 7 5 5 6 6 7 4 8 82 9 95 10 83 11 85 12
REMARK SMILES IDX 84 13 3 14 2 15 1 16 86 17 87 18 88 19 89 20 90 21 94 22
REMARK SMILES IDX 91 23 93 24 92 25 12 26 13 27 14 28 15 29 16 30 17 31 18 32
REMARK SMILES IDX 19 33 20 34 81 35 21 36 80 37 22 38 23 39 24 40 74 41 25 42
REMARK SMILES IDX 79 43 73 44 75 45 26 46 78 47 72 48 71 49 27 51 59 52 39 53
REMARK SMILES IDX 58 54 40 55 43 56 57 57 76 58 41 59 42 60 56 62 77 63 44 64
REMARK SMILES IDX 28 65 29 66 37 67 30 68 31 69 35 70 38 71 32 72 33 73 36 74
REMARK SMILES IDX 34 75 60 76 61 77 69 78 62 79 63 80 67 81 70 82 64 83 65 84
REMARK SMILES IDX 68 85 66 86 45 87 46 88 54 89 47 90 48 91 52 92 55 93 49 94
REMARK SMILES IDX 50 95 53 96 51 97
REMARK H PARENT 75 50 43 61
REMARK Flexibility Score: inf
ROOT
ATOM      1  C   UNL     1       4.174  -5.761  -1.598  1.00  0.00     0.188 C 
ENDROOT
BRANCH   1   2
ATOM      2  O   UNL     1       4.240  -5.777  -0.177  1.00  0.00    -0.376 OA
BRANCH   2   3
ATOM      3  C   UNL     1       3.246  -6.436   0.593  1.00  0.00     0.202 C 
BRANCH   3   4
ATOM      4  C   UNL     1       1.785  -5.938   0.562  1.00  0.00     0.261 C 
BRANCH   4   5
ATOM      5  O   UNL     1       1.162  -5.724  -0.725  1.00  0.00    -0.463 OA
BRANCH   5   6
ATOM      6  C   UNL     1       1.273  -4.454  -1.191  1.00  0.00     0.313 C 
ATOM      7  O   UNL     1       1.962  -3.608  -0.625  1.00  0.00    -0.252 OA
BRANCH   6   8
ATOM      8  C   UNL     1       0.447  -4.138  -2.478  1.00  0.00     0.086 C 
ATOM      9  C   UNL     1       1.113  -2.866  -3.096  1.00  0.00     0.022 C 
ATOM     10  C   UNL     1      -0.983  -3.846  -2.010  1.00  0.00     0.138 C 
ATOM     11  C   UNL     1       0.854  -1.563  -2.318  1.00  0.00     0.023 C 
ATOM     12  N   UNL     1      -1.007  -2.681  -1.146  1.00  0.00    -0.341 N 
ATOM     13  C   UNL     1      -0.584  -1.449  -1.810  1.00  0.00     0.119 C 
BRANCH   8  14
ATOM     14  C   UNL     1       0.430  -5.278  -3.547  1.00  0.00     0.020 C 
BRANCH  14  15
ATOM     15  C   UNL     1      -0.708  -5.338  -4.587  1.00  0.00    -0.002 C 
ATOM     16  C   UNL     1      -0.801  -4.165  -5.550  1.00  0.00     0.004 C 
ENDBRANCH  14  15
ENDBRANCH   8  14
BRANCH  12  17
ATOM     17  C   UNL     1      -1.244  -2.886   0.208  1.00  0.00     0.225 C 
ATOM     18  O   UNL     1      -1.482  -4.011   0.656  1.00  0.00    -0.275 OA
BRANCH  17  19
ATOM     19  C   UNL     1      -1.230  -1.698   1.140  1.00  0.00     0.132 C 
BRANCH  19  20
ATOM     20  C   UNL     1       0.196  -1.250   1.460  1.00  0.00     0.127 C 
ATOM     21  C   UNL     1       0.295   0.279   1.421  1.00  0.00     0.033 C 
ATOM     22  O   UNL     1       0.543  -1.706   2.778  1.00  0.00    -0.378 OA
ATOM     23  C   UNL     1       1.693   0.738   1.810  1.00  0.00     0.005 C 
ATOM     24  C   UNL     1       1.890  -1.382   3.128  1.00  0.00     0.160 C 
ATOM     25  C   UNL     1       2.088   0.129   3.148  1.00  0.00     0.029 C 
ENDBRANCH  19  20
ENDBRANCH  17  19
ENDBRANCH  12  17
ENDBRANCH   6   8
ENDBRANCH   5   6
ENDBRANCH   4   5
ENDBRANCH   3   4
ENDBRANCH   2   3
ENDBRANCH   1   2
BRANCH   1  26
ATOM     26  C   UNL     1       3.314  -6.777  -2.361  1.00  0.00     0.188 C 
BRANCH  26  27
ATOM     27  O   UNL     1       2.915  -7.904  -1.630  1.00  0.00    -0.376 OA
BRANCH  27  28
ATOM     28  C   UNL     1       3.519  -9.155  -1.862  1.00  0.00     0.202 C 
BRANCH  28  29
ATOM     29  C   UNL     1       5.017  -9.296  -2.188  1.00  0.00     0.261 C 
BRANCH  29  30
ATOM     30  O   UNL     1       5.665  -8.198  -2.845  1.00  0.00    -0.460 OA
BRANCH  30  31
ATOM     31  C   UNL     1       5.554  -8.139  -4.195  1.00  0.00     0.338 C 
ATOM     32  O   UNL     1       4.965  -8.917  -4.916  1.00  0.00    -0.246 OA
BRANCH  31  33
ATOM     33  C   UNL     1       6.080  -6.824  -4.642  1.00  0.00     0.060 A 
ATOM     34  C   UNL     1       5.219  -5.954  -5.328  1.00  0.00     0.016 A 
ATOM     35  C   UNL     1       7.407  -6.460  -4.408  1.00  0.00     0.016 A 
ATOM     36  C   UNL     1       5.696  -4.741  -5.827  1.00  0.00     0.010 A 
ATOM     37  C   UNL     1       7.891  -5.254  -4.929  1.00  0.00     0.010 A 
ATOM     38  C   UNL     1       7.049  -4.410  -5.679  1.00  0.00    -0.014 A 
BRANCH  38  39
ATOM     39  C   UNL     1       7.630  -3.323  -6.510  1.00  0.00     0.031 A 
ATOM     40  C   UNL     1       8.334  -3.705  -7.785  1.00  0.00     0.074 A 
ATOM     41  C   UNL     1       7.511  -2.026  -6.175  1.00  0.00     0.049 A 
ATOM     42  N   UNL     1       8.952  -2.952  -8.659  1.00  0.00    -0.248 NA
ATOM     43  C   UNL     1       8.342  -5.139  -8.117  1.00  0.00     0.031 C 
ATOM     44  C   UNL     1       6.816  -1.515  -4.997  1.00  0.00     0.029 A 
ATOM     45  N   UNL     1       7.985  -0.900  -6.803  1.00  0.00    -0.354 N 
ATOM     46  C   UNL     1       9.428  -3.819  -9.634  1.00  0.00     0.074 A 
ATOM     47  C   UNL     1       9.060  -5.158  -9.229  1.00  0.00     0.031 C 
ATOM     48  C   UNL     1       6.919  -0.174  -4.980  1.00  0.00     0.029 A 
ATOM     49  C   UNL     1       7.714   0.264  -6.127  1.00  0.00     0.049 A 
ATOM     50  H   UNL     1       8.474  -0.925  -7.658  1.00  0.00     0.167 HD
ATOM     51  C   UNL     1      10.102  -3.528 -10.772  1.00  0.00     0.037 A 
ATOM     52  C   UNL     1       8.085   1.532  -6.396  1.00  0.00     0.037 A 
ATOM     53  C   UNL     1      10.472  -2.199 -11.178  1.00  0.00     0.049 A 
ATOM     54  C   UNL     1       8.904   1.824  -7.631  1.00  0.00     0.074 A 
ATOM     55  C   UNL     1      11.146  -1.801 -12.320  1.00  0.00     0.029 A 
ATOM     56  N   UNL     1      10.208  -1.048 -10.450  1.00  0.00    -0.354 N 
ATOM     57  N   UNL     1       9.330   1.003  -8.561  1.00  0.00    -0.248 NA
ATOM     58  C   UNL     1       9.287   3.226  -7.856  1.00  0.00     0.031 C 
ATOM     59  C   UNL     1      11.343  -0.418 -12.253  1.00  0.00     0.029 A 
ATOM     60  C   UNL     1      10.729   0.057 -11.105  1.00  0.00     0.049 A 
ATOM     61  H   UNL     1       9.722  -1.021  -9.594  1.00  0.00     0.167 HD
ATOM     62  C   UNL     1       9.995   1.790  -9.495  1.00  0.00     0.074 A 
ATOM     63  C   UNL     1       9.903   3.156  -9.027  1.00  0.00     0.031 C 
ATOM     64  C   UNL     1      10.622   1.416 -10.638  1.00  0.00     0.037 A 
BRANCH  51  65
ATOM     65  C   UNL     1      10.512  -4.680 -11.646  1.00  0.00     0.064 A 
ATOM     66  C   UNL     1       9.574  -5.437 -12.363  1.00  0.00     0.173 A 
ATOM     67  C   UNL     1      11.868  -5.015 -11.785  1.00  0.00     0.173 A 
ATOM     68  F   UNL     1       8.264  -5.170 -12.252  1.00  0.00    -0.203 F 
ATOM     69  C   UNL     1       9.974  -6.506 -13.161  1.00  0.00     0.198 A 
ATOM     70  C   UNL     1      12.268  -6.061 -12.612  1.00  0.00     0.198 A 
ATOM     71  F   UNL     1      12.808  -4.322 -11.124  1.00  0.00    -0.203 F 
ATOM     72  F   UNL     1       9.055  -7.250 -13.792  1.00  0.00    -0.200 F 
ATOM     73  C   UNL     1      11.321  -6.811 -13.292  1.00  0.00     0.200 A 
ATOM     74  F   UNL     1      13.570  -6.345 -12.747  1.00  0.00    -0.200 F 
ATOM     75  F   UNL     1      11.705  -7.835 -14.067  1.00  0.00    -0.200 F 
ENDBRANCH  51  65
BRANCH  52  76
ATOM     76  C   UNL     1       7.697   2.636  -5.476  1.00  0.00     0.064 A 
ATOM     77  C   UNL     1       6.813   3.645  -5.886  1.00  0.00     0.173 A 
ATOM     78  C   UNL     1       8.233   2.729  -4.183  1.00  0.00     0.173 A 
ATOM     79  F   UNL     1       6.295   3.619  -7.123  1.00  0.00    -0.203 F 
ATOM     80  C   UNL     1       6.500   4.714  -5.049  1.00  0.00     0.198 A 
ATOM     81  C   UNL     1       7.894   3.781  -3.335  1.00  0.00     0.198 A 
ATOM     82  F   UNL     1       9.089   1.795  -3.743  1.00  0.00    -0.203 F 
ATOM     83  F   UNL     1       5.697   5.693  -5.488  1.00  0.00    -0.200 F 
ATOM     84  C   UNL     1       7.035   4.778  -3.772  1.00  0.00     0.200 A 
ATOM     85  F   UNL     1       8.405   3.833  -2.097  1.00  0.00    -0.200 F 
ATOM     86  F   UNL     1       6.734   5.806  -2.967  1.00  0.00    -0.200 F 
ENDBRANCH  52  76
BRANCH  64  87
ATOM     87  C   UNL     1      11.211   2.502 -11.496  1.00  0.00     0.064 A 
ATOM     88  C   UNL     1      12.331   3.245 -11.094  1.00  0.00     0.173 A 
ATOM     89  C   UNL     1      10.661   2.784 -12.757  1.00  0.00     0.173 A 
ATOM     90  F   UNL     1      12.892   3.025  -9.895  1.00  0.00    -0.203 F 
ATOM     91  C   UNL     1      12.852   4.253 -11.902  1.00  0.00     0.198 A 
ATOM     92  C   UNL     1      11.207   3.766 -13.579  1.00  0.00     0.198 A 
ATOM     93  F   UNL     1       9.596   2.097 -13.200  1.00  0.00    -0.203 F 
ATOM     94  F   UNL     1      13.883   4.991 -11.468  1.00  0.00    -0.200 F 
ATOM     95  C   UNL     1      12.294   4.508 -13.146  1.00  0.00     0.200 A 
ATOM     96  F   UNL     1      10.677   3.997 -14.788  1.00  0.00    -0.200 F 
ATOM     97  F   UNL     1      12.799   5.476 -13.923  1.00  0.00    -0.200 F 
ENDBRANCH  64  87
ENDBRANCH  38  39
ENDBRANCH  31  33
ENDBRANCH  30  31
ENDBRANCH  29  30
ENDBRANCH  28  29
ENDBRANCH  27  28
ENDBRANCH  26  27
ENDBRANCH   1  26
TORSDOF 22
