REMARK SMILES CC(C)n1c2c(c3ccccc31)[C@@H](c1ccccc1)N(CC(=O)OCCOCCOCCOC(=O)c1ccc(-c3c4nc(c(-c5c(F)c(F)c(F)c(F)c5F)c5ccc([nH]5)c(-c5c(F)c(F)c(F)c(F)c5F)c5nc(c(-c6c(F)c(F)c(F)c(F)c6F)c6ccc3[nH]6)C=C5)C=C4)cc1)C2=O
REMARK SMILES IDX 28 1 27 2 26 3 25 4 24 5 22 6 23 7 21 8 20 9 4 10 5 11 12 12
REMARK SMILES IDX 6 13 99 14 7 15 11 16 13 17 100 18 8 19 10 20 9 21 2 22 1 23
REMARK SMILES IDX 3 24 14 25 15 26 19 27 16 28 18 29 17 30 29 31 30 32 31 33
REMARK SMILES IDX 32 34 33 35 34 36 35 37 36 38 37 39 98 40 38 41 97 42 39 43
REMARK SMILES IDX 40 44 41 45 91 46 42 47 96 48 90 49 92 50 43 51 95 52 89 53
REMARK SMILES IDX 88 54 44 56 76 57 56 58 75 59 57 60 60 61 74 62 93 63 58 64
REMARK SMILES IDX 59 65 73 67 94 68 61 69 45 70 46 71 54 72 47 73 48 74 52 75
REMARK SMILES IDX 55 76 49 77 50 78 53 79 51 80 77 81 78 82 86 83 79 84 80 85
REMARK SMILES IDX 84 86 87 87 81 88 82 89 85 90 83 91 62 92 63 93 71 94 64 95
REMARK SMILES IDX 65 96 69 97 72 98 66 99 67 100 70 101 68 102
REMARK H PARENT 92 55 60 66
REMARK Flexibility Score: inf
ROOT
ATOM      1  C   UNL     1      -6.551  -4.197   2.920  1.00  0.00     0.188 C 
ENDROOT
BRANCH   1   2
ATOM      2  O   UNL     1      -6.373  -3.990   4.301  1.00  0.00    -0.376 OA
BRANCH   2   3
ATOM      3  C   UNL     1      -5.046  -3.980   4.806  1.00  0.00     0.202 C 
BRANCH   3   4
ATOM      4  C   UNL     1      -4.032  -4.970   4.207  1.00  0.00     0.261 C 
BRANCH   4   5
ATOM      5  O   UNL     1      -3.541  -4.577   2.889  1.00  0.00    -0.462 OA
BRANCH   5   6
ATOM      6  C   UNL     1      -3.389  -5.597   2.003  1.00  0.00     0.325 C 
ATOM      7  O   UNL     1      -3.534  -6.773   2.342  1.00  0.00    -0.250 OA
BRANCH   6   8
ATOM      8  C   UNL     1      -3.268  -5.235   0.474  1.00  0.00     0.243 C 
BRANCH   8   9
ATOM      9  N   UNL     1      -2.891  -4.026  -0.208  1.00  0.00    -0.315 N 
ATOM     10  N   UNL     1      -0.910  -1.083  -0.459  1.00  0.00    -0.334 N 
ATOM     11  C   UNL     1      -1.664  -2.219  -0.496  1.00  0.00     0.114 A 
ATOM     12  C   UNL     1      -1.813  -0.001  -0.532  1.00  0.00     0.049 A 
ATOM     13  C   UNL     1      -2.947  -1.905  -0.840  1.00  0.00     0.018 A 
ATOM     14  C   UNL     1      -1.570  -3.604  -0.138  1.00  0.00     0.272 C 
ATOM     15  C   UNL     1      -3.107  -0.525  -0.741  1.00  0.00     0.006 A 
ATOM     16  C   UNL     1      -1.671   1.394  -0.409  1.00  0.00     0.027 A 
ATOM     17  C   UNL     1      -3.797  -3.105  -0.942  1.00  0.00     0.150 C 
ATOM     18  O   UNL     1      -0.655  -4.271   0.275  1.00  0.00    -0.267 OA
ATOM     19  C   UNL     1      -4.239   0.317  -0.780  1.00  0.00     0.011 A 
ATOM     20  C   UNL     1      -2.807   2.216  -0.465  1.00  0.00     0.002 A 
ATOM     21  C   UNL     1      -4.077   1.689  -0.643  1.00  0.00     0.001 A 
BRANCH  10  22
ATOM     22  C   UNL     1       0.558  -1.081  -0.451  1.00  0.00     0.082 C 
ATOM     23  C   UNL     1       1.221   0.234  -0.053  1.00  0.00     0.031 C 
ATOM     24  C   UNL     1       1.198  -2.187   0.403  1.00  0.00     0.031 C 
ENDBRANCH  10  22
BRANCH  17  25
ATOM     25  C   UNL     1      -4.057  -3.343  -2.450  1.00  0.00    -0.021 A 
ATOM     26  C   UNL     1      -4.169  -4.631  -3.005  1.00  0.00     0.006 A 
ATOM     27  C   UNL     1      -4.459  -2.276  -3.295  1.00  0.00     0.006 A 
ATOM     28  C   UNL     1      -4.777  -4.838  -4.265  1.00  0.00     0.000 A 
ATOM     29  C   UNL     1      -5.037  -2.477  -4.555  1.00  0.00     0.000 A 
ATOM     30  C   UNL     1      -5.241  -3.765  -5.022  1.00  0.00     0.000 A 
ENDBRANCH  17  25
ENDBRANCH   8   9
ENDBRANCH   6   8
ENDBRANCH   5   6
ENDBRANCH   4   5
ENDBRANCH   3   4
ENDBRANCH   2   3
ENDBRANCH   1   2
BRANCH   1  31
ATOM     31  C   UNL     1      -5.789  -3.307   1.938  1.00  0.00     0.188 C 
BRANCH  31  32
ATOM     32  O   UNL     1      -5.117  -2.143   2.343  1.00  0.00    -0.376 OA
BRANCH  32  33
ATOM     33  C   UNL     1      -5.908  -1.100   2.886  1.00  0.00     0.202 C 
BRANCH  33  34
ATOM     34  C   UNL     1      -7.254  -0.715   2.217  1.00  0.00     0.261 C 
BRANCH  34  35
ATOM     35  O   UNL     1      -8.060  -1.832   1.762  1.00  0.00    -0.460 OA
BRANCH  35  36
ATOM     36  C   UNL     1      -8.425  -1.827   0.442  1.00  0.00     0.338 C 
ATOM     37  O   UNL     1      -8.465  -0.843  -0.279  1.00  0.00    -0.246 OA
BRANCH  36  38
ATOM     38  C   UNL     1      -8.347  -3.231  -0.098  1.00  0.00     0.060 A 
ATOM     39  C   UNL     1      -8.775  -4.377   0.581  1.00  0.00     0.016 A 
ATOM     40  C   UNL     1      -7.525  -3.410  -1.209  1.00  0.00     0.016 A 
ATOM     41  C   UNL     1      -8.218  -5.652   0.273  1.00  0.00     0.010 A 
ATOM     42  C   UNL     1      -7.017  -4.683  -1.512  1.00  0.00     0.010 A 
ATOM     43  C   UNL     1      -7.240  -5.814  -0.726  1.00  0.00    -0.014 A 
BRANCH  43  44
ATOM     44  C   UNL     1      -6.839  -7.163  -1.257  1.00  0.00     0.031 A 
ATOM     45  C   UNL     1      -7.965  -7.709  -2.021  1.00  0.00     0.074 A 
ATOM     46  C   UNL     1      -5.732  -7.963  -1.274  1.00  0.00     0.049 A 
ATOM     47  N   UNL     1      -8.807  -8.546  -1.524  1.00  0.00    -0.248 NA
ATOM     48  C   UNL     1      -8.315  -7.169  -3.332  1.00  0.00     0.031 C 
ATOM     49  C   UNL     1      -4.447  -7.755  -0.656  1.00  0.00     0.029 A 
ATOM     50  N   UNL     1      -5.508  -9.199  -1.864  1.00  0.00    -0.354 N 
ATOM     51  C   UNL     1      -9.691  -8.818  -2.542  1.00  0.00     0.074 A 
ATOM     52  C   UNL     1      -9.466  -7.811  -3.550  1.00  0.00     0.031 C 
ATOM     53  C   UNL     1      -3.485  -8.587  -1.117  1.00  0.00     0.029 A 
ATOM     54  C   UNL     1      -4.163  -9.621  -1.872  1.00  0.00     0.049 A 
ATOM     55  H   UNL     1      -6.235  -9.741  -2.248  1.00  0.00     0.167 HD
ATOM     56  C   UNL     1     -10.325 -10.017  -2.557  1.00  0.00     0.037 A 
ATOM     57  C   UNL     1      -3.613 -10.846  -2.108  1.00  0.00     0.037 A 
ATOM     58  C   UNL     1     -10.224 -10.678  -1.270  1.00  0.00     0.049 A 
ATOM     59  C   UNL     1      -4.656 -11.840  -1.819  1.00  0.00     0.074 A 
ATOM     60  C   UNL     1     -10.582 -10.363   0.028  1.00  0.00     0.029 A 
ATOM     61  N   UNL     1      -9.326 -11.710  -1.163  1.00  0.00    -0.354 N 
ATOM     62  N   UNL     1      -5.074 -12.136  -0.623  1.00  0.00    -0.248 NA
ATOM     63  C   UNL     1      -5.515 -12.237  -2.916  1.00  0.00     0.031 C 
ATOM     64  C   UNL     1      -9.565 -10.928   0.856  1.00  0.00     0.029 A 
ATOM     65  C   UNL     1      -8.667 -11.606   0.033  1.00  0.00     0.049 A 
ATOM     66  H   UNL     1      -9.180 -12.411  -1.838  1.00  0.00     0.167 HD
ATOM     67  C   UNL     1      -6.435 -12.317  -0.785  1.00  0.00     0.074 A 
ATOM     68  C   UNL     1      -6.627 -12.484  -2.224  1.00  0.00     0.031 C 
ATOM     69  C   UNL     1      -7.298 -12.027   0.229  1.00  0.00     0.037 A 
BRANCH  56  70
ATOM     70  C   UNL     1     -10.645 -10.762  -3.823  1.00  0.00     0.064 A 
ATOM     71  C   UNL     1     -11.407 -11.941  -3.729  1.00  0.00     0.173 A 
ATOM     72  C   UNL     1     -10.000 -10.547  -5.061  1.00  0.00     0.173 A 
ATOM     73  F   UNL     1     -12.036 -12.258  -2.587  1.00  0.00    -0.203 F 
ATOM     74  C   UNL     1     -11.450 -12.872  -4.767  1.00  0.00     0.198 A 
ATOM     75  C   UNL     1     -10.095 -11.449  -6.115  1.00  0.00     0.198 A 
ATOM     76  F   UNL     1      -9.159  -9.527  -5.268  1.00  0.00    -0.203 F 
ATOM     77  F   UNL     1     -12.072 -14.043  -4.580  1.00  0.00    -0.200 F 
ATOM     78  C   UNL     1     -10.791 -12.627  -5.958  1.00  0.00     0.200 A 
ATOM     79  F   UNL     1      -9.429 -11.204  -7.252  1.00  0.00    -0.200 F 
ATOM     80  F   UNL     1     -10.781 -13.546  -6.931  1.00  0.00    -0.200 F 
ENDBRANCH  56  70
BRANCH  57  81
ATOM     81  C   UNL     1      -2.336 -11.235  -2.774  1.00  0.00     0.064 A 
ATOM     82  C   UNL     1      -1.910 -12.581  -2.810  1.00  0.00     0.173 A 
ATOM     83  C   UNL     1      -1.685 -10.360  -3.660  1.00  0.00     0.173 A 
ATOM     84  F   UNL     1      -2.477 -13.494  -2.007  1.00  0.00    -0.203 F 
ATOM     85  C   UNL     1      -0.958 -13.035  -3.731  1.00  0.00     0.198 A 
ATOM     86  C   UNL     1      -0.731 -10.815  -4.580  1.00  0.00     0.198 A 
ATOM     87  F   UNL     1      -2.035  -9.068  -3.718  1.00  0.00    -0.203 F 
ATOM     88  F   UNL     1      -0.651 -14.339  -3.793  1.00  0.00    -0.200 F 
ATOM     89  C   UNL     1      -0.387 -12.155  -4.632  1.00  0.00     0.200 A 
ATOM     90  F   UNL     1      -0.202  -9.960  -5.467  1.00  0.00    -0.200 F 
ATOM     91  F   UNL     1       0.457 -12.601  -5.574  1.00  0.00    -0.200 F 
ENDBRANCH  57  81
BRANCH  69  92
ATOM     92  C   UNL     1      -6.748 -11.934   1.628  1.00  0.00     0.064 A 
ATOM     93  C   UNL     1      -5.824 -10.972   2.072  1.00  0.00     0.173 A 
ATOM     94  C   UNL     1      -7.305 -12.785   2.595  1.00  0.00     0.173 A 
ATOM     95  F   UNL     1      -5.295 -10.079   1.225  1.00  0.00    -0.203 F 
ATOM     96  C   UNL     1      -5.474 -10.878   3.421  1.00  0.00     0.198 A 
ATOM     97  C   UNL     1      -6.982 -12.665   3.943  1.00  0.00     0.198 A 
ATOM     98  F   UNL     1      -8.212 -13.707   2.234  1.00  0.00    -0.203 F 
ATOM     99  F   UNL     1      -4.593  -9.952   3.828  1.00  0.00    -0.200 F 
ATOM    100  C   UNL     1      -6.066 -11.714   4.356  1.00  0.00     0.200 A 
ATOM    101  F   UNL     1      -7.588 -13.450   4.845  1.00  0.00    -0.200 F 
ATOM    102  F   UNL     1      -5.774 -11.585   5.659  1.00  0.00    -0.200 F 
ENDBRANCH  69  92
ENDBRANCH  43  44
ENDBRANCH  36  38
ENDBRANCH  35  36
ENDBRANCH  34  35
ENDBRANCH  33  34
ENDBRANCH  32  33
ENDBRANCH  31  32
ENDBRANCH   1  31
TORSDOF 20
