REMARK SMILES Cc1cc(F)cc(N[C@H](C(=O)OCCOCCOCCOC(=O)c2ccc(-c3c4nc(c(-c5c(F)c(F)c(F)c(F)c5F)c5ccc([nH]5)c(-c5c(F)c(F)c(F)c(F)c5F)c5nc(c(-c6c(F)c(F)c(F)c(F)c6F)c6ccc3[nH]6)C=C5)C=C4)cc2)c2cc(C)cc(C)c2)c1
REMARK SMILES IDX 16 1 15 2 14 3 13 4 12 5 10 6 11 7 9 8 8 9 7 11 1 12 2 13
REMARK SMILES IDX 3 14 95 15 4 16 5 17 6 18 87 19 88 20 94 21 89 22 92 23
REMARK SMILES IDX 90 24 91 25 93 26 17 27 18 28 19 29 20 30 21 31 22 32 23 33
REMARK SMILES IDX 24 34 25 35 86 36 26 37 85 38 27 39 28 40 29 41 79 42 30 43
REMARK SMILES IDX 84 44 78 45 80 46 31 47 83 48 77 49 76 50 32 52 64 53 44 54
REMARK SMILES IDX 63 55 45 56 48 57 62 58 81 59 46 60 47 61 61 63 82 64 49 65
REMARK SMILES IDX 33 66 34 67 42 68 35 69 36 70 40 71 43 72 37 73 38 74 41 75
REMARK SMILES IDX 39 76 65 77 66 78 74 79 67 80 68 81 72 82 75 83 69 84 70 85
REMARK SMILES IDX 73 86 71 87 50 88 51 89 59 90 52 91 53 92 57 93 60 94 54 95
REMARK SMILES IDX 55 96 58 97 56 98
REMARK H PARENT 8 10 80 51 48 62
REMARK Flexibility Score: inf
ROOT
ATOM      1  C   UNL     1       0.670  -1.493  -0.121  1.00  0.00     0.188 C 
ENDROOT
BRANCH   1   2
ATOM      2  O   UNL     1       2.028  -1.161   0.051  1.00  0.00    -0.376 OA
BRANCH   2   3
ATOM      3  C   UNL     1       3.061  -1.947  -0.524  1.00  0.00     0.202 C 
BRANCH   3   4
ATOM      4  C   UNL     1       2.920  -3.429  -0.943  1.00  0.00     0.261 C 
BRANCH   4   5
ATOM      5  O   UNL     1       1.641  -4.044  -0.800  1.00  0.00    -0.461 OA
BRANCH   5   6
ATOM      6  C   UNL     1       1.329  -4.455   0.463  1.00  0.00     0.333 C 
ATOM      7  O   UNL     1       2.091  -4.315   1.413  1.00  0.00    -0.249 OA
BRANCH   6   8
ATOM      8  C   UNL     1      -0.161  -4.909   0.525  1.00  0.00     0.221 C 
BRANCH   8   9
ATOM      9  N   UNL     1      -0.567  -5.724  -0.642  1.00  0.00    -0.369 N 
ATOM     10  H   UNL     1      -1.313  -5.378  -1.182  1.00  0.00     0.161 HD
BRANCH   9  11
ATOM     11  C   UNL     1      -0.007  -6.920  -1.055  1.00  0.00     0.038 A 
ATOM     12  C   UNL     1      -0.246  -9.262  -4.082  1.00  0.00     0.044 C 
ATOM     13  C   UNL     1       0.136  -8.697  -2.748  1.00  0.00    -0.046 A 
ATOM     14  C   UNL     1       0.996  -9.425  -1.925  1.00  0.00     0.042 A 
ATOM     15  C   UNL     1      -0.377  -7.465  -2.295  1.00  0.00     0.029 A 
ATOM     16  C   UNL     1       1.356  -8.903  -0.700  1.00  0.00     0.125 A 
ATOM     17  F   UNL     1       2.181  -9.588   0.103  1.00  0.00    -0.207 F 
ATOM     18  C   UNL     1       0.878  -7.669  -0.284  1.00  0.00     0.065 A 
ENDBRANCH   9  11
ENDBRANCH   8   9
BRANCH   8  19
ATOM     19  C   UNL     1      -0.608  -5.503   1.853  1.00  0.00    -0.014 A 
ATOM     20  C   UNL     1       0.282  -6.246   2.635  1.00  0.00     0.010 A 
ATOM     21  C   UNL     1      -1.930  -5.373   2.309  1.00  0.00     0.010 A 
ATOM     22  C   UNL     1      -0.140  -7.000   3.723  1.00  0.00    -0.051 A 
ATOM     23  C   UNL     1      -2.344  -6.015   3.488  1.00  0.00    -0.051 A 
ATOM     24  C   UNL     1       0.808  -8.021   4.272  1.00  0.00     0.044 C 
ATOM     25  C   UNL     1      -1.457  -6.874   4.154  1.00  0.00     0.006 A 
ATOM     26  C   UNL     1      -3.736  -5.845   4.020  1.00  0.00     0.044 C 
ENDBRANCH   8  19
ENDBRANCH   6   8
ENDBRANCH   5   6
ENDBRANCH   4   5
ENDBRANCH   3   4
ENDBRANCH   2   3
ENDBRANCH   1   2
BRANCH   1  27
ATOM     27  C   UNL     1       0.056  -1.592  -1.536  1.00  0.00     0.188 C 
BRANCH  27  28
ATOM     28  O   UNL     1       0.942  -2.011  -2.549  1.00  0.00    -0.376 OA
BRANCH  28  29
ATOM     29  C   UNL     1       1.581  -1.097  -3.431  1.00  0.00     0.202 C 
BRANCH  29  30
ATOM     30  C   UNL     1       1.706   0.414  -3.209  1.00  0.00     0.261 C 
BRANCH  30  31
ATOM     31  O   UNL     1       1.536   0.823  -1.865  1.00  0.00    -0.460 OA
BRANCH  31  32
ATOM     32  C   UNL     1       0.377   1.450  -1.661  1.00  0.00     0.338 C 
ATOM     33  O   UNL     1      -0.454   1.818  -2.506  1.00  0.00    -0.246 OA
BRANCH  32  34
ATOM     34  C   UNL     1       0.126   1.606  -0.232  1.00  0.00     0.060 A 
ATOM     35  C   UNL     1      -1.225   1.380   0.113  1.00  0.00     0.016 A 
ATOM     36  C   UNL     1       0.895   2.624   0.313  1.00  0.00     0.016 A 
ATOM     37  C   UNL     1      -1.936   2.430   0.614  1.00  0.00     0.010 A 
ATOM     38  C   UNL     1       0.182   3.692   0.768  1.00  0.00     0.010 A 
ATOM     39  C   UNL     1      -1.222   3.606   0.765  1.00  0.00    -0.014 A 
BRANCH  39  40
ATOM     40  C   UNL     1      -1.887   4.873   0.719  1.00  0.00     0.031 A 
ATOM     41  C   UNL     1      -2.192   5.498   1.992  1.00  0.00     0.074 A 
ATOM     42  C   UNL     1      -2.048   5.441  -0.493  1.00  0.00     0.049 A 
ATOM     43  N   UNL     1      -3.055   6.430   2.140  1.00  0.00    -0.248 NA
ATOM     44  C   UNL     1      -1.600   5.036   3.241  1.00  0.00     0.031 C 
ATOM     45  C   UNL     1      -2.299   6.838  -0.799  1.00  0.00     0.029 A 
ATOM     46  N   UNL     1      -2.187   4.774  -1.720  1.00  0.00    -0.354 N 
ATOM     47  C   UNL     1      -2.847   6.949   3.393  1.00  0.00     0.074 A 
ATOM     48  C   UNL     1      -2.070   5.953   4.088  1.00  0.00     0.031 C 
ATOM     49  C   UNL     1      -2.787   6.926  -2.048  1.00  0.00     0.029 A 
ATOM     50  C   UNL     1      -3.039   5.569  -2.507  1.00  0.00     0.049 A 
ATOM     51  H   UNL     1      -1.771   3.920  -1.978  1.00  0.00     0.167 HD
ATOM     52  C   UNL     1      -3.182   8.255   3.586  1.00  0.00     0.037 A 
ATOM     53  C   UNL     1      -4.277   5.102  -2.844  1.00  0.00     0.037 A 
ATOM     54  C   UNL     1      -3.848   8.787   2.387  1.00  0.00     0.049 A 
ATOM     55  C   UNL     1      -5.407   5.914  -2.244  1.00  0.00     0.074 A 
ATOM     56  C   UNL     1      -3.424   9.595   1.342  1.00  0.00     0.029 A 
ATOM     57  N   UNL     1      -5.021   8.180   1.942  1.00  0.00    -0.354 N 
ATOM     58  N   UNL     1      -5.309   6.672  -1.184  1.00  0.00    -0.248 NA
ATOM     59  C   UNL     1      -6.740   5.940  -2.821  1.00  0.00     0.031 C 
ATOM     60  C   UNL     1      -4.373   9.497   0.286  1.00  0.00     0.029 A 
ATOM     61  C   UNL     1      -5.376   8.632   0.686  1.00  0.00     0.049 A 
ATOM     62  H   UNL     1      -5.532   7.515   2.458  1.00  0.00     0.167 HD
ATOM     63  C   UNL     1      -6.504   7.320  -0.951  1.00  0.00     0.074 A 
ATOM     64  C   UNL     1      -7.364   6.806  -2.004  1.00  0.00     0.031 C 
ATOM     65  C   UNL     1      -6.643   8.218   0.084  1.00  0.00     0.037 A 
BRANCH  52  66
ATOM     66  C   UNL     1      -2.596   9.111   4.690  1.00  0.00     0.064 A 
ATOM     67  C   UNL     1      -2.500  10.510   4.534  1.00  0.00     0.173 A 
ATOM     68  C   UNL     1      -2.049   8.624   5.894  1.00  0.00     0.173 A 
ATOM     69  F   UNL     1      -3.073  11.141   3.502  1.00  0.00    -0.203 F 
ATOM     70  C   UNL     1      -1.812  11.324   5.438  1.00  0.00     0.198 A 
ATOM     71  C   UNL     1      -1.317   9.428   6.774  1.00  0.00     0.198 A 
ATOM     72  F   UNL     1      -2.256   7.371   6.307  1.00  0.00    -0.203 F 
ATOM     73  F   UNL     1      -1.748  12.646   5.223  1.00  0.00    -0.200 F 
ATOM     74  C   UNL     1      -1.190  10.779   6.540  1.00  0.00     0.200 A 
ATOM     75  F   UNL     1      -0.746   8.878   7.856  1.00  0.00    -0.200 F 
ATOM     76  F   UNL     1      -0.503  11.553   7.390  1.00  0.00    -0.200 F 
ENDBRANCH  52  66
BRANCH  53  77
ATOM     77  C   UNL     1      -4.302   3.638  -3.120  1.00  0.00     0.064 A 
ATOM     78  C   UNL     1      -3.592   3.154  -4.239  1.00  0.00     0.173 A 
ATOM     79  C   UNL     1      -4.672   2.704  -2.145  1.00  0.00     0.173 A 
ATOM     80  F   UNL     1      -3.220   4.003  -5.211  1.00  0.00    -0.203 F 
ATOM     81  C   UNL     1      -3.187   1.822  -4.330  1.00  0.00     0.198 A 
ATOM     82  C   UNL     1      -4.262   1.370  -2.238  1.00  0.00     0.198 A 
ATOM     83  F   UNL     1      -5.348   3.093  -1.054  1.00  0.00    -0.203 F 
ATOM     84  F   UNL     1      -2.448   1.413  -5.372  1.00  0.00    -0.200 F 
ATOM     85  C   UNL     1      -3.498   0.937  -3.312  1.00  0.00     0.200 A 
ATOM     86  F   UNL     1      -4.547   0.512  -1.246  1.00  0.00    -0.200 F 
ATOM     87  F   UNL     1      -3.041  -0.325  -3.349  1.00  0.00    -0.200 F 
ENDBRANCH  53  77
BRANCH  65  88
ATOM     88  C   UNL     1      -7.909   8.887   0.645  1.00  0.00     0.064 A 
ATOM     89  C   UNL     1      -9.205   8.786   0.121  1.00  0.00     0.173 A 
ATOM     90  C   UNL     1      -7.840   9.677   1.835  1.00  0.00     0.173 A 
ATOM     91  F   UNL     1      -9.477   8.096  -0.984  1.00  0.00    -0.203 F 
ATOM     92  C   UNL     1     -10.318   9.398   0.720  1.00  0.00     0.198 A 
ATOM     93  C   UNL     1      -8.951  10.262   2.444  1.00  0.00     0.198 A 
ATOM     94  F   UNL     1      -6.693   9.914   2.482  1.00  0.00    -0.203 F 
ATOM     95  F   UNL     1     -11.525   9.262   0.152  1.00  0.00    -0.200 F 
ATOM     96  C   UNL     1     -10.194  10.125   1.884  1.00  0.00     0.200 A 
ATOM     97  F   UNL     1      -8.796  10.948   3.586  1.00  0.00    -0.200 F 
ATOM     98  F   UNL     1     -11.264  10.687   2.460  1.00  0.00    -0.200 F 
ENDBRANCH  65  88
ENDBRANCH  39  40
ENDBRANCH  32  34
ENDBRANCH  31  32
ENDBRANCH  30  31
ENDBRANCH  29  30
ENDBRANCH  28  29
ENDBRANCH  27  28
ENDBRANCH   1  27
TORSDOF 20
