REMARK SMILES O=C1[NH+]=C(Nc2ccc(C(=O)OCCOCCOCCOC(=O)c3ccc(-c4c5nc(c(-c6c(F)c(F)c(F)c(F)c6F)c6ccc([nH]6)c(-c6c(F)c(F)c(F)c(F)c6F)c6nc(c(-c7c(F)c(F)c(F)c(F)c7F)c7ccc4[nH]7)C=C6)C=C5)cc3)c(O)c2)S/C1=C\c1ccc[nH]1
REMARK SMILES IDX 16 1 15 2 14 3 13 4 12 5 10 6 11 7 9 8 6 9 7 10 89 11 8 12
REMARK SMILES IDX 87 13 5 14 1 15 2 16 3 17 91 18 4 19 90 21 92 22 93 24 94 25
REMARK SMILES IDX 97 26 95 27 96 28 88 30 17 32 18 33 19 34 20 35 21 36 22 37
REMARK SMILES IDX 23 38 24 39 25 40 86 41 26 42 85 43 27 44 28 45 29 46 79 47
REMARK SMILES IDX 30 48 84 49 78 50 80 51 31 52 83 53 77 54 76 55 32 57 64 58
REMARK SMILES IDX 44 59 63 60 45 61 48 62 62 63 81 64 46 65 47 66 61 68 82 69
REMARK SMILES IDX 49 70 33 71 34 72 42 73 35 74 36 75 40 76 43 77 37 78 38 79
REMARK SMILES IDX 41 80 39 81 65 82 66 83 74 84 67 85 68 86 72 87 75 88 69 89
REMARK SMILES IDX 70 90 73 91 71 92 50 93 51 94 59 95 52 96 53 97 57 98 60 99
REMARK SMILES IDX 54 100 55 101 58 102 56 103
REMARK H PARENT 3 20 5 23 97 29 88 31 80 56 48 67
REMARK Flexibility Score: inf
ROOT
ATOM      1  C   UNL     1      -2.988   7.809   0.233  1.00  0.00     0.188 C 
ENDROOT
BRANCH   1   2
ATOM      2  O   UNL     1      -3.287   9.189   0.389  1.00  0.00    -0.376 OA
BRANCH   2   3
ATOM      3  C   UNL     1      -2.485  10.173  -0.251  1.00  0.00     0.202 C 
BRANCH   3   4
ATOM      4  C   UNL     1      -0.946  10.115  -0.192  1.00  0.00     0.261 C 
BRANCH   4   5
ATOM      5  O   UNL     1      -0.351   8.827  -0.435  1.00  0.00    -0.460 OA
BRANCH   5   6
ATOM      6  C   UNL     1       0.192   8.223   0.655  1.00  0.00     0.341 C 
ATOM      7  O   UNL     1       0.285   8.691   1.777  1.00  0.00    -0.246 OA
BRANCH   6   8
ATOM      8  C   UNL     1       0.482   6.801   0.355  1.00  0.00     0.102 A 
ATOM      9  C   UNL     1       1.046   4.065  -0.019  1.00  0.00     0.129 A 
ATOM     10  C   UNL     1       0.345   4.493   1.111  1.00  0.00     0.053 A 
ATOM     11  C   UNL     1       1.396   5.013  -0.992  1.00  0.00     0.098 A 
ATOM     12  C   UNL     1       0.103   5.854   1.319  1.00  0.00     0.024 A 
ATOM     13  C   UNL     1       1.075   6.363  -0.828  1.00  0.00     0.134 A 
BRANCH   9  14
ATOM     14  N   UNL     1       1.414   2.727  -0.200  1.00  0.00    -0.234 N 
ATOM     15  O   UNL     1      -2.278  -0.100   0.064  1.00  0.00    -0.240 OA
ATOM     16  C   UNL     1      -1.105   0.229   0.054  1.00  0.00     0.346 C 
ATOM     17  N   UNL     1      -0.652   1.534   0.031  1.00  0.00    -0.199 N 
ATOM     18  C   UNL     1       0.025  -0.753   0.043  1.00  0.00     0.111 C 
ATOM     19  C   UNL     1       0.632   1.622  -0.051  1.00  0.00     0.322 C 
ATOM     20  H   UNL     1      -1.248   2.317   0.073  1.00  0.00     0.316 HD
ATOM     21  S   UNL     1       1.511   0.105  -0.029  1.00  0.00     0.006 SA
ATOM     22  C   UNL     1      -0.180  -2.078   0.053  1.00  0.00     0.050 C 
ATOM     23  H   UNL     1       2.348   2.565  -0.466  1.00  0.00     0.313 HD
BRANCH  22  24
ATOM     24  C   UNL     1       0.869  -3.028   0.129  1.00  0.00     0.039 A 
ATOM     25  C   UNL     1       1.882  -3.259   1.039  1.00  0.00     0.027 A 
ATOM     26  N   UNL     1       0.962  -3.997  -0.843  1.00  0.00    -0.362 N 
ATOM     27  C   UNL     1       2.616  -4.384   0.594  1.00  0.00     0.020 A 
ATOM     28  C   UNL     1       2.033  -4.813  -0.577  1.00  0.00     0.083 A 
ATOM     29  H   UNL     1       0.354  -4.090  -1.611  1.00  0.00     0.166 HD
ENDBRANCH  22  24
ENDBRANCH   9  14
BRANCH  13  30
ATOM     30  O   UNL     1       1.350   7.188  -1.883  1.00  0.00    -0.507 OA
ATOM     31  H   UNL     1       1.154   8.103  -1.825  1.00  0.00     0.293 HD
ENDBRANCH  13  30
ENDBRANCH   6   8
ENDBRANCH   5   6
ENDBRANCH   4   5
ENDBRANCH   3   4
ENDBRANCH   2   3
ENDBRANCH   1   2
BRANCH   1  32
ATOM     32  C   UNL     1      -2.704   7.231  -1.170  1.00  0.00     0.188 C 
BRANCH  32  33
ATOM     33  O   UNL     1      -2.618   8.211  -2.178  1.00  0.00    -0.376 OA
BRANCH  33  34
ATOM     34  C   UNL     1      -3.738   8.401  -3.028  1.00  0.00     0.202 C 
BRANCH  34  35
ATOM     35  C   UNL     1      -5.205   8.285  -2.552  1.00  0.00     0.261 C 
BRANCH  35  36
ATOM     36  O   UNL     1      -5.478   7.543  -1.355  1.00  0.00    -0.460 OA
BRANCH  36  37
ATOM     37  C   UNL     1      -5.786   6.235  -1.508  1.00  0.00     0.338 C 
ATOM     38  O   UNL     1      -5.827   5.608  -2.552  1.00  0.00    -0.246 OA
BRANCH  37  39
ATOM     39  C   UNL     1      -5.898   5.607  -0.174  1.00  0.00     0.060 A 
ATOM     40  C   UNL     1      -4.950   4.643   0.195  1.00  0.00     0.016 A 
ATOM     41  C   UNL     1      -6.963   5.912   0.677  1.00  0.00     0.016 A 
ATOM     42  C   UNL     1      -5.097   3.938   1.389  1.00  0.00     0.010 A 
ATOM     43  C   UNL     1      -7.118   5.191   1.869  1.00  0.00     0.010 A 
ATOM     44  C   UNL     1      -6.213   4.166   2.204  1.00  0.00    -0.014 A 
BRANCH  44  45
ATOM     45  C   UNL     1      -6.538   3.179   3.268  1.00  0.00     0.031 A 
ATOM     46  C   UNL     1      -7.579   2.128   2.977  1.00  0.00     0.074 A 
ATOM     47  C   UNL     1      -5.883   3.167   4.442  1.00  0.00     0.049 A 
ATOM     48  N   UNL     1      -8.018   1.154   3.734  1.00  0.00    -0.248 NA
ATOM     49  C   UNL     1      -8.213   2.187   1.650  1.00  0.00     0.031 C 
ATOM     50  C   UNL     1      -4.835   4.105   4.835  1.00  0.00     0.029 A 
ATOM     51  N   UNL     1      -6.007   2.328   5.522  1.00  0.00    -0.354 N 
ATOM     52  C   UNL     1      -8.978   0.491   2.978  1.00  0.00     0.074 A 
ATOM     53  C   UNL     1      -9.090   1.197   1.721  1.00  0.00     0.031 C 
ATOM     54  C   UNL     1      -4.412   3.792   6.073  1.00  0.00     0.029 A 
ATOM     55  C   UNL     1      -5.178   2.649   6.569  1.00  0.00     0.049 A 
ATOM     56  H   UNL     1      -6.632   1.567   5.544  1.00  0.00     0.167 HD
ATOM     57  C   UNL     1      -9.691  -0.615   3.296  1.00  0.00     0.037 A 
ATOM     58  C   UNL     1      -5.063   2.090   7.790  1.00  0.00     0.037 A 
ATOM     59  C   UNL     1      -9.573  -1.326   4.542  1.00  0.00     0.049 A 
ATOM     60  C   UNL     1      -5.908   0.888   8.137  1.00  0.00     0.074 A 
ATOM     61  C   UNL     1     -10.238  -2.469   4.950  1.00  0.00     0.029 A 
ATOM     62  N   UNL     1      -8.738  -0.957   5.586  1.00  0.00    -0.354 N 
ATOM     63  N   UNL     1      -6.789   0.249   7.405  1.00  0.00    -0.248 NA
ATOM     64  C   UNL     1      -5.727   0.319   9.480  1.00  0.00     0.031 C 
ATOM     65  C   UNL     1      -9.854  -2.754   6.264  1.00  0.00     0.029 A 
ATOM     66  C   UNL     1      -8.891  -1.835   6.647  1.00  0.00     0.049 A 
ATOM     67  H   UNL     1      -8.127  -0.185   5.574  1.00  0.00     0.167 HD
ATOM     68  C   UNL     1      -7.234  -0.815   8.181  1.00  0.00     0.074 A 
ATOM     69  C   UNL     1      -6.511  -0.747   9.433  1.00  0.00     0.031 C 
ATOM     70  C   UNL     1      -8.158  -1.765   7.885  1.00  0.00     0.037 A 
BRANCH  57  71
ATOM     71  C   UNL     1     -10.690  -1.114   2.289  1.00  0.00     0.064 A 
ATOM     72  C   UNL     1     -10.294  -1.702   1.078  1.00  0.00     0.173 A 
ATOM     73  C   UNL     1     -12.064  -1.045   2.565  1.00  0.00     0.173 A 
ATOM     74  F   UNL     1      -8.994  -1.782   0.758  1.00  0.00    -0.203 F 
ATOM     75  C   UNL     1     -11.237  -2.180   0.172  1.00  0.00     0.198 A 
ATOM     76  C   UNL     1     -13.002  -1.555   1.672  1.00  0.00     0.198 A 
ATOM     77  F   UNL     1     -12.498  -0.495   3.709  1.00  0.00    -0.203 F 
ATOM     78  F   UNL     1     -10.838  -2.696  -0.999  1.00  0.00    -0.200 F 
ATOM     79  C   UNL     1     -12.589  -2.115   0.473  1.00  0.00     0.200 A 
ATOM     80  F   UNL     1     -14.307  -1.506   1.974  1.00  0.00    -0.200 F 
ATOM     81  F   UNL     1     -13.495  -2.590  -0.393  1.00  0.00    -0.200 F 
ENDBRANCH  57  71
BRANCH  58  82
ATOM     82  C   UNL     1      -4.118   2.659   8.791  1.00  0.00     0.064 A 
ATOM     83  C   UNL     1      -3.012   1.928   9.248  1.00  0.00     0.173 A 
ATOM     84  C   UNL     1      -4.336   3.926   9.352  1.00  0.00     0.173 A 
ATOM     85  F   UNL     1      -2.773   0.700   8.764  1.00  0.00    -0.203 F 
ATOM     86  C   UNL     1      -2.184   2.426  10.253  1.00  0.00     0.198 A 
ATOM     87  C   UNL     1      -3.486   4.438  10.330  1.00  0.00     0.198 A 
ATOM     88  F   UNL     1      -5.381   4.667   8.954  1.00  0.00    -0.203 F 
ATOM     89  F   UNL     1      -1.177   1.675  10.722  1.00  0.00    -0.200 F 
ATOM     90  C   UNL     1      -2.419   3.682  10.790  1.00  0.00     0.200 A 
ATOM     91  F   UNL     1      -3.710   5.658  10.837  1.00  0.00    -0.200 F 
ATOM     92  F   UNL     1      -1.627   4.158  11.760  1.00  0.00    -0.200 F 
ENDBRANCH  58  82
BRANCH  70  93
ATOM     93  C   UNL     1      -8.392  -2.844   8.909  1.00  0.00     0.064 A 
ATOM     94  C   UNL     1      -8.981  -2.577  10.154  1.00  0.00     0.173 A 
ATOM     95  C   UNL     1      -8.023  -4.171   8.633  1.00  0.00     0.173 A 
ATOM     96  F   UNL     1      -9.347  -1.326  10.475  1.00  0.00    -0.203 F 
ATOM     97  C   UNL     1      -9.140  -3.584  11.104  1.00  0.00     0.198 A 
ATOM     98  C   UNL     1      -8.223  -5.183   9.568  1.00  0.00     0.198 A 
ATOM     99  F   UNL     1      -7.470  -4.490   7.453  1.00  0.00    -0.203 F 
ATOM    100  F   UNL     1      -9.632  -3.288  12.315  1.00  0.00    -0.200 F 
ATOM    101  C   UNL     1      -8.766  -4.886  10.808  1.00  0.00     0.200 A 
ATOM    102  F   UNL     1      -7.881  -6.444   9.272  1.00  0.00    -0.200 F 
ATOM    103  F   UNL     1      -8.917  -5.853  11.724  1.00  0.00    -0.200 F 
ENDBRANCH  70  93
ENDBRANCH  44  45
ENDBRANCH  37  39
ENDBRANCH  36  37
ENDBRANCH  35  36
ENDBRANCH  34  35
ENDBRANCH  33  34
ENDBRANCH  32  33
ENDBRANCH   1  32
TORSDOF 20
