REMARK SMILES Cc1cc(OCC(=O)Nc2sccc2C(=O)OCCOCCOCCOC(=O)c2ccc(-c3c4nc(c(-c5c(F)c(F)c(F)c(F)c5F)c5ccc([nH]5)c(-c5c(F)c(F)c(F)c(F)c5F)c5nc(c(-c6c(F)c(F)c(F)c(F)c6F)c6ccc3[nH]6)C=C5)C=C4)cc2)ccc1Cl
REMARK SMILES IDX 21 1 20 2 19 3 18 4 17 5 15 6 16 7 14 8 10 9 11 10 12 11
REMARK SMILES IDX 13 12 9 13 7 14 8 15 6 17 5 18 4 19 1 20 2 21 3 22 94 23
REMARK SMILES IDX 93 24 95 25 92 26 22 27 23 28 24 29 25 30 26 31 27 32 28 33
REMARK SMILES IDX 29 34 30 35 91 36 31 37 90 38 32 39 33 40 34 41 84 42 35 43
REMARK SMILES IDX 89 44 83 45 85 46 36 47 88 48 82 49 81 50 37 52 69 53 49 54
REMARK SMILES IDX 68 55 50 56 53 57 67 58 86 59 51 60 52 61 66 63 87 64 54 65
REMARK SMILES IDX 38 66 39 67 47 68 40 69 41 70 45 71 48 72 42 73 43 74 46 75
REMARK SMILES IDX 44 76 70 77 71 78 79 79 72 80 73 81 77 82 80 83 74 84 75 85
REMARK SMILES IDX 78 86 76 87 55 88 56 89 64 90 57 91 58 92 62 93 65 94 59 95
REMARK SMILES IDX 60 96 63 97 61 98
REMARK H PARENT 9 16 85 51 53 62
REMARK Flexibility Score: inf
ROOT
ATOM      1  C   UNL     1      -1.696  -2.543   2.256  1.00  0.00     0.188 C 
ENDROOT
BRANCH   1   2
ATOM      2  O   UNL     1      -0.733  -2.235   1.256  1.00  0.00    -0.376 OA
BRANCH   2   3
ATOM      3  C   UNL     1      -0.933  -0.991   0.601  1.00  0.00     0.202 C 
BRANCH   3   4
ATOM      4  C   UNL     1      -2.241  -0.970  -0.157  1.00  0.00     0.261 C 
BRANCH   4   5
ATOM      5  O   UNL     1      -3.309  -0.549   0.693  1.00  0.00    -0.460 OA
BRANCH   5   6
ATOM      6  C   UNL     1      -4.545  -1.032   0.403  1.00  0.00     0.341 C 
ATOM      7  O   UNL     1      -4.807  -1.839  -0.477  1.00  0.00    -0.246 OA
BRANCH   6   8
ATOM      8  C   UNL     1      -5.508  -0.571   1.382  1.00  0.00     0.094 A 
ATOM      9  C   UNL     1      -5.544   0.689   1.944  1.00  0.00     0.110 A 
ATOM     10  S   UNL     1      -6.558   0.762   3.317  1.00  0.00    -0.126 S 
ATOM     11  C   UNL     1      -7.074  -0.850   3.106  1.00  0.00     0.068 A 
ATOM     12  C   UNL     1      -6.456  -1.443   2.029  1.00  0.00     0.029 A 
BRANCH   9  13
ATOM     13  N   UNL     1      -4.873   1.870   1.746  1.00  0.00    -0.314 N 
ATOM     14  C   UNL     1      -4.205   2.355   0.656  1.00  0.00     0.262 C 
ATOM     15  O   UNL     1      -3.307   3.172   0.886  1.00  0.00    -0.271 OA
ATOM     16  H   UNL     1      -4.872   2.473   2.525  1.00  0.00     0.170 HD
BRANCH  14  17
ATOM     17  C   UNL     1      -4.731   2.119  -0.798  1.00  0.00     0.329 C 
BRANCH  17  18
ATOM     18  O   UNL     1      -4.145   1.403  -1.868  1.00  0.00    -0.484 OA
BRANCH  18  19
ATOM     19  C   UNL     1      -2.840   1.548  -2.243  1.00  0.00     0.120 A 
ATOM     20  C   UNL     1       0.435   2.954  -0.955  1.00  0.00     0.046 C 
ATOM     21  C   UNL     1      -0.522   2.168  -1.811  1.00  0.00    -0.029 A 
ATOM     22  C   UNL     1      -1.907   2.408  -1.672  1.00  0.00     0.051 A 
ATOM     23  C   UNL     1      -0.093   1.108  -2.624  1.00  0.00     0.044 A 
ATOM     24  C   UNL     1      -1.024   0.340  -3.325  1.00  0.00     0.024 A 
ATOM     25  Cl  UNL     1       1.569   0.650  -2.721  1.00  0.00    -0.084 Cl
ATOM     26  C   UNL     1      -2.393   0.567  -3.142  1.00  0.00     0.048 A 
ENDBRANCH  18  19
ENDBRANCH  17  18
ENDBRANCH  14  17
ENDBRANCH   9  13
ENDBRANCH   6   8
ENDBRANCH   5   6
ENDBRANCH   4   5
ENDBRANCH   3   4
ENDBRANCH   2   3
ENDBRANCH   1   2
BRANCH   1  27
ATOM     27  C   UNL     1      -1.785  -1.559   3.435  1.00  0.00     0.188 C 
BRANCH  27  28
ATOM     28  O   UNL     1      -0.658  -1.389   4.292  1.00  0.00    -0.376 OA
BRANCH  28  29
ATOM     29  C   UNL     1       0.638  -1.283   3.716  1.00  0.00     0.202 C 
BRANCH  29  30
ATOM     30  C   UNL     1       1.482  -2.529   4.011  1.00  0.00     0.261 C 
BRANCH  30  31
ATOM     31  O   UNL     1       0.759  -3.745   3.764  1.00  0.00    -0.460 OA
BRANCH  31  32
ATOM     32  C   UNL     1      -0.002  -4.182   4.800  1.00  0.00     0.338 C 
ATOM     33  O   UNL     1      -0.020  -3.766   5.945  1.00  0.00    -0.246 OA
BRANCH  32  34
ATOM     34  C   UNL     1      -0.961  -5.189   4.293  1.00  0.00     0.060 A 
ATOM     35  C   UNL     1      -2.296  -5.106   4.716  1.00  0.00     0.016 A 
ATOM     36  C   UNL     1      -0.568  -6.166   3.371  1.00  0.00     0.016 A 
ATOM     37  C   UNL     1      -3.225  -6.045   4.273  1.00  0.00     0.010 A 
ATOM     38  C   UNL     1      -1.491  -7.121   2.945  1.00  0.00     0.010 A 
ATOM     39  C   UNL     1      -2.804  -7.094   3.442  1.00  0.00    -0.014 A 
BRANCH  39  40
ATOM     40  C   UNL     1      -3.616  -8.331   3.394  1.00  0.00     0.031 A 
ATOM     41  C   UNL     1      -3.390  -9.327   4.500  1.00  0.00     0.074 A 
ATOM     42  C   UNL     1      -4.516  -8.566   2.426  1.00  0.00     0.049 A 
ATOM     43  N   UNL     1      -3.966 -10.480   4.719  1.00  0.00    -0.248 NA
ATOM     44  C   UNL     1      -2.371  -8.966   5.502  1.00  0.00     0.031 C 
ATOM     45  C   UNL     1      -4.832  -7.665   1.322  1.00  0.00     0.029 A 
ATOM     46  N   UNL     1      -5.330  -9.652   2.223  1.00  0.00    -0.354 N 
ATOM     47  C   UNL     1      -3.393 -10.964   5.887  1.00  0.00     0.074 A 
ATOM     48  C   UNL     1      -2.401 -10.007   6.315  1.00  0.00     0.031 C 
ATOM     49  C   UNL     1      -5.767  -8.242   0.545  1.00  0.00     0.029 A 
ATOM     50  C   UNL     1      -6.099  -9.558   1.091  1.00  0.00     0.049 A 
ATOM     51  H   UNL     1      -5.358 -10.425   2.831  1.00  0.00     0.167 HD
ATOM     52  C   UNL     1      -3.674 -12.107   6.554  1.00  0.00     0.037 A 
ATOM     53  C   UNL     1      -6.961 -10.448   0.560  1.00  0.00     0.037 A 
ATOM     54  C   UNL     1      -4.627 -13.079   6.103  1.00  0.00     0.049 A 
ATOM     55  C   UNL     1      -7.193 -11.758   1.272  1.00  0.00     0.074 A 
ATOM     56  C   UNL     1      -4.984 -14.278   6.689  1.00  0.00     0.029 A 
ATOM     57  N   UNL     1      -5.361 -12.965   4.931  1.00  0.00    -0.354 N 
ATOM     58  N   UNL     1      -6.684 -12.191   2.401  1.00  0.00    -0.248 NA
ATOM     59  C   UNL     1      -8.122 -12.703   0.635  1.00  0.00     0.031 C 
ATOM     60  C   UNL     1      -5.903 -14.912   5.846  1.00  0.00     0.029 A 
ATOM     61  C   UNL     1      -6.153 -14.086   4.761  1.00  0.00     0.049 A 
ATOM     62  H   UNL     1      -5.323 -12.200   4.312  1.00  0.00     0.167 HD
ATOM     63  C   UNL     1      -7.247 -13.441   2.623  1.00  0.00     0.074 A 
ATOM     64  C   UNL     1      -8.146 -13.694   1.516  1.00  0.00     0.031 C 
ATOM     65  C   UNL     1      -7.042 -14.304   3.650  1.00  0.00     0.037 A 
BRANCH  52  66
ATOM     66  C   UNL     1      -2.905 -12.362   7.814  1.00  0.00     0.064 A 
ATOM     67  C   UNL     1      -3.145 -11.620   8.981  1.00  0.00     0.173 A 
ATOM     68  C   UNL     1      -1.898 -13.336   7.848  1.00  0.00     0.173 A 
ATOM     69  F   UNL     1      -4.079 -10.657   8.989  1.00  0.00    -0.203 F 
ATOM     70  C   UNL     1      -2.384 -11.826  10.129  1.00  0.00     0.198 A 
ATOM     71  C   UNL     1      -1.156 -13.557   9.005  1.00  0.00     0.198 A 
ATOM     72  F   UNL     1      -1.624 -14.064   6.755  1.00  0.00    -0.203 F 
ATOM     73  F   UNL     1      -2.592 -11.069  11.215  1.00  0.00    -0.200 F 
ATOM     74  C   UNL     1      -1.394 -12.797  10.141  1.00  0.00     0.200 A 
ATOM     75  F   UNL     1      -0.200 -14.496   9.017  1.00  0.00    -0.200 F 
ATOM     76  F   UNL     1      -0.658 -12.991  11.244  1.00  0.00    -0.200 F 
ENDBRANCH  52  66
BRANCH  53  77
ATOM     77  C   UNL     1      -7.668 -10.137  -0.710  1.00  0.00     0.064 A 
ATOM     78  C   UNL     1      -9.050  -9.899  -0.730  1.00  0.00     0.173 A 
ATOM     79  C   UNL     1      -6.981 -10.089  -1.932  1.00  0.00     0.173 A 
ATOM     80  F   UNL     1      -9.755  -9.962   0.409  1.00  0.00    -0.203 F 
ATOM     81  C   UNL     1      -9.719  -9.639  -1.924  1.00  0.00     0.198 A 
ATOM     82  C   UNL     1      -7.648  -9.805  -3.123  1.00  0.00     0.198 A 
ATOM     83  F   UNL     1      -5.660 -10.316  -1.969  1.00  0.00    -0.203 F 
ATOM     84  F   UNL     1     -11.047  -9.456  -1.920  1.00  0.00    -0.200 F 
ATOM     85  C   UNL     1      -9.017  -9.586  -3.119  1.00  0.00     0.200 A 
ATOM     86  F   UNL     1      -6.965  -9.750  -4.274  1.00  0.00    -0.200 F 
ATOM     87  F   UNL     1      -9.661  -9.335  -4.267  1.00  0.00    -0.200 F 
ENDBRANCH  53  77
BRANCH  65  88
ATOM     88  C   UNL     1      -7.822 -15.585   3.639  1.00  0.00     0.064 A 
ATOM     89  C   UNL     1      -7.503 -16.631   2.763  1.00  0.00     0.173 A 
ATOM     90  C   UNL     1      -8.858 -15.790   4.563  1.00  0.00     0.173 A 
ATOM     91  F   UNL     1      -6.527 -16.478   1.855  1.00  0.00    -0.203 F 
ATOM     92  C   UNL     1      -8.206 -17.832   2.800  1.00  0.00     0.198 A 
ATOM     93  C   UNL     1      -9.541 -17.001   4.615  1.00  0.00     0.198 A 
ATOM     94  F   UNL     1      -9.193 -14.821   5.429  1.00  0.00    -0.203 F 
ATOM     95  F   UNL     1      -7.910 -18.806   1.929  1.00  0.00    -0.200 F 
ATOM     96  C   UNL     1      -9.218 -18.018   3.731  1.00  0.00     0.200 A 
ATOM     97  F   UNL     1     -10.508 -17.184   5.524  1.00  0.00    -0.200 F 
ATOM     98  F   UNL     1      -9.887 -19.179   3.771  1.00  0.00    -0.200 F 
ENDBRANCH  65  88
ENDBRANCH  39  40
ENDBRANCH  32  34
ENDBRANCH  31  32
ENDBRANCH  30  31
ENDBRANCH  29  30
ENDBRANCH  28  29
ENDBRANCH  27  28
ENDBRANCH   1  27
TORSDOF 21
