REMARK SMILES O=C(OCCOCCOCCOC(=O)c1cc(-c2ccccc2)ccc1F)c1ccc(-c2c3nc(c(-c4c(F)c(F)c(F)c(F)c4F)c4ccc([nH]4)c(-c4c(F)c(F)c(F)c(F)c4F)c4nc(c(-c5c(F)c(F)c(F)c(F)c5F)c5ccc2[nH]5)C=C4)C=C3)cc1
REMARK SMILES IDX 7 1 6 2 5 3 4 4 3 5 2 6 1 7 28 8 29 9 90 10 30 11 89 12
REMARK SMILES IDX 31 13 32 14 33 15 83 16 34 17 88 18 82 19 84 20 35 21 87 22
REMARK SMILES IDX 81 23 80 24 36 26 68 27 48 28 67 29 49 30 52 31 66 32 85 33
REMARK SMILES IDX 50 34 51 35 65 37 86 38 53 39 37 40 38 41 46 42 39 43 40 44
REMARK SMILES IDX 44 45 47 46 41 47 42 48 45 49 43 50 69 51 70 52 78 53 71 54
REMARK SMILES IDX 72 55 76 56 79 57 73 58 74 59 77 60 75 61 54 62 55 63 63 64
REMARK SMILES IDX 56 65 57 66 61 67 64 68 58 69 59 70 62 71 60 72 8 73 9 74
REMARK SMILES IDX 10 75 11 76 12 77 13 78 14 79 15 80 16 81 26 82 17 83 25 84
REMARK SMILES IDX 27 85 24 86 18 87 19 88 23 89 20 90 22 91 21 92
REMARK H PARENT 84 25 52 36
REMARK Flexibility Score: inf
ROOT
ATOM      1  C   UNL     1       2.541   1.445   1.682  1.00  0.00     0.188 C 
ENDROOT
BRANCH   1   2
ATOM      2  O   UNL     1       3.800   0.845   1.345  1.00  0.00    -0.376 OA
BRANCH   2   3
ATOM      3  C   UNL     1       4.618   1.662   0.504  1.00  0.00     0.202 C 
BRANCH   3   4
ATOM      4  C   UNL     1       4.462   1.354  -0.988  1.00  0.00     0.261 C 
BRANCH   4   5
ATOM      5  O   UNL     1       3.093   1.076  -1.328  1.00  0.00    -0.460 OA
BRANCH   5   6
ATOM      6  C   UNL     1       2.498  -0.135  -1.449  1.00  0.00     0.338 C 
ATOM      7  O   UNL     1       1.301  -0.185  -1.729  1.00  0.00    -0.246 OA
BRANCH   6   8
ATOM      8  C   UNL     1       3.233  -1.432  -1.337  1.00  0.00     0.060 A 
ATOM      9  C   UNL     1       4.320  -1.670  -0.494  1.00  0.00     0.016 A 
ATOM     10  C   UNL     1       2.736  -2.510  -2.090  1.00  0.00     0.016 A 
ATOM     11  C   UNL     1       4.974  -2.901  -0.492  1.00  0.00     0.010 A 
ATOM     12  C   UNL     1       3.338  -3.772  -2.030  1.00  0.00     0.010 A 
ATOM     13  C   UNL     1       4.490  -3.963  -1.259  1.00  0.00    -0.014 A 
BRANCH  13  14
ATOM     14  C   UNL     1       5.253  -5.232  -1.309  1.00  0.00     0.031 A 
ATOM     15  C   UNL     1       5.974  -5.600  -2.573  1.00  0.00     0.074 A 
ATOM     16  C   UNL     1       5.387  -5.991  -0.206  1.00  0.00     0.049 A 
ATOM     17  N   UNL     1       6.673  -6.670  -2.845  1.00  0.00    -0.248 NA
ATOM     18  C   UNL     1       5.916  -4.622  -3.672  1.00  0.00     0.031 C 
ATOM     19  C   UNL     1       4.822  -5.673   1.105  1.00  0.00     0.029 A 
ATOM     20  N   UNL     1       6.067  -7.165  -0.000  1.00  0.00    -0.354 N 
ATOM     21  C   UNL     1       7.132  -6.497  -4.143  1.00  0.00     0.074 A 
ATOM     22  C   UNL     1       6.613  -5.235  -4.618  1.00  0.00     0.031 C 
ATOM     23  C   UNL     1       5.208  -6.611   1.984  1.00  0.00     0.029 A 
ATOM     24  C   UNL     1       5.974  -7.635   1.286  1.00  0.00     0.049 A 
ATOM     25  H   UNL     1       6.573  -7.626  -0.708  1.00  0.00     0.167 HD
ATOM     26  C   UNL     1       7.929  -7.316  -4.867  1.00  0.00     0.037 A 
ATOM     27  C   UNL     1       6.428  -8.776   1.838  1.00  0.00     0.037 A 
ATOM     28  C   UNL     1       8.449  -8.565  -4.385  1.00  0.00     0.049 A 
ATOM     29  C   UNL     1       7.212  -9.727   0.978  1.00  0.00     0.074 A 
ATOM     30  C   UNL     1       9.220  -9.496  -5.055  1.00  0.00     0.029 A 
ATOM     31  N   UNL     1       8.253  -9.052  -3.101  1.00  0.00    -0.354 N 
ATOM     32  N   UNL     1       7.588  -9.585  -0.270  1.00  0.00    -0.248 NA
ATOM     33  C   UNL     1       7.627 -10.995   1.591  1.00  0.00     0.031 C 
ATOM     34  C   UNL     1       9.468 -10.562  -4.184  1.00  0.00     0.029 A 
ATOM     35  C   UNL     1       8.878 -10.279  -2.962  1.00  0.00     0.049 A 
ATOM     36  H   UNL     1       7.744  -8.594  -2.393  1.00  0.00     0.167 HD
ATOM     37  C   UNL     1       8.296 -10.733  -0.588  1.00  0.00     0.074 A 
ATOM     38  C   UNL     1       8.309 -11.559   0.603  1.00  0.00     0.031 C 
ATOM     39  C   UNL     1       8.881 -11.074  -1.761  1.00  0.00     0.037 A 
BRANCH  26  40
ATOM     40  C   UNL     1       8.258  -6.890  -6.263  1.00  0.00     0.064 A 
ATOM     41  C   UNL     1       7.634  -7.505  -7.358  1.00  0.00     0.173 A 
ATOM     42  C   UNL     1       9.195  -5.879  -6.519  1.00  0.00     0.173 A 
ATOM     43  F   UNL     1       6.725  -8.472  -7.163  1.00  0.00    -0.203 F 
ATOM     44  C   UNL     1       7.939  -7.123  -8.662  1.00  0.00     0.198 A 
ATOM     45  C   UNL     1       9.484  -5.487  -7.823  1.00  0.00     0.198 A 
ATOM     46  F   UNL     1       9.799  -5.245  -5.502  1.00  0.00    -0.203 F 
ATOM     47  F   UNL     1       7.336  -7.729  -9.694  1.00  0.00    -0.200 F 
ATOM     48  C   UNL     1       8.860  -6.112  -8.893  1.00  0.00     0.200 A 
ATOM     49  F   UNL     1      10.353  -4.491  -8.045  1.00  0.00    -0.200 F 
ATOM     50  F   UNL     1       9.138  -5.732 -10.148  1.00  0.00    -0.200 F 
ENDBRANCH  26  40
BRANCH  27  51
ATOM     51  C   UNL     1       6.119  -9.090   3.259  1.00  0.00     0.064 A 
ATOM     52  C   UNL     1       4.803  -9.352   3.672  1.00  0.00     0.173 A 
ATOM     53  C   UNL     1       7.124  -9.120   4.234  1.00  0.00     0.173 A 
ATOM     54  F   UNL     1       3.801  -9.331   2.782  1.00  0.00    -0.203 F 
ATOM     55  C   UNL     1       4.504  -9.613   5.008  1.00  0.00     0.198 A 
ATOM     56  C   UNL     1       6.827  -9.407   5.566  1.00  0.00     0.198 A 
ATOM     57  F   UNL     1       8.400  -8.896   3.888  1.00  0.00    -0.203 F 
ATOM     58  F   UNL     1       3.233  -9.823   5.377  1.00  0.00    -0.200 F 
ATOM     59  C   UNL     1       5.516  -9.647   5.953  1.00  0.00     0.200 A 
ATOM     60  F   UNL     1       7.811  -9.461   6.474  1.00  0.00    -0.200 F 
ATOM     61  F   UNL     1       5.230  -9.913   7.234  1.00  0.00    -0.200 F 
ENDBRANCH  27  51
BRANCH  39  62
ATOM     62  C   UNL     1       9.598 -12.386  -1.814  1.00  0.00     0.064 A 
ATOM     63  C   UNL     1      11.000 -12.428  -1.826  1.00  0.00     0.173 A 
ATOM     64  C   UNL     1       8.896 -13.592  -1.936  1.00  0.00     0.173 A 
ATOM     65  F   UNL     1      11.711 -11.296  -1.716  1.00  0.00    -0.203 F 
ATOM     66  C   UNL     1      11.675 -13.635  -1.975  1.00  0.00     0.198 A 
ATOM     67  C   UNL     1       9.575 -14.800  -2.065  1.00  0.00     0.198 A 
ATOM     68  F   UNL     1       7.555 -13.597  -1.915  1.00  0.00    -0.203 F 
ATOM     69  F   UNL     1      13.014 -13.652  -2.014  1.00  0.00    -0.200 F 
ATOM     70  C   UNL     1      10.962 -14.819  -2.094  1.00  0.00     0.200 A 
ATOM     71  F   UNL     1       8.887 -15.945  -2.161  1.00  0.00    -0.200 F 
ATOM     72  F   UNL     1      11.613 -15.982  -2.236  1.00  0.00    -0.200 F 
ENDBRANCH  39  62
ENDBRANCH  13  14
ENDBRANCH   6   8
ENDBRANCH   5   6
ENDBRANCH   4   5
ENDBRANCH   3   4
ENDBRANCH   2   3
ENDBRANCH   1   2
BRANCH   1  73
ATOM     73  C   UNL     1       2.046   0.914   3.031  1.00  0.00     0.188 C 
BRANCH  73  74
ATOM     74  O   UNL     1       2.735   1.450   4.164  1.00  0.00    -0.376 OA
BRANCH  74  75
ATOM     75  C   UNL     1       4.110   1.105   4.301  1.00  0.00     0.202 C 
BRANCH  75  76
ATOM     76  C   UNL     1       4.399  -0.278   4.895  1.00  0.00     0.261 C 
BRANCH  76  77
ATOM     77  O   UNL     1       3.851  -1.382   4.152  1.00  0.00    -0.460 OA
BRANCH  77  78
ATOM     78  C   UNL     1       2.825  -2.014   4.774  1.00  0.00     0.341 C 
ATOM     79  O   UNL     1       2.249  -1.676   5.794  1.00  0.00    -0.246 OA
BRANCH  78  80
ATOM     80  C   UNL     1       2.486  -3.257   4.079  1.00  0.00     0.096 A 
ATOM     81  C   UNL     1       1.522  -3.283   3.062  1.00  0.00     0.027 A 
ATOM     82  C   UNL     1       2.994  -4.441   4.600  1.00  0.00     0.137 A 
ATOM     83  C   UNL     1       1.052  -4.516   2.572  1.00  0.00    -0.017 A 
ATOM     84  C   UNL     1       2.542  -5.665   4.127  1.00  0.00     0.041 A 
ATOM     85  F   UNL     1       3.916  -4.427   5.574  1.00  0.00    -0.206 F 
ATOM     86  C   UNL     1       1.583  -5.701   3.115  1.00  0.00     0.012 A 
BRANCH  83  87
ATOM     87  C   UNL     1      -0.012  -4.591   1.561  1.00  0.00    -0.018 A 
ATOM     88  C   UNL     1       0.164  -4.070   0.272  1.00  0.00     0.009 A 
ATOM     89  C   UNL     1      -1.232  -5.224   1.857  1.00  0.00     0.009 A 
ATOM     90  C   UNL     1      -0.837  -4.194  -0.696  1.00  0.00     0.001 A 
ATOM     91  C   UNL     1      -2.235  -5.344   0.894  1.00  0.00     0.001 A 
ATOM     92  C   UNL     1      -2.035  -4.834  -0.386  1.00  0.00     0.000 A 
ENDBRANCH  83  87
ENDBRANCH  78  80
ENDBRANCH  77  78
ENDBRANCH  76  77
ENDBRANCH  75  76
ENDBRANCH  74  75
ENDBRANCH  73  74
ENDBRANCH   1  73
TORSDOF 18
