REMARK SMILES CC1(C)[C@@]2(C(=O)OCCOCCOCCOC(=O)c3ccc(-c4c5nc(c(-c6c(F)c(F)c(F)c(F)c6F)c6ccc([nH]6)c(-c6c(F)c(F)c(F)c(F)c6F)c6nc(c(-c7c(F)c(F)c(F)c(F)c7F)c7ccc4[nH]7)C=C6)C=C5)cc3)CC[C@]1(C)/C(=N/NC(=O)c1ccc(Cl)cc1)C2
REMARK SMILES IDX 11 1 10 2 9 3 8 4 7 5 5 6 6 7 4 8 1 9 2 10 3 11 84 12 82 13
REMARK SMILES IDX 98 14 83 15 85 16 86 17 87 18 88 19 89 20 90 22 91 23 92 24
REMARK SMILES IDX 97 25 93 26 96 27 94 28 95 29 12 30 13 31 14 32 15 33 16 34
REMARK SMILES IDX 17 35 18 36 19 37 20 38 81 39 21 40 80 41 22 42 23 43 24 44
REMARK SMILES IDX 74 45 25 46 79 47 73 48 75 49 26 50 78 51 72 52 71 53 27 55
REMARK SMILES IDX 59 56 39 57 58 58 40 59 43 60 57 61 76 62 41 63 42 64 56 66
REMARK SMILES IDX 77 67 44 68 28 69 29 70 37 71 30 72 31 73 35 74 38 75 32 76
REMARK SMILES IDX 33 77 36 78 34 79 60 80 61 81 69 82 62 83 63 84 67 85 70 86
REMARK SMILES IDX 64 87 65 88 68 89 66 90 45 91 46 92 54 93 47 94 48 95 52 96
REMARK SMILES IDX 55 97 49 98 50 99 53 100 51 101
REMARK H PARENT 88 21 75 54 43 65
REMARK Flexibility Score: inf
ROOT
ATOM      1  C   UNL     1       3.771   0.782   3.279  1.00  0.00     0.188 C 
ENDROOT
BRANCH   1   2
ATOM      2  O   UNL     1       4.107   2.120   3.597  1.00  0.00    -0.376 OA
BRANCH   2   3
ATOM      3  C   UNL     1       3.054   2.903   4.160  1.00  0.00     0.202 C 
BRANCH   3   4
ATOM      4  C   UNL     1       1.935   3.281   3.181  1.00  0.00     0.261 C 
BRANCH   4   5
ATOM      5  O   UNL     1       1.077   2.163   2.871  1.00  0.00    -0.463 OA
BRANCH   5   6
ATOM      6  C   UNL     1       1.106   1.699   1.588  1.00  0.00     0.313 C 
ATOM      7  O   UNL     1       1.775   2.181   0.686  1.00  0.00    -0.252 OA
BRANCH   6   8
ATOM      8  C   UNL     1       0.163   0.524   1.409  1.00  0.00     0.079 C 
ATOM      9  C   UNL     1       0.708   0.051  -1.101  1.00  0.00     0.013 C 
ATOM     10  C   UNL     1       0.487  -0.532   0.309  1.00  0.00    -0.008 C 
ATOM     11  C   UNL     1       1.698  -1.452   0.595  1.00  0.00     0.013 C 
ATOM     12  C   UNL     1      -0.889  -1.248   0.514  1.00  0.00     0.014 C 
ATOM     13  C   UNL     1      -1.230   1.079   0.974  1.00  0.00     0.021 C 
ATOM     14  C   UNL     1      -0.038  -0.364   2.666  1.00  0.00     0.073 C 
ATOM     15  C   UNL     1      -1.921  -0.125   0.314  1.00  0.00     0.014 C 
ATOM     16  C   UNL     1      -1.144  -2.495  -0.307  1.00  0.00     0.018 C 
ATOM     17  C   UNL     1      -0.877  -1.454   2.049  1.00  0.00     0.046 C 
ATOM     18  N   UNL     1      -1.507  -2.462   2.558  1.00  0.00    -0.181 NA
BRANCH  18  19
ATOM     19  N   UNL     1      -1.542  -2.847   3.858  1.00  0.00    -0.243 N 
ATOM     20  C   UNL     1      -1.642  -2.215   5.076  1.00  0.00     0.271 C 
ATOM     21  H   UNL     1      -1.481  -3.824   3.954  1.00  0.00     0.194 HD
ATOM     22  O   UNL     1      -1.611  -2.881   6.112  1.00  0.00    -0.267 OA
BRANCH  20  23
ATOM     23  C   UNL     1      -1.812  -0.766   5.213  1.00  0.00     0.041 A 
ATOM     24  C   UNL     1      -0.894  -0.083   6.027  1.00  0.00     0.015 A 
ATOM     25  C   UNL     1      -2.826  -0.074   4.543  1.00  0.00     0.015 A 
ATOM     26  C   UNL     1      -0.926   1.310   6.088  1.00  0.00     0.021 A 
ATOM     27  C   UNL     1      -2.862   1.323   4.620  1.00  0.00     0.021 A 
ATOM     28  C   UNL     1      -1.897   2.007   5.368  1.00  0.00     0.041 A 
ATOM     29  Cl  UNL     1      -1.871   3.727   5.360  1.00  0.00    -0.084 Cl
ENDBRANCH  20  23
ENDBRANCH  18  19
ENDBRANCH   6   8
ENDBRANCH   5   6
ENDBRANCH   4   5
ENDBRANCH   3   4
ENDBRANCH   2   3
ENDBRANCH   1   2
BRANCH   1  30
ATOM     30  C   UNL     1       3.746  -0.186   4.446  1.00  0.00     0.188 C 
BRANCH  30  31
ATOM     31  O   UNL     1       2.957   0.154   5.582  1.00  0.00    -0.376 OA
BRANCH  31  32
ATOM     32  C   UNL     1       3.743   0.271   6.777  1.00  0.00     0.202 C 
BRANCH  32  33
ATOM     33  C   UNL     1       4.304  -1.050   7.359  1.00  0.00     0.261 C 
BRANCH  33  34
ATOM     34  O   UNL     1       4.982  -1.861   6.376  1.00  0.00    -0.460 OA
BRANCH  34  35
ATOM     35  C   UNL     1       4.260  -2.905   5.882  1.00  0.00     0.338 C 
ATOM     36  O   UNL     1       3.234  -3.359   6.347  1.00  0.00    -0.246 OA
BRANCH  35  37
ATOM     37  C   UNL     1       4.757  -3.265   4.520  1.00  0.00     0.060 A 
ATOM     38  C   UNL     1       3.795  -3.595   3.550  1.00  0.00     0.016 A 
ATOM     39  C   UNL     1       6.104  -3.185   4.154  1.00  0.00     0.016 A 
ATOM     40  C   UNL     1       4.170  -3.841   2.226  1.00  0.00     0.010 A 
ATOM     41  C   UNL     1       6.483  -3.465   2.833  1.00  0.00     0.010 A 
ATOM     42  C   UNL     1       5.522  -3.806   1.864  1.00  0.00    -0.014 A 
BRANCH  42  43
ATOM     43  C   UNL     1       5.955  -4.312   0.536  1.00  0.00     0.031 A 
ATOM     44  C   UNL     1       6.294  -5.772   0.413  1.00  0.00     0.074 A 
ATOM     45  C   UNL     1       6.057  -3.513  -0.542  1.00  0.00     0.049 A 
ATOM     46  N   UNL     1       6.825  -6.424  -0.590  1.00  0.00    -0.248 NA
ATOM     47  C   UNL     1       5.987  -6.609   1.583  1.00  0.00     0.031 C 
ATOM     48  C   UNL     1       5.680  -2.104  -0.595  1.00  0.00     0.029 A 
ATOM     49  N   UNL     1       6.530  -3.784  -1.805  1.00  0.00    -0.354 N 
ATOM     50  C   UNL     1       6.929  -7.742  -0.166  1.00  0.00     0.074 A 
ATOM     51  C   UNL     1       6.410  -7.798   1.183  1.00  0.00     0.031 C 
ATOM     52  C   UNL     1       5.958  -1.625  -1.822  1.00  0.00     0.029 A 
ATOM     53  C   UNL     1       6.578  -2.681  -2.624  1.00  0.00     0.049 A 
ATOM     54  H   UNL     1       6.808  -4.683  -2.095  1.00  0.00     0.167 HD
ATOM     55  C   UNL     1       7.419  -8.810  -0.837  1.00  0.00     0.037 A 
ATOM     56  C   UNL     1       7.102  -2.535  -3.859  1.00  0.00     0.037 A 
ATOM     57  C   UNL     1       7.948  -8.761  -2.173  1.00  0.00     0.049 A 
ATOM     58  C   UNL     1       7.766  -3.712  -4.535  1.00  0.00     0.074 A 
ATOM     59  C   UNL     1       8.462  -9.795  -2.934  1.00  0.00     0.029 A 
ATOM     60  N   UNL     1       8.043  -7.611  -2.941  1.00  0.00    -0.354 N 
ATOM     61  N   UNL     1       7.865  -4.955  -4.132  1.00  0.00    -0.248 NA
ATOM     62  C   UNL     1       8.411  -3.457  -5.834  1.00  0.00     0.031 C 
ATOM     63  C   UNL     1       8.920  -9.261  -4.143  1.00  0.00     0.029 A 
ATOM     64  C   UNL     1       8.643  -7.904  -4.154  1.00  0.00     0.049 A 
ATOM     65  H   UNL     1       7.730  -6.720  -2.664  1.00  0.00     0.167 HD
ATOM     66  C   UNL     1       8.555  -5.631  -5.132  1.00  0.00     0.074 A 
ATOM     67  C   UNL     1       8.844  -4.665  -6.169  1.00  0.00     0.031 C 
ATOM     68  C   UNL     1       8.918  -6.937  -5.185  1.00  0.00     0.037 A 
BRANCH  55  69
ATOM     69  C   UNL     1       7.456 -10.118  -0.108  1.00  0.00     0.064 A 
ATOM     70  C   UNL     1       6.291 -10.859   0.139  1.00  0.00     0.173 A 
ATOM     71  C   UNL     1       8.679 -10.644   0.333  1.00  0.00     0.173 A 
ATOM     72  F   UNL     1       5.096 -10.387  -0.247  1.00  0.00    -0.203 F 
ATOM     73  C   UNL     1       6.348 -12.070   0.822  1.00  0.00     0.198 A 
ATOM     74  C   UNL     1       8.735 -11.868   0.992  1.00  0.00     0.198 A 
ATOM     75  F   UNL     1       9.820  -9.971   0.121  1.00  0.00    -0.203 F 
ATOM     76  F   UNL     1       5.219 -12.741   1.088  1.00  0.00    -0.200 F 
ATOM     77  C   UNL     1       7.570 -12.576   1.242  1.00  0.00     0.200 A 
ATOM     78  F   UNL     1       9.917 -12.359   1.391  1.00  0.00    -0.200 F 
ATOM     79  F   UNL     1       7.623 -13.744   1.898  1.00  0.00    -0.200 F 
ENDBRANCH  55  69
BRANCH  56  80
ATOM     80  C   UNL     1       7.079  -1.210  -4.535  1.00  0.00     0.064 A 
ATOM     81  C   UNL     1       6.327  -1.006  -5.701  1.00  0.00     0.173 A 
ATOM     82  C   UNL     1       7.854  -0.139  -4.065  1.00  0.00     0.173 A 
ATOM     83  F   UNL     1       5.601  -2.011  -6.213  1.00  0.00    -0.203 F 
ATOM     84  C   UNL     1       6.364   0.211  -6.380  1.00  0.00     0.198 A 
ATOM     85  C   UNL     1       7.869   1.086  -4.729  1.00  0.00     0.198 A 
ATOM     86  F   UNL     1       8.606  -0.286  -2.965  1.00  0.00    -0.203 F 
ATOM     87  F   UNL     1       5.681   0.359  -7.523  1.00  0.00    -0.200 F 
ATOM     88  C   UNL     1       7.131   1.258  -5.891  1.00  0.00     0.200 A 
ATOM     89  F   UNL     1       8.611   2.095  -4.253  1.00  0.00    -0.200 F 
ATOM     90  F   UNL     1       7.173   2.425  -6.548  1.00  0.00    -0.200 F 
ENDBRANCH  56  80
BRANCH  68  91
ATOM     91  C   UNL     1       9.638  -7.416  -6.413  1.00  0.00     0.064 A 
ATOM     92  C   UNL     1      10.979  -7.086  -6.654  1.00  0.00     0.173 A 
ATOM     93  C   UNL     1       9.000  -8.276  -7.321  1.00  0.00     0.173 A 
ATOM     94  F   UNL     1      11.630  -6.257  -5.824  1.00  0.00    -0.203 F 
ATOM     95  C   UNL     1      11.652  -7.589  -7.765  1.00  0.00     0.198 A 
ATOM     96  C   UNL     1       9.683  -8.799  -8.416  1.00  0.00     0.198 A 
ATOM     97  F   UNL     1       7.720  -8.629  -7.132  1.00  0.00    -0.203 F 
ATOM     98  F   UNL     1      12.924  -7.235  -7.994  1.00  0.00    -0.200 F 
ATOM     99  C   UNL     1      11.007  -8.452  -8.639  1.00  0.00     0.200 A 
ATOM    100  F   UNL     1       9.062  -9.644  -9.250  1.00  0.00    -0.200 F 
ATOM    101  F   UNL     1      11.661  -8.948  -9.699  1.00  0.00    -0.200 F 
ENDBRANCH  68  91
ENDBRANCH  42  43
ENDBRANCH  35  37
ENDBRANCH  34  35
ENDBRANCH  33  34
ENDBRANCH  32  33
ENDBRANCH  31  32
ENDBRANCH  30  31
ENDBRANCH   1  30
TORSDOF 19
