REMARK SMILES C[C@@H](Oc1ccc(C(C)(C)C)cc1)C(=O)Oc1cccc(C(=O)OCCOCCOCCOC(=O)c2ccc(-c3c4nc(c(-c5c(F)c(F)c(F)c(F)c5F)c5ccc([nH]5)c(-c5c(F)c(F)c(F)c(F)c5F)c5nc(c(-c6c(F)c(F)c(F)c(F)c6F)c6ccc3[nH]6)C=C5)C=C4)cc2)c1
REMARK SMILES IDX 26 1 25 2 24 3 22 4 23 5 21 6 17 7 18 8 99 9 19 10 20 11
REMARK SMILES IDX 16 12 14 13 15 14 2 15 1 16 3 17 4 18 5 19 13 20 6 21 12 22
REMARK SMILES IDX 7 23 8 24 9 25 10 26 11 27 27 28 28 29 29 30 30 31 31 32
REMARK SMILES IDX 32 33 33 34 34 35 35 36 36 37 37 38 98 39 38 40 97 41 39 42
REMARK SMILES IDX 40 43 41 44 91 45 42 46 96 47 90 48 92 49 43 50 95 51 89 52
REMARK SMILES IDX 88 53 44 55 76 56 56 57 75 58 57 59 60 60 74 61 93 62 58 63
REMARK SMILES IDX 59 64 73 66 94 67 61 68 45 69 46 70 54 71 47 72 48 73 52 74
REMARK SMILES IDX 55 75 49 76 50 77 53 78 51 79 77 80 78 81 86 82 79 83 80 84
REMARK SMILES IDX 84 85 87 86 81 87 82 88 85 89 83 90 62 91 63 92 71 93 64 94
REMARK SMILES IDX 65 95 69 96 72 97 66 98 67 99 70 100 68 101
REMARK H PARENT 92 54 60 65
REMARK Flexibility Score: inf
ROOT
ATOM      1  C   UNL     1      -6.936   6.020   1.093  1.00  0.00     0.202 C 
ENDROOT
BRANCH   1   2
ATOM      2  C   UNL     1      -6.380   4.985   2.076  1.00  0.00     0.261 C 
BRANCH   2   3
ATOM      3  O   UNL     1      -5.536   4.006   1.461  1.00  0.00    -0.460 OA
BRANCH   3   4
ATOM      4  C   UNL     1      -5.973   2.721   1.536  1.00  0.00     0.338 C 
ATOM      5  O   UNL     1      -6.970   2.315   2.093  1.00  0.00    -0.246 OA
BRANCH   4   6
ATOM      6  C   UNL     1      -5.145   1.884   0.636  1.00  0.00     0.063 A 
ATOM      7  C   UNL     1      -3.041   1.286  -0.355  1.00  0.00     0.131 A 
ATOM      8  C   UNL     1      -3.677   0.338  -1.161  1.00  0.00     0.047 A 
ATOM      9  C   UNL     1      -3.771   2.093   0.513  1.00  0.00     0.063 A 
ATOM     10  C   UNL     1      -5.056   0.151  -1.054  1.00  0.00     0.005 A 
ATOM     11  C   UNL     1      -5.788   0.911  -0.141  1.00  0.00     0.016 A 
BRANCH   7  12
ATOM     12  O   UNL     1      -1.647   1.394  -0.497  1.00  0.00    -0.424 OA
BRANCH  12  13
ATOM     13  C   UNL     1      -0.874   1.517   0.660  1.00  0.00     0.352 C 
ATOM     14  O   UNL     1      -1.297   1.643   1.806  1.00  0.00    -0.247 OA
BRANCH  13  15
ATOM     15  C   UNL     1       0.601   1.301   0.340  1.00  0.00     0.279 C 
ATOM     16  C   UNL     1       0.796  -0.216   0.289  1.00  0.00     0.066 C 
BRANCH  15  17
ATOM     17  O   UNL     1       0.951   1.950  -0.889  1.00  0.00    -0.479 OA
BRANCH  17  18
ATOM     18  C   UNL     1       2.292   2.201  -0.996  1.00  0.00     0.120 A 
ATOM     19  C   UNL     1       2.743   3.514  -0.958  1.00  0.00     0.047 A 
ATOM     20  C   UNL     1       3.192   1.175  -1.255  1.00  0.00     0.047 A 
ATOM     21  C   UNL     1       4.110   3.788  -1.121  1.00  0.00     0.008 A 
ATOM     22  C   UNL     1       4.554   1.446  -1.393  1.00  0.00     0.008 A 
ATOM     23  C   UNL     1       5.050   2.756  -1.323  1.00  0.00    -0.042 A 
BRANCH  23  24
ATOM     24  C   UNL     1       6.544   3.068  -1.517  1.00  0.00    -0.013 C 
ATOM     25  C   UNL     1       6.736   3.764  -2.880  1.00  0.00     0.016 C 
ATOM     26  C   UNL     1       7.062   3.994  -0.395  1.00  0.00     0.016 C 
ATOM     27  C   UNL     1       7.443   1.808  -1.505  1.00  0.00     0.016 C 
ENDBRANCH  23  24
ENDBRANCH  17  18
ENDBRANCH  15  17
ENDBRANCH  13  15
ENDBRANCH  12  13
ENDBRANCH   7  12
ENDBRANCH   4   6
ENDBRANCH   3   4
ENDBRANCH   2   3
ENDBRANCH   1   2
BRANCH   1  28
ATOM     28  O   UNL     1      -7.648   5.614  -0.067  1.00  0.00    -0.376 OA
BRANCH  28  29
ATOM     29  C   UNL     1      -7.107   4.621  -0.919  1.00  0.00     0.188 C 
BRANCH  29  30
ATOM     30  C   UNL     1      -5.688   4.764  -1.509  1.00  0.00     0.188 C 
BRANCH  30  31
ATOM     31  O   UNL     1      -4.884   5.857  -1.139  1.00  0.00    -0.376 OA
BRANCH  31  32
ATOM     32  C   UNL     1      -5.141   7.161  -1.630  1.00  0.00     0.202 C 
BRANCH  32  33
ATOM     33  C   UNL     1      -6.016   7.505  -2.847  1.00  0.00     0.261 C 
BRANCH  33  34
ATOM     34  O   UNL     1      -7.039   6.577  -3.212  1.00  0.00    -0.460 OA
BRANCH  34  35
ATOM     35  C   UNL     1      -6.819   5.908  -4.370  1.00  0.00     0.338 C 
ATOM     36  O   UNL     1      -5.848   5.980  -5.102  1.00  0.00    -0.246 OA
BRANCH  35  37
ATOM     37  C   UNL     1      -7.895   4.922  -4.562  1.00  0.00     0.060 A 
ATOM     38  C   UNL     1      -7.572   3.559  -4.536  1.00  0.00     0.016 A 
ATOM     39  C   UNL     1      -9.199   5.344  -4.821  1.00  0.00     0.016 A 
ATOM     40  C   UNL     1      -8.556   2.607  -4.795  1.00  0.00     0.010 A 
ATOM     41  C   UNL     1     -10.178   4.389  -5.101  1.00  0.00     0.010 A 
ATOM     42  C   UNL     1      -9.855   3.020  -5.119  1.00  0.00    -0.014 A 
BRANCH  42  43
ATOM     43  C   UNL     1     -10.834   2.049  -5.663  1.00  0.00     0.031 A 
ATOM     44  C   UNL     1     -10.992   1.960  -7.155  1.00  0.00     0.074 A 
ATOM     45  C   UNL     1     -11.580   1.279  -4.853  1.00  0.00     0.049 A 
ATOM     46  N   UNL     1     -11.862   1.284  -7.862  1.00  0.00    -0.248 NA
ATOM     47  C   UNL     1     -10.043   2.746  -7.961  1.00  0.00     0.031 C 
ATOM     48  C   UNL     1     -11.488   1.244  -3.396  1.00  0.00     0.029 A 
ATOM     49  N   UNL     1     -12.585   0.391  -5.150  1.00  0.00    -0.354 N 
ATOM     50  C   UNL     1     -11.575   1.576  -9.188  1.00  0.00     0.074 A 
ATOM     51  C   UNL     1     -10.464   2.502  -9.193  1.00  0.00     0.031 C 
ATOM     52  C   UNL     1     -12.419   0.397  -2.921  1.00  0.00     0.029 A 
ATOM     53  C   UNL     1     -13.196  -0.137  -4.039  1.00  0.00     0.049 A 
ATOM     54  H   UNL     1     -12.843   0.156  -6.071  1.00  0.00     0.167 HD
ATOM     55  C   UNL     1     -12.186   1.111 -10.303  1.00  0.00     0.037 A 
ATOM     56  C   UNL     1     -14.281  -0.931  -3.942  1.00  0.00     0.037 A 
ATOM     57  C   UNL     1     -13.288   0.187 -10.296  1.00  0.00     0.049 A 
ATOM     58  C   UNL     1     -14.987  -1.379  -5.199  1.00  0.00     0.074 A 
ATOM     59  C   UNL     1     -13.962  -0.359 -11.375  1.00  0.00     0.029 A 
ATOM     60  N   UNL     1     -13.882  -0.322  -9.152  1.00  0.00    -0.354 N 
ATOM     61  N   UNL     1     -14.696  -1.121  -6.451  1.00  0.00    -0.248 NA
ATOM     62  C   UNL     1     -16.174  -2.230  -5.028  1.00  0.00     0.031 C 
ATOM     63  C   UNL     1     -14.997  -1.158 -10.882  1.00  0.00     0.029 A 
ATOM     64  C   UNL     1     -14.930  -1.159  -9.498  1.00  0.00     0.049 A 
ATOM     65  H   UNL     1     -13.601  -0.120  -8.230  1.00  0.00     0.167 HD
ATOM     66  C   UNL     1     -15.634  -1.808  -7.213  1.00  0.00     0.074 A 
ATOM     67  C   UNL     1     -16.502  -2.499  -6.284  1.00  0.00     0.031 C 
ATOM     68  C   UNL     1     -15.765  -1.864  -8.561  1.00  0.00     0.037 A 
BRANCH  55  69
ATOM     69  C   UNL     1     -11.696   1.613 -11.628  1.00  0.00     0.064 A 
ATOM     70  C   UNL     1     -10.466   1.202 -12.164  1.00  0.00     0.173 A 
ATOM     71  C   UNL     1     -12.495   2.472 -12.398  1.00  0.00     0.173 A 
ATOM     72  F   UNL     1      -9.660   0.394 -11.460  1.00  0.00    -0.203 F 
ATOM     73  C   UNL     1     -10.048   1.646 -13.415  1.00  0.00     0.198 A 
ATOM     74  C   UNL     1     -12.086   2.891 -13.660  1.00  0.00     0.198 A 
ATOM     75  F   UNL     1     -13.680   2.892 -11.931  1.00  0.00    -0.203 F 
ATOM     76  F   UNL     1      -8.854   1.270 -13.893  1.00  0.00    -0.200 F 
ATOM     77  C   UNL     1     -10.862   2.482 -14.166  1.00  0.00     0.200 A 
ATOM     78  F   UNL     1     -12.880   3.688 -14.389  1.00  0.00    -0.200 F 
ATOM     79  F   UNL     1     -10.465   2.895 -15.378  1.00  0.00    -0.200 F 
ENDBRANCH  55  69
BRANCH  56  80
ATOM     80  C   UNL     1     -14.797  -1.338  -2.607  1.00  0.00     0.064 A 
ATOM     81  C   UNL     1     -14.766  -2.678  -2.196  1.00  0.00     0.173 A 
ATOM     82  C   UNL     1     -15.381  -0.404  -1.737  1.00  0.00     0.173 A 
ATOM     83  F   UNL     1     -14.245  -3.613  -3.004  1.00  0.00    -0.203 F 
ATOM     84  C   UNL     1     -15.327  -3.074  -0.983  1.00  0.00     0.198 A 
ATOM     85  C   UNL     1     -15.913  -0.796  -0.510  1.00  0.00     0.198 A 
ATOM     86  F   UNL     1     -15.443   0.890  -2.083  1.00  0.00    -0.203 F 
ATOM     87  F   UNL     1     -15.342  -4.370  -0.646  1.00  0.00    -0.200 F 
ATOM     88  C   UNL     1     -15.896  -2.132  -0.139  1.00  0.00     0.200 A 
ATOM     89  F   UNL     1     -16.455   0.118   0.305  1.00  0.00    -0.200 F 
ATOM     90  F   UNL     1     -16.443  -2.514   1.023  1.00  0.00    -0.200 F 
ENDBRANCH  56  80
BRANCH  68  91
ATOM     91  C   UNL     1     -16.839  -2.750  -9.124  1.00  0.00     0.064 A 
ATOM     92  C   UNL     1     -18.197  -2.412  -9.041  1.00  0.00     0.173 A 
ATOM     93  C   UNL     1     -16.494  -3.922  -9.815  1.00  0.00     0.173 A 
ATOM     94  F   UNL     1     -18.580  -1.309  -8.381  1.00  0.00    -0.203 F 
ATOM     95  C   UNL     1     -19.172  -3.226  -9.613  1.00  0.00     0.198 A 
ATOM     96  C   UNL     1     -17.468  -4.717 -10.411  1.00  0.00     0.198 A 
ATOM     97  F   UNL     1     -15.208  -4.285  -9.931  1.00  0.00    -0.203 F 
ATOM     98  F   UNL     1     -20.467  -2.906  -9.488  1.00  0.00    -0.200 F 
ATOM     99  C   UNL     1     -18.807  -4.372 -10.305  1.00  0.00     0.200 A 
ATOM    100  F   UNL     1     -17.111  -5.813 -11.094  1.00  0.00    -0.200 F 
ATOM    101  F   UNL     1     -19.746  -5.145 -10.867  1.00  0.00    -0.200 F 
ENDBRANCH  68  91
ENDBRANCH  42  43
ENDBRANCH  35  37
ENDBRANCH  34  35
ENDBRANCH  33  34
ENDBRANCH  32  33
ENDBRANCH  31  32
ENDBRANCH  30  31
ENDBRANCH  29  30
ENDBRANCH  28  29
ENDBRANCH   1  28
TORSDOF 23
