REMARK SMILES O=C(OCCOCCOCCOC(=O)[C@H]1CC2(CC[NH+](C(=O)c3cc4ccccc4[nH]3)CC2)CN1C(=O)C1CC1)c1ccc(-c2c3nc(c(-c4c(F)c(F)c(F)c(F)c4F)c4ccc([nH]4)c(-c4c(F)c(F)c(F)c(F)c4F)c4nc(c(-c5c(F)c(F)c(F)c(F)c5F)c5ccc2[nH]5)C=C4)C=C3)cc1
REMARK SMILES IDX 7 1 6 2 5 3 4 4 3 5 2 6 1 7 41 8 42 9 103 10 43 11 102 12
REMARK SMILES IDX 44 13 45 14 46 15 96 16 47 17 101 18 95 19 97 20 48 21
REMARK SMILES IDX 100 22 94 23 93 24 49 26 81 27 61 28 80 29 62 30 65 31 79 32
REMARK SMILES IDX 98 33 63 34 64 35 78 37 99 38 66 39 50 40 51 41 59 42 52 43
REMARK SMILES IDX 53 44 57 45 60 46 54 47 55 48 58 49 56 50 82 51 83 52 91 53
REMARK SMILES IDX 84 54 85 55 89 56 92 57 86 58 87 59 90 60 88 61 67 62 68 63
REMARK SMILES IDX 76 64 69 65 70 66 74 67 77 68 71 69 72 70 75 71 73 72 8 73
REMARK SMILES IDX 9 74 10 75 11 76 12 77 13 78 14 79 15 80 16 81 35 82 17 83
REMARK SMILES IDX 34 84 18 85 33 86 19 87 32 88 20 89 36 91 37 92 38 93 39 94
REMARK SMILES IDX 40 95 21 96 22 97 23 98 24 99 31 100 25 101 30 102 26 104
REMARK SMILES IDX 29 105 27 106 28 107
REMARK H PARENT 97 25 65 36 20 90 31 103
REMARK Flexibility Score: inf
ROOT
ATOM      1  C   UNL     1      -0.452  -0.216  -8.031  1.00  0.00     0.188 C 
ENDROOT
BRANCH   1   2
ATOM      2  O   UNL     1      -0.954  -1.235  -7.158  1.00  0.00    -0.376 OA
BRANCH   2   3
ATOM      3  C   UNL     1      -2.037  -1.976  -7.695  1.00  0.00     0.202 C 
BRANCH   3   4
ATOM      4  C   UNL     1      -3.410  -1.332  -7.508  1.00  0.00     0.261 C 
BRANCH   4   5
ATOM      5  O   UNL     1      -3.392   0.090  -7.324  1.00  0.00    -0.460 OA
BRANCH   5   6
ATOM      6  C   UNL     1      -3.356   0.840  -6.198  1.00  0.00     0.338 C 
ATOM      7  O   UNL     1      -3.612   2.040  -6.311  1.00  0.00    -0.246 OA
BRANCH   6   8
ATOM      8  C   UNL     1      -2.965   0.354  -4.831  1.00  0.00     0.060 A 
ATOM      9  C   UNL     1      -3.035  -0.956  -4.349  1.00  0.00     0.016 A 
ATOM     10  C   UNL     1      -2.528   1.349  -3.929  1.00  0.00     0.016 A 
ATOM     11  C   UNL     1      -2.631  -1.271  -3.038  1.00  0.00     0.010 A 
ATOM     12  C   UNL     1      -2.133   1.045  -2.617  1.00  0.00     0.010 A 
ATOM     13  C   UNL     1      -2.171  -0.275  -2.164  1.00  0.00    -0.014 A 
BRANCH  13  14
ATOM     14  C   UNL     1      -2.010  -0.562  -0.715  1.00  0.00     0.031 A 
ATOM     15  C   UNL     1      -3.262  -0.583   0.100  1.00  0.00     0.074 A 
ATOM     16  C   UNL     1      -0.820  -0.771  -0.122  1.00  0.00     0.049 A 
ATOM     17  N   UNL     1      -3.427  -0.851   1.367  1.00  0.00    -0.248 NA
ATOM     18  C   UNL     1      -4.503  -0.261  -0.624  1.00  0.00     0.031 C 
ATOM     19  C   UNL     1       0.460  -0.769  -0.808  1.00  0.00     0.029 A 
ATOM     20  N   UNL     1      -0.484  -1.016   1.188  1.00  0.00    -0.354 N 
ATOM     21  C   UNL     1      -4.793  -0.764   1.581  1.00  0.00     0.074 A 
ATOM     22  C   UNL     1      -5.409  -0.392   0.327  1.00  0.00     0.031 C 
ATOM     23  C   UNL     1       1.448  -1.016   0.068  1.00  0.00     0.029 A 
ATOM     24  C   UNL     1       0.871  -1.132   1.403  1.00  0.00     0.049 A 
ATOM     25  H   UNL     1      -1.151  -1.101   1.907  1.00  0.00     0.167 HD
ATOM     26  C   UNL     1      -5.477  -0.961   2.728  1.00  0.00     0.037 A 
ATOM     27  C   UNL     1       1.563  -1.280   2.552  1.00  0.00     0.037 A 
ATOM     28  C   UNL     1      -4.851  -1.177   3.998  1.00  0.00     0.049 A 
ATOM     29  C   UNL     1       0.791  -1.356   3.846  1.00  0.00     0.074 A 
ATOM     30  C   UNL     1      -5.436  -1.283   5.244  1.00  0.00     0.029 A 
ATOM     31  N   UNL     1      -3.477  -1.263   4.183  1.00  0.00    -0.354 N 
ATOM     32  N   UNL     1      -0.507  -1.339   4.031  1.00  0.00    -0.248 NA
ATOM     33  C   UNL     1       1.570  -1.463   5.088  1.00  0.00     0.031 C 
ATOM     34  C   UNL     1      -4.410  -1.371   6.192  1.00  0.00     0.029 A 
ATOM     35  C   UNL     1      -3.191  -1.388   5.530  1.00  0.00     0.049 A 
ATOM     36  H   UNL     1      -2.807  -1.239   3.462  1.00  0.00     0.167 HD
ATOM     37  C   UNL     1      -0.704  -1.467   5.398  1.00  0.00     0.074 A 
ATOM     38  C   UNL     1       0.611  -1.559   6.000  1.00  0.00     0.031 C 
ATOM     39  C   UNL     1      -1.868  -1.509   6.092  1.00  0.00     0.037 A 
BRANCH  26  40
ATOM     40  C   UNL     1      -6.964  -0.833   2.618  1.00  0.00     0.064 A 
ATOM     41  C   UNL     1      -7.725  -1.793   1.930  1.00  0.00     0.173 A 
ATOM     42  C   UNL     1      -7.608   0.331   3.058  1.00  0.00     0.173 A 
ATOM     43  F   UNL     1      -7.140  -2.902   1.452  1.00  0.00    -0.203 F 
ATOM     44  C   UNL     1      -9.065  -1.562   1.636  1.00  0.00     0.198 A 
ATOM     45  C   UNL     1      -8.955   0.545   2.785  1.00  0.00     0.198 A 
ATOM     46  F   UNL     1      -6.917   1.284   3.701  1.00  0.00    -0.203 F 
ATOM     47  F   UNL     1      -9.747  -2.443   0.892  1.00  0.00    -0.200 F 
ATOM     48  C   UNL     1      -9.677  -0.391   2.059  1.00  0.00     0.200 A 
ATOM     49  F   UNL     1      -9.544   1.680   3.185  1.00  0.00    -0.200 F 
ATOM     50  F   UNL     1     -10.956  -0.150   1.739  1.00  0.00    -0.200 F 
ENDBRANCH  26  40
BRANCH  27  51
ATOM     51  C   UNL     1       3.054  -1.336   2.542  1.00  0.00     0.064 A 
ATOM     52  C   UNL     1       3.741  -2.500   2.917  1.00  0.00     0.173 A 
ATOM     53  C   UNL     1       3.826  -0.223   2.175  1.00  0.00     0.173 A 
ATOM     54  F   UNL     1       3.057  -3.589   3.295  1.00  0.00    -0.203 F 
ATOM     55  C   UNL     1       5.137  -2.543   2.940  1.00  0.00     0.198 A 
ATOM     56  C   UNL     1       5.220  -0.275   2.172  1.00  0.00     0.198 A 
ATOM     57  F   UNL     1       3.227   0.918   1.803  1.00  0.00    -0.203 F 
ATOM     58  F   UNL     1       5.764  -3.658   3.338  1.00  0.00    -0.200 F 
ATOM     59  C   UNL     1       5.875  -1.432   2.562  1.00  0.00     0.200 A 
ATOM     60  F   UNL     1       5.927   0.795   1.784  1.00  0.00    -0.200 F 
ATOM     61  F   UNL     1       7.214  -1.477   2.576  1.00  0.00    -0.200 F 
ENDBRANCH  27  51
BRANCH  39  62
ATOM     62  C   UNL     1      -1.791  -1.725   7.573  1.00  0.00     0.064 A 
ATOM     63  C   UNL     1      -1.420  -0.700   8.452  1.00  0.00     0.173 A 
ATOM     64  C   UNL     1      -2.222  -2.944   8.119  1.00  0.00     0.173 A 
ATOM     65  F   UNL     1      -0.988   0.477   7.974  1.00  0.00    -0.203 F 
ATOM     66  C   UNL     1      -1.489  -0.886   9.830  1.00  0.00     0.198 A 
ATOM     67  C   UNL     1      -2.316  -3.116   9.495  1.00  0.00     0.198 A 
ATOM     68  F   UNL     1      -2.592  -3.952   7.314  1.00  0.00    -0.203 F 
ATOM     69  F   UNL     1      -1.119   0.102  10.657  1.00  0.00    -0.200 F 
ATOM     70  C   UNL     1      -1.952  -2.087  10.349  1.00  0.00     0.200 A 
ATOM     71  F   UNL     1      -2.779  -4.271   9.994  1.00  0.00    -0.200 F 
ATOM     72  F   UNL     1      -2.050  -2.251  11.676  1.00  0.00    -0.200 F 
ENDBRANCH  39  62
ENDBRANCH  13  14
ENDBRANCH   6   8
ENDBRANCH   5   6
ENDBRANCH   4   5
ENDBRANCH   3   4
ENDBRANCH   2   3
ENDBRANCH   1   2
BRANCH   1  73
ATOM     73  C   UNL     1       1.076  -0.274  -8.044  1.00  0.00     0.188 C 
BRANCH  73  74
ATOM     74  O   UNL     1       1.585  -1.308  -8.895  1.00  0.00    -0.376 OA
BRANCH  74  75
ATOM     75  C   UNL     1       1.676  -2.606  -8.308  1.00  0.00     0.202 C 
BRANCH  75  76
ATOM     76  C   UNL     1       3.082  -2.939  -7.785  1.00  0.00     0.261 C 
BRANCH  76  77
ATOM     77  O   UNL     1       3.283  -2.483  -6.435  1.00  0.00    -0.462 OA
BRANCH  77  78
ATOM     78  C   UNL     1       3.668  -1.195  -6.269  1.00  0.00     0.328 C 
ATOM     79  O   UNL     1       3.964  -0.446  -7.191  1.00  0.00    -0.250 OA
BRANCH  78  80
ATOM     80  C   UNL     1       3.602  -0.800  -4.779  1.00  0.00     0.195 C 
ATOM     81  C   UNL     1       4.668   0.315  -4.617  1.00  0.00     0.046 C 
ATOM     82  N   UNL     1       2.387  -0.134  -4.323  1.00  0.00    -0.328 N 
ATOM     83  C   UNL     1       4.163   1.302  -3.551  1.00  0.00     0.001 C 
ATOM     84  C   UNL     1       2.672   1.015  -3.476  1.00  0.00     0.128 C 
ATOM     85  C   UNL     1       4.339   2.776  -3.975  1.00  0.00     0.071 C 
ATOM     86  C   UNL     1       4.886   1.089  -2.205  1.00  0.00     0.071 C 
ATOM     87  C   UNL     1       5.803   3.162  -4.066  1.00  0.00     0.271 C 
ATOM     88  C   UNL     1       6.344   1.565  -2.252  1.00  0.00     0.271 C 
ATOM     89  N   UNL     1       6.460   2.923  -2.782  1.00  0.00    -0.266 N 
ATOM     90  H   UNL     1       7.030   3.479  -2.204  1.00  0.00     0.357 HD
BRANCH  82  91
ATOM     91  C   UNL     1       1.056  -0.479  -4.392  1.00  0.00     0.226 C 
ATOM     92  O   UNL     1       0.233   0.423  -4.240  1.00  0.00    -0.275 OA
BRANCH  91  93
ATOM     93  C   UNL     1       0.487  -1.838  -4.544  1.00  0.00     0.079 C 
ATOM     94  C   UNL     1       1.008  -3.213  -4.787  1.00  0.00     0.014 C 
ATOM     95  C   UNL     1       0.643  -2.823  -3.399  1.00  0.00     0.014 C 
ENDBRANCH  91  93
ENDBRANCH  82  91
BRANCH  89  96
ATOM     96  C   UNL     1       7.374   3.799  -2.192  1.00  0.00     0.360 C 
ATOM     97  O   UNL     1       8.072   3.464  -1.238  1.00  0.00    -0.224 OA
BRANCH  96  98
ATOM     98  C   UNL     1       7.478   5.116  -2.775  1.00  0.00     0.145 A 
ATOM     99  C   UNL     1       8.567   5.693  -3.399  1.00  0.00     0.046 A 
ATOM    100  N   UNL     1       6.474   6.058  -2.774  1.00  0.00    -0.347 N 
ATOM    101  C   UNL     1       8.175   6.968  -3.886  1.00  0.00     0.000 A 
ATOM    102  C   UNL     1       6.853   7.170  -3.491  1.00  0.00     0.046 A 
ATOM    103  H   UNL     1       5.606   5.951  -2.322  1.00  0.00     0.167 HD
ATOM    104  C   UNL     1       8.820   7.968  -4.637  1.00  0.00     0.010 A 
ATOM    105  C   UNL     1       6.136   8.328  -3.815  1.00  0.00     0.026 A 
ATOM    106  C   UNL     1       8.118   9.131  -4.972  1.00  0.00     0.001 A 
ATOM    107  C   UNL     1       6.796   9.305  -4.567  1.00  0.00     0.002 A 
ENDBRANCH  96  98
ENDBRANCH  89  96
ENDBRANCH  78  80
ENDBRANCH  77  78
ENDBRANCH  76  77
ENDBRANCH  75  76
ENDBRANCH  74  75
ENDBRANCH  73  74
ENDBRANCH   1  73
TORSDOF 21
