REMARK SMILES C=CC[N@H+](CC(=O)OCCOCCOCCOC(=O)c1ccc(-c2c3nc(c(-c4c(F)c(F)c(F)c(F)c4F)c4ccc([nH]4)c(-c4c(F)c(F)c(F)c(F)c4F)c4nc(c(-c5c(F)c(F)c(F)c(F)c5F)c5ccc2[nH]5)C=C4)C=C3)cc1)C1CCSCC1
REMARK SMILES IDX 12 1 11 2 10 3 9 4 8 5 6 6 7 7 5 8 4 9 3 11 2 12 1 13 83 14
REMARK SMILES IDX 84 15 88 16 85 17 87 18 86 19 13 20 14 21 15 22 16 23 17 24
REMARK SMILES IDX 18 25 19 26 20 27 21 28 82 29 22 30 81 31 23 32 24 33 25 34
REMARK SMILES IDX 75 35 26 36 80 37 74 38 76 39 27 40 79 41 73 42 72 43 28 45
REMARK SMILES IDX 60 46 40 47 59 48 41 49 44 50 58 51 77 52 42 53 43 54 57 56
REMARK SMILES IDX 78 57 45 58 29 59 30 60 38 61 31 62 32 63 36 64 39 65 33 66
REMARK SMILES IDX 34 67 37 68 35 69 61 70 62 71 70 72 63 73 64 74 68 75 71 76
REMARK SMILES IDX 65 77 66 78 69 79 67 80 46 81 47 82 55 83 48 84 49 85 53 86
REMARK SMILES IDX 56 87 50 88 51 89 54 90 52 91
REMARK H PARENT 4 10 76 44 44 55
REMARK Flexibility Score: inf
ROOT
ATOM      1  C   UNL     1      -4.344  -1.770   2.521  1.00  0.00     0.188 C 
ENDROOT
BRANCH   1   2
ATOM      2  O   UNL     1      -4.898  -2.673   1.573  1.00  0.00    -0.376 OA
BRANCH   2   3
ATOM      3  C   UNL     1      -4.550  -2.510   0.198  1.00  0.00     0.202 C 
BRANCH   3   4
ATOM      4  C   UNL     1      -4.866  -1.141  -0.408  1.00  0.00     0.261 C 
BRANCH   4   5
ATOM      5  O   UNL     1      -3.830  -0.204  -0.063  1.00  0.00    -0.459 OA
BRANCH   5   6
ATOM      6  C   UNL     1      -4.164   1.113  -0.041  1.00  0.00     0.361 C 
ATOM      7  O   UNL     1      -5.269   1.542  -0.357  1.00  0.00    -0.245 OA
BRANCH   6   8
ATOM      8  C   UNL     1      -3.062   2.016   0.547  1.00  0.00     0.387 C 
BRANCH   8   9
ATOM      9  N   UNL     1      -1.705   1.433   0.539  1.00  0.00    -0.320 N 
ATOM     10  H   UNL     1      -1.854   0.518   0.964  1.00  0.00     0.349 HD
BRANCH   9  11
ATOM     11  C   UNL     1      -1.218   1.137  -0.814  1.00  0.00     0.291 C 
BRANCH  11  12
ATOM     12  C   UNL     1       0.209   1.473  -1.146  1.00  0.00     0.025 C 
ATOM     13  C   UNL     1       1.114   0.565  -1.542  1.00  0.00     0.010 C 
ENDBRANCH  11  12
ENDBRANCH   9  11
BRANCH   9  14
ATOM     14  C   UNL     1      -0.738   1.742   1.620  1.00  0.00     0.186 C 
ATOM     15  C   UNL     1       0.138   0.494   1.888  1.00  0.00     0.076 C 
ATOM     16  C   UNL     1      -1.370   2.288   2.912  1.00  0.00     0.076 C 
ATOM     17  C   UNL     1       0.818   0.243   3.232  1.00  0.00     0.075 C 
ATOM     18  C   UNL     1      -0.325   2.675   3.943  1.00  0.00     0.075 C 
ATOM     19  S   UNL     1       0.427   1.227   4.694  1.00  0.00    -0.162 SA
ENDBRANCH   9  14
ENDBRANCH   8   9
ENDBRANCH   6   8
ENDBRANCH   5   6
ENDBRANCH   4   5
ENDBRANCH   3   4
ENDBRANCH   2   3
ENDBRANCH   1   2
BRANCH   1  20
ATOM     20  C   UNL     1      -2.844  -1.468   2.446  1.00  0.00     0.188 C 
BRANCH  20  21
ATOM     21  O   UNL     1      -1.988  -2.433   1.851  1.00  0.00    -0.376 OA
BRANCH  21  22
ATOM     22  C   UNL     1      -1.949  -3.712   2.474  1.00  0.00     0.202 C 
BRANCH  22  23
ATOM     23  C   UNL     1      -1.176  -3.719   3.790  1.00  0.00     0.261 C 
BRANCH  23  24
ATOM     24  O   UNL     1      -1.887  -2.954   4.773  1.00  0.00    -0.460 OA
BRANCH  24  25
ATOM     25  C   UNL     1      -1.288  -2.908   5.985  1.00  0.00     0.338 C 
ATOM     26  O   UNL     1      -0.361  -3.596   6.367  1.00  0.00    -0.246 OA
BRANCH  25  27
ATOM     27  C   UNL     1      -1.916  -1.841   6.795  1.00  0.00     0.060 A 
ATOM     28  C   UNL     1      -2.171  -0.585   6.237  1.00  0.00     0.016 A 
ATOM     29  C   UNL     1      -2.128  -2.049   8.156  1.00  0.00     0.016 A 
ATOM     30  C   UNL     1      -2.576   0.479   7.036  1.00  0.00     0.010 A 
ATOM     31  C   UNL     1      -2.581  -0.993   8.954  1.00  0.00     0.010 A 
ATOM     32  C   UNL     1      -2.770   0.290   8.407  1.00  0.00    -0.014 A 
BRANCH  32  33
ATOM     33  C   UNL     1      -3.014   1.455   9.293  1.00  0.00     0.031 A 
ATOM     34  C   UNL     1      -1.968   1.826  10.305  1.00  0.00     0.074 A 
ATOM     35  C   UNL     1      -4.121   2.211   9.173  1.00  0.00     0.049 A 
ATOM     36  N   UNL     1      -2.054   2.623  11.339  1.00  0.00    -0.248 NA
ATOM     37  C   UNL     1      -0.645   1.204  10.132  1.00  0.00     0.031 C 
ATOM     38  C   UNL     1      -5.162   2.037   8.161  1.00  0.00     0.029 A 
ATOM     39  N   UNL     1      -4.548   3.288   9.910  1.00  0.00    -0.354 N 
ATOM     40  C   UNL     1      -0.827   2.534  11.984  1.00  0.00     0.074 A 
ATOM     41  C   UNL     1      -0.004   1.628  11.211  1.00  0.00     0.031 C 
ATOM     42  C   UNL     1      -6.094   2.990   8.324  1.00  0.00     0.029 A 
ATOM     43  C   UNL     1      -5.761   3.784   9.504  1.00  0.00     0.049 A 
ATOM     44  H   UNL     1      -4.032   3.667  10.658  1.00  0.00     0.167 HD
ATOM     45  C   UNL     1      -0.436   3.143  13.128  1.00  0.00     0.037 A 
ATOM     46  C   UNL     1      -6.538   4.737  10.053  1.00  0.00     0.037 A 
ATOM     47  C   UNL     1      -1.245   4.090  13.851  1.00  0.00     0.049 A 
ATOM     48  C   UNL     1      -6.090   5.398  11.329  1.00  0.00     0.074 A 
ATOM     49  C   UNL     1      -0.976   4.730  15.047  1.00  0.00     0.029 A 
ATOM     50  N   UNL     1      -2.477   4.557  13.415  1.00  0.00    -0.354 N 
ATOM     51  N   UNL     1      -4.993   5.205  12.021  1.00  0.00    -0.248 NA
ATOM     52  C   UNL     1      -7.003   6.389  11.916  1.00  0.00     0.031 C 
ATOM     53  C   UNL     1      -2.054   5.573  15.344  1.00  0.00     0.029 A 
ATOM     54  C   UNL     1      -2.976   5.486  14.313  1.00  0.00     0.049 A 
ATOM     55  H   UNL     1      -2.930   4.270  12.590  1.00  0.00     0.167 HD
ATOM     56  C   UNL     1      -5.080   6.050  13.119  1.00  0.00     0.074 A 
ATOM     57  C   UNL     1      -6.325   6.778  12.986  1.00  0.00     0.031 C 
ATOM     58  C   UNL     1      -4.215   6.200  14.153  1.00  0.00     0.037 A 
BRANCH  45  59
ATOM     59  C   UNL     1       0.895   2.751  13.697  1.00  0.00     0.064 A 
ATOM     60  C   UNL     1       2.105   3.163  13.121  1.00  0.00     0.173 A 
ATOM     61  C   UNL     1       0.955   1.944  14.844  1.00  0.00     0.173 A 
ATOM     62  F   UNL     1       2.103   3.916  12.011  1.00  0.00    -0.203 F 
ATOM     63  C   UNL     1       3.326   2.759  13.657  1.00  0.00     0.198 A 
ATOM     64  C   UNL     1       2.177   1.566  15.394  1.00  0.00     0.198 A 
ATOM     65  F   UNL     1      -0.173   1.523  15.435  1.00  0.00    -0.203 F 
ATOM     66  F   UNL     1       4.471   3.122  13.062  1.00  0.00    -0.200 F 
ATOM     67  C   UNL     1       3.361   1.966  14.795  1.00  0.00     0.200 A 
ATOM     68  F   UNL     1       2.207   0.807  16.498  1.00  0.00    -0.200 F 
ATOM     69  F   UNL     1       4.537   1.580  15.310  1.00  0.00    -0.200 F 
ENDBRANCH  45  59
BRANCH  46  70
ATOM     70  C   UNL     1      -7.839   5.090   9.425  1.00  0.00     0.064 A 
ATOM     71  C   UNL     1      -8.039   6.346   8.836  1.00  0.00     0.173 A 
ATOM     72  C   UNL     1      -8.907   4.180   9.399  1.00  0.00     0.173 A 
ATOM     73  F   UNL     1      -7.059   7.261   8.861  1.00  0.00    -0.203 F 
ATOM     74  C   UNL     1      -9.259   6.680   8.251  1.00  0.00     0.198 A 
ATOM     75  C   UNL     1     -10.115   4.504   8.786  1.00  0.00     0.198 A 
ATOM     76  F   UNL     1      -8.770   2.967   9.953  1.00  0.00    -0.203 F 
ATOM     77  F   UNL     1      -9.437   7.902   7.730  1.00  0.00    -0.200 F 
ATOM     78  C   UNL     1     -10.293   5.756   8.218  1.00  0.00     0.200 A 
ATOM     79  F   UNL     1     -11.106   3.603   8.745  1.00  0.00    -0.200 F 
ATOM     80  F   UNL     1     -11.461   6.075   7.645  1.00  0.00    -0.200 F 
ENDBRANCH  46  70
BRANCH  58  81
ATOM     81  C   UNL     1      -4.580   7.212  15.197  1.00  0.00     0.064 A 
ATOM     82  C   UNL     1      -5.592   6.965  16.135  1.00  0.00     0.173 A 
ATOM     83  C   UNL     1      -3.898   8.436  15.267  1.00  0.00     0.173 A 
ATOM     84  F   UNL     1      -6.282   5.815  16.097  1.00  0.00    -0.203 F 
ATOM     85  C   UNL     1      -5.931   7.922  17.088  1.00  0.00     0.198 A 
ATOM     86  C   UNL     1      -4.224   9.380  16.236  1.00  0.00     0.198 A 
ATOM     87  F   UNL     1      -2.919   8.715  14.394  1.00  0.00    -0.203 F 
ATOM     88  F   UNL     1      -6.936   7.687  17.943  1.00  0.00    -0.200 F 
ATOM     89  C   UNL     1      -5.245   9.126  17.140  1.00  0.00     0.200 A 
ATOM     90  F   UNL     1      -3.556  10.541  16.289  1.00  0.00    -0.200 F 
ATOM     91  F   UNL     1      -5.576  10.048  18.054  1.00  0.00    -0.200 F 
ENDBRANCH  58  81
ENDBRANCH  32  33
ENDBRANCH  25  27
ENDBRANCH  24  25
ENDBRANCH  23  24
ENDBRANCH  22  23
ENDBRANCH  21  22
ENDBRANCH  20  21
ENDBRANCH   1  20
TORSDOF 21
