REMARK SMILES COc1ccc(CNC(=O)[C@H]2CC(C)=C(C)C[C@@H]2C(=O)OCCOCCOCCOC(=O)c2ccc(-c3c4nc(c(-c5c(F)c(F)c(F)c(F)c5F)c5ccc([nH]5)c(-c5c(F)c(F)c(F)c(F)c5F)c5nc(c(-c6c(F)c(F)c(F)c(F)c6F)c6ccc3[nH]6)C=C5)C=C4)cc2)cc1OC
REMARK SMILES IDX 25 1 24 2 23 3 22 4 21 5 19 6 20 7 18 8 11 9 12 10 13 11
REMARK SMILES IDX 17 12 14 13 15 14 16 15 9 16 8 17 10 19 7 20 6 21 3 22 4 23
REMARK SMILES IDX 97 24 5 25 96 26 2 27 1 28 98 29 99 30 26 31 27 32 28 33
REMARK SMILES IDX 29 34 30 35 31 36 32 37 33 38 34 39 95 40 35 41 94 42 36 43
REMARK SMILES IDX 37 44 38 45 88 46 39 47 93 48 87 49 89 50 40 51 92 52 86 53
REMARK SMILES IDX 85 54 41 56 73 57 53 58 72 59 54 60 57 61 71 62 90 63 55 64
REMARK SMILES IDX 56 65 70 67 91 68 58 69 42 70 43 71 51 72 44 73 45 74 49 75
REMARK SMILES IDX 52 76 46 77 47 78 50 79 48 80 74 81 75 82 83 83 76 84 77 85
REMARK SMILES IDX 81 86 84 87 78 88 79 89 82 90 80 91 59 92 60 93 68 94 61 95
REMARK SMILES IDX 62 96 66 97 69 98 63 99 64 100 67 101 65 102
REMARK H PARENT 8 18 89 55 57 66
REMARK Flexibility Score: inf
ROOT
ATOM      1  C   UNL     1      -1.518  -6.382  11.310  1.00  0.00     0.188 C 
ENDROOT
BRANCH   1   2
ATOM      2  O   UNL     1      -2.127  -5.520  12.264  1.00  0.00    -0.376 OA
BRANCH   2   3
ATOM      3  C   UNL     1      -2.951  -4.454  11.827  1.00  0.00     0.202 C 
BRANCH   3   4
ATOM      4  C   UNL     1      -2.312  -3.368  10.962  1.00  0.00     0.261 C 
BRANCH   4   5
ATOM      5  O   UNL     1      -1.508  -3.833   9.866  1.00  0.00    -0.463 OA
BRANCH   5   6
ATOM      6  C   UNL     1      -0.159  -3.801  10.052  1.00  0.00     0.310 C 
ATOM      7  O   UNL     1       0.395  -3.618  11.129  1.00  0.00    -0.252 OA
BRANCH   6   8
ATOM      8  C   UNL     1       0.611  -4.024   8.755  1.00  0.00     0.116 C 
ATOM      9  C   UNL     1       0.038  -3.097   7.675  1.00  0.00     0.097 C 
ATOM     10  C   UNL     1      -0.510  -3.748   6.407  1.00  0.00     0.045 C 
ATOM     11  C   UNL     1      -0.262  -5.212   6.165  1.00  0.00    -0.074 C 
ATOM     12  C   UNL     1       0.828  -5.501   8.400  1.00  0.00     0.046 C 
ATOM     13  C   UNL     1      -0.659  -5.662   4.777  1.00  0.00     0.039 C 
ATOM     14  C   UNL     1       0.280  -6.020   7.094  1.00  0.00    -0.073 C 
ATOM     15  C   UNL     1       0.403  -7.511   6.887  1.00  0.00     0.039 C 
BRANCH   9  16
ATOM     16  C   UNL     1       0.989  -1.909   7.588  1.00  0.00     0.224 C 
ATOM     17  N   UNL     1       2.061  -1.853   6.773  1.00  0.00    -0.352 N 
ATOM     18  H   UNL     1       2.741  -1.192   7.040  1.00  0.00     0.163 HD
ATOM     19  O   UNL     1       0.866  -0.987   8.402  1.00  0.00    -0.275 OA
BRANCH  17  20
ATOM     20  C   UNL     1       2.385  -2.591   5.579  1.00  0.00     0.151 C 
BRANCH  20  21
ATOM     21  C   UNL     1       1.963  -1.820   4.349  1.00  0.00    -0.025 A 
ATOM     22  C   UNL     1       1.280  -0.354   2.037  1.00  0.00     0.160 A 
ATOM     23  C   UNL     1       0.384  -0.441   3.104  1.00  0.00     0.051 A 
ATOM     24  C   UNL     1       2.523  -0.993   2.114  1.00  0.00     0.161 A 
ATOM     25  C   UNL     1       0.731  -1.154   4.252  1.00  0.00     0.009 A 
ATOM     26  C   UNL     1       2.835  -1.742   3.259  1.00  0.00     0.056 A 
BRANCH  22  27
ATOM     27  O   UNL     1       0.951   0.491   1.013  1.00  0.00    -0.493 OA
ATOM     28  C   UNL     1       0.053  -0.113   0.083  1.00  0.00     0.278 C 
ENDBRANCH  22  27
BRANCH  24  29
ATOM     29  O   UNL     1       3.556  -0.977   1.218  1.00  0.00    -0.493 OA
ATOM     30  C   UNL     1       3.352  -0.359  -0.039  1.00  0.00     0.278 C 
ENDBRANCH  24  29
ENDBRANCH  20  21
ENDBRANCH  17  20
ENDBRANCH   9  16
ENDBRANCH   6   8
ENDBRANCH   5   6
ENDBRANCH   4   5
ENDBRANCH   3   4
ENDBRANCH   2   3
ENDBRANCH   1   2
BRANCH   1  31
ATOM     31  C   UNL     1      -2.208  -6.674   9.958  1.00  0.00     0.188 C 
BRANCH  31  32
ATOM     32  O   UNL     1      -3.599  -6.438  10.003  1.00  0.00    -0.376 OA
BRANCH  32  33
ATOM     33  C   UNL     1      -4.453  -7.551   9.863  1.00  0.00     0.202 C 
BRANCH  33  34
ATOM     34  C   UNL     1      -4.381  -8.655  10.931  1.00  0.00     0.261 C 
BRANCH  34  35
ATOM     35  O   UNL     1      -3.086  -8.965  11.478  1.00  0.00    -0.460 OA
BRANCH  35  36
ATOM     36  C   UNL     1      -2.305  -9.837  10.806  1.00  0.00     0.338 C 
ATOM     37  O   UNL     1      -2.558 -10.371   9.736  1.00  0.00    -0.246 OA
BRANCH  36  38
ATOM     38  C   UNL     1      -0.987  -9.925  11.484  1.00  0.00     0.060 A 
ATOM     39  C   UNL     1       0.164  -9.535  10.785  1.00  0.00     0.016 A 
ATOM     40  C   UNL     1      -0.876 -10.393  12.795  1.00  0.00     0.016 A 
ATOM     41  C   UNL     1       1.428  -9.643  11.378  1.00  0.00     0.010 A 
ATOM     42  C   UNL     1       0.392 -10.521  13.381  1.00  0.00     0.010 A 
ATOM     43  C   UNL     1       1.556 -10.177  12.668  1.00  0.00    -0.014 A 
BRANCH  43  44
ATOM     44  C   UNL     1       2.896 -10.555  13.200  1.00  0.00     0.031 A 
ATOM     45  C   UNL     1       3.317 -12.001  13.122  1.00  0.00     0.074 A 
ATOM     46  C   UNL     1       3.736  -9.652  13.739  1.00  0.00     0.049 A 
ATOM     47  N   UNL     1       4.382 -12.591  13.604  1.00  0.00    -0.248 NA
ATOM     48  C   UNL     1       2.405 -12.902  12.400  1.00  0.00     0.031 C 
ATOM     49  C   UNL     1       3.490  -8.217  13.837  1.00  0.00     0.029 A 
ATOM     50  N   UNL     1       4.970  -9.823  14.326  1.00  0.00    -0.354 N 
ATOM     51  C   UNL     1       4.267 -13.929  13.246  1.00  0.00     0.074 A 
ATOM     52  C   UNL     1       3.011 -14.071  12.540  1.00  0.00     0.031 C 
ATOM     53  C   UNL     1       4.528  -7.639  14.469  1.00  0.00     0.029 A 
ATOM     54  C   UNL     1       5.495  -8.667  14.854  1.00  0.00     0.049 A 
ATOM     55  H   UNL     1       5.434 -10.691  14.363  1.00  0.00     0.167 HD
ATOM     56  C   UNL     1       5.131 -14.947  13.473  1.00  0.00     0.037 A 
ATOM     57  C   UNL     1       6.607  -8.470  15.592  1.00  0.00     0.037 A 
ATOM     58  C   UNL     1       6.375 -14.819  14.186  1.00  0.00     0.049 A 
ATOM     59  C   UNL     1       7.505  -9.641  15.921  1.00  0.00     0.074 A 
ATOM     60  C   UNL     1       7.310 -15.798  14.476  1.00  0.00     0.029 A 
ATOM     61  N   UNL     1       6.856 -13.636  14.728  1.00  0.00    -0.354 N 
ATOM     62  N   UNL     1       7.395 -10.899  15.571  1.00  0.00    -0.248 NA
ATOM     63  C   UNL     1       8.688  -9.358  16.751  1.00  0.00     0.031 C 
ATOM     64  C   UNL     1       8.330 -15.220  15.238  1.00  0.00     0.029 A 
ATOM     65  C   UNL     1       8.064 -13.867  15.367  1.00  0.00     0.049 A 
ATOM     66  H   UNL     1       6.406 -12.763  14.668  1.00  0.00     0.167 HD
ATOM     67  C   UNL     1       8.507 -11.545  16.101  1.00  0.00     0.074 A 
ATOM     68  C   UNL     1       9.289 -10.539  16.785  1.00  0.00     0.031 C 
ATOM     69  C   UNL     1       8.849 -12.856  16.028  1.00  0.00     0.037 A 
BRANCH  56  70
ATOM     70  C   UNL     1       4.750 -16.306  12.957  1.00  0.00     0.064 A 
ATOM     71  C   UNL     1       4.740 -16.593  11.583  1.00  0.00     0.173 A 
ATOM     72  C   UNL     1       4.430 -17.343  13.846  1.00  0.00     0.173 A 
ATOM     73  F   UNL     1       5.025 -15.634  10.690  1.00  0.00    -0.203 F 
ATOM     74  C   UNL     1       4.396 -17.860  11.119  1.00  0.00     0.198 A 
ATOM     75  C   UNL     1       4.120 -18.617  13.380  1.00  0.00     0.198 A 
ATOM     76  F   UNL     1       4.430 -17.124  15.169  1.00  0.00    -0.203 F 
ATOM     77  F   UNL     1       4.345 -18.098   9.801  1.00  0.00    -0.200 F 
ATOM     78  C   UNL     1       4.095 -18.873  12.017  1.00  0.00     0.200 A 
ATOM     79  F   UNL     1       3.844 -19.599  14.250  1.00  0.00    -0.200 F 
ATOM     80  F   UNL     1       3.775 -20.095  11.569  1.00  0.00    -0.200 F 
ENDBRANCH  56  70
BRANCH  57  81
ATOM     81  C   UNL     1       6.937  -7.112  16.110  1.00  0.00     0.064 A 
ATOM     82  C   UNL     1       8.092  -6.434  15.691  1.00  0.00     0.173 A 
ATOM     83  C   UNL     1       6.142  -6.495  17.088  1.00  0.00     0.173 A 
ATOM     84  F   UNL     1       8.906  -6.996  14.785  1.00  0.00    -0.203 F 
ATOM     85  C   UNL     1       8.455  -5.211  16.253  1.00  0.00     0.198 A 
ATOM     86  C   UNL     1       6.487  -5.255  17.623  1.00  0.00     0.198 A 
ATOM     87  F   UNL     1       5.034  -7.103  17.536  1.00  0.00    -0.203 F 
ATOM     88  F   UNL     1       9.602  -4.623  15.886  1.00  0.00    -0.200 F 
ATOM     89  C   UNL     1       7.650  -4.620  17.214  1.00  0.00     0.200 A 
ATOM     90  F   UNL     1       5.703  -4.685  18.548  1.00  0.00    -0.200 F 
ATOM     91  F   UNL     1       8.005  -3.449  17.761  1.00  0.00    -0.200 F 
ENDBRANCH  57  81
BRANCH  69  92
ATOM     92  C   UNL     1      10.154 -13.274  16.651  1.00  0.00     0.064 A 
ATOM     93  C   UNL     1      10.345 -13.290  18.040  1.00  0.00     0.173 A 
ATOM     94  C   UNL     1      11.218 -13.704  15.841  1.00  0.00     0.173 A 
ATOM     95  F   UNL     1       9.366 -12.879  18.861  1.00  0.00    -0.203 F 
ATOM     96  C   UNL     1      11.560 -13.688  18.594  1.00  0.00     0.198 A 
ATOM     97  C   UNL     1      12.419 -14.135  16.399  1.00  0.00     0.198 A 
ATOM     98  F   UNL     1      11.089 -13.721  14.506  1.00  0.00    -0.203 F 
ATOM     99  F   UNL     1      11.736 -13.642  19.922  1.00  0.00    -0.200 F 
ATOM    100  C   UNL     1      12.593 -14.117  17.774  1.00  0.00     0.200 A 
ATOM    101  F   UNL     1      13.409 -14.567  15.605  1.00  0.00    -0.200 F 
ATOM    102  F   UNL     1      13.758 -14.508  18.309  1.00  0.00    -0.200 F 
ENDBRANCH  69  92
ENDBRANCH  43  44
ENDBRANCH  36  38
ENDBRANCH  35  36
ENDBRANCH  34  35
ENDBRANCH  33  34
ENDBRANCH  32  33
ENDBRANCH  31  32
ENDBRANCH   1  31
TORSDOF 22
