REMARK SMILES CC[N@H+](C)CCn1c(SCC(=O)OCCOCCOCCOC(=O)c2ccc(-c3c4nc(c(-c5c(F)c(F)c(F)c(F)c5F)c5ccc([nH]5)c(-c5c(F)c(F)c(F)c(F)c5F)c5nc(c(-c6c(F)c(F)c(F)c(F)c6F)c6ccc3[nH]6)C=C5)C=C4)cc2)nc2cnccc21
REMARK SMILES IDX 15 1 14 2 13 3 11 4 12 5 10 6 9 7 8 8 7 9 94 10 88 11 89 12
REMARK SMILES IDX 93 13 90 14 92 15 91 16 6 17 5 18 3 19 4 20 2 22 1 23 16 24
REMARK SMILES IDX 17 25 18 26 19 27 20 28 21 29 22 30 23 31 24 32 25 33 26 34
REMARK SMILES IDX 87 35 27 36 86 37 28 38 29 39 30 40 80 41 31 42 85 43 79 44
REMARK SMILES IDX 81 45 32 46 84 47 78 48 77 49 33 51 65 52 45 53 64 54 46 55
REMARK SMILES IDX 49 56 63 57 82 58 47 59 48 60 62 62 83 63 50 64 34 65 35 66
REMARK SMILES IDX 43 67 36 68 37 69 41 70 44 71 38 72 39 73 42 74 40 75 66 76
REMARK SMILES IDX 67 77 75 78 68 79 69 80 73 81 76 82 70 83 71 84 74 85 72 86
REMARK SMILES IDX 51 87 52 88 60 89 53 90 54 91 58 92 61 93 55 94 56 95 59 96
REMARK SMILES IDX 57 97
REMARK H PARENT 3 21 81 50 49 61
REMARK Flexibility Score: inf
ROOT
ATOM      1  C   UNL     1       8.581  -0.978   2.850  1.00  0.00     0.202 C 
ENDROOT
BRANCH   1   2
ATOM      2  C   UNL     1       8.110  -2.040   3.857  1.00  0.00     0.261 C 
BRANCH   2   3
ATOM      3  O   UNL     1       7.285  -3.068   3.244  1.00  0.00    -0.463 OA
BRANCH   3   4
ATOM      4  C   UNL     1       6.159  -3.449   3.908  1.00  0.00     0.316 C 
ATOM      5  O   UNL     1       5.693  -2.840   4.866  1.00  0.00    -0.251 OA
BRANCH   4   6
ATOM      6  C   UNL     1       5.519  -4.742   3.401  1.00  0.00     0.200 C 
BRANCH   6   7
ATOM      7  S   UNL     1       5.790  -5.115   1.644  1.00  0.00    -0.076 SA
BRANCH   7   8
ATOM      8  C   UNL     1       4.316  -4.803   0.748  1.00  0.00     0.169 A 
ATOM      9  N   UNL     1       3.596  -3.612   0.756  1.00  0.00    -0.313 N 
ATOM     10  C   UNL     1       2.801  -3.618  -0.369  1.00  0.00     0.072 A 
ATOM     11  N   UNL     1       3.877  -5.618  -0.182  1.00  0.00    -0.221 NA
ATOM     12  C   UNL     1       2.948  -4.904  -0.897  1.00  0.00     0.108 A 
ATOM     13  C   UNL     1       1.972  -2.709  -1.022  1.00  0.00     0.049 A 
ATOM     14  C   UNL     1       2.210  -5.275  -2.032  1.00  0.00     0.141 A 
ATOM     15  C   UNL     1       1.312  -3.140  -2.166  1.00  0.00     0.113 A 
ATOM     16  N   UNL     1       1.396  -4.388  -2.660  1.00  0.00    -0.262 NA
BRANCH   9  17
ATOM     17  C   UNL     1       3.663  -2.761   1.910  1.00  0.00     0.186 C 
BRANCH  17  18
ATOM     18  C   UNL     1       3.145  -1.328   2.155  1.00  0.00     0.284 C 
BRANCH  18  19
ATOM     19  N   UNL     1       1.641  -0.948   2.365  1.00  0.00    -0.336 N 
ATOM     20  C   UNL     1       1.118  -2.464   2.755  1.00  0.00     0.332 C 
ATOM     21  H   UNL     1       1.205  -0.069   2.086  1.00  0.00     0.347 HD
BRANCH  19  22
ATOM     22  C   UNL     1       0.597   0.870   2.347  1.00  0.00     0.258 C 
ATOM     23  C   UNL     1      -0.176   1.834   1.103  1.00  0.00     0.071 C 
ENDBRANCH  19  22
ENDBRANCH  18  19
ENDBRANCH  17  18
ENDBRANCH   9  17
ENDBRANCH   7   8
ENDBRANCH   6   7
ENDBRANCH   4   6
ENDBRANCH   3   4
ENDBRANCH   2   3
ENDBRANCH   1   2
BRANCH   1  24
ATOM     24  O   UNL     1       7.694   0.125   2.666  1.00  0.00    -0.376 OA
BRANCH  24  25
ATOM     25  C   UNL     1       6.405  -0.182   2.153  1.00  0.00     0.188 C 
BRANCH  25  26
ATOM     26  C   UNL     1       6.389  -0.983   0.848  1.00  0.00     0.188 C 
BRANCH  26  27
ATOM     27  O   UNL     1       6.737  -0.182  -0.276  1.00  0.00    -0.376 OA
BRANCH  27  28
ATOM     28  C   UNL     1       5.911  -0.479  -1.415  1.00  0.00     0.202 C 
BRANCH  28  29
ATOM     29  C   UNL     1       4.720   0.499  -1.527  1.00  0.00     0.261 C 
BRANCH  29  30
ATOM     30  O   UNL     1       3.811   0.395  -0.407  1.00  0.00    -0.460 OA
BRANCH  30  31
ATOM     31  C   UNL     1       2.473   0.578  -0.597  1.00  0.00     0.338 C 
ATOM     32  O   UNL     1       1.898   0.766  -1.651  1.00  0.00    -0.246 OA
BRANCH  31  33
ATOM     33  C   UNL     1       1.793   0.364   0.713  1.00  0.00     0.060 A 
ATOM     34  C   UNL     1       2.675   0.992   2.165  1.00  0.00     0.016 A 
ATOM     35  C   UNL     1       0.229  -0.573   0.911  1.00  0.00     0.016 A 
ATOM     36  C   UNL     1       2.109   0.566   3.825  1.00  0.00     0.010 A 
ATOM     37  C   UNL     1      -0.448  -0.853   2.589  1.00  0.00     0.010 A 
ATOM     38  C   UNL     1       0.591  -0.369   4.055  1.00  0.00    -0.014 A 
BRANCH  38  39
ATOM     39  C   UNL     1       0.362  -0.826   5.434  1.00  0.00     0.031 A 
ATOM     40  C   UNL     1      -0.844  -0.226   5.983  1.00  0.00     0.074 A 
ATOM     41  C   UNL     1       1.149  -1.648   6.184  1.00  0.00     0.049 A 
ATOM     42  N   UNL     1      -0.845   0.779   6.793  1.00  0.00    -0.248 NA
ATOM     43  C   UNL     1      -2.162  -0.627   5.482  1.00  0.00     0.031 C 
ATOM     44  C   UNL     1       2.367  -2.344   5.769  1.00  0.00     0.029 A 
ATOM     45  N   UNL     1       0.998  -2.128   7.474  1.00  0.00    -0.354 N 
ATOM     46  C   UNL     1      -2.167   0.916   7.141  1.00  0.00     0.074 A 
ATOM     47  C   UNL     1      -2.945   0.240   6.127  1.00  0.00     0.031 C 
ATOM     48  C   UNL     1       2.657  -3.357   6.615  1.00  0.00     0.029 A 
ATOM     49  C   UNL     1       1.783  -3.255   7.768  1.00  0.00     0.049 A 
ATOM     50  H   UNL     1       0.391  -1.714   8.130  1.00  0.00     0.167 HD
ATOM     51  C   UNL     1      -2.481   1.133   8.441  1.00  0.00     0.037 A 
ATOM     52  C   UNL     1       1.823  -4.015   8.896  1.00  0.00     0.037 A 
ATOM     53  C   UNL     1      -1.363   1.565   9.233  1.00  0.00     0.049 A 
ATOM     54  C   UNL     1       1.431  -3.140  10.013  1.00  0.00     0.074 A 
ATOM     55  C   UNL     1      -0.602   2.711   9.318  1.00  0.00     0.029 A 
ATOM     56  N   UNL     1      -0.633   0.560   9.810  1.00  0.00    -0.354 N 
ATOM     57  N   UNL     1       2.218  -2.222  10.497  1.00  0.00    -0.248 NA
ATOM     58  C   UNL     1       0.049  -3.102  10.478  1.00  0.00     0.031 C 
ATOM     59  C   UNL     1       0.631   2.352   9.932  1.00  0.00     0.029 A 
ATOM     60  C   UNL     1       0.601   0.996  10.232  1.00  0.00     0.049 A 
ATOM     61  H   UNL     1      -0.954  -0.366   9.912  1.00  0.00     0.167 HD
ATOM     62  C   UNL     1       1.343  -1.246  10.902  1.00  0.00     0.074 A 
ATOM     63  C   UNL     1       0.063  -1.912  11.083  1.00  0.00     0.031 C 
ATOM     64  C   UNL     1       1.622   0.056  10.628  1.00  0.00     0.037 A 
BRANCH  51  65
ATOM     65  C   UNL     1      -3.677   0.460   9.020  1.00  0.00     0.064 A 
ATOM     66  C   UNL     1      -4.472   1.100   9.970  1.00  0.00     0.173 A 
ATOM     67  C   UNL     1      -3.978  -0.891   8.738  1.00  0.00     0.173 A 
ATOM     68  F   UNL     1      -4.178   2.346  10.367  1.00  0.00    -0.203 F 
ATOM     69  C   UNL     1      -5.565   0.447  10.542  1.00  0.00     0.198 A 
ATOM     70  C   UNL     1      -5.106  -1.515   9.251  1.00  0.00     0.198 A 
ATOM     71  F   UNL     1      -3.148  -1.646   8.001  1.00  0.00    -0.203 F 
ATOM     72  F   UNL     1      -6.288   1.065  11.484  1.00  0.00    -0.200 F 
ATOM     73  C   UNL     1      -5.900  -0.844  10.157  1.00  0.00     0.200 A 
ATOM     74  F   UNL     1      -5.394  -2.772   8.884  1.00  0.00    -0.200 F 
ATOM     75  F   UNL     1      -6.967  -1.456  10.687  1.00  0.00    -0.200 F 
ENDBRANCH  51  65
BRANCH  52  76
ATOM     76  C   UNL     1       2.231  -5.422   9.175  1.00  0.00     0.064 A 
ATOM     77  C   UNL     1       2.443  -5.864  10.500  1.00  0.00     0.173 A 
ATOM     78  C   UNL     1       2.107  -6.431   8.205  1.00  0.00     0.173 A 
ATOM     79  F   UNL     1       2.575  -4.984  11.503  1.00  0.00    -0.203 F 
ATOM     80  C   UNL     1       2.438  -7.219  10.844  1.00  0.00     0.198 A 
ATOM     81  C   UNL     1       2.114  -7.789   8.550  1.00  0.00     0.198 A 
ATOM     82  F   UNL     1       1.887  -6.119   6.920  1.00  0.00    -0.203 F 
ATOM     83  F   UNL     1       2.547  -7.582  12.130  1.00  0.00    -0.200 F 
ATOM     84  C   UNL     1       2.250  -8.181   9.871  1.00  0.00     0.200 A 
ATOM     85  F   UNL     1       1.918  -8.717   7.602  1.00  0.00    -0.200 F 
ATOM     86  F   UNL     1       2.161  -9.475  10.208  1.00  0.00    -0.200 F 
ENDBRANCH  52  76
BRANCH  64  87
ATOM     87  C   UNL     1       3.066   0.459  10.590  1.00  0.00     0.064 A 
ATOM     88  C   UNL     1       4.009   0.010   9.648  1.00  0.00     0.173 A 
ATOM     89  C   UNL     1       3.505   1.383  11.549  1.00  0.00     0.173 A 
ATOM     90  F   UNL     1       3.659  -0.831   8.664  1.00  0.00    -0.203 F 
ATOM     91  C   UNL     1       5.333   0.450   9.689  1.00  0.00     0.198 A 
ATOM     92  C   UNL     1       4.816   1.850  11.563  1.00  0.00     0.198 A 
ATOM     93  F   UNL     1       2.647   1.856  12.467  1.00  0.00    -0.203 F 
ATOM     94  F   UNL     1       6.223  -0.009   8.796  1.00  0.00    -0.200 F 
ATOM     95  C   UNL     1       5.732   1.377  10.639  1.00  0.00     0.200 A 
ATOM     96  F   UNL     1       5.185   2.770  12.465  1.00  0.00    -0.200 F 
ATOM     97  F   UNL     1       6.994   1.828  10.654  1.00  0.00    -0.200 F 
ENDBRANCH  64  87
ENDBRANCH  38  39
ENDBRANCH  31  33
ENDBRANCH  30  31
ENDBRANCH  29  30
ENDBRANCH  28  29
ENDBRANCH  27  28
ENDBRANCH  26  27
ENDBRANCH  25  26
ENDBRANCH  24  25
ENDBRANCH   1  24
TORSDOF 23
