REMARK SMILES O=C(COCC[NH+]1CCCC1)OCCOCCOCCOC(=O)c1ccc(-c2c3nc(c(-c4c(F)c(F)c(F)c(F)c4F)c4ccc([nH]4)c(-c4c(F)c(F)c(F)c(F)c4F)c4nc(c(-c5c(F)c(F)c(F)c(F)c5F)c5ccc2[nH]5)C=C4)C=C3)cc1
REMARK SMILES IDX 16 1 15 2 14 3 13 4 12 5 2 6 1 7 3 8 4 9 5 10 6 11 7 12 8 13
REMARK SMILES IDX 11 14 9 16 10 17 17 18 18 19 19 20 20 21 21 22 22 23 23 24
REMARK SMILES IDX 24 25 25 26 86 27 26 28 85 29 27 30 28 31 29 32 79 33 30 34
REMARK SMILES IDX 84 35 78 36 80 37 31 38 83 39 77 40 76 41 32 43 64 44 44 45
REMARK SMILES IDX 63 46 45 47 48 48 62 49 81 50 46 51 47 52 61 54 82 55 49 56
REMARK SMILES IDX 33 57 34 58 42 59 35 60 36 61 40 62 43 63 37 64 38 65 41 66
REMARK SMILES IDX 39 67 65 68 66 69 74 70 67 71 68 72 72 73 75 74 69 75 70 76
REMARK SMILES IDX 73 77 71 78 50 79 51 80 59 81 52 82 53 83 57 84 60 85 54 86
REMARK SMILES IDX 55 87 58 88 56 89
REMARK H PARENT 7 15 80 42 48 53
REMARK Flexibility Score: inf
ROOT
ATOM      1  C   UNL     1       3.224   1.106  -1.547  1.00  0.00     0.188 C 
ENDROOT
BRANCH   1   2
ATOM      2  O   UNL     1       4.600   0.791  -1.665  1.00  0.00    -0.376 OA
BRANCH   2   3
ATOM      3  C   UNL     1       5.233   0.220  -0.537  1.00  0.00     0.202 C 
BRANCH   3   4
ATOM      4  C   UNL     1       4.760  -1.199  -0.202  1.00  0.00     0.261 C 
BRANCH   4   5
ATOM      5  O   UNL     1       3.363  -1.308   0.149  1.00  0.00    -0.462 OA
BRANCH   5   6
ATOM      6  C   UNL     1       2.858  -1.055   1.386  1.00  0.00     0.332 C 
ATOM      7  O   UNL     1       1.803  -1.583   1.725  1.00  0.00    -0.250 OA
BRANCH   6   8
ATOM      8  C   UNL     1       3.592  -0.004   2.237  1.00  0.00     0.282 C 
BRANCH   8   9
ATOM      9  O   UNL     1       3.515  -0.043   3.650  1.00  0.00    -0.364 OA
BRANCH   9  10
ATOM     10  C   UNL     1       2.219   0.125   4.221  1.00  0.00     0.222 C 
BRANCH  10  11
ATOM     11  C   UNL     1       1.649   1.549   4.083  1.00  0.00     0.291 C 
BRANCH  11  12
ATOM     12  N   UNL     1       1.007   1.788   2.771  1.00  0.00    -0.333 N 
ATOM     13  C   UNL     1       0.904   3.223   2.470  1.00  0.00     0.262 C 
ATOM     14  C   UNL     1      -0.394   1.318   2.769  1.00  0.00     0.262 C 
ATOM     15  H   UNL     1       1.588   1.295   2.093  1.00  0.00     0.348 HD
ATOM     16  C   UNL     1      -0.322   3.699   3.220  1.00  0.00     0.067 C 
ATOM     17  C   UNL     1      -1.268   2.514   3.149  1.00  0.00     0.067 C 
ENDBRANCH  11  12
ENDBRANCH  10  11
ENDBRANCH   9  10
ENDBRANCH   8   9
ENDBRANCH   6   8
ENDBRANCH   5   6
ENDBRANCH   4   5
ENDBRANCH   3   4
ENDBRANCH   2   3
ENDBRANCH   1   2
BRANCH   1  18
ATOM     18  C   UNL     1       2.372   0.534  -2.696  1.00  0.00     0.188 C 
BRANCH  18  19
ATOM     19  O   UNL     1       2.987  -0.190  -3.755  1.00  0.00    -0.376 OA
BRANCH  19  20
ATOM     20  C   UNL     1       4.207   0.275  -4.320  1.00  0.00     0.202 C 
BRANCH  20  21
ATOM     21  C   UNL     1       4.267   1.703  -4.878  1.00  0.00     0.261 C 
BRANCH  21  22
ATOM     22  O   UNL     1       3.895   2.739  -3.949  1.00  0.00    -0.460 OA
BRANCH  22  23
ATOM     23  C   UNL     1       2.827   3.484  -4.320  1.00  0.00     0.338 C 
ATOM     24  O   UNL     1       2.166   3.377  -5.339  1.00  0.00    -0.246 OA
BRANCH  23  25
ATOM     25  C   UNL     1       2.447   4.438  -3.259  1.00  0.00     0.060 A 
ATOM     26  C   UNL     1       1.171   4.315  -2.696  1.00  0.00     0.016 A 
ATOM     27  C   UNL     1       3.253   5.535  -2.946  1.00  0.00     0.016 A 
ATOM     28  C   UNL     1       0.676   5.316  -1.859  1.00  0.00     0.010 A 
ATOM     29  C   UNL     1       2.748   6.547  -2.115  1.00  0.00     0.010 A 
ATOM     30  C   UNL     1       1.441   6.463  -1.602  1.00  0.00    -0.014 A 
BRANCH  30  31
ATOM     31  C   UNL     1       0.802   7.624  -0.928  1.00  0.00     0.031 A 
ATOM     32  C   UNL     1       0.210   8.728  -1.763  1.00  0.00     0.074 A 
ATOM     33  C   UNL     1       0.696   7.677   0.411  1.00  0.00     0.049 A 
ATOM     34  N   UNL     1      -0.427   9.808  -1.382  1.00  0.00    -0.248 NA
ATOM     35  C   UNL     1       0.364   8.603  -3.220  1.00  0.00     0.031 C 
ATOM     36  C   UNL     1       1.229   6.680   1.333  1.00  0.00     0.029 A 
ATOM     37  N   UNL     1       0.097   8.606   1.227  1.00  0.00    -0.354 N 
ATOM     38  C   UNL     1      -0.743  10.492  -2.549  1.00  0.00     0.074 A 
ATOM     39  C   UNL     1      -0.210   9.718  -3.650  1.00  0.00     0.031 C 
ATOM     40  C   UNL     1       0.916   7.039   2.590  1.00  0.00     0.029 A 
ATOM     41  C   UNL     1       0.174   8.298   2.563  1.00  0.00     0.049 A 
ATOM     42  H   UNL     1      -0.345   9.416   0.886  1.00  0.00     0.167 HD
ATOM     43  C   UNL     1      -1.417  11.659  -2.691  1.00  0.00     0.037 A 
ATOM     44  C   UNL     1      -0.301   8.955   3.640  1.00  0.00     0.037 A 
ATOM     45  C   UNL     1      -1.946  12.439  -1.602  1.00  0.00     0.049 A 
ATOM     46  C   UNL     1      -1.047  10.252   3.451  1.00  0.00     0.074 A 
ATOM     47  C   UNL     1      -2.634  13.639  -1.654  1.00  0.00     0.029 A 
ATOM     48  N   UNL     1      -1.845  12.095  -0.263  1.00  0.00    -0.354 N 
ATOM     49  N   UNL     1      -1.355  10.877   2.342  1.00  0.00    -0.248 NA
ATOM     50  C   UNL     1      -1.505  10.935   4.671  1.00  0.00     0.031 C 
ATOM     51  C   UNL     1      -2.919  14.040  -0.344  1.00  0.00     0.029 A 
ATOM     52  C   UNL     1      -2.447  13.067   0.521  1.00  0.00     0.049 A 
ATOM     53  H   UNL     1      -1.411  11.281   0.081  1.00  0.00     0.167 HD
ATOM     54  C   UNL     1      -2.046  12.020   2.728  1.00  0.00     0.074 A 
ATOM     55  C   UNL     1      -2.146  11.982   4.171  1.00  0.00     0.031 C 
ATOM     56  C   UNL     1      -2.538  13.021   1.957  1.00  0.00     0.037 A 
BRANCH  43  57
ATOM     57  C   UNL     1      -1.607  12.181  -4.083  1.00  0.00     0.064 A 
ATOM     58  C   UNL     1      -2.529  11.598  -4.965  1.00  0.00     0.173 A 
ATOM     59  C   UNL     1      -0.897  13.309  -4.523  1.00  0.00     0.173 A 
ATOM     60  F   UNL     1      -3.221  10.511  -4.594  1.00  0.00    -0.203 F 
ATOM     61  C   UNL     1      -2.723  12.117  -6.242  1.00  0.00     0.198 A 
ATOM     62  C   UNL     1      -1.111  13.839  -5.792  1.00  0.00     0.198 A 
ATOM     63  F   UNL     1      -0.007  13.904  -3.715  1.00  0.00    -0.203 F 
ATOM     64  F   UNL     1      -3.585  11.525  -7.080  1.00  0.00    -0.200 F 
ATOM     65  C   UNL     1      -2.020  13.241  -6.652  1.00  0.00     0.200 A 
ATOM     66  F   UNL     1      -0.440  14.931  -6.182  1.00  0.00    -0.200 F 
ATOM     67  F   UNL     1      -2.216  13.746  -7.878  1.00  0.00    -0.200 F 
ENDBRANCH  43  57
BRANCH  44  68
ATOM     68  C   UNL     1      -0.094   8.405   5.006  1.00  0.00     0.064 A 
ATOM     69  C   UNL     1      -1.177   7.950   5.772  1.00  0.00     0.173 A 
ATOM     70  C   UNL     1       1.180   8.361   5.590  1.00  0.00     0.173 A 
ATOM     71  F   UNL     1      -2.419   7.996   5.268  1.00  0.00    -0.203 F 
ATOM     72  C   UNL     1      -0.998   7.499   7.079  1.00  0.00     0.198 A 
ATOM     73  C   UNL     1       1.363   7.880   6.885  1.00  0.00     0.198 A 
ATOM     74  F   UNL     1       2.250   8.784   4.900  1.00  0.00    -0.203 F 
ATOM     75  F   UNL     1      -2.058   7.125   7.808  1.00  0.00    -0.200 F 
ATOM     76  C   UNL     1       0.273   7.460   7.632  1.00  0.00     0.200 A 
ATOM     77  F   UNL     1       2.594   7.831   7.411  1.00  0.00    -0.200 F 
ATOM     78  F   UNL     1       0.446   7.027   8.888  1.00  0.00    -0.200 F 
ENDBRANCH  44  68
BRANCH  56  79
ATOM     79  C   UNL     1      -3.232  14.152   2.660  1.00  0.00     0.064 A 
ATOM     80  C   UNL     1      -2.518  15.087   3.425  1.00  0.00     0.173 A 
ATOM     81  C   UNL     1      -4.622  14.316   2.553  1.00  0.00     0.173 A 
ATOM     82  F   UNL     1      -1.190  14.966   3.570  1.00  0.00    -0.203 F 
ATOM     83  C   UNL     1      -3.173  16.125   4.083  1.00  0.00     0.198 A 
ATOM     84  C   UNL     1      -5.270  15.371   3.189  1.00  0.00     0.198 A 
ATOM     85  F   UNL     1      -5.351  13.454   1.828  1.00  0.00    -0.203 F 
ATOM     86  F   UNL     1      -2.476  16.974   4.851  1.00  0.00    -0.200 F 
ATOM     87  C   UNL     1      -4.547  16.269   3.961  1.00  0.00     0.200 A 
ATOM     88  F   UNL     1      -6.596  15.516   3.062  1.00  0.00    -0.200 F 
ATOM     89  F   UNL     1      -5.176  17.267   4.596  1.00  0.00    -0.200 F 
ENDBRANCH  56  79
ENDBRANCH  30  31
ENDBRANCH  23  25
ENDBRANCH  22  23
ENDBRANCH  21  22
ENDBRANCH  20  21
ENDBRANCH  19  20
ENDBRANCH  18  19
ENDBRANCH   1  18
TORSDOF 21
