REMARK SMILES CC1(C)[C@H](C(=O)Nc2ccccc2C(N)=O)[C@@H]1C(=O)OCCOCCOCCOC(=O)c1ccc(-c2c3nc(c(-c4c(F)c(F)c(F)c(F)c4F)c4ccc([nH]4)c(-c4c(F)c(F)c(F)c(F)c4F)c4nc(c(-c5c(F)c(F)c(F)c(F)c5F)c5ccc2[nH]5)C=C4)C=C3)cc1
REMARK SMILES IDX 24 1 23 2 22 3 21 4 20 5 18 6 19 7 17 8 1 9 2 10 3 11 4 12
REMARK SMILES IDX 5 13 6 14 7 15 8 17 9 18 13 19 10 20 12 21 11 22 14 23 15 24
REMARK SMILES IDX 16 25 25 28 26 29 27 30 28 31 29 32 30 33 31 34 32 35 33 36
REMARK SMILES IDX 94 37 34 38 93 39 35 40 36 41 37 42 87 43 38 44 92 45 86 46
REMARK SMILES IDX 88 47 39 48 91 49 85 50 84 51 40 53 72 54 52 55 71 56 53 57
REMARK SMILES IDX 56 58 70 59 89 60 54 61 55 62 69 64 90 65 57 66 41 67 42 68
REMARK SMILES IDX 50 69 43 70 44 71 48 72 51 73 45 74 46 75 49 76 47 77 73 78
REMARK SMILES IDX 74 79 82 80 75 81 76 82 80 83 83 84 77 85 78 86 81 87 79 88
REMARK SMILES IDX 58 89 59 90 67 91 60 92 61 93 65 94 68 95 62 96 63 97 66 98
REMARK SMILES IDX 64 99
REMARK H PARENT 7 16 15 26 15 27 88 52 56 63
REMARK Flexibility Score: inf
ROOT
ATOM      1  C   UNL     1      -2.604   0.486   3.862  1.00  0.00     0.188 C 
ENDROOT
BRANCH   1   2
ATOM      2  O   UNL     1      -3.244   1.675   4.282  1.00  0.00    -0.376 OA
BRANCH   2   3
ATOM      3  C   UNL     1      -2.948   2.855   3.553  1.00  0.00     0.202 C 
BRANCH   3   4
ATOM      4  C   UNL     1      -3.202   2.878   2.034  1.00  0.00     0.261 C 
BRANCH   4   5
ATOM      5  O   UNL     1      -2.744   1.759   1.252  1.00  0.00    -0.463 OA
BRANCH   5   6
ATOM      6  C   UNL     1      -1.414   1.540   1.206  1.00  0.00     0.310 C 
ATOM      7  O   UNL     1      -0.584   2.228   1.806  1.00  0.00    -0.252 OA
BRANCH   6   8
ATOM      8  C   UNL     1      -1.070   0.269   0.484  1.00  0.00     0.118 C 
ATOM      9  C   UNL     1       0.717  -1.568   0.060  1.00  0.00     0.013 C 
ATOM     10  C   UNL     1       0.336  -0.082   0.092  1.00  0.00    -0.009 C 
ATOM     11  C   UNL     1       1.448   0.692   0.739  1.00  0.00     0.013 C 
ATOM     12  C   UNL     1      -0.679   0.273  -1.002  1.00  0.00     0.100 C 
BRANCH  12  13
ATOM     13  C   UNL     1      -1.489   1.269  -1.762  1.00  0.00     0.228 C 
ATOM     14  O   UNL     1      -2.446   0.811  -2.395  1.00  0.00    -0.274 OA
ATOM     15  N   UNL     1      -1.417   2.630  -1.711  1.00  0.00    -0.325 N 
ATOM     16  H   UNL     1      -2.169   3.087  -2.153  1.00  0.00     0.169 HD
BRANCH  15  17
ATOM     17  C   UNL     1      -0.481   3.492  -1.151  1.00  0.00     0.053 A 
ATOM     18  C   UNL     1      -1.042   4.576  -0.456  1.00  0.00     0.027 A 
ATOM     19  C   UNL     1       0.906   3.313  -1.177  1.00  0.00     0.063 A 
ATOM     20  C   UNL     1      -0.257   5.345   0.394  1.00  0.00     0.002 A 
ATOM     21  C   UNL     1       1.694   4.117  -0.334  1.00  0.00     0.016 A 
ATOM     22  C   UNL     1       1.105   5.087   0.486  1.00  0.00     0.001 A 
BRANCH  19  23
ATOM     23  C   UNL     1       1.537   2.353  -2.134  1.00  0.00     0.250 C 
ATOM     24  N   UNL     1       2.784   1.872  -1.846  1.00  0.00    -0.366 N 
ATOM     25  O   UNL     1       0.980   1.979  -3.159  1.00  0.00    -0.269 OA
ATOM     26  H   UNL     1       3.246   2.162  -1.026  1.00  0.00     0.159 HD
ATOM     27  H   UNL     1       3.220   1.236  -2.458  1.00  0.00     0.159 HD
ENDBRANCH  19  23
ENDBRANCH  15  17
ENDBRANCH  12  13
ENDBRANCH   6   8
ENDBRANCH   5   6
ENDBRANCH   4   5
ENDBRANCH   3   4
ENDBRANCH   2   3
ENDBRANCH   1   2
BRANCH   1  28
ATOM     28  C   UNL     1      -3.519  -0.457   3.050  1.00  0.00     0.188 C 
BRANCH  28  29
ATOM     29  O   UNL     1      -4.833  -0.042   2.724  1.00  0.00    -0.376 OA
BRANCH  29  30
ATOM     30  C   UNL     1      -5.656   0.451   3.771  1.00  0.00     0.202 C 
BRANCH  30  31
ATOM     31  C   UNL     1      -5.726  -0.302   5.117  1.00  0.00     0.261 C 
BRANCH  31  32
ATOM     32  O   UNL     1      -4.466  -0.686   5.713  1.00  0.00    -0.460 OA
BRANCH  32  33
ATOM     33  C   UNL     1      -4.202  -2.019   5.754  1.00  0.00     0.338 C 
ATOM     34  O   UNL     1      -4.938  -2.923   5.400  1.00  0.00    -0.246 OA
BRANCH  33  35
ATOM     35  C   UNL     1      -2.779  -2.261   6.100  1.00  0.00     0.060 A 
ATOM     36  C   UNL     1      -1.948  -2.877   5.147  1.00  0.00     0.016 A 
ATOM     37  C   UNL     1      -2.280  -1.963   7.367  1.00  0.00     0.016 A 
ATOM     38  C   UNL     1      -0.636  -3.230   5.468  1.00  0.00     0.010 A 
ATOM     39  C   UNL     1      -0.973  -2.350   7.701  1.00  0.00     0.010 A 
ATOM     40  C   UNL     1      -0.160  -3.023   6.768  1.00  0.00    -0.014 A 
BRANCH  40  41
ATOM     41  C   UNL     1       1.079  -3.717   7.211  1.00  0.00     0.031 A 
ATOM     42  C   UNL     1       0.935  -5.028   7.941  1.00  0.00     0.074 A 
ATOM     43  C   UNL     1       2.305  -3.229   6.952  1.00  0.00     0.049 A 
ATOM     44  N   UNL     1       1.855  -5.798   8.468  1.00  0.00    -0.248 NA
ATOM     45  C   UNL     1      -0.436  -5.537   8.099  1.00  0.00     0.031 C 
ATOM     46  C   UNL     1       2.589  -2.004   6.211  1.00  0.00     0.029 A 
ATOM     47  N   UNL     1       3.545  -3.711   7.298  1.00  0.00    -0.354 N 
ATOM     48  C   UNL     1       1.172  -6.871   9.027  1.00  0.00     0.074 A 
ATOM     49  C   UNL     1      -0.238  -6.640   8.804  1.00  0.00     0.031 C 
ATOM     50  C   UNL     1       3.921  -1.818   6.173  1.00  0.00     0.029 A 
ATOM     51  C   UNL     1       4.580  -2.895   6.912  1.00  0.00     0.049 A 
ATOM     52  H   UNL     1       3.679  -4.560   7.777  1.00  0.00     0.167 HD
ATOM     53  C   UNL     1       1.673  -7.957   9.664  1.00  0.00     0.037 A 
ATOM     54  C   UNL     1       5.904  -2.996   7.150  1.00  0.00     0.037 A 
ATOM     55  C   UNL     1       3.075  -8.189   9.890  1.00  0.00     0.049 A 
ATOM     56  C   UNL     1       6.434  -4.176   7.929  1.00  0.00     0.074 A 
ATOM     57  C   UNL     1       3.682  -9.265  10.514  1.00  0.00     0.029 A 
ATOM     58  N   UNL     1       4.090  -7.324   9.509  1.00  0.00    -0.354 N 
ATOM     59  N   UNL     1       5.785  -5.197   8.434  1.00  0.00    -0.248 NA
ATOM     60  C   UNL     1       7.886  -4.219   8.163  1.00  0.00     0.031 C 
ATOM     61  C   UNL     1       5.059  -9.023  10.564  1.00  0.00     0.029 A 
ATOM     62  C   UNL     1       5.317  -7.830   9.908  1.00  0.00     0.049 A 
ATOM     63  H   UNL     1       3.959  -6.476   9.027  1.00  0.00     0.167 HD
ATOM     64  C   UNL     1       6.749  -6.019   9.009  1.00  0.00     0.074 A 
ATOM     65  C   UNL     1       8.028  -5.383   8.781  1.00  0.00     0.031 C 
ATOM     66  C   UNL     1       6.588  -7.197   9.663  1.00  0.00     0.037 A 
BRANCH  53  67
ATOM     67  C   UNL     1       0.692  -8.965  10.192  1.00  0.00     0.064 A 
ATOM     68  C   UNL     1      -0.056  -9.788   9.337  1.00  0.00     0.173 A 
ATOM     69  C   UNL     1       0.522  -9.130  11.575  1.00  0.00     0.173 A 
ATOM     70  F   UNL     1       0.058  -9.662   8.006  1.00  0.00    -0.203 F 
ATOM     71  C   UNL     1      -0.959 -10.718   9.847  1.00  0.00     0.198 A 
ATOM     72  C   UNL     1      -0.356 -10.084  12.081  1.00  0.00     0.198 A 
ATOM     73  F   UNL     1       1.216  -8.372  12.437  1.00  0.00    -0.203 F 
ATOM     74  F   UNL     1      -1.702 -11.457   9.011  1.00  0.00    -0.200 F 
ATOM     75  C   UNL     1      -1.103 -10.870  11.218  1.00  0.00     0.200 A 
ATOM     76  F   UNL     1      -0.482 -10.240  13.406  1.00  0.00    -0.200 F 
ATOM     77  F   UNL     1      -1.965 -11.772  11.707  1.00  0.00    -0.200 F 
ENDBRANCH  53  67
BRANCH  54  78
ATOM     78  C   UNL     1       6.834  -1.944   6.655  1.00  0.00     0.064 A 
ATOM     79  C   UNL     1       7.786  -2.225   5.664  1.00  0.00     0.173 A 
ATOM     80  C   UNL     1       6.814  -0.646   7.187  1.00  0.00     0.173 A 
ATOM     81  F   UNL     1       7.866  -3.459   5.144  1.00  0.00    -0.203 F 
ATOM     82  C   UNL     1       8.693  -1.256   5.240  1.00  0.00     0.198 A 
ATOM     83  C   UNL     1       7.701   0.331   6.739  1.00  0.00     0.198 A 
ATOM     84  F   UNL     1       5.928  -0.325   8.141  1.00  0.00    -0.203 F 
ATOM     85  F   UNL     1       9.626  -1.567   4.329  1.00  0.00    -0.200 F 
ATOM     86  C   UNL     1       8.646   0.023   5.773  1.00  0.00     0.200 A 
ATOM     87  F   UNL     1       7.642   1.569   7.248  1.00  0.00    -0.200 F 
ATOM     88  F   UNL     1       9.515   0.956   5.361  1.00  0.00    -0.200 F 
ENDBRANCH  54  78
BRANCH  66  89
ATOM     89  C   UNL     1       7.827  -7.910  10.131  1.00  0.00     0.064 A 
ATOM     90  C   UNL     1       8.614  -7.422  11.184  1.00  0.00     0.173 A 
ATOM     91  C   UNL     1       8.209  -9.125   9.539  1.00  0.00     0.173 A 
ATOM     92  F   UNL     1       8.302  -6.260  11.779  1.00  0.00    -0.203 F 
ATOM     93  C   UNL     1       9.754  -8.105  11.604  1.00  0.00     0.198 A 
ATOM     94  C   UNL     1       9.328  -9.823   9.984  1.00  0.00     0.198 A 
ATOM     95  F   UNL     1       7.487  -9.644   8.534  1.00  0.00    -0.203 F 
ATOM     96  F   UNL     1      10.522  -7.590  12.575  1.00  0.00    -0.200 F 
ATOM     97  C   UNL     1      10.105  -9.307  11.009  1.00  0.00     0.200 A 
ATOM     98  F   UNL     1       9.654 -10.994   9.420  1.00  0.00    -0.200 F 
ATOM     99  F   UNL     1      11.198  -9.966  11.419  1.00  0.00    -0.200 F 
ENDBRANCH  66  89
ENDBRANCH  40  41
ENDBRANCH  33  35
ENDBRANCH  32  33
ENDBRANCH  31  32
ENDBRANCH  30  31
ENDBRANCH  29  30
ENDBRANCH  28  29
ENDBRANCH   1  28
TORSDOF 20
