REMARK SMILES O=C(OCCOCCOCCOC(=O)c1ccc(-c2c3nc(c(-c4c(F)c(F)c(F)c(F)c4F)c4ccc([nH]4)c(-c4c(F)c(F)c(F)c(F)c4F)c4nc(c(-c5c(F)c(F)c(F)c(F)c5F)c5ccc2[nH]5)C=C4)C=C3)cc1)C1=Cc2c(ccc(Cl)c2Sc2ccccc2)O[C@H]1C(F)(F)F
REMARK SMILES IDX 7 1 6 2 5 3 4 4 3 5 2 6 1 7 78 8 79 9 95 10 80 11 94 12
REMARK SMILES IDX 81 13 86 14 82 15 84 16 83 17 85 18 96 19 97 20 98 21 99 22
REMARK SMILES IDX 87 23 88 24 89 25 93 26 90 27 92 28 91 29 8 30 9 31 10 32
REMARK SMILES IDX 11 33 12 34 13 35 14 36 15 37 16 38 77 39 17 40 76 41 18 42
REMARK SMILES IDX 19 43 20 44 70 45 21 46 75 47 69 48 71 49 22 50 74 51 68 52
REMARK SMILES IDX 67 53 23 55 55 56 35 57 54 58 36 59 39 60 53 61 72 62 37 63
REMARK SMILES IDX 38 64 52 66 73 67 40 68 24 69 25 70 33 71 26 72 27 73 31 74
REMARK SMILES IDX 34 75 28 76 29 77 32 78 30 79 56 80 57 81 65 82 58 83 59 84
REMARK SMILES IDX 63 85 66 86 60 87 61 88 64 89 62 90 41 91 42 92 50 93 43 94
REMARK SMILES IDX 44 95 48 96 51 97 45 98 46 99 49 100 47 101
REMARK H PARENT 71 54 39 65
REMARK Flexibility Score: inf
ROOT
ATOM      1  C   UNL     1       3.779   3.108  -1.929  1.00  0.00     0.188 C 
ENDROOT
BRANCH   1   2
ATOM      2  O   UNL     1       4.702   2.501  -1.033  1.00  0.00    -0.376 OA
BRANCH   2   3
ATOM      3  C   UNL     1       4.148   1.487  -0.209  1.00  0.00     0.202 C 
BRANCH   3   4
ATOM      4  C   UNL     1       3.128   1.982   0.842  1.00  0.00     0.261 C 
BRANCH   4   5
ATOM      5  O   UNL     1       3.653   1.898   2.186  1.00  0.00    -0.460 OA
BRANCH   5   6
ATOM      6  C   UNL     1       3.137   0.896   2.950  1.00  0.00     0.338 C 
ATOM      7  O   UNL     1       2.258   1.020   3.788  1.00  0.00    -0.246 OA
BRANCH   6   8
ATOM      8  C   UNL     1       3.859  -0.355   2.686  1.00  0.00     0.087 C 
ATOM      9  C   UNL     1       3.402  -0.982   1.600  1.00  0.00     0.028 C 
ATOM     10  C   UNL     1       5.150  -0.662   3.376  1.00  0.00     0.316 C 
ATOM     11  C   UNL     1       4.317  -1.759   0.796  1.00  0.00     0.033 A 
ATOM     12  O   UNL     1       6.028  -1.513   2.580  1.00  0.00    -0.475 OA
ATOM     13  C   UNL     1       5.627  -1.924   1.328  1.00  0.00     0.129 A 
ATOM     14  C   UNL     1       3.993  -2.120  -0.545  1.00  0.00     0.042 A 
ATOM     15  C   UNL     1       6.637  -2.476   0.549  1.00  0.00     0.049 A 
ATOM     16  C   UNL     1       5.075  -2.634  -1.313  1.00  0.00     0.055 A 
ATOM     17  C   UNL     1       6.366  -2.809  -0.773  1.00  0.00     0.025 A 
ATOM     18  Cl  UNL     1       4.929  -3.033  -2.999  1.00  0.00    -0.083 Cl
BRANCH  10  19
ATOM     19  C   UNL     1       5.925   0.579   3.873  1.00  0.00     0.430 C 
ATOM     20  F   UNL     1       5.123   1.460   4.516  1.00  0.00    -0.167 F 
ATOM     21  F   UNL     1       6.888   0.236   4.762  1.00  0.00    -0.167 F 
ATOM     22  F   UNL     1       6.522   1.236   2.855  1.00  0.00    -0.167 F 
ENDBRANCH  10  19
BRANCH  14  23
ATOM     23  S   UNL     1       2.338  -2.091  -1.361  1.00  0.00    -0.088 SA
BRANCH  23  24
ATOM     24  C   UNL     1       1.146  -0.856  -0.842  1.00  0.00     0.012 A 
ATOM     25  C   UNL     1       0.047  -1.224  -0.056  1.00  0.00     0.015 A 
ATOM     26  C   UNL     1       1.119   0.448  -1.353  1.00  0.00     0.015 A 
ATOM     27  C   UNL     1      -0.938  -0.290   0.321  1.00  0.00     0.001 A 
ATOM     28  C   UNL     1       0.172   1.408  -0.941  1.00  0.00     0.001 A 
ATOM     29  C   UNL     1      -0.848   1.040  -0.077  1.00  0.00     0.000 A 
ENDBRANCH  23  24
ENDBRANCH  14  23
ENDBRANCH   6   8
ENDBRANCH   5   6
ENDBRANCH   4   5
ENDBRANCH   3   4
ENDBRANCH   2   3
ENDBRANCH   1   2
BRANCH   1  30
ATOM     30  C   UNL     1       3.459   2.321  -3.213  1.00  0.00     0.188 C 
BRANCH  30  31
ATOM     31  O   UNL     1       4.061   2.712  -4.441  1.00  0.00    -0.376 OA
BRANCH  31  32
ATOM     32  C   UNL     1       5.395   3.189  -4.395  1.00  0.00     0.202 C 
BRANCH  32  33
ATOM     33  C   UNL     1       5.401   4.685  -4.751  1.00  0.00     0.261 C 
BRANCH  33  34
ATOM     34  O   UNL     1       4.728   5.488  -3.749  1.00  0.00    -0.460 OA
BRANCH  34  35
ATOM     35  C   UNL     1       3.384   5.658  -3.886  1.00  0.00     0.338 C 
ATOM     36  O   UNL     1       2.715   5.395  -4.872  1.00  0.00    -0.246 OA
BRANCH  35  37
ATOM     37  C   UNL     1       2.766   6.053  -2.575  1.00  0.00     0.060 A 
ATOM     38  C   UNL     1       1.418   5.727  -2.347  1.00  0.00     0.016 A 
ATOM     39  C   UNL     1       3.497   6.657  -1.542  1.00  0.00     0.016 A 
ATOM     40  C   UNL     1       0.789   6.074  -1.140  1.00  0.00     0.010 A 
ATOM     41  C   UNL     1       2.866   7.014  -0.338  1.00  0.00     0.010 A 
ATOM     42  C   UNL     1       1.494   6.778  -0.150  1.00  0.00    -0.014 A 
BRANCH  42  43
ATOM     43  C   UNL     1       0.738   7.560   0.874  1.00  0.00     0.031 A 
ATOM     44  C   UNL     1       0.220   8.916   0.451  1.00  0.00     0.074 A 
ATOM     45  C   UNL     1       0.500   7.137   2.130  1.00  0.00     0.049 A 
ATOM     46  N   UNL     1      -0.499   9.787   1.115  1.00  0.00    -0.248 NA
ATOM     47  C   UNL     1       0.565   9.342  -0.916  1.00  0.00     0.031 C 
ATOM     48  C   UNL     1       0.928   5.866   2.704  1.00  0.00     0.029 A 
ATOM     49  N   UNL     1      -0.169   7.762   3.162  1.00  0.00    -0.354 N 
ATOM     50  C   UNL     1      -0.719  10.839   0.234  1.00  0.00     0.074 A 
ATOM     51  C   UNL     1      -0.021  10.524  -0.991  1.00  0.00     0.031 C 
ATOM     52  C   UNL     1       0.525   5.810   3.989  1.00  0.00     0.029 A 
ATOM     53  C   UNL     1      -0.182   7.046   4.335  1.00  0.00     0.049 A 
ATOM     54  H   UNL     1      -0.599   8.643   3.066  1.00  0.00     0.167 HD
ATOM     55  C   UNL     1      -1.445  11.967   0.412  1.00  0.00     0.037 A 
ATOM     56  C   UNL     1      -0.697   7.356   5.544  1.00  0.00     0.037 A 
ATOM     57  C   UNL     1      -2.087  12.346   1.639  1.00  0.00     0.049 A 
ATOM     58  C   UNL     1      -1.428   8.667   5.749  1.00  0.00     0.074 A 
ATOM     59  C   UNL     1      -2.813  13.492   1.916  1.00  0.00     0.029 A 
ATOM     60  N   UNL     1      -2.059  11.599   2.805  1.00  0.00    -0.354 N 
ATOM     61  N   UNL     1      -1.689   9.622   4.889  1.00  0.00    -0.248 NA
ATOM     62  C   UNL     1      -1.947   8.935   7.102  1.00  0.00     0.031 C 
ATOM     63  C   UNL     1      -3.184  13.460   3.264  1.00  0.00     0.029 A 
ATOM     64  C   UNL     1      -2.738  12.269   3.811  1.00  0.00     0.049 A 
ATOM     65  H   UNL     1      -1.622  10.722   2.905  1.00  0.00     0.167 HD
ATOM     66  C   UNL     1      -2.421  10.580   5.586  1.00  0.00     0.074 A 
ATOM     67  C   UNL     1      -2.586  10.084   6.933  1.00  0.00     0.031 C 
ATOM     68  C   UNL     1      -2.908  11.768   5.149  1.00  0.00     0.037 A 
BRANCH  55  69
ATOM     69  C   UNL     1      -1.560  12.887  -0.765  1.00  0.00     0.064 A 
ATOM     70  C   UNL     1      -2.351  12.548  -1.875  1.00  0.00     0.173 A 
ATOM     71  C   UNL     1      -0.883  14.114  -0.787  1.00  0.00     0.173 A 
ATOM     72  F   UNL     1      -2.998  11.373  -1.909  1.00  0.00    -0.203 F 
ATOM     73  C   UNL     1      -2.439  13.396  -2.975  1.00  0.00     0.198 A 
ATOM     74  C   UNL     1      -0.995  14.971  -1.878  1.00  0.00     0.198 A 
ATOM     75  F   UNL     1      -0.112  14.479   0.248  1.00  0.00    -0.203 F 
ATOM     76  F   UNL     1      -3.159  13.030  -4.044  1.00  0.00    -0.200 F 
ATOM     77  C   UNL     1      -1.766  14.608  -2.973  1.00  0.00     0.200 A 
ATOM     78  F   UNL     1      -0.350  16.145  -1.873  1.00  0.00    -0.200 F 
ATOM     79  F   UNL     1      -1.853  15.425  -4.032  1.00  0.00    -0.200 F 
ENDBRANCH  55  69
BRANCH  56  80
ATOM     80  C   UNL     1      -0.544   6.421   6.695  1.00  0.00     0.064 A 
ATOM     81  C   UNL     1      -1.657   5.790   7.271  1.00  0.00     0.173 A 
ATOM     82  C   UNL     1       0.704   6.216   7.302  1.00  0.00     0.173 A 
ATOM     83  F   UNL     1      -2.880   5.989   6.756  1.00  0.00    -0.203 F 
ATOM     84  C   UNL     1      -1.533   5.019   8.426  1.00  0.00     0.198 A 
ATOM     85  C   UNL     1       0.832   5.420   8.439  1.00  0.00     0.198 A 
ATOM     86  F   UNL     1       1.798   6.813   6.806  1.00  0.00    -0.203 F 
ATOM     87  F   UNL     1      -2.625   4.493   8.998  1.00  0.00    -0.200 F 
ATOM     88  C   UNL     1      -0.288   4.832   9.007  1.00  0.00     0.200 A 
ATOM     89  F   UNL     1       2.035   5.245   9.001  1.00  0.00    -0.200 F 
ATOM     90  F   UNL     1      -0.173   4.106  10.128  1.00  0.00    -0.200 F 
ENDBRANCH  56  80
BRANCH  68  91
ATOM     91  C   UNL     1      -3.697  12.605   6.120  1.00  0.00     0.064 A 
ATOM     92  C   UNL     1      -3.090  13.241   7.213  1.00  0.00     0.173 A 
ATOM     93  C   UNL     1      -5.075  12.803   5.933  1.00  0.00     0.173 A 
ATOM     94  F   UNL     1      -1.778  13.081   7.444  1.00  0.00    -0.203 F 
ATOM     95  C   UNL     1      -3.836  14.014   8.101  1.00  0.00     0.198 A 
ATOM     96  C   UNL     1      -5.812  13.601   6.804  1.00  0.00     0.198 A 
ATOM     97  F   UNL     1      -5.707  12.229   4.898  1.00  0.00    -0.203 F 
ATOM     98  F   UNL     1      -3.243  14.567   9.167  1.00  0.00    -0.200 F 
ATOM     99  C   UNL     1      -5.195  14.198   7.893  1.00  0.00     0.200 A 
ATOM    100  F   UNL     1      -7.122  13.792   6.591  1.00  0.00    -0.200 F 
ATOM    101  F   UNL     1      -5.911  14.944   8.745  1.00  0.00    -0.200 F 
ENDBRANCH  68  91
ENDBRANCH  42  43
ENDBRANCH  35  37
ENDBRANCH  34  35
ENDBRANCH  33  34
ENDBRANCH  32  33
ENDBRANCH  31  32
ENDBRANCH  30  31
ENDBRANCH   1  30
TORSDOF 20
