REMARK SMILES COC(=O)c1c(NC(=O)[C@@H]2[C@H]3CC[C@H](CC3)[C@H]2C(=O)OCCOCCOCCOC(=O)c2ccc(-c3c4nc(c(-c5c(F)c(F)c(F)c(F)c5F)c5ccc([nH]5)c(-c5c(F)c(F)c(F)c(F)c5F)c5nc(c(-c6c(F)c(F)c(F)c(F)c6F)c6ccc3[nH]6)C=C5)C=C4)cc2)sc(C)c1-c1ccc(C)cc1
REMARK SMILES IDX 24 1 23 2 22 3 21 4 20 5 18 6 19 7 17 8 10 9 11 10 12 11
REMARK SMILES IDX 16 12 14 13 13 14 15 15 8 16 7 17 9 19 6 20 5 21 98 22 95 23
REMARK SMILES IDX 96 24 97 25 3 26 4 27 2 28 1 29 99 30 100 31 105 32 101 33
REMARK SMILES IDX 104 34 102 35 103 36 25 37 26 38 27 39 28 40 29 41 30 42
REMARK SMILES IDX 31 43 32 44 33 45 94 46 34 47 93 48 35 49 36 50 37 51 87 52
REMARK SMILES IDX 38 53 92 54 86 55 88 56 39 57 91 58 85 59 84 60 40 62 72 63
REMARK SMILES IDX 52 64 71 65 53 66 56 67 70 68 89 69 54 70 55 71 69 73 90 74
REMARK SMILES IDX 57 75 41 76 42 77 50 78 43 79 44 80 48 81 51 82 45 83 46 84
REMARK SMILES IDX 49 85 47 86 73 87 74 88 82 89 75 90 76 91 80 92 83 93 77 94
REMARK SMILES IDX 78 95 81 96 79 97 58 98 59 99 67 100 60 101 61 102 65 103
REMARK SMILES IDX 68 104 62 105 63 106 66 107 64 108
REMARK H PARENT 7 18 88 61 56 72
REMARK Flexibility Score: inf
ROOT
ATOM      1  C   UNL     1       2.532   3.635   2.323  1.00  0.00     0.188 C 
ENDROOT
BRANCH   1   2
ATOM      2  O   UNL     1       3.599   3.772   1.396  1.00  0.00    -0.376 OA
BRANCH   2   3
ATOM      3  C   UNL     1       4.881   4.100   1.940  1.00  0.00     0.202 C 
BRANCH   3   4
ATOM      4  C   UNL     1       4.939   5.237   2.977  1.00  0.00     0.261 C 
BRANCH   4   5
ATOM      5  O   UNL     1       4.291   4.945   4.244  1.00  0.00    -0.463 OA
BRANCH   5   6
ATOM      6  C   UNL     1       4.061   6.043   5.015  1.00  0.00     0.310 C 
ATOM      7  O   UNL     1       4.407   7.175   4.681  1.00  0.00    -0.252 OA
BRANCH   6   8
ATOM      8  C   UNL     1       3.278   5.802   6.320  1.00  0.00     0.115 C 
ATOM      9  C   UNL     1       2.927   4.356   6.735  1.00  0.00     0.096 C 
ATOM     10  C   UNL     1       3.466   4.138   8.195  1.00  0.00     0.002 C 
ATOM     11  C   UNL     1       4.984   4.408   8.213  1.00  0.00     0.005 C 
ATOM     12  C   UNL     1       2.788   5.129   9.160  1.00  0.00     0.005 C 
ATOM     13  C   UNL     1       3.965   6.571   7.476  1.00  0.00     0.004 C 
ATOM     14  C   UNL     1       5.267   5.871   7.867  1.00  0.00     0.005 C 
ATOM     15  C   UNL     1       2.989   6.563   8.666  1.00  0.00     0.005 C 
BRANCH   9  16
ATOM     16  C   UNL     1       1.476   3.756   6.696  1.00  0.00     0.229 C 
ATOM     17  N   UNL     1       0.277   4.377   6.517  1.00  0.00    -0.317 N 
ATOM     18  H   UNL     1      -0.477   3.888   6.919  1.00  0.00     0.170 HD
ATOM     19  O   UNL     1       1.368   2.546   6.977  1.00  0.00    -0.274 OA
BRANCH  17  20
ATOM     20  C   UNL     1      -0.105   5.540   5.895  1.00  0.00     0.111 A 
ATOM     21  C   UNL     1      -1.299   6.257   5.924  1.00  0.00     0.102 A 
ATOM     22  C   UNL     1      -1.040   7.602   5.420  1.00  0.00     0.012 A 
ATOM     23  S   UNL     1       0.726   6.079   4.510  1.00  0.00    -0.122 S 
ATOM     24  C   UNL     1       0.249   7.676   4.907  1.00  0.00     0.012 A 
ATOM     25  C   UNL     1       1.155   8.815   4.591  1.00  0.00     0.057 C 
BRANCH  21  26
ATOM     26  C   UNL     1      -2.558   5.708   6.413  1.00  0.00     0.341 C 
ATOM     27  O   UNL     1      -2.622   4.696   7.105  1.00  0.00    -0.246 OA
BRANCH  26  28
ATOM     28  O   UNL     1      -3.633   6.362   5.894  1.00  0.00    -0.465 OA
ATOM     29  C   UNL     1      -4.903   5.724   6.039  1.00  0.00     0.282 C 
ENDBRANCH  26  28
ENDBRANCH  21  26
BRANCH  22  30
ATOM     30  C   UNL     1      -1.913   8.771   5.398  1.00  0.00    -0.016 A 
ATOM     31  C   UNL     1      -2.530   9.263   6.551  1.00  0.00     0.009 A 
ATOM     32  C   UNL     1      -2.138   9.415   4.173  1.00  0.00     0.009 A 
ATOM     33  C   UNL     1      -3.363  10.386   6.471  1.00  0.00     0.004 A 
ATOM     34  C   UNL     1      -2.955  10.540   4.097  1.00  0.00     0.004 A 
ATOM     35  C   UNL     1      -3.578  11.033   5.245  1.00  0.00    -0.051 A 
ATOM     36  C   UNL     1      -4.487  12.223   5.158  1.00  0.00     0.044 C 
ENDBRANCH  22  30
ENDBRANCH  17  20
ENDBRANCH   9  16
ENDBRANCH   6   8
ENDBRANCH   5   6
ENDBRANCH   4   5
ENDBRANCH   3   4
ENDBRANCH   2   3
ENDBRANCH   1   2
BRANCH   1  37
ATOM     37  C   UNL     1       2.701   2.607   3.447  1.00  0.00     0.188 C 
BRANCH  37  38
ATOM     38  O   UNL     1       3.977   1.998   3.483  1.00  0.00    -0.376 OA
BRANCH  38  39
ATOM     39  C   UNL     1       4.016   0.577   3.532  1.00  0.00     0.202 C 
BRANCH  39  40
ATOM     40  C   UNL     1       3.468  -0.115   2.273  1.00  0.00     0.261 C 
BRANCH  40  41
ATOM     41  O   UNL     1       2.051   0.047   2.080  1.00  0.00    -0.460 OA
BRANCH  41  42
ATOM     42  C   UNL     1       1.248  -0.440   3.058  1.00  0.00     0.338 C 
ATOM     43  O   UNL     1       1.573  -1.143   3.997  1.00  0.00    -0.246 OA
BRANCH  42  44
ATOM     44  C   UNL     1      -0.064   0.230   2.921  1.00  0.00     0.060 A 
ATOM     45  C   UNL     1      -0.608   0.891   4.033  1.00  0.00     0.016 A 
ATOM     46  C   UNL     1      -0.722   0.254   1.690  1.00  0.00     0.016 A 
ATOM     47  C   UNL     1      -1.838   1.544   3.922  1.00  0.00     0.010 A 
ATOM     48  C   UNL     1      -1.958   0.892   1.584  1.00  0.00     0.010 A 
ATOM     49  C   UNL     1      -2.536   1.510   2.707  1.00  0.00    -0.014 A 
BRANCH  49  50
ATOM     50  C   UNL     1      -3.960   1.917   2.649  1.00  0.00     0.031 A 
ATOM     51  C   UNL     1      -5.002   0.849   2.831  1.00  0.00     0.074 A 
ATOM     52  C   UNL     1      -4.327   3.186   2.405  1.00  0.00     0.049 A 
ATOM     53  N   UNL     1      -6.304   0.927   2.730  1.00  0.00    -0.248 NA
ATOM     54  C   UNL     1      -4.502  -0.495   3.164  1.00  0.00     0.031 C 
ATOM     55  C   UNL     1      -3.417   4.315   2.230  1.00  0.00     0.029 A 
ATOM     56  N   UNL     1      -5.578   3.727   2.237  1.00  0.00    -0.354 N 
ATOM     57  C   UNL     1      -6.776  -0.353   2.985  1.00  0.00     0.074 A 
ATOM     58  C   UNL     1      -5.624  -1.196   3.216  1.00  0.00     0.031 C 
ATOM     59  C   UNL     1      -4.141   5.414   1.948  1.00  0.00     0.029 A 
ATOM     60  C   UNL     1      -5.559   5.056   1.896  1.00  0.00     0.049 A 
ATOM     61  H   UNL     1      -6.409   3.212   2.351  1.00  0.00     0.167 HD
ATOM     62  C   UNL     1      -8.056  -0.789   3.031  1.00  0.00     0.037 A 
ATOM     63  C   UNL     1      -6.571   5.877   1.552  1.00  0.00     0.037 A 
ATOM     64  C   UNL     1      -9.204   0.042   2.792  1.00  0.00     0.049 A 
ATOM     65  C   UNL     1      -7.986   5.355   1.540  1.00  0.00     0.074 A 
ATOM     66  C   UNL     1     -10.544  -0.299   2.845  1.00  0.00     0.029 A 
ATOM     67  N   UNL     1      -9.144   1.381   2.440  1.00  0.00    -0.354 N 
ATOM     68  N   UNL     1      -8.430   4.156   1.827  1.00  0.00    -0.248 NA
ATOM     69  C   UNL     1      -9.041   6.306   1.159  1.00  0.00     0.031 C 
ATOM     70  C   UNL     1     -11.294   0.824   2.481  1.00  0.00     0.029 A 
ATOM     71  C   UNL     1     -10.423   1.877   2.248  1.00  0.00     0.049 A 
ATOM     72  H   UNL     1      -8.315   1.903   2.341  1.00  0.00     0.167 HD
ATOM     73  C   UNL     1      -9.812   4.213   1.687  1.00  0.00     0.074 A 
ATOM     74  C   UNL     1     -10.135   5.570   1.298  1.00  0.00     0.031 C 
ATOM     75  C   UNL     1     -10.730   3.232   1.869  1.00  0.00     0.037 A 
BRANCH  62  76
ATOM     76  C   UNL     1      -8.274  -2.242   3.329  1.00  0.00     0.064 A 
ATOM     77  C   UNL     1      -8.061  -2.768   4.612  1.00  0.00     0.173 A 
ATOM     78  C   UNL     1      -8.706  -3.116   2.321  1.00  0.00     0.173 A 
ATOM     79  F   UNL     1      -7.630  -1.974   5.604  1.00  0.00    -0.203 F 
ATOM     80  C   UNL     1      -8.246  -4.123   4.868  1.00  0.00     0.198 A 
ATOM     81  C   UNL     1      -8.915  -4.466   2.587  1.00  0.00     0.198 A 
ATOM     82  F   UNL     1      -8.923  -2.661   1.078  1.00  0.00    -0.203 F 
ATOM     83  F   UNL     1      -7.990  -4.614   6.089  1.00  0.00    -0.200 F 
ATOM     84  C   UNL     1      -8.678  -4.970   3.858  1.00  0.00     0.200 A 
ATOM     85  F   UNL     1      -9.340  -5.281   1.613  1.00  0.00    -0.200 F 
ATOM     86  F   UNL     1      -8.858  -6.274   4.106  1.00  0.00    -0.200 F 
ENDBRANCH  62  76
BRANCH  63  87
ATOM     87  C   UNL     1      -6.283   7.284   1.172  1.00  0.00     0.064 A 
ATOM     88  C   UNL     1      -6.640   8.347   2.011  1.00  0.00     0.173 A 
ATOM     89  C   UNL     1      -5.662   7.592  -0.048  1.00  0.00     0.173 A 
ATOM     90  F   UNL     1      -7.267   8.101   3.171  1.00  0.00    -0.203 F 
ATOM     91  C   UNL     1      -6.398   9.668   1.641  1.00  0.00     0.198 A 
ATOM     92  C   UNL     1      -5.400   8.912  -0.407  1.00  0.00     0.198 A 
ATOM     93  F   UNL     1      -5.308   6.609  -0.888  1.00  0.00    -0.203 F 
ATOM     94  F   UNL     1      -6.786  10.670   2.442  1.00  0.00    -0.200 F 
ATOM     95  C   UNL     1      -5.773   9.949   0.435  1.00  0.00     0.200 A 
ATOM     96  F   UNL     1      -4.791   9.180  -1.571  1.00  0.00    -0.200 F 
ATOM     97  F   UNL     1      -5.539  11.220   0.080  1.00  0.00    -0.200 F 
ENDBRANCH  63  87
BRANCH  75  98
ATOM     98  C   UNL     1     -12.176   3.590   1.686  1.00  0.00     0.064 A 
ATOM     99  C   UNL     1     -12.728   3.800   0.415  1.00  0.00     0.173 A 
ATOM    100  C   UNL     1     -13.032   3.666   2.796  1.00  0.00     0.173 A 
ATOM    101  F   UNL     1     -11.948   3.752  -0.676  1.00  0.00    -0.203 F 
ATOM    102  C   UNL     1     -14.081   4.091   0.262  1.00  0.00     0.198 A 
ATOM    103  C   UNL     1     -14.390   3.932   2.637  1.00  0.00     0.198 A 
ATOM    104  F   UNL     1     -12.555   3.466   4.033  1.00  0.00    -0.203 F 
ATOM    105  F   UNL     1     -14.581   4.326  -0.960  1.00  0.00    -0.200 F 
ATOM    106  C   UNL     1     -14.912   4.149   1.371  1.00  0.00     0.200 A 
ATOM    107  F   UNL     1     -15.193   3.974   3.709  1.00  0.00    -0.200 F 
ATOM    108  F   UNL     1     -16.216   4.420   1.221  1.00  0.00    -0.200 F 
ENDBRANCH  75  98
ENDBRANCH  49  50
ENDBRANCH  42  44
ENDBRANCH  41  42
ENDBRANCH  40  41
ENDBRANCH  39  40
ENDBRANCH  38  39
ENDBRANCH  37  38
ENDBRANCH   1  37
TORSDOF 22
