REMARK SMILES Cn1cc([C@@H]2CC(OCCOCCOCCOC(=O)c3ccc(-c4c5nc(c(-c6c(F)c(F)c(F)c(F)c6F)c6ccc([nH]6)c(-c6c(F)c(F)c(F)c(F)c6F)c6nc(c(-c7c(F)c(F)c(F)c(F)c7F)c7ccc4[nH]7)C=C6)C=C5)cc3)=Nc3c2sc(C(=O)[O-])c3-c2ccc(Cl)cc2)cn1
REMARK SMILES IDX 13 1 12 2 11 3 10 4 9 5 8 6 7 7 5 8 6 9 85 10 84 11 86 12
REMARK SMILES IDX 83 13 91 14 87 15 4 16 1 17 2 18 3 19 100 20 99 21 92 22
REMARK SMILES IDX 93 23 98 24 94 25 97 26 95 27 96 28 88 29 89 30 90 31 14 32
REMARK SMILES IDX 15 33 16 34 17 35 18 36 19 37 20 38 21 39 82 40 22 41 81 42
REMARK SMILES IDX 23 43 24 44 25 45 75 46 26 47 80 48 74 49 76 50 27 51 79 52
REMARK SMILES IDX 73 53 72 54 28 56 60 57 40 58 59 59 41 60 44 61 58 62 77 63
REMARK SMILES IDX 42 64 43 65 57 67 78 68 45 69 29 70 30 71 38 72 31 73 32 74
REMARK SMILES IDX 36 75 39 76 33 77 34 78 37 79 35 80 61 81 62 82 70 83 63 84
REMARK SMILES IDX 64 85 68 86 71 87 65 88 66 89 69 90 67 91 46 92 47 93 55 94
REMARK SMILES IDX 48 95 49 96 53 97 56 98 50 99 51 100 54 101 52 102
REMARK H PARENT 76 55 44 66
REMARK Flexibility Score: inf
ROOT
ATOM      1  C   UNL     1       0.564  -5.116  -1.200  1.00  0.00     0.188 C 
ENDROOT
BRANCH   1   2
ATOM      2  C   UNL     1       1.746  -4.237  -1.578  1.00  0.00     0.188 C 
BRANCH   2   3
ATOM      3  O   UNL     1       1.600  -3.553  -2.813  1.00  0.00    -0.376 OA
BRANCH   3   4
ATOM      4  C   UNL     1       2.757  -2.912  -3.344  1.00  0.00     0.201 C 
BRANCH   4   5
ATOM      5  C   UNL     1       4.160  -3.468  -3.027  1.00  0.00     0.259 C 
BRANCH   5   6
ATOM      6  O   UNL     1       4.601  -3.651  -1.650  1.00  0.00    -0.478 OA
BRANCH   6   7
ATOM      7  C   UNL     1       4.188  -2.994  -0.545  1.00  0.00     0.189 C 
ATOM      8  C   UNL     1       3.439  -0.793   0.536  1.00  0.00     0.074 C 
ATOM      9  C   UNL     1       4.076  -1.495  -0.666  1.00  0.00     0.111 C 
ATOM     10  C   UNL     1       3.242  -1.740   1.670  1.00  0.00     0.040 A 
ATOM     11  C   UNL     1       3.490  -3.084   1.643  1.00  0.00     0.090 A 
ATOM     12  S   UNL     1       2.700  -1.229   3.193  1.00  0.00    -0.135 S 
ATOM     13  N   UNL     1       3.986  -3.732   0.505  1.00  0.00    -0.216 NA
ATOM     14  C   UNL     1       3.131  -3.758   2.867  1.00  0.00     0.028 A 
ATOM     15  C   UNL     1       2.746  -2.825   3.835  1.00  0.00     0.060 A 
BRANCH   8  16
ATOM     16  C   UNL     1       2.181  -0.039   0.175  1.00  0.00    -0.001 A 
ATOM     17  C   UNL     1      -1.327   0.789   0.006  1.00  0.00     0.173 C 
ATOM     18  N   UNL     1       0.109   0.664  -0.077  1.00  0.00    -0.276 N 
ATOM     19  C   UNL     1       0.861  -0.456   0.142  1.00  0.00     0.112 A 
ATOM     20  N   UNL     1       0.848   1.758  -0.329  1.00  0.00    -0.182 NA
ATOM     21  C   UNL     1       2.100   1.339  -0.144  1.00  0.00     0.139 A 
ENDBRANCH   8  16
BRANCH  14  22
ATOM     22  C   UNL     1       3.200  -5.198   3.155  1.00  0.00    -0.015 A 
ATOM     23  C   UNL     1       2.106  -5.879   3.720  1.00  0.00     0.010 A 
ATOM     24  C   UNL     1       4.394  -5.901   2.947  1.00  0.00     0.010 A 
ATOM     25  C   UNL     1       2.238  -7.200   4.162  1.00  0.00     0.021 A 
ATOM     26  C   UNL     1       4.520  -7.229   3.372  1.00  0.00     0.021 A 
ATOM     27  C   UNL     1       3.451  -7.863   4.001  1.00  0.00     0.041 A 
ATOM     28  Cl  UNL     1       3.639  -9.464   4.604  1.00  0.00    -0.084 Cl
ENDBRANCH  14  22
BRANCH  15  29
ATOM     29  C   UNL     1       2.403  -2.935   5.241  1.00  0.00     0.082 C 
ATOM     30  O   UNL     1       1.769  -2.146   5.926  1.00  0.00    -0.544 OA
ATOM     31  O   UNL     1       2.913  -4.039   5.826  1.00  0.00    -0.544 OA
ENDBRANCH  15  29
ENDBRANCH   6   7
ENDBRANCH   5   6
ENDBRANCH   4   5
ENDBRANCH   3   4
ENDBRANCH   2   3
ENDBRANCH   1   2
BRANCH   1  32
ATOM     32  O   UNL     1       0.251  -6.189  -2.088  1.00  0.00    -0.376 OA
BRANCH  32  33
ATOM     33  C   UNL     1       0.264  -5.940  -3.491  1.00  0.00     0.202 C 
BRANCH  33  34
ATOM     34  C   UNL     1      -0.896  -5.132  -4.067  1.00  0.00     0.261 C 
BRANCH  34  35
ATOM     35  O   UNL     1      -1.168  -3.942  -3.347  1.00  0.00    -0.460 OA
BRANCH  35  36
ATOM     36  C   UNL     1      -2.068  -4.101  -2.354  1.00  0.00     0.338 C 
ATOM     37  O   UNL     1      -2.566  -5.138  -1.952  1.00  0.00    -0.246 OA
BRANCH  36  38
ATOM     38  C   UNL     1      -2.487  -2.777  -1.880  1.00  0.00     0.060 A 
ATOM     39  C   UNL     1      -3.383  -2.783  -0.807  1.00  0.00     0.016 A 
ATOM     40  C   UNL     1      -2.385  -1.706  -2.776  1.00  0.00     0.016 A 
ATOM     41  C   UNL     1      -4.408  -1.871  -0.835  1.00  0.00     0.010 A 
ATOM     42  C   UNL     1      -3.427  -0.820  -2.824  1.00  0.00     0.010 A 
ATOM     43  C   UNL     1      -4.472  -0.994  -1.921  1.00  0.00    -0.014 A 
BRANCH  43  44
ATOM     44  C   UNL     1      -5.700  -0.271  -2.124  1.00  0.00     0.031 A 
ATOM     45  C   UNL     1      -5.838   0.917  -1.264  1.00  0.00     0.074 A 
ATOM     46  C   UNL     1      -6.564  -0.613  -3.095  1.00  0.00     0.049 A 
ATOM     47  N   UNL     1      -6.699   1.118  -0.327  1.00  0.00    -0.248 NA
ATOM     48  C   UNL     1      -4.787   1.941  -1.357  1.00  0.00     0.031 C 
ATOM     49  C   UNL     1      -6.394  -1.569  -4.193  1.00  0.00     0.029 A 
ATOM     50  N   UNL     1      -7.776  -0.065  -3.352  1.00  0.00    -0.354 N 
ATOM     51  C   UNL     1      -6.407   2.377   0.185  1.00  0.00     0.074 A 
ATOM     52  C   UNL     1      -5.130   2.755  -0.361  1.00  0.00     0.031 C 
ATOM     53  C   UNL     1      -7.362  -1.356  -5.115  1.00  0.00     0.029 A 
ATOM     54  C   UNL     1      -8.276  -0.345  -4.612  1.00  0.00     0.049 A 
ATOM     55  H   UNL     1      -8.261   0.487  -2.697  1.00  0.00     0.167 HD
ATOM     56  C   UNL     1      -7.351   3.103   0.840  1.00  0.00     0.037 A 
ATOM     57  C   UNL     1      -9.297   0.324  -5.202  1.00  0.00     0.037 A 
ATOM     58  C   UNL     1      -8.433   2.265   1.291  1.00  0.00     0.049 A 
ATOM     59  C   UNL     1     -10.062   1.004  -4.115  1.00  0.00     0.074 A 
ATOM     60  C   UNL     1      -8.513   1.174   2.137  1.00  0.00     0.029 A 
ATOM     61  N   UNL     1      -9.603   2.256   0.569  1.00  0.00    -0.354 N 
ATOM     62  N   UNL     1     -10.754   0.367  -3.208  1.00  0.00    -0.248 NA
ATOM     63  C   UNL     1      -9.664   2.360  -3.751  1.00  0.00     0.031 C 
ATOM     64  C   UNL     1      -9.465   0.304   1.528  1.00  0.00     0.029 A 
ATOM     65  C   UNL     1      -9.946   0.940   0.384  1.00  0.00     0.049 A 
ATOM     66  H   UNL     1     -10.099   3.043   0.246  1.00  0.00     0.167 HD
ATOM     67  C   UNL     1     -10.529   1.064  -2.027  1.00  0.00     0.074 A 
ATOM     68  C   UNL     1      -9.912   2.323  -2.438  1.00  0.00     0.031 C 
ATOM     69  C   UNL     1     -10.585   0.443  -0.812  1.00  0.00     0.037 A 
BRANCH  56  70
ATOM     70  C   UNL     1      -7.467   4.604   0.755  1.00  0.00     0.064 A 
ATOM     71  C   UNL     1      -8.426   5.255   1.555  1.00  0.00     0.173 A 
ATOM     72  C   UNL     1      -6.903   5.387  -0.277  1.00  0.00     0.173 A 
ATOM     73  F   UNL     1      -9.030   4.607   2.563  1.00  0.00    -0.203 F 
ATOM     74  C   UNL     1      -8.860   6.552   1.276  1.00  0.00     0.198 A 
ATOM     75  C   UNL     1      -7.298   6.700  -0.516  1.00  0.00     0.198 A 
ATOM     76  F   UNL     1      -6.037   4.890  -1.166  1.00  0.00    -0.203 F 
ATOM     77  F   UNL     1      -9.874   7.077   1.977  1.00  0.00    -0.200 F 
ATOM     78  C   UNL     1      -8.304   7.270   0.234  1.00  0.00     0.200 A 
ATOM     79  F   UNL     1      -6.754   7.374  -1.539  1.00  0.00    -0.200 F 
ATOM     80  F   UNL     1      -8.767   8.486  -0.080  1.00  0.00    -0.200 F 
ENDBRANCH  56  70
BRANCH  57  81
ATOM     81  C   UNL     1      -9.386   0.724  -6.628  1.00  0.00     0.064 A 
ATOM     82  C   UNL     1     -10.588   1.207  -7.168  1.00  0.00     0.173 A 
ATOM     83  C   UNL     1      -8.235   0.890  -7.426  1.00  0.00     0.173 A 
ATOM     84  F   UNL     1     -11.723   1.134  -6.456  1.00  0.00    -0.203 F 
ATOM     85  C   UNL     1     -10.633   1.833  -8.419  1.00  0.00     0.198 A 
ATOM     86  C   UNL     1      -8.282   1.504  -8.678  1.00  0.00     0.198 A 
ATOM     87  F   UNL     1      -7.021   0.547  -6.973  1.00  0.00    -0.203 F 
ATOM     88  F   UNL     1     -11.789   2.336  -8.874  1.00  0.00    -0.200 F 
ATOM     89  C   UNL     1      -9.478   1.988  -9.169  1.00  0.00     0.200 A 
ATOM     90  F   UNL     1      -7.149   1.677  -9.375  1.00  0.00    -0.200 F 
ATOM     91  F   UNL     1      -9.509   2.638 -10.340  1.00  0.00    -0.200 F 
ENDBRANCH  57  81
BRANCH  69  92
ATOM     92  C   UNL     1     -11.108  -0.965  -0.759  1.00  0.00     0.064 A 
ATOM     93  C   UNL     1     -10.485  -2.050  -1.402  1.00  0.00     0.173 A 
ATOM     94  C   UNL     1     -12.171  -1.257   0.104  1.00  0.00     0.173 A 
ATOM     95  F   UNL     1      -9.391  -1.870  -2.150  1.00  0.00    -0.203 F 
ATOM     96  C   UNL     1     -10.939  -3.356  -1.227  1.00  0.00     0.198 A 
ATOM     97  C   UNL     1     -12.599  -2.566   0.308  1.00  0.00     0.198 A 
ATOM     98  F   UNL     1     -12.763  -0.271   0.797  1.00  0.00    -0.203 F 
ATOM     99  F   UNL     1     -10.330  -4.369  -1.861  1.00  0.00    -0.200 F 
ATOM    100  C   UNL     1     -11.991  -3.614  -0.366  1.00  0.00     0.200 A 
ATOM    101  F   UNL     1     -13.581  -2.817   1.184  1.00  0.00    -0.200 F 
ATOM    102  F   UNL     1     -12.399  -4.874  -0.161  1.00  0.00    -0.200 F 
ENDBRANCH  69  92
ENDBRANCH  43  44
ENDBRANCH  36  38
ENDBRANCH  35  36
ENDBRANCH  34  35
ENDBRANCH  33  34
ENDBRANCH  32  33
ENDBRANCH   1  32
TORSDOF 19
