REMARK SMILES C=CCN(CC(=O)OCCOCCOCCOC(=O)c1ccc(-c2c3nc(c(-c4c(F)c(F)c(F)c(F)c4F)c4ccc([nH]4)c(-c4c(F)c(F)c(F)c(F)c4F)c4nc(c(-c5c(F)c(F)c(F)c(F)c5F)c5ccc2[nH]5)C=C4)C=C3)cc1)C(=O)C1C[NH2+]C1
REMARK SMILES IDX 12 1 11 2 10 3 9 4 8 5 6 6 7 7 5 8 4 9 3 10 2 11 1 12 83 13
REMARK SMILES IDX 84 14 85 15 86 16 88 17 87 18 13 21 14 22 15 23 16 24 17 25
REMARK SMILES IDX 18 26 19 27 20 28 21 29 82 30 22 31 81 32 23 33 24 34 25 35
REMARK SMILES IDX 75 36 26 37 80 38 74 39 76 40 27 41 79 42 73 43 72 44 28 46
REMARK SMILES IDX 60 47 40 48 59 49 41 50 44 51 58 52 77 53 42 54 43 55 57 57
REMARK SMILES IDX 78 58 45 59 29 60 30 61 38 62 31 63 32 64 36 65 39 66 33 67
REMARK SMILES IDX 34 68 37 69 35 70 61 71 62 72 70 73 63 74 64 75 68 76 71 77
REMARK SMILES IDX 65 78 66 79 69 80 67 81 46 82 47 83 55 84 48 85 49 86 53 87
REMARK SMILES IDX 56 88 50 89 51 90 54 91 52 92
REMARK H PARENT 87 19 87 20 76 45 44 56
REMARK Flexibility Score: inf
ROOT
ATOM      1  C   UNL     1      -4.854   0.277   4.004  1.00  0.00     0.188 C 
ENDROOT
BRANCH   1   2
ATOM      2  O   UNL     1      -6.158   0.587   3.518  1.00  0.00    -0.376 OA
BRANCH   2   3
ATOM      3  C   UNL     1      -6.305   0.715   2.104  1.00  0.00     0.202 C 
BRANCH   3   4
ATOM      4  C   UNL     1      -5.644   1.968   1.528  1.00  0.00     0.261 C 
BRANCH   4   5
ATOM      5  O   UNL     1      -4.206   1.837   1.522  1.00  0.00    -0.462 OA
BRANCH   5   6
ATOM      6  C   UNL     1      -3.501   2.945   1.873  1.00  0.00     0.325 C 
ATOM      7  O   UNL     1      -4.000   4.026   2.167  1.00  0.00    -0.250 OA
BRANCH   6   8
ATOM      8  C   UNL     1      -1.989   2.700   1.967  1.00  0.00     0.242 C 
BRANCH   8   9
ATOM      9  N   UNL     1      -1.467   1.428   1.450  1.00  0.00    -0.327 N 
BRANCH   9  10
ATOM     10  C   UNL     1      -1.415   1.267   0.003  1.00  0.00     0.147 C 
BRANCH  10  11
ATOM     11  C   UNL     1      -0.012   1.593  -0.432  1.00  0.00    -0.014 C 
ATOM     12  C   UNL     1       0.893   0.672  -0.793  1.00  0.00     0.006 C 
ENDBRANCH  10  11
ENDBRANCH   9  10
BRANCH   9  13
ATOM     13  C   UNL     1      -0.970   0.378   2.229  1.00  0.00     0.237 C 
ATOM     14  O   UNL     1      -0.801  -0.746   1.737  1.00  0.00    -0.274 OA
BRANCH  13  15
ATOM     15  C   UNL     1      -0.626   0.653   3.702  1.00  0.00     0.188 C 
ATOM     16  C   UNL     1       0.300  -0.381   4.392  1.00  0.00     0.280 C 
ATOM     17  C   UNL     1       0.499   1.651   4.043  1.00  0.00     0.280 C 
ATOM     18  N   UNL     1       0.983   0.727   5.087  1.00  0.00    -0.345 N 
ATOM     19  H   UNL     1       1.998   0.634   5.127  1.00  0.00     0.346 HD
ATOM     20  H   UNL     1       0.807   0.914   6.074  1.00  0.00     0.346 HD
ENDBRANCH  13  15
ENDBRANCH   9  13
ENDBRANCH   8   9
ENDBRANCH   6   8
ENDBRANCH   5   6
ENDBRANCH   4   5
ENDBRANCH   3   4
ENDBRANCH   2   3
ENDBRANCH   1   2
BRANCH   1  21
ATOM     21  C   UNL     1      -4.104  -0.849   3.274  1.00  0.00     0.188 C 
BRANCH  21  22
ATOM     22  O   UNL     1      -4.877  -2.007   2.975  1.00  0.00    -0.376 OA
BRANCH  22  23
ATOM     23  C   UNL     1      -5.513  -2.648   4.079  1.00  0.00     0.202 C 
BRANCH  23  24
ATOM     24  C   UNL     1      -4.528  -3.211   5.099  1.00  0.00     0.261 C 
BRANCH  24  25
ATOM     25  O   UNL     1      -4.035  -2.149   5.939  1.00  0.00    -0.460 OA
BRANCH  25  26
ATOM     26  C   UNL     1      -3.113  -2.560   6.835  1.00  0.00     0.338 C 
ATOM     27  O   UNL     1      -2.717  -3.706   6.997  1.00  0.00    -0.246 OA
BRANCH  26  28
ATOM     28  C   UNL     1      -2.610  -1.424   7.635  1.00  0.00     0.060 A 
ATOM     29  C   UNL     1      -2.281  -0.200   7.049  1.00  0.00     0.016 A 
ATOM     30  C   UNL     1      -2.313  -1.649   8.978  1.00  0.00     0.016 A 
ATOM     31  C   UNL     1      -1.525   0.739   7.763  1.00  0.00     0.010 A 
ATOM     32  C   UNL     1      -1.621  -0.683   9.710  1.00  0.00     0.010 A 
ATOM     33  C   UNL     1      -1.140   0.484   9.088  1.00  0.00    -0.014 A 
BRANCH  33  34
ATOM     34  C   UNL     1      -0.099   1.295   9.790  1.00  0.00     0.031 A 
ATOM     35  C   UNL     1       1.142   0.595  10.296  1.00  0.00     0.074 A 
ATOM     36  C   UNL     1      -0.200   2.624   9.979  1.00  0.00     0.049 A 
ATOM     37  N   UNL     1       2.005   0.975  11.206  1.00  0.00    -0.248 NA
ATOM     38  C   UNL     1       1.433  -0.724   9.711  1.00  0.00     0.031 C 
ATOM     39  C   UNL     1      -1.265   3.485   9.474  1.00  0.00     0.029 A 
ATOM     40  N   UNL     1       0.629   3.485  10.661  1.00  0.00    -0.354 N 
ATOM     41  C   UNL     1       2.871  -0.100  11.375  1.00  0.00     0.074 A 
ATOM     42  C   UNL     1       2.451  -1.133  10.453  1.00  0.00     0.031 C 
ATOM     43  C   UNL     1      -1.008   4.755   9.830  1.00  0.00     0.029 A 
ATOM     44  C   UNL     1       0.187   4.785  10.670  1.00  0.00     0.049 A 
ATOM     45  H   UNL     1       1.461   3.196  11.101  1.00  0.00     0.167 HD
ATOM     46  C   UNL     1       3.911  -0.219  12.235  1.00  0.00     0.037 A 
ATOM     47  C   UNL     1       0.660   5.867  11.321  1.00  0.00     0.037 A 
ATOM     48  C   UNL     1       4.399   0.845  13.072  1.00  0.00     0.049 A 
ATOM     49  C   UNL     1       1.833   5.728  12.256  1.00  0.00     0.074 A 
ATOM     50  C   UNL     1       5.432   0.820  13.993  1.00  0.00     0.029 A 
ATOM     51  N   UNL     1       3.915   2.143  13.049  1.00  0.00    -0.354 N 
ATOM     52  N   UNL     1       2.543   4.665  12.544  1.00  0.00    -0.248 NA
ATOM     53  C   UNL     1       2.246   6.937  12.984  1.00  0.00     0.031 C 
ATOM     54  C   UNL     1       5.569   2.104  14.533  1.00  0.00     0.029 A 
ATOM     55  C   UNL     1       4.639   2.932  13.926  1.00  0.00     0.049 A 
ATOM     56  H   UNL     1       3.166   2.457  12.492  1.00  0.00     0.167 HD
ATOM     57  C   UNL     1       3.482   5.075  13.481  1.00  0.00     0.074 A 
ATOM     58  C   UNL     1       3.272   6.491  13.695  1.00  0.00     0.031 C 
ATOM     59  C   UNL     1       4.425   4.341  14.121  1.00  0.00     0.037 A 
BRANCH  46  60
ATOM     60  C   UNL     1       4.568  -1.562  12.350  1.00  0.00     0.064 A 
ATOM     61  C   UNL     1       5.435  -2.058  11.369  1.00  0.00     0.173 A 
ATOM     62  C   UNL     1       4.347  -2.348  13.493  1.00  0.00     0.173 A 
ATOM     63  F   UNL     1       5.664  -1.352  10.252  1.00  0.00    -0.203 F 
ATOM     64  C   UNL     1       6.044  -3.303  11.517  1.00  0.00     0.198 A 
ATOM     65  C   UNL     1       4.977  -3.579  13.650  1.00  0.00     0.198 A 
ATOM     66  F   UNL     1       3.528  -1.915  14.464  1.00  0.00    -0.203 F 
ATOM     67  F   UNL     1       6.839  -3.777  10.549  1.00  0.00    -0.200 F 
ATOM     68  C   UNL     1       5.821  -4.058  12.660  1.00  0.00     0.200 A 
ATOM     69  F   UNL     1       4.769  -4.300  14.761  1.00  0.00    -0.200 F 
ATOM     70  F   UNL     1       6.415  -5.250  12.805  1.00  0.00    -0.200 F 
ENDBRANCH  46  60
BRANCH  47  71
ATOM     71  C   UNL     1      -0.008   7.183  11.150  1.00  0.00     0.064 A 
ATOM     72  C   UNL     1       0.632   8.229  10.470  1.00  0.00     0.173 A 
ATOM     73  C   UNL     1      -1.289   7.427  11.667  1.00  0.00     0.173 A 
ATOM     74  F   UNL     1       1.871   8.053   9.988  1.00  0.00    -0.203 F 
ATOM     75  C   UNL     1       0.018   9.470  10.319  1.00  0.00     0.198 A 
ATOM     76  C   UNL     1      -1.913   8.659  11.489  1.00  0.00     0.198 A 
ATOM     77  F   UNL     1      -1.939   6.461  12.331  1.00  0.00    -0.203 F 
ATOM     78  F   UNL     1       0.667  10.465   9.699  1.00  0.00    -0.200 F 
ATOM     79  C   UNL     1      -1.257   9.681  10.821  1.00  0.00     0.200 A 
ATOM     80  F   UNL     1      -3.150   8.855  11.966  1.00  0.00    -0.200 F 
ATOM     81  F   UNL     1      -1.852  10.872  10.666  1.00  0.00    -0.200 F 
ENDBRANCH  47  71
BRANCH  59  82
ATOM     82  C   UNL     1       5.316   5.058  15.090  1.00  0.00     0.064 A 
ATOM     83  C   UNL     1       4.858   5.437  16.360  1.00  0.00     0.173 A 
ATOM     84  C   UNL     1       6.648   5.341  14.757  1.00  0.00     0.173 A 
ATOM     85  F   UNL     1       3.588   5.199  16.718  1.00  0.00    -0.203 F 
ATOM     86  C   UNL     1       5.698   6.095  17.255  1.00  0.00     0.198 A 
ATOM     87  C   UNL     1       7.491   5.981  15.661  1.00  0.00     0.198 A 
ATOM     88  F   UNL     1       7.133   4.993  13.555  1.00  0.00    -0.203 F 
ATOM     89  F   UNL     1       5.230   6.483  18.449  1.00  0.00    -0.200 F 
ATOM     90  C   UNL     1       7.014   6.362  16.906  1.00  0.00     0.200 A 
ATOM     91  F   UNL     1       8.764   6.234  15.326  1.00  0.00    -0.200 F 
ATOM     92  F   UNL     1       7.821   6.997  17.768  1.00  0.00    -0.200 F 
ENDBRANCH  59  82
ENDBRANCH  33  34
ENDBRANCH  26  28
ENDBRANCH  25  26
ENDBRANCH  24  25
ENDBRANCH  23  24
ENDBRANCH  22  23
ENDBRANCH  21  22
ENDBRANCH   1  21
TORSDOF 22
