REMARK SMILES Cc1cccc(-c2ncc(C[NH+]3CCC4(CC3)NC(=O)C[C@H]4C(=O)OCCOCCOCCOC(=O)c3ccc(-c4c5nc(c(-c6c(F)c(F)c(F)c(F)c6F)c6ccc([nH]6)c(-c6c(F)c(F)c(F)c(F)c6F)c6nc(c(-c7c(F)c(F)c(F)c(F)c7F)c7ccc4[nH]7)C=C6)C=C5)cc3)cn2)c1
REMARK SMILES IDX 29 1 28 2 27 3 26 4 25 5 23 6 24 7 22 8 12 9 13 10 17 11
REMARK SMILES IDX 14 13 16 14 15 15 18 16 19 17 21 19 20 20 11 21 10 22 7 23
REMARK SMILES IDX 8 24 101 25 9 26 100 27 6 28 1 29 2 30 3 31 102 32 4 33 5 34
REMARK SMILES IDX 30 35 31 36 32 37 33 38 34 39 35 40 36 41 37 42 38 43 99 44
REMARK SMILES IDX 39 45 98 46 40 47 41 48 42 49 92 50 43 51 97 52 91 53 93 54
REMARK SMILES IDX 44 55 96 56 90 57 89 58 45 60 77 61 57 62 76 63 58 64 61 65
REMARK SMILES IDX 75 66 94 67 59 68 60 69 74 71 95 72 62 73 46 74 47 75 55 76
REMARK SMILES IDX 48 77 49 78 53 79 56 80 50 81 51 82 54 83 52 84 78 85 79 86
REMARK SMILES IDX 87 87 80 88 81 89 85 90 88 91 82 92 83 93 86 94 84 95 63 96
REMARK SMILES IDX 64 97 72 98 65 99 66 100 70 101 73 102 67 103 68 104 71 105
REMARK SMILES IDX 69 106
REMARK H PARENT 12 12 18 18 93 59 61 70
REMARK Flexibility Score: inf
ROOT
ATOM      1  C   UNL     1      -2.251   7.583  -5.613  1.00  0.00     0.188 C 
ENDROOT
BRANCH   1   2
ATOM      2  O   UNL     1      -1.036   6.887  -5.997  1.00  0.00    -0.376 OA
BRANCH   2   3
ATOM      3  C   UNL     1      -0.530   5.541  -5.730  1.00  0.00     0.202 C 
BRANCH   3   4
ATOM      4  C   UNL     1      -0.027   4.619  -4.272  1.00  0.00     0.261 C 
BRANCH   4   5
ATOM      5  O   UNL     1       0.576   4.863  -2.529  1.00  0.00    -0.463 OA
BRANCH   5   6
ATOM      6  C   UNL     1       1.417   5.649  -1.488  1.00  0.00     0.311 C 
ATOM      7  O   UNL     1       2.145   6.648  -1.651  1.00  0.00    -0.252 OA
BRANCH   6   8
ATOM      8  C   UNL     1       1.217   5.503  -0.046  1.00  0.00     0.134 C 
ATOM      9  N   UNL     1      -3.408   7.401   0.324  1.00  0.00    -0.331 N 
ATOM     10  C   UNL     1      -2.067   7.634   1.342  1.00  0.00     0.264 C 
ATOM     11  C   UNL     1      -2.721   6.841  -1.387  1.00  0.00     0.264 C 
ATOM     12  H   UNL     1      -4.002   8.195   0.084  1.00  0.00     0.348 HD
ATOM     13  C   UNL     1      -0.717   6.445   1.612  1.00  0.00     0.091 C 
ATOM     14  C   UNL     1      -1.316   5.104  -1.308  1.00  0.00     0.091 C 
ATOM     15  C   UNL     1      -0.191   5.181   0.325  1.00  0.00     0.064 C 
ATOM     16  N   UNL     1       0.057   3.962   1.054  1.00  0.00    -0.349 N 
ATOM     17  C   UNL     1       1.389   3.689   1.336  1.00  0.00     0.221 C 
ATOM     18  H   UNL     1      -0.672   3.362   1.334  1.00  0.00     0.164 HD
ATOM     19  C   UNL     1       2.244   4.727   0.720  1.00  0.00     0.117 C 
ATOM     20  O   UNL     1       1.804   2.764   2.010  1.00  0.00    -0.275 OA
BRANCH   9  21
ATOM     21  C   UNL     1      -4.386   6.234   1.278  1.00  0.00     0.302 C 
BRANCH  21  22
ATOM     22  C   UNL     1      -4.161   4.567   1.530  1.00  0.00     0.043 A 
ATOM     23  C   UNL     1      -2.861   2.082   1.060  1.00  0.00     0.159 A 
ATOM     24  N   UNL     1      -2.425   2.891   2.051  1.00  0.00    -0.236 NA
ATOM     25  N   UNL     1      -4.048   2.317   0.475  1.00  0.00    -0.236 NA
ATOM     26  C   UNL     1      -3.145   4.047   2.325  1.00  0.00     0.124 A 
ATOM     27  C   UNL     1      -4.686   3.517   0.773  1.00  0.00     0.124 A 
BRANCH  23  28
ATOM     28  C   UNL     1      -2.006   0.907   0.605  1.00  0.00     0.019 A 
ATOM     29  C   UNL     1       1.750  -0.030   0.135  1.00  0.00     0.044 C 
ATOM     30  C   UNL     1       0.244  -0.153   0.160  1.00  0.00    -0.050 A 
ATOM     31  C   UNL     1      -0.355  -1.387  -0.016  1.00  0.00     0.003 A 
ATOM     32  C   UNL     1      -0.595   0.953   0.442  1.00  0.00     0.015 A 
ATOM     33  C   UNL     1      -1.747  -1.478   0.035  1.00  0.00     0.001 A 
ATOM     34  C   UNL     1      -2.555  -0.353   0.329  1.00  0.00     0.012 A 
ENDBRANCH  23  28
ENDBRANCH  21  22
ENDBRANCH   9  21
ENDBRANCH   6   8
ENDBRANCH   5   6
ENDBRANCH   4   5
ENDBRANCH   3   4
ENDBRANCH   2   3
ENDBRANCH   1   2
BRANCH   1  35
ATOM     35  C   UNL     1      -3.632   6.902  -5.524  1.00  0.00     0.188 C 
BRANCH  35  36
ATOM     36  O   UNL     1      -3.508   5.524  -5.793  1.00  0.00    -0.376 OA
BRANCH  36  37
ATOM     37  C   UNL     1      -4.542   4.630  -5.404  1.00  0.00     0.202 C 
BRANCH  37  38
ATOM     38  C   UNL     1      -5.630   5.033  -4.380  1.00  0.00     0.261 C 
BRANCH  38  39
ATOM     39  O   UNL     1      -5.489   5.144  -2.879  1.00  0.00    -0.460 OA
BRANCH  39  40
ATOM     40  C   UNL     1      -5.019   5.176  -1.601  1.00  0.00     0.338 C 
ATOM     41  O   UNL     1      -5.853   5.506  -0.772  1.00  0.00    -0.246 OA
BRANCH  40  42
ATOM     42  C   UNL     1      -3.451   4.914  -1.245  1.00  0.00     0.060 A 
ATOM     43  C   UNL     1      -2.314   5.747  -0.030  1.00  0.00     0.016 A 
ATOM     44  C   UNL     1      -2.992   5.028  -2.747  1.00  0.00     0.016 A 
ATOM     45  C   UNL     1      -0.905   6.888  -0.812  1.00  0.00     0.010 A 
ATOM     46  C   UNL     1      -1.788   6.028  -3.297  1.00  0.00     0.010 A 
ATOM     47  C   UNL     1      -0.582   6.877  -2.569  1.00  0.00    -0.014 A 
BRANCH  47  48
ATOM     48  C   UNL     1       0.985   6.761  -3.619  1.00  0.00     0.031 A 
ATOM     49  C   UNL     1       2.347   5.412  -3.650  1.00  0.00     0.074 A 
ATOM     50  C   UNL     1       1.175   7.624  -4.628  1.00  0.00     0.049 A 
ATOM     51  N   UNL     1       3.610   5.569  -3.277  1.00  0.00    -0.248 NA
ATOM     52  C   UNL     1       2.196   3.757  -3.486  1.00  0.00     0.031 C 
ATOM     53  C   UNL     1       2.139   7.546  -5.729  1.00  0.00     0.029 A 
ATOM     54  N   UNL     1       0.456   8.778  -4.912  1.00  0.00    -0.354 N 
ATOM     55  C   UNL     1       4.192   4.279  -3.058  1.00  0.00     0.074 A 
ATOM     56  C   UNL     1       3.177   3.397  -2.687  1.00  0.00     0.031 C 
ATOM     57  C   UNL     1       2.196   8.754  -6.324  1.00  0.00     0.029 A 
ATOM     58  C   UNL     1       1.380   9.648  -5.514  1.00  0.00     0.049 A 
ATOM     59  H   UNL     1      -0.497   8.949  -4.731  1.00  0.00     0.167 HD
ATOM     60  C   UNL     1       5.287   3.824  -3.739  1.00  0.00     0.037 A 
ATOM     61  C   UNL     1       1.823  10.684  -4.747  1.00  0.00     0.037 A 
ATOM     62  C   UNL     1       5.668   4.909  -4.600  1.00  0.00     0.049 A 
ATOM     63  C   UNL     1       3.289  10.460  -4.441  1.00  0.00     0.074 A 
ATOM     64  C   UNL     1       5.310   5.236  -5.896  1.00  0.00     0.029 A 
ATOM     65  N   UNL     1       5.984   6.087  -3.959  1.00  0.00    -0.354 N 
ATOM     66  N   UNL     1       3.870   9.292  -4.302  1.00  0.00    -0.248 NA
ATOM     67  C   UNL     1       4.238  11.563  -4.473  1.00  0.00     0.031 C 
ATOM     68  C   UNL     1       5.389   6.658  -6.003  1.00  0.00     0.029 A 
ATOM     69  C   UNL     1       5.794   7.170  -4.780  1.00  0.00     0.049 A 
ATOM     70  H   UNL     1       6.305   6.144  -3.030  1.00  0.00     0.167 HD
ATOM     71  C   UNL     1       5.230   9.467  -4.287  1.00  0.00     0.074 A 
ATOM     72  C   UNL     1       5.403  10.904  -4.391  1.00  0.00     0.031 C 
ATOM     73  C   UNL     1       6.160   8.465  -4.248  1.00  0.00     0.037 A 
BRANCH  60  74
ATOM     74  C   UNL     1       5.703   2.352  -3.911  1.00  0.00     0.064 A 
ATOM     75  C   UNL     1       6.498   1.984  -5.015  1.00  0.00     0.173 A 
ATOM     76  C   UNL     1       5.375   1.262  -3.059  1.00  0.00     0.173 A 
ATOM     77  F   UNL     1       6.957   2.907  -5.869  1.00  0.00    -0.203 F 
ATOM     78  C   UNL     1       6.868   0.657  -5.284  1.00  0.00     0.198 A 
ATOM     79  C   UNL     1       5.687  -0.075  -3.365  1.00  0.00     0.198 A 
ATOM     80  F   UNL     1       4.794   1.442  -1.866  1.00  0.00    -0.203 F 
ATOM     81  F   UNL     1       7.648   0.391  -6.340  1.00  0.00    -0.200 F 
ATOM     82  C   UNL     1       6.441  -0.376  -4.477  1.00  0.00     0.200 A 
ATOM     83  F   UNL     1       5.265  -1.065  -2.562  1.00  0.00    -0.200 F 
ATOM     84  F   UNL     1       6.781  -1.643  -4.749  1.00  0.00    -0.200 F 
ENDBRANCH  60  74
BRANCH  61  85
ATOM     85  C   UNL     1       0.714  11.166  -3.841  1.00  0.00     0.064 A 
ATOM     86  C   UNL     1      -0.504  11.547  -4.470  1.00  0.00     0.173 A 
ATOM     87  C   UNL     1       0.631  10.803  -2.490  1.00  0.00     0.173 A 
ATOM     88  F   UNL     1      -0.507  11.891  -5.769  1.00  0.00    -0.203 F 
ATOM     89  C   UNL     1      -1.740  11.395  -3.838  1.00  0.00     0.198 A 
ATOM     90  C   UNL     1      -0.613  10.690  -1.849  1.00  0.00     0.198 A 
ATOM     91  F   UNL     1       1.731  10.450  -1.813  1.00  0.00    -0.203 F 
ATOM     92  F   UNL     1      -2.875  11.585  -4.529  1.00  0.00    -0.200 F 
ATOM     93  C   UNL     1      -1.795  10.941  -2.535  1.00  0.00     0.200 A 
ATOM     94  F   UNL     1      -0.674  10.259  -0.580  1.00  0.00    -0.200 F 
ATOM     95  F   UNL     1      -2.983  10.705  -1.959  1.00  0.00    -0.200 F 
ENDBRANCH  61  85
BRANCH  73  96
ATOM     96  C   UNL     1       7.560   8.609  -3.663  1.00  0.00     0.064 A 
ATOM     97  C   UNL     1       7.941   9.677  -2.839  1.00  0.00     0.173 A 
ATOM     98  C   UNL     1       8.517   7.557  -3.752  1.00  0.00     0.173 A 
ATOM     99  F   UNL     1       7.095  10.662  -2.517  1.00  0.00    -0.203 F 
ATOM    100  C   UNL     1       9.205   9.745  -2.255  1.00  0.00     0.198 A 
ATOM    101  C   UNL     1       9.718   7.567  -3.052  1.00  0.00     0.198 A 
ATOM    102  F   UNL     1       8.321   6.458  -4.495  1.00  0.00    -0.203 F 
ATOM    103  F   UNL     1       9.554  10.846  -1.578  1.00  0.00    -0.200 F 
ATOM    104  C   UNL     1      10.084   8.684  -2.341  1.00  0.00     0.200 A 
ATOM    105  F   UNL     1      10.506   6.483  -3.069  1.00  0.00    -0.200 F 
ATOM    106  F   UNL     1      11.274   8.734  -1.733  1.00  0.00    -0.200 F 
ENDBRANCH  73  96
ENDBRANCH  47  48
ENDBRANCH  40  42
ENDBRANCH  39  40
ENDBRANCH  38  39
ENDBRANCH  37  38
ENDBRANCH  36  37
ENDBRANCH  35  36
ENDBRANCH   1  35
TORSDOF 20
