REMARK SMILES C[C@@](NC(=O)CS(C)(=O)=O)(C(=O)OCCOCCOCCOC(=O)c1ccc(-c2c3nc(c(-c4c(F)c(F)c(F)c(F)c4F)c4ccc([nH]4)c(-c4c(F)c(F)c(F)c(F)c4F)c4nc(c(-c5c(F)c(F)c(F)c(F)c5F)c5ccc2[nH]5)C=C4)C=C3)cc1)C(F)(F)F
REMARK SMILES IDX 17 1 16 2 15 3 14 4 13 5 11 6 12 7 2 8 1 9 3 10 4 11 5 13
REMARK SMILES IDX 6 14 7 15 8 16 9 17 10 18 88 19 89 20 90 21 91 22 18 23
REMARK SMILES IDX 19 24 20 25 21 26 22 27 23 28 24 29 25 30 26 31 87 32 27 33
REMARK SMILES IDX 86 34 28 35 29 36 30 37 80 38 31 39 85 40 79 41 81 42 32 43
REMARK SMILES IDX 84 44 78 45 77 46 33 48 65 49 45 50 64 51 46 52 49 53 63 54
REMARK SMILES IDX 82 55 47 56 48 57 62 59 83 60 50 61 34 62 35 63 43 64 36 65
REMARK SMILES IDX 37 66 41 67 44 68 38 69 39 70 42 71 40 72 66 73 67 74 75 75
REMARK SMILES IDX 68 76 69 77 73 78 76 79 70 80 71 81 74 82 72 83 51 84 52 85
REMARK SMILES IDX 60 86 53 87 54 88 58 89 61 90 55 91 56 92 59 93 57 94
REMARK H PARENT 3 12 81 47 49 58
REMARK Flexibility Score: inf
ROOT
ATOM      1  C   UNL     1      -2.465  -2.367   0.227  1.00  0.00     0.188 C 
ENDROOT
BRANCH   1   2
ATOM      2  O   UNL     1      -3.759  -1.824   0.413  1.00  0.00    -0.376 OA
BRANCH   2   3
ATOM      3  C   UNL     1      -3.915  -1.058   1.598  1.00  0.00     0.202 C 
BRANCH   3   4
ATOM      4  C   UNL     1      -3.133   0.253   1.595  1.00  0.00     0.261 C 
BRANCH   4   5
ATOM      5  O   UNL     1      -1.690   0.125   1.474  1.00  0.00    -0.461 OA
BRANCH   5   6
ATOM      6  C   UNL     1      -0.964  -0.293   2.544  1.00  0.00     0.341 C 
ATOM      7  O   UNL     1      -1.483  -0.633   3.597  1.00  0.00    -0.249 OA
BRANCH   6   8
ATOM      8  C   UNL     1       0.542  -0.034   2.338  1.00  0.00     0.231 C 
ATOM      9  C   UNL     1       1.083   0.001   0.894  1.00  0.00     0.058 C 
BRANCH   8  10
ATOM     10  N   UNL     1       0.961   1.249   3.003  1.00  0.00    -0.332 N 
ATOM     11  C   UNL     1       0.535   2.532   2.768  1.00  0.00     0.236 C 
ATOM     12  H   UNL     1       1.639   1.154   3.711  1.00  0.00     0.164 HD
ATOM     13  O   UNL     1       1.403   3.401   2.727  1.00  0.00    -0.274 OA
BRANCH  11  14
ATOM     14  C   UNL     1      -0.923   2.870   2.744  1.00  0.00     0.236 C 
BRANCH  14  15
ATOM     15  S   UNL     1      -1.478   3.712   1.285  1.00  0.00     0.156 S 
ATOM     16  C   UNL     1      -0.778   2.888  -0.123  1.00  0.00     0.158 C 
ATOM     17  O   UNL     1      -2.914   3.494   1.212  1.00  0.00    -0.229 OA
ATOM     18  O   UNL     1      -0.959   5.064   1.297  1.00  0.00    -0.229 OA
ENDBRANCH  14  15
ENDBRANCH  11  14
ENDBRANCH   8  10
BRANCH   8  19
ATOM     19  C   UNL     1       1.192  -1.287   2.974  1.00  0.00     0.422 C 
ATOM     20  F   UNL     1       0.769  -2.423   2.365  1.00  0.00    -0.168 F 
ATOM     21  F   UNL     1       2.542  -1.240   2.815  1.00  0.00    -0.168 F 
ATOM     22  F   UNL     1       0.965  -1.409   4.295  1.00  0.00    -0.168 F 
ENDBRANCH   8  19
ENDBRANCH   6   8
ENDBRANCH   5   6
ENDBRANCH   4   5
ENDBRANCH   3   4
ENDBRANCH   2   3
ENDBRANCH   1   2
BRANCH   1  23
ATOM     23  C   UNL     1      -1.599  -1.593  -0.785  1.00  0.00     0.188 C 
BRANCH  23  24
ATOM     24  O   UNL     1      -2.150  -0.576  -1.599  1.00  0.00    -0.376 OA
BRANCH  24  25
ATOM     25  C   UNL     1      -3.372  -0.844  -2.271  1.00  0.00     0.202 C 
BRANCH  25  26
ATOM     26  C   UNL     1      -3.511  -2.127  -3.116  1.00  0.00     0.261 C 
BRANCH  26  27
ATOM     27  O   UNL     1      -3.044  -3.340  -2.491  1.00  0.00    -0.460 OA
BRANCH  27  28
ATOM     28  C   UNL     1      -1.878  -3.854  -2.974  1.00  0.00     0.338 C 
ATOM     29  O   UNL     1      -1.234  -3.445  -3.917  1.00  0.00    -0.246 OA
BRANCH  28  30
ATOM     30  C   UNL     1      -1.339  -4.843  -2.000  1.00  0.00     0.060 A 
ATOM     31  C   UNL     1      -0.041  -4.640  -1.500  1.00  0.00     0.016 A 
ATOM     32  C   UNL     1      -2.096  -5.924  -1.546  1.00  0.00     0.016 A 
ATOM     33  C   UNL     1       0.506  -5.516  -0.561  1.00  0.00     0.010 A 
ATOM     34  C   UNL     1      -1.532  -6.826  -0.633  1.00  0.00     0.010 A 
ATOM     35  C   UNL     1      -0.219  -6.643  -0.158  1.00  0.00    -0.014 A 
BRANCH  35  36
ATOM     36  C   UNL     1       0.483  -7.733   0.570  1.00  0.00     0.031 A 
ATOM     37  C   UNL     1       1.031  -8.881  -0.237  1.00  0.00     0.074 A 
ATOM     38  C   UNL     1       0.680  -7.695   1.900  1.00  0.00     0.049 A 
ATOM     39  N   UNL     1       1.657  -9.959   0.161  1.00  0.00    -0.248 NA
ATOM     40  C   UNL     1       0.848  -8.796  -1.696  1.00  0.00     0.031 C 
ATOM     41  C   UNL     1       0.249  -6.623   2.793  1.00  0.00     0.029 A 
ATOM     42  N   UNL     1       1.296  -8.600   2.733  1.00  0.00    -0.354 N 
ATOM     43  C   UNL     1       1.946 -10.674  -0.994  1.00  0.00     0.074 A 
ATOM     44  C   UNL     1       1.393  -9.931  -2.105  1.00  0.00     0.031 C 
ATOM     45  C   UNL     1       0.594  -6.941   4.054  1.00  0.00     0.029 A 
ATOM     46  C   UNL     1       1.246  -8.251   4.061  1.00  0.00     0.049 A 
ATOM     47  H   UNL     1       1.731  -9.421   2.408  1.00  0.00     0.167 HD
ATOM     48  C   UNL     1       2.625 -11.838  -1.123  1.00  0.00     0.037 A 
ATOM     49  C   UNL     1       1.659  -8.924   5.154  1.00  0.00     0.037 A 
ATOM     50  C   UNL     1       3.166 -12.590  -0.022  1.00  0.00     0.049 A 
ATOM     51  C   UNL     1       2.333 -10.268   4.989  1.00  0.00     0.074 A 
ATOM     52  C   UNL     1       3.862 -13.785  -0.053  1.00  0.00     0.029 A 
ATOM     53  N   UNL     1       3.064 -12.221   1.311  1.00  0.00    -0.354 N 
ATOM     54  N   UNL     1       2.622 -10.925   3.892  1.00  0.00    -0.248 NA
ATOM     55  C   UNL     1       2.747 -10.957   6.221  1.00  0.00     0.031 C 
ATOM     56  C   UNL     1       4.135 -14.168   1.264  1.00  0.00     0.029 A 
ATOM     57  C   UNL     1       3.666 -13.179   2.113  1.00  0.00     0.049 A 
ATOM     58  H   UNL     1       2.629 -11.401   1.639  1.00  0.00     0.167 HD
ATOM     59  C   UNL     1       3.276 -12.084   4.299  1.00  0.00     0.074 A 
ATOM     60  C   UNL     1       3.366 -12.025   5.741  1.00  0.00     0.031 C 
ATOM     61  C   UNL     1       3.755 -13.107   3.548  1.00  0.00     0.037 A 
BRANCH  48  62
ATOM     62  C   UNL     1       2.809 -12.384  -2.509  1.00  0.00     0.064 A 
ATOM     63  C   UNL     1       3.676 -11.775  -3.429  1.00  0.00     0.173 A 
ATOM     64  C   UNL     1       2.150 -13.558  -2.904  1.00  0.00     0.173 A 
ATOM     65  F   UNL     1       4.315 -10.640  -3.106  1.00  0.00    -0.203 F 
ATOM     66  C   UNL     1       3.864 -12.313  -4.699  1.00  0.00     0.198 A 
ATOM     67  C   UNL     1       2.364 -14.110  -4.164  1.00  0.00     0.198 A 
ATOM     68  F   UNL     1       1.310 -14.178  -2.062  1.00  0.00    -0.203 F 
ATOM     69  F   UNL     1       4.665 -11.692  -5.576  1.00  0.00    -0.200 F 
ATOM     70  C   UNL     1       3.216 -13.485  -5.062  1.00  0.00     0.200 A 
ATOM     71  F   UNL     1       1.748 -15.249  -4.508  1.00  0.00    -0.200 F 
ATOM     72  F   UNL     1       3.410 -14.010  -6.280  1.00  0.00    -0.200 F 
ENDBRANCH  48  62
BRANCH  49  73
ATOM     73  C   UNL     1       1.428  -8.370   6.518  1.00  0.00     0.064 A 
ATOM     74  C   UNL     1       2.498  -8.021   7.356  1.00  0.00     0.173 A 
ATOM     75  C   UNL     1       0.131  -8.248   7.038  1.00  0.00     0.173 A 
ATOM     76  F   UNL     1       3.759  -8.148   6.918  1.00  0.00    -0.203 F 
ATOM     77  C   UNL     1       2.281  -7.610   8.670  1.00  0.00     0.198 A 
ATOM     78  C   UNL     1      -0.086  -7.802   8.341  1.00  0.00     0.198 A 
ATOM     79  F   UNL     1      -0.930  -8.574   6.285  1.00  0.00    -0.203 F 
ATOM     80  F   UNL     1       3.325  -7.357   9.471  1.00  0.00    -0.200 F 
ATOM     81  C   UNL     1       0.989  -7.497   9.160  1.00  0.00     0.200 A 
ATOM     82  F   UNL     1      -1.337  -7.685   8.806  1.00  0.00    -0.200 F 
ATOM     83  F   UNL     1       0.781  -7.111  10.427  1.00  0.00    -0.200 F 
ENDBRANCH  49  73
BRANCH  61  84
ATOM     84  C   UNL     1       4.456 -14.226   4.270  1.00  0.00     0.064 A 
ATOM     85  C   UNL     1       3.766 -15.110   5.114  1.00  0.00     0.173 A 
ATOM     86  C   UNL     1       5.835 -14.427   4.103  1.00  0.00     0.173 A 
ATOM     87  F   UNL     1       2.449 -14.960   5.318  1.00  0.00    -0.203 F 
ATOM     88  C   UNL     1       4.438 -16.121   5.799  1.00  0.00     0.198 A 
ATOM     89  C   UNL     1       6.497 -15.462   4.758  1.00  0.00     0.198 A 
ATOM     90  F   UNL     1       6.544 -13.621   3.297  1.00  0.00    -0.203 F 
ATOM     91  F   UNL     1       3.769 -16.907   6.653  1.00  0.00    -0.200 F 
ATOM     92  C   UNL     1       5.801 -16.299   5.616  1.00  0.00     0.200 A 
ATOM     93  F   UNL     1       7.811 -15.645   4.565  1.00  0.00    -0.200 F 
ATOM     94  F   UNL     1       6.445 -17.271   6.276  1.00  0.00    -0.200 F 
ENDBRANCH  61  84
ENDBRANCH  35  36
ENDBRANCH  28  30
ENDBRANCH  27  28
ENDBRANCH  26  27
ENDBRANCH  25  26
ENDBRANCH  24  25
ENDBRANCH  23  24
ENDBRANCH   1  23
TORSDOF 21
