REMARK SMILES O=C(OCCOCCOCCOC(=O)c1oc2cccc3c2c1CCC3)c1ccc(-c2c3nc(c(-c4c(F)c(F)c(F)c(F)c4F)c4ccc([nH]4)c(-c4c(F)c(F)c(F)c(F)c4F)c4nc(c(-c5c(F)c(F)c(F)c(F)c5F)c5ccc2[nH]5)C=C4)C=C3)cc1
REMARK SMILES IDX 7 1 6 2 5 3 4 4 3 5 2 6 1 7 27 8 28 9 89 10 29 11 88 12
REMARK SMILES IDX 30 13 31 14 32 15 82 16 33 17 87 18 81 19 83 20 34 21 86 22
REMARK SMILES IDX 80 23 79 24 35 26 67 27 47 28 66 29 48 30 51 31 65 32 84 33
REMARK SMILES IDX 49 34 50 35 64 37 85 38 52 39 36 40 37 41 45 42 38 43 39 44
REMARK SMILES IDX 43 45 46 46 40 47 41 48 44 49 42 50 68 51 69 52 77 53 70 54
REMARK SMILES IDX 71 55 75 56 78 57 72 58 73 59 76 60 74 61 53 62 54 63 62 64
REMARK SMILES IDX 55 65 56 66 60 67 63 68 57 69 58 70 61 71 59 72 8 73 9 74
REMARK SMILES IDX 10 75 11 76 12 77 13 78 14 79 15 80 16 81 23 82 17 83 22 84
REMARK SMILES IDX 24 85 18 86 21 87 25 88 19 89 20 90 26 91
REMARK H PARENT 83 25 51 36
REMARK Flexibility Score: inf
ROOT
ATOM      1  C   UNL     1       3.531  -0.874  -1.656  1.00  0.00     0.188 C 
ENDROOT
BRANCH   1   2
ATOM      2  O   UNL     1       4.750  -1.289  -1.051  1.00  0.00    -0.376 OA
BRANCH   2   3
ATOM      3  C   UNL     1       5.143  -0.579   0.109  1.00  0.00     0.202 C 
BRANCH   3   4
ATOM      4  C   UNL     1       4.456  -1.071   1.384  1.00  0.00     0.261 C 
BRANCH   4   5
ATOM      5  O   UNL     1       3.016  -1.132   1.341  1.00  0.00    -0.460 OA
BRANCH   5   6
ATOM      6  C   UNL     1       2.038  -0.217   1.468  1.00  0.00     0.338 C 
ATOM      7  O   UNL     1       0.882  -0.603   1.628  1.00  0.00    -0.246 OA
BRANCH   6   8
ATOM      8  C   UNL     1       2.254   1.245   1.314  1.00  0.00     0.060 A 
ATOM      9  C   UNL     1       3.467   1.898   1.518  1.00  0.00     0.016 A 
ATOM     10  C   UNL     1       1.113   2.018   1.010  1.00  0.00     0.016 A 
ATOM     11  C   UNL     1       3.544   3.281   1.436  1.00  0.00     0.010 A 
ATOM     12  C   UNL     1       1.174   3.408   0.968  1.00  0.00     0.010 A 
ATOM     13  C   UNL     1       2.390   4.036   1.217  1.00  0.00    -0.014 A 
BRANCH  13  14
ATOM     14  C   UNL     1       2.520   5.472   1.425  1.00  0.00     0.031 A 
ATOM     15  C   UNL     1       3.247   6.283   0.416  1.00  0.00     0.074 A 
ATOM     16  C   UNL     1       2.034   6.058   2.535  1.00  0.00     0.049 A 
ATOM     17  N   UNL     1       4.311   7.005   0.588  1.00  0.00    -0.248 NA
ATOM     18  C   UNL     1       2.719   6.304  -0.953  1.00  0.00     0.031 C 
ATOM     19  C   UNL     1       1.083   5.506   3.502  1.00  0.00     0.029 A 
ATOM     20  N   UNL     1       2.251   7.328   2.986  1.00  0.00    -0.354 N 
ATOM     21  C   UNL     1       4.502   7.699  -0.604  1.00  0.00     0.074 A 
ATOM     22  C   UNL     1       3.533   7.183  -1.539  1.00  0.00     0.031 C 
ATOM     23  C   UNL     1       0.659   6.497   4.316  1.00  0.00     0.029 A 
ATOM     24  C   UNL     1       1.401   7.708   4.008  1.00  0.00     0.049 A 
ATOM     25  H   UNL     1       2.948   7.918   2.618  1.00  0.00     0.167 HD
ATOM     26  C   UNL     1       5.340   8.768  -0.699  1.00  0.00     0.037 A 
ATOM     27  C   UNL     1       1.264   8.951   4.520  1.00  0.00     0.037 A 
ATOM     28  C   UNL     1       6.335   8.781   0.336  1.00  0.00     0.049 A 
ATOM     29  C   UNL     1       2.498   9.717   4.224  1.00  0.00     0.074 A 
ATOM     30  C   UNL     1       7.346   7.923   0.725  1.00  0.00     0.029 A 
ATOM     31  N   UNL     1       6.247   9.713   1.337  1.00  0.00    -0.354 N 
ATOM     32  N   UNL     1       3.660   9.499   4.773  1.00  0.00    -0.248 NA
ATOM     33  C   UNL     1       2.516  10.571   3.045  1.00  0.00     0.031 C 
ATOM     34  C   UNL     1       7.482   8.110   2.131  1.00  0.00     0.029 A 
ATOM     35  C   UNL     1       6.535   9.061   2.508  1.00  0.00     0.049 A 
ATOM     36  H   UNL     1       6.021  10.665   1.235  1.00  0.00     0.167 HD
ATOM     37  C   UNL     1       4.583   9.859   3.805  1.00  0.00     0.074 A 
ATOM     38  C   UNL     1       3.830  10.633   2.829  1.00  0.00     0.031 C 
ATOM     39  C   UNL     1       5.809   9.263   3.739  1.00  0.00     0.037 A 
BRANCH  26  40
ATOM     40  C   UNL     1       5.093   9.956  -1.594  1.00  0.00     0.064 A 
ATOM     41  C   UNL     1       6.122  10.889  -1.831  1.00  0.00     0.173 A 
ATOM     42  C   UNL     1       3.801  10.354  -1.999  1.00  0.00     0.173 A 
ATOM     43  F   UNL     1       7.380  10.632  -1.444  1.00  0.00    -0.203 F 
ATOM     44  C   UNL     1       5.867  12.143  -2.395  1.00  0.00     0.198 A 
ATOM     45  C   UNL     1       3.559  11.585  -2.608  1.00  0.00     0.198 A 
ATOM     46  F   UNL     1       2.720   9.613  -1.726  1.00  0.00    -0.203 F 
ATOM     47  F   UNL     1       6.859  13.038  -2.503  1.00  0.00    -0.200 F 
ATOM     48  C   UNL     1       4.587  12.489  -2.784  1.00  0.00     0.200 A 
ATOM     49  F   UNL     1       2.307  11.914  -2.957  1.00  0.00    -0.200 F 
ATOM     50  F   UNL     1       4.333  13.707  -3.281  1.00  0.00    -0.200 F 
ENDBRANCH  26  40
BRANCH  27  51
ATOM     51  C   UNL     1       0.024   9.579   5.024  1.00  0.00     0.064 A 
ATOM     52  C   UNL     1       0.066  10.736   5.816  1.00  0.00     0.173 A 
ATOM     53  C   UNL     1      -1.243   9.200   4.533  1.00  0.00     0.173 A 
ATOM     54  F   UNL     1       1.238  11.197   6.276  1.00  0.00    -0.203 F 
ATOM     55  C   UNL     1      -1.089  11.475   6.092  1.00  0.00     0.198 A 
ATOM     56  C   UNL     1      -2.396   9.927   4.824  1.00  0.00     0.198 A 
ATOM     57  F   UNL     1      -1.376   8.170   3.686  1.00  0.00    -0.203 F 
ATOM     58  F   UNL     1      -1.001  12.609   6.800  1.00  0.00    -0.200 F 
ATOM     59  C   UNL     1      -2.317  11.072   5.593  1.00  0.00     0.200 A 
ATOM     60  F   UNL     1      -3.571   9.544   4.305  1.00  0.00    -0.200 F 
ATOM     61  F   UNL     1      -3.415  11.806   5.817  1.00  0.00    -0.200 F 
ENDBRANCH  27  51
BRANCH  39  62
ATOM     62  C   UNL     1       6.273   8.482   4.931  1.00  0.00     0.064 A 
ATOM     63  C   UNL     1       5.655   7.297   5.362  1.00  0.00     0.173 A 
ATOM     64  C   UNL     1       7.470   8.858   5.557  1.00  0.00     0.173 A 
ATOM     65  F   UNL     1       4.570   6.821   4.736  1.00  0.00    -0.203 F 
ATOM     66  C   UNL     1       6.192   6.546   6.406  1.00  0.00     0.198 A 
ATOM     67  C   UNL     1       8.020   8.088   6.578  1.00  0.00     0.198 A 
ATOM     68  F   UNL     1       8.136   9.946   5.139  1.00  0.00    -0.203 F 
ATOM     69  F   UNL     1       5.585   5.417   6.802  1.00  0.00    -0.200 F 
ATOM     70  C   UNL     1       7.376   6.939   7.008  1.00  0.00     0.200 A 
ATOM     71  F   UNL     1       9.193   8.442   7.123  1.00  0.00    -0.200 F 
ATOM     72  F   UNL     1       7.916   6.191   7.982  1.00  0.00    -0.200 F 
ENDBRANCH  39  62
ENDBRANCH  13  14
ENDBRANCH   6   8
ENDBRANCH   5   6
ENDBRANCH   4   5
ENDBRANCH   3   4
ENDBRANCH   2   3
ENDBRANCH   1   2
BRANCH   1  73
ATOM     73  C   UNL     1       2.415  -1.935  -1.610  1.00  0.00     0.188 C 
BRANCH  73  74
ATOM     74  O   UNL     1       2.685  -3.326  -1.757  1.00  0.00    -0.376 OA
BRANCH  74  75
ATOM     75  C   UNL     1       3.945  -3.784  -2.207  1.00  0.00     0.202 C 
BRANCH  75  76
ATOM     76  C   UNL     1       4.151  -3.766  -3.722  1.00  0.00     0.261 C 
BRANCH  76  77
ATOM     77  O   UNL     1       3.881  -2.502  -4.339  1.00  0.00    -0.457 OA
BRANCH  77  78
ATOM     78  C   UNL     1       2.600  -2.340  -4.787  1.00  0.00     0.374 C 
ATOM     79  O   UNL     1       1.712  -3.175  -4.720  1.00  0.00    -0.242 OA
BRANCH  78  80
ATOM     80  C   UNL     1       2.459  -1.019  -5.339  1.00  0.00     0.216 A 
ATOM     81  O   UNL     1       1.549  -0.149  -4.760  1.00  0.00    -0.449 OA
ATOM     82  C   UNL     1       3.055  -0.409  -6.424  1.00  0.00     0.014 A 
ATOM     83  C   UNL     1       1.544   0.993  -5.513  1.00  0.00     0.135 A 
ATOM     84  C   UNL     1       2.433   0.843  -6.548  1.00  0.00     0.028 A 
ATOM     85  C   UNL     1       4.063  -0.818  -7.437  1.00  0.00     0.041 C 
ATOM     86  C   UNL     1       0.784   2.143  -5.348  1.00  0.00     0.048 A 
ATOM     87  C   UNL     1       2.598   1.797  -7.551  1.00  0.00    -0.037 A 
ATOM     88  C   UNL     1       3.792  -0.075  -8.780  1.00  0.00     0.010 C 
ATOM     89  C   UNL     1       0.965   3.137  -6.332  1.00  0.00     0.004 A 
ATOM     90  C   UNL     1       1.851   2.971  -7.416  1.00  0.00     0.004 A 
ATOM     91  C   UNL     1       3.571   1.468  -8.651  1.00  0.00     0.036 C 
ENDBRANCH  78  80
ENDBRANCH  77  78
ENDBRANCH  76  77
ENDBRANCH  75  76
ENDBRANCH  74  75
ENDBRANCH  73  74
ENDBRANCH   1  73
TORSDOF 17
