REMARK SMILES C[C@H](C(=O)OCCOCCOCCOC(=O)c1ccc(-c2c3nc(c(-c4c(F)c(F)c(F)c(F)c4F)c4ccc([nH]4)c(-c4c(F)c(F)c(F)c(F)c4F)c4nc(c(-c5c(F)c(F)c(F)c(F)c5F)c5ccc2[nH]5)C=C4)C=C3)cc1)c1ccc2c(c1)OCCO2
REMARK SMILES IDX 10 1 9 2 8 3 7 4 6 5 5 6 3 7 4 8 2 9 1 10 80 11 81 12 85 13
REMARK SMILES IDX 82 14 84 15 83 16 86 17 89 18 87 19 88 20 11 21 12 22 13 23
REMARK SMILES IDX 14 24 15 25 16 26 17 27 18 28 79 29 19 30 78 31 20 32 21 33
REMARK SMILES IDX 22 34 72 35 23 36 77 37 71 38 73 39 24 40 76 41 70 42 69 43
REMARK SMILES IDX 25 45 57 46 37 47 56 48 38 49 41 50 55 51 74 52 39 53 40 54
REMARK SMILES IDX 54 56 75 57 42 58 26 59 27 60 35 61 28 62 29 63 33 64 36 65
REMARK SMILES IDX 30 66 31 67 34 68 32 69 58 70 59 71 67 72 60 73 61 74 65 75
REMARK SMILES IDX 68 76 62 77 63 78 66 79 64 80 43 81 44 82 52 83 45 84 46 85
REMARK SMILES IDX 50 86 53 87 47 88 48 89 51 90 49 91
REMARK H PARENT 73 44 41 55
REMARK Flexibility Score: inf
ROOT
ATOM      1  C   UNL     1       4.042   1.005  -0.075  1.00  0.00     0.188 C 
ENDROOT
BRANCH   1   2
ATOM      2  C   UNL     1       3.576   0.124   1.093  1.00  0.00     0.188 C 
BRANCH   2   3
ATOM      3  O   UNL     1       3.990  -1.234   1.111  1.00  0.00    -0.376 OA
BRANCH   3   4
ATOM      4  C   UNL     1       3.690  -2.030  -0.036  1.00  0.00     0.202 C 
BRANCH   4   5
ATOM      5  C   UNL     1       2.217  -2.161  -0.461  1.00  0.00     0.261 C 
BRANCH   5   6
ATOM      6  O   UNL     1       1.564  -0.901  -0.732  1.00  0.00    -0.463 OA
BRANCH   6   7
ATOM      7  C   UNL     1       0.537  -0.569   0.105  1.00  0.00     0.313 C 
ATOM      8  O   UNL     1       0.170  -1.329   0.993  1.00  0.00    -0.252 OA
BRANCH   7   9
ATOM      9  C   UNL     1       0.045   0.909  -0.077  1.00  0.00     0.126 C 
ATOM     10  C   UNL     1       0.294   1.354  -1.534  1.00  0.00     0.025 C 
BRANCH   9  11
ATOM     11  C   UNL     1      -1.441   1.114   0.298  1.00  0.00    -0.030 A 
ATOM     12  C   UNL     1      -2.262   2.006  -0.423  1.00  0.00     0.009 A 
ATOM     13  C   UNL     1      -2.069   0.215   1.160  1.00  0.00     0.055 A 
ATOM     14  C   UNL     1      -3.599   1.688  -0.649  1.00  0.00     0.051 A 
ATOM     15  C   UNL     1      -3.322  -0.224   0.790  1.00  0.00     0.161 A 
ATOM     16  C   UNL     1      -4.046   0.468  -0.175  1.00  0.00     0.161 A 
ATOM     17  O   UNL     1      -3.683  -1.481   1.191  1.00  0.00    -0.486 OA
ATOM     18  O   UNL     1      -5.030  -0.195  -0.872  1.00  0.00    -0.486 OA
ATOM     19  C   UNL     1      -4.119  -2.265   0.066  1.00  0.00     0.271 C 
ATOM     20  C   UNL     1      -4.426  -1.461  -1.204  1.00  0.00     0.271 C 
ENDBRANCH   9  11
ENDBRANCH   7   9
ENDBRANCH   6   7
ENDBRANCH   5   6
ENDBRANCH   4   5
ENDBRANCH   3   4
ENDBRANCH   2   3
ENDBRANCH   1   2
BRANCH   1  21
ATOM     21  O   UNL     1       4.021   0.378  -1.350  1.00  0.00    -0.376 OA
BRANCH  21  22
ATOM     22  C   UNL     1       4.229   1.210  -2.493  1.00  0.00     0.202 C 
BRANCH  22  23
ATOM     23  C   UNL     1       5.470   2.112  -2.441  1.00  0.00     0.261 C 
BRANCH  23  24
ATOM     24  O   UNL     1       5.403   3.117  -1.411  1.00  0.00    -0.460 OA
BRANCH  24  25
ATOM     25  C   UNL     1       4.348   3.964  -1.442  1.00  0.00     0.338 C 
ATOM     26  O   UNL     1       3.574   4.133  -2.369  1.00  0.00    -0.246 OA
BRANCH  25  27
ATOM     27  C   UNL     1       4.129   4.484  -0.068  1.00  0.00     0.060 A 
ATOM     28  C   UNL     1       2.813   4.738   0.346  1.00  0.00     0.016 A 
ATOM     29  C   UNL     1       5.188   4.654   0.831  1.00  0.00     0.016 A 
ATOM     30  C   UNL     1       2.562   5.218   1.634  1.00  0.00     0.010 A 
ATOM     31  C   UNL     1       4.937   5.130   2.120  1.00  0.00     0.010 A 
ATOM     32  C   UNL     1       3.627   5.455   2.513  1.00  0.00    -0.014 A 
BRANCH  32  33
ATOM     33  C   UNL     1       3.410   6.242   3.753  1.00  0.00     0.031 A 
ATOM     34  C   UNL     1       3.735   7.711   3.724  1.00  0.00     0.074 A 
ATOM     35  C   UNL     1       2.932   5.683   4.878  1.00  0.00     0.049 A 
ATOM     36  N   UNL     1       3.671   8.599   4.683  1.00  0.00    -0.248 NA
ATOM     37  C   UNL     1       4.198   8.250   2.435  1.00  0.00     0.031 C 
ATOM     38  C   UNL     1       2.548   4.283   5.034  1.00  0.00     0.029 A 
ATOM     39  N   UNL     1       2.695   6.239   6.112  1.00  0.00    -0.354 N 
ATOM     40  C   UNL     1       4.087   9.795   4.114  1.00  0.00     0.074 A 
ATOM     41  C   UNL     1       4.437   9.515   2.739  1.00  0.00     0.031 C 
ATOM     42  C   UNL     1       2.128   4.086   6.297  1.00  0.00     0.029 A 
ATOM     43  C   UNL     1       2.243   5.339   7.045  1.00  0.00     0.049 A 
ATOM     44  H   UNL     1       2.837   7.193   6.309  1.00  0.00     0.167 HD
ATOM     45  C   UNL     1       4.160  11.022   4.681  1.00  0.00     0.037 A 
ATOM     46  C   UNL     1       1.970   5.507   8.354  1.00  0.00     0.037 A 
ATOM     47  C   UNL     1       3.814  11.309   6.046  1.00  0.00     0.049 A 
ATOM     48  C   UNL     1       2.136   6.869   8.984  1.00  0.00     0.074 A 
ATOM     49  C   UNL     1       3.835  12.527   6.703  1.00  0.00     0.029 A 
ATOM     50  N   UNL     1       3.392  10.364   6.968  1.00  0.00    -0.354 N 
ATOM     51  N   UNL     1       2.495   8.003   8.431  1.00  0.00    -0.248 NA
ATOM     52  C   UNL     1       1.856   6.973  10.425  1.00  0.00     0.031 C 
ATOM     53  C   UNL     1       3.478  12.310   8.037  1.00  0.00     0.029 A 
ATOM     54  C   UNL     1       3.179  10.967   8.197  1.00  0.00     0.049 A 
ATOM     55  H   UNL     1       3.264   9.407   6.778  1.00  0.00     0.167 HD
ATOM     56  C   UNL     1       2.450   8.955   9.443  1.00  0.00     0.074 A 
ATOM     57  C   UNL     1       2.020   8.270  10.643  1.00  0.00     0.031 C 
ATOM     58  C   UNL     1       2.736  10.279   9.383  1.00  0.00     0.037 A 
BRANCH  45  59
ATOM     59  C   UNL     1       4.658  12.147   3.824  1.00  0.00     0.064 A 
ATOM     60  C   UNL     1       3.883  12.678   2.782  1.00  0.00     0.173 A 
ATOM     61  C   UNL     1       5.916  12.717   4.065  1.00  0.00     0.173 A 
ATOM     62  F   UNL     1       2.680  12.153   2.499  1.00  0.00    -0.203 F 
ATOM     63  C   UNL     1       4.361  13.723   1.996  1.00  0.00     0.198 A 
ATOM     64  C   UNL     1       6.379  13.781   3.296  1.00  0.00     0.198 A 
ATOM     65  F   UNL     1       6.696  12.245   5.049  1.00  0.00    -0.203 F 
ATOM     66  F   UNL     1       3.625  14.182   0.974  1.00  0.00    -0.200 F 
ATOM     67  C   UNL     1       5.604  14.278   2.259  1.00  0.00     0.200 A 
ATOM     68  F   UNL     1       7.576  14.323   3.557  1.00  0.00    -0.200 F 
ATOM     69  F   UNL     1       6.061  15.288   1.505  1.00  0.00    -0.200 F 
ENDBRANCH  45  59
BRANCH  46  70
ATOM     70  C   UNL     1       1.520   4.354   9.179  1.00  0.00     0.064 A 
ATOM     71  C   UNL     1       0.223   4.306   9.708  1.00  0.00     0.173 A 
ATOM     72  C   UNL     1       2.392   3.301   9.493  1.00  0.00     0.173 A 
ATOM     73  F   UNL     1      -0.637   5.306   9.463  1.00  0.00    -0.203 F 
ATOM     74  C   UNL     1      -0.178   3.261  10.539  1.00  0.00     0.198 A 
ATOM     75  C   UNL     1       1.981   2.243  10.301  1.00  0.00     0.198 A 
ATOM     76  F   UNL     1       3.647   3.304   9.021  1.00  0.00    -0.203 F 
ATOM     77  F   UNL     1      -1.404   3.271  11.079  1.00  0.00    -0.200 F 
ATOM     78  C   UNL     1       0.700   2.228  10.831  1.00  0.00     0.200 A 
ATOM     79  F   UNL     1       2.831   1.244  10.577  1.00  0.00    -0.200 F 
ATOM     80  F   UNL     1       0.316   1.228  11.636  1.00  0.00    -0.200 F 
ENDBRANCH  46  70
BRANCH  58  81
ATOM     81  C   UNL     1       2.555  11.091  10.633  1.00  0.00     0.064 A 
ATOM     82  C   UNL     1       3.427  10.972  11.726  1.00  0.00     0.173 A 
ATOM     83  C   UNL     1       1.525  12.042  10.717  1.00  0.00     0.173 A 
ATOM     84  F   UNL     1       4.420  10.071  11.701  1.00  0.00    -0.203 F 
ATOM     85  C   UNL     1       3.260  11.758  12.864  1.00  0.00     0.198 A 
ATOM     86  C   UNL     1       1.380  12.847  11.844  1.00  0.00     0.198 A 
ATOM     87  F   UNL     1       0.669  12.204   9.697  1.00  0.00    -0.203 F 
ATOM     88  F   UNL     1       4.079  11.596  13.913  1.00  0.00    -0.200 F 
ATOM     89  C   UNL     1       2.243  12.699  12.919  1.00  0.00     0.200 A 
ATOM     90  F   UNL     1       0.407  13.767  11.888  1.00  0.00    -0.200 F 
ATOM     91  F   UNL     1       2.092  13.461  14.011  1.00  0.00    -0.200 F 
ENDBRANCH  58  81
ENDBRANCH  32  33
ENDBRANCH  25  27
ENDBRANCH  24  25
ENDBRANCH  23  24
ENDBRANCH  22  23
ENDBRANCH  21  22
ENDBRANCH   1  21
TORSDOF 18
