REMARK SMILES O=C(OCCOCCOCCOC(=O)[C@@H]1[C@@H](C(=O)NCCn2cc(Cl)cn2)[C@H]2CC[C@@H]1O2)c1ccc(-c2c3nc(c(-c4c(F)c(F)c(F)c(F)c4F)c4ccc([nH]4)c(-c4c(F)c(F)c(F)c(F)c4F)c4nc(c(-c5c(F)c(F)c(F)c(F)c5F)c5ccc2[nH]5)C=C4)C=C3)cc1
REMARK SMILES IDX 8 1 7 2 6 3 5 4 4 5 3 6 2 7 1 8 33 9 34 10 95 11 35 12 94 13
REMARK SMILES IDX 36 14 37 15 38 16 88 17 39 18 93 19 87 20 89 21 40 22 92 23
REMARK SMILES IDX 86 24 85 25 41 27 73 28 53 29 72 30 54 31 57 32 71 33 90 34
REMARK SMILES IDX 55 35 56 36 70 38 91 39 58 40 42 41 43 42 51 43 44 44 45 45
REMARK SMILES IDX 49 46 52 47 46 48 47 49 50 50 48 51 74 52 75 53 83 54 76 55
REMARK SMILES IDX 77 56 81 57 84 58 78 59 79 60 82 61 80 62 59 63 60 64 68 65
REMARK SMILES IDX 61 66 62 67 66 68 69 69 63 70 64 71 67 72 65 73 9 74 10 75
REMARK SMILES IDX 11 76 12 77 13 78 14 79 15 80 16 81 31 82 28 83 30 84 32 85
REMARK SMILES IDX 29 86 17 87 18 88 19 89 20 91 21 92 22 93 23 94 27 95 24 96
REMARK SMILES IDX 26 97 25 98
REMARK H PARENT 89 26 57 37 19 90
REMARK Flexibility Score: inf
ROOT
ATOM      1  C   UNL     1       2.316   1.306  -1.875  1.00  0.00     0.188 C 
ENDROOT
BRANCH   1   2
ATOM      2  C   UNL     1       3.328   1.490  -0.722  1.00  0.00     0.188 C 
BRANCH   2   3
ATOM      3  O   UNL     1       4.642   1.056  -1.024  1.00  0.00    -0.376 OA
BRANCH   3   4
ATOM      4  C   UNL     1       5.172  -0.015  -0.271  1.00  0.00     0.202 C 
BRANCH   4   5
ATOM      5  C   UNL     1       4.551  -1.393  -0.510  1.00  0.00     0.261 C 
BRANCH   5   6
ATOM      6  O   UNL     1       3.143  -1.424  -0.791  1.00  0.00    -0.460 OA
BRANCH   6   7
ATOM      7  C   UNL     1       2.064  -1.519   0.004  1.00  0.00     0.338 C 
ATOM      8  O   UNL     1       0.991  -1.880  -0.476  1.00  0.00    -0.246 OA
BRANCH   7   9
ATOM      9  C   UNL     1       2.047  -1.046   1.409  1.00  0.00     0.060 A 
ATOM     10  C   UNL     1       3.106  -1.170   2.304  1.00  0.00     0.016 A 
ATOM     11  C   UNL     1       0.806  -0.550   1.863  1.00  0.00     0.016 A 
ATOM     12  C   UNL     1       2.886  -0.950   3.655  1.00  0.00     0.010 A 
ATOM     13  C   UNL     1       0.583  -0.328   3.212  1.00  0.00     0.010 A 
ATOM     14  C   UNL     1       1.605  -0.620   4.105  1.00  0.00    -0.014 A 
BRANCH  14  15
ATOM     15  C   UNL     1       1.365  -0.716   5.537  1.00  0.00     0.031 A 
ATOM     16  C   UNL     1       2.053   0.281   6.392  1.00  0.00     0.074 A 
ATOM     17  C   UNL     1       0.554  -1.667   6.042  1.00  0.00     0.049 A 
ATOM     18  N   UNL     1       2.902   0.068   7.345  1.00  0.00    -0.248 NA
ATOM     19  C   UNL     1       1.822   1.701   6.098  1.00  0.00     0.031 C 
ATOM     20  C   UNL     1      -0.368  -2.546   5.316  1.00  0.00     0.029 A 
ATOM     21  N   UNL     1       0.321  -1.985   7.345  1.00  0.00    -0.354 N 
ATOM     22  C   UNL     1       3.196   1.318   7.885  1.00  0.00     0.074 A 
ATOM     23  C   UNL     1       2.600   2.290   7.006  1.00  0.00     0.031 C 
ATOM     24  C   UNL     1      -1.215  -3.125   6.195  1.00  0.00     0.029 A 
ATOM     25  C   UNL     1      -0.810  -2.763   7.542  1.00  0.00     0.049 A 
ATOM     26  H   UNL     1       0.903  -1.689   8.082  1.00  0.00     0.167 HD
ATOM     27  C   UNL     1       3.731   1.445   9.132  1.00  0.00     0.037 A 
ATOM     28  C   UNL     1      -1.417  -3.018   8.725  1.00  0.00     0.037 A 
ATOM     29  C   UNL     1       4.410   0.241   9.537  1.00  0.00     0.049 A 
ATOM     30  C   UNL     1      -0.433  -2.760   9.805  1.00  0.00     0.074 A 
ATOM     31  C   UNL     1       5.476  -0.486   9.042  1.00  0.00     0.029 A 
ATOM     32  N   UNL     1       3.810  -0.580  10.459  1.00  0.00    -0.354 N 
ATOM     33  N   UNL     1       0.616  -3.500  10.034  1.00  0.00    -0.248 NA
ATOM     34  C   UNL     1      -0.387  -1.421  10.375  1.00  0.00     0.031 C 
ATOM     35  C   UNL     1       5.162  -1.849   9.323  1.00  0.00     0.029 A 
ATOM     36  C   UNL     1       3.943  -1.863  10.000  1.00  0.00     0.049 A 
ATOM     37  H   UNL     1       3.367  -0.299  11.292  1.00  0.00     0.167 HD
ATOM     38  C   UNL     1       1.609  -2.603  10.396  1.00  0.00     0.074 A 
ATOM     39  C   UNL     1       0.909  -1.356  10.688  1.00  0.00     0.031 C 
ATOM     40  C   UNL     1       2.925  -2.872  10.153  1.00  0.00     0.037 A 
BRANCH  27  41
ATOM     41  C   UNL     1       3.316   2.511  10.124  1.00  0.00     0.064 A 
ATOM     42  C   UNL     1       3.946   2.549  11.387  1.00  0.00     0.173 A 
ATOM     43  C   UNL     1       2.126   3.265  10.022  1.00  0.00     0.173 A 
ATOM     44  F   UNL     1       5.090   1.882  11.603  1.00  0.00    -0.203 F 
ATOM     45  C   UNL     1       3.359   3.178  12.489  1.00  0.00     0.198 A 
ATOM     46  C   UNL     1       1.571   3.935  11.112  1.00  0.00     0.198 A 
ATOM     47  F   UNL     1       1.393   3.303   8.905  1.00  0.00    -0.203 F 
ATOM     48  F   UNL     1       3.920   3.055  13.699  1.00  0.00    -0.200 F 
ATOM     49  C   UNL     1       2.163   3.856  12.354  1.00  0.00     0.200 A 
ATOM     50  F   UNL     1       0.408   4.583  10.961  1.00  0.00    -0.200 F 
ATOM     51  F   UNL     1       1.558   4.390  13.422  1.00  0.00    -0.200 F 
ENDBRANCH  27  41
BRANCH  28  52
ATOM     52  C   UNL     1      -2.869  -3.159   8.977  1.00  0.00     0.064 A 
ATOM     53  C   UNL     1      -3.349  -3.732  10.164  1.00  0.00     0.173 A 
ATOM     54  C   UNL     1      -3.820  -2.499   8.171  1.00  0.00     0.173 A 
ATOM     55  F   UNL     1      -2.503  -4.335  11.012  1.00  0.00    -0.203 F 
ATOM     56  C   UNL     1      -4.696  -3.636  10.531  1.00  0.00     0.198 A 
ATOM     57  C   UNL     1      -5.164  -2.416   8.530  1.00  0.00     0.198 A 
ATOM     58  F   UNL     1      -3.448  -1.842   7.063  1.00  0.00    -0.203 F 
ATOM     59  F   UNL     1      -5.107  -4.144  11.701  1.00  0.00    -0.200 F 
ATOM     60  C   UNL     1      -5.600  -2.973   9.717  1.00  0.00     0.200 A 
ATOM     61  F   UNL     1      -6.020  -1.741   7.750  1.00  0.00    -0.200 F 
ATOM     62  F   UNL     1      -6.878  -2.834  10.094  1.00  0.00    -0.200 F 
ENDBRANCH  28  52
BRANCH  40  63
ATOM     63  C   UNL     1       3.290  -4.269   9.748  1.00  0.00     0.064 A 
ATOM     64  C   UNL     1       2.850  -4.875   8.559  1.00  0.00     0.173 A 
ATOM     65  C   UNL     1       4.235  -4.963  10.517  1.00  0.00     0.173 A 
ATOM     66  F   UNL     1       2.034  -4.227   7.718  1.00  0.00    -0.203 F 
ATOM     67  C   UNL     1       3.300  -6.139   8.185  1.00  0.00     0.198 A 
ATOM     68  C   UNL     1       4.710  -6.210  10.122  1.00  0.00     0.198 A 
ATOM     69  F   UNL     1       4.738  -4.404  11.630  1.00  0.00    -0.203 F 
ATOM     70  F   UNL     1       2.858  -6.700   7.049  1.00  0.00    -0.200 F 
ATOM     71  C   UNL     1       4.234  -6.802   8.963  1.00  0.00     0.200 A 
ATOM     72  F   UNL     1       5.654  -6.824  10.848  1.00  0.00    -0.200 F 
ATOM     73  F   UNL     1       4.701  -7.999   8.580  1.00  0.00    -0.200 F 
ENDBRANCH  40  63
ENDBRANCH  14  15
ENDBRANCH   7   9
ENDBRANCH   6   7
ENDBRANCH   5   6
ENDBRANCH   4   5
ENDBRANCH   3   4
ENDBRANCH   2   3
ENDBRANCH   1   2
BRANCH   1  74
ATOM     74  O   UNL     1       2.701   1.290  -3.247  1.00  0.00    -0.376 OA
BRANCH  74  75
ATOM     75  C   UNL     1       4.027   1.599  -3.633  1.00  0.00     0.202 C 
BRANCH  75  76
ATOM     76  C   UNL     1       4.391   3.088  -3.619  1.00  0.00     0.261 C 
BRANCH  76  77
ATOM     77  O   UNL     1       4.010   3.807  -2.434  1.00  0.00    -0.463 OA
BRANCH  77  78
ATOM     78  C   UNL     1       2.779   4.400  -2.467  1.00  0.00     0.312 C 
ATOM     79  O   UNL     1       2.011   4.362  -3.414  1.00  0.00    -0.252 OA
BRANCH  78  80
ATOM     80  C   UNL     1       2.490   5.097  -1.147  1.00  0.00     0.143 C 
ATOM     81  C   UNL     1       1.015   4.912  -0.695  1.00  0.00     0.124 C 
ATOM     82  C   UNL     1       2.575   6.603  -1.371  1.00  0.00     0.133 C 
ATOM     83  C   UNL     1       0.491   6.352  -0.819  1.00  0.00     0.132 C 
ATOM     84  C   UNL     1       2.489   7.358  -0.041  1.00  0.00     0.036 C 
ATOM     85  O   UNL     1       1.269   6.876  -1.922  1.00  0.00    -0.373 OA
ATOM     86  C   UNL     1       0.998   7.266   0.291  1.00  0.00     0.035 C 
BRANCH  81  87
ATOM     87  C   UNL     1       0.890   4.308   0.702  1.00  0.00     0.226 C 
ATOM     88  O   UNL     1       1.863   3.856   1.308  1.00  0.00    -0.275 OA
ATOM     89  N   UNL     1      -0.324   4.188   1.311  1.00  0.00    -0.354 N 
ATOM     90  H   UNL     1      -0.312   3.711   2.172  1.00  0.00     0.163 HD
BRANCH  89  91
ATOM     91  C   UNL     1      -1.638   4.658   0.886  1.00  0.00     0.139 C 
BRANCH  91  92
ATOM     92  C   UNL     1      -2.786   3.718   1.255  1.00  0.00     0.165 C 
BRANCH  92  93
ATOM     93  N   UNL     1      -3.061   3.635   2.677  1.00  0.00    -0.269 N 
ATOM     94  C   UNL     1      -2.944   2.526   3.466  1.00  0.00     0.129 A 
ATOM     95  N   UNL     1      -3.584   4.697   3.323  1.00  0.00    -0.180 NA
ATOM     96  C   UNL     1      -3.450   2.880   4.692  1.00  0.00     0.079 A 
ATOM     97  C   UNL     1      -3.837   4.224   4.550  1.00  0.00     0.155 A 
ATOM     98  Cl  UNL     1      -3.604   1.921   6.075  1.00  0.00    -0.081 Cl
ENDBRANCH  92  93
ENDBRANCH  91  92
ENDBRANCH  89  91
ENDBRANCH  81  87
ENDBRANCH  78  80
ENDBRANCH  77  78
ENDBRANCH  76  77
ENDBRANCH  75  76
ENDBRANCH  74  75
ENDBRANCH   1  74
TORSDOF 21
