REMARK SMILES Cc1n[nH]c(S[C@H]2CC[C@]([NH3+])(C(=O)OCCOCCOCCOC(=O)c3ccc(-c4c5nc(c(-c6c(F)c(F)c(F)c(F)c6F)c6ccc([nH]6)c(-c6c(F)c(F)c(F)c(F)c6F)c6nc(c(-c7c(F)c(F)c(F)c(F)c7F)c7ccc4[nH]7)C=C6)C=C5)cc3)C2)n1
REMARK SMILES IDX 18 1 17 2 16 3 15 4 14 5 12 6 13 7 10 8 7 9 8 10 89 11 9 12
REMARK SMILES IDX 6 13 5 14 1 15 2 16 3 17 90 18 4 19 11 21 19 25 20 26 21 27
REMARK SMILES IDX 22 28 23 29 24 30 25 31 26 32 27 33 88 34 28 35 87 36 29 37
REMARK SMILES IDX 30 38 31 39 81 40 32 41 86 42 80 43 82 44 33 45 85 46 79 47
REMARK SMILES IDX 78 48 34 50 66 51 46 52 65 53 47 54 50 55 64 56 83 57 48 58
REMARK SMILES IDX 49 59 63 61 84 62 51 63 35 64 36 65 44 66 37 67 38 68 42 69
REMARK SMILES IDX 45 70 39 71 40 72 43 73 41 74 67 75 68 76 76 77 69 78 70 79
REMARK SMILES IDX 74 80 77 81 71 82 72 83 75 84 73 85 52 86 53 87 61 88 54 89
REMARK SMILES IDX 55 90 59 91 62 92 56 93 57 94 60 95 58 96
REMARK H PARENT 4 20 11 22 11 23 11 24 82 49 50 60
REMARK Flexibility Score: inf
ROOT
ATOM      1  C   UNL     1       0.637  -2.768  -6.546  1.00  0.00     0.188 C 
ENDROOT
BRANCH   1   2
ATOM      2  O   UNL     1       1.364  -3.574  -7.469  1.00  0.00    -0.376 OA
BRANCH   2   3
ATOM      3  C   UNL     1       2.286  -2.890  -8.322  1.00  0.00     0.202 C 
BRANCH   3   4
ATOM      4  C   UNL     1       1.688  -1.869  -9.313  1.00  0.00     0.261 C 
BRANCH   4   5
ATOM      5  O   UNL     1       1.127  -0.668  -8.725  1.00  0.00    -0.459 OA
BRANCH   5   6
ATOM      6  C   UNL     1      -0.220  -0.512  -8.797  1.00  0.00     0.368 C 
ATOM      7  O   UNL     1      -0.978  -1.316  -9.338  1.00  0.00    -0.245 OA
BRANCH   6   8
ATOM      8  C   UNL     1      -0.756   0.802  -8.162  1.00  0.00     0.193 C 
ATOM      9  C   UNL     1      -0.829   2.462  -6.342  1.00  0.00     0.062 C 
ATOM     10  C   UNL     1      -2.111   1.625  -6.255  1.00  0.00     0.022 C 
ATOM     11  C   UNL     1       0.129   1.562  -7.159  1.00  0.00     0.096 C 
ATOM     12  C   UNL     1      -1.961   0.472  -7.257  1.00  0.00     0.082 C 
BRANCH   9  13
ATOM     13  S   UNL     1      -1.038   4.062  -7.189  1.00  0.00    -0.083 SA
BRANCH  13  14
ATOM     14  C   UNL     1      -2.152   5.015  -6.290  1.00  0.00     0.183 A 
ATOM     15  C   UNL     1      -4.154   7.851  -5.694  1.00  0.00     0.092 C 
ATOM     16  C   UNL     1      -3.438   6.559  -5.669  1.00  0.00     0.148 A 
ATOM     17  N   UNL     1      -3.521   5.683  -4.657  1.00  0.00    -0.158 NA
ATOM     18  N   UNL     1      -2.610   6.177  -6.689  1.00  0.00    -0.206 NA
ATOM     19  N   UNL     1      -2.683   4.713  -5.076  1.00  0.00    -0.254 N 
ATOM     20  H   UNL     1      -2.482   3.894  -4.569  1.00  0.00     0.192 HD
ENDBRANCH  13  14
ENDBRANCH   9  13
BRANCH   8  21
ATOM     21  N   UNL     1      -1.167   1.674  -9.282  1.00  0.00    -0.343 N 
ATOM     22  H   UNL     1      -1.528   2.554  -8.912  1.00  0.00     0.345 HD
ATOM     23  H   UNL     1      -1.895   1.210  -9.825  1.00  0.00     0.345 HD
ATOM     24  H   UNL     1      -0.363   1.861  -9.881  1.00  0.00     0.345 HD
ENDBRANCH   8  21
ENDBRANCH   6   8
ENDBRANCH   5   6
ENDBRANCH   4   5
ENDBRANCH   3   4
ENDBRANCH   2   3
ENDBRANCH   1   2
BRANCH   1  25
ATOM     25  C   UNL     1       1.507  -1.845  -5.686  1.00  0.00     0.188 C 
BRANCH  25  26
ATOM     26  O   UNL     1       2.243  -0.928  -6.476  1.00  0.00    -0.376 OA
BRANCH  26  27
ATOM     27  C   UNL     1       3.239  -0.059  -5.956  1.00  0.00     0.202 C 
BRANCH  27  28
ATOM     28  C   UNL     1       4.188  -0.578  -4.886  1.00  0.00     0.261 C 
BRANCH  28  29
ATOM     29  O   UNL     1       3.555  -1.078  -3.719  1.00  0.00    -0.460 OA
BRANCH  29  30
ATOM     30  C   UNL     1       2.420  -0.514  -3.252  1.00  0.00     0.338 C 
ATOM     31  O   UNL     1       1.946   0.571  -3.488  1.00  0.00    -0.246 OA
BRANCH  30  32
ATOM     32  C   UNL     1       1.847  -1.539  -2.367  1.00  0.00     0.060 A 
ATOM     33  C   UNL     1       1.091  -1.082  -1.296  1.00  0.00     0.016 A 
ATOM     34  C   UNL     1       2.318  -2.865  -2.457  1.00  0.00     0.016 A 
ATOM     35  C   UNL     1       1.110  -1.848  -0.160  1.00  0.00     0.010 A 
ATOM     36  C   UNL     1       2.355  -3.618  -1.325  1.00  0.00     0.010 A 
ATOM     37  C   UNL     1       1.865  -3.027  -0.173  1.00  0.00    -0.014 A 
BRANCH  37  38
ATOM     38  C   UNL     1       2.214  -3.618   1.087  1.00  0.00     0.031 A 
ATOM     39  C   UNL     1       1.155  -4.472   1.632  1.00  0.00     0.074 A 
ATOM     40  C   UNL     1       3.434  -3.434   1.619  1.00  0.00     0.049 A 
ATOM     41  N   UNL     1       0.420  -4.228   2.661  1.00  0.00    -0.248 NA
ATOM     42  C   UNL     1       0.731  -5.633   0.835  1.00  0.00     0.031 C 
ATOM     43  C   UNL     1       4.629  -2.850   1.002  1.00  0.00     0.029 A 
ATOM     44  N   UNL     1       3.884  -3.847   2.827  1.00  0.00    -0.354 N 
ATOM     45  C   UNL     1      -0.434  -5.314   2.761  1.00  0.00     0.074 A 
ATOM     46  C   UNL     1      -0.345  -6.027   1.514  1.00  0.00     0.031 C 
ATOM     47  C   UNL     1       5.709  -3.159   1.757  1.00  0.00     0.029 A 
ATOM     48  C   UNL     1       5.264  -3.861   2.949  1.00  0.00     0.049 A 
ATOM     49  H   UNL     1       3.281  -4.116   3.558  1.00  0.00     0.167 HD
ATOM     50  C   UNL     1      -0.932  -5.688   3.967  1.00  0.00     0.037 A 
ATOM     51  C   UNL     1       5.942  -4.537   3.909  1.00  0.00     0.037 A 
ATOM     52  C   UNL     1      -0.825  -4.621   4.932  1.00  0.00     0.049 A 
ATOM     53  C   UNL     1       4.978  -4.798   5.022  1.00  0.00     0.074 A 
ATOM     54  C   UNL     1      -1.291  -3.319   4.974  1.00  0.00     0.029 A 
ATOM     55  N   UNL     1       0.179  -4.686   5.869  1.00  0.00    -0.354 N 
ATOM     56  N   UNL     1       4.482  -3.860   5.785  1.00  0.00    -0.248 NA
ATOM     57  C   UNL     1       4.194  -6.027   4.966  1.00  0.00     0.031 C 
ATOM     58  C   UNL     1      -0.237  -2.564   5.566  1.00  0.00     0.029 A 
ATOM     59  C   UNL     1       0.783  -3.453   5.905  1.00  0.00     0.049 A 
ATOM     60  H   UNL     1       0.420  -5.470   6.414  1.00  0.00     0.167 HD
ATOM     61  C   UNL     1       3.149  -4.208   5.961  1.00  0.00     0.074 A 
ATOM     62  C   UNL     1       3.049  -5.589   5.498  1.00  0.00     0.031 C 
ATOM     63  C   UNL     1       2.188  -3.260   6.176  1.00  0.00     0.037 A 
BRANCH  50  64
ATOM     64  C   UNL     1      -1.151  -7.124   4.356  1.00  0.00     0.064 A 
ATOM     65  C   UNL     1      -1.827  -7.403   5.556  1.00  0.00     0.173 A 
ATOM     66  C   UNL     1      -0.482  -8.217   3.759  1.00  0.00     0.173 A 
ATOM     67  F   UNL     1      -2.475  -6.431   6.215  1.00  0.00    -0.203 F 
ATOM     68  C   UNL     1      -1.770  -8.664   6.152  1.00  0.00     0.198 A 
ATOM     69  C   UNL     1      -0.480  -9.487   4.325  1.00  0.00     0.198 A 
ATOM     70  F   UNL     1       0.292  -8.084   2.675  1.00  0.00    -0.203 F 
ATOM     71  F   UNL     1      -2.316  -8.849   7.361  1.00  0.00    -0.200 F 
ATOM     72  C   UNL     1      -1.094  -9.703   5.539  1.00  0.00     0.200 A 
ATOM     73  F   UNL     1       0.197 -10.475   3.722  1.00  0.00    -0.200 F 
ATOM     74  F   UNL     1      -0.987 -10.895   6.139  1.00  0.00    -0.200 F 
ENDBRANCH  50  64
BRANCH  51  75
ATOM     75  C   UNL     1       7.215  -5.285   3.747  1.00  0.00     0.064 A 
ATOM     76  C   UNL     1       7.897  -5.790   4.866  1.00  0.00     0.173 A 
ATOM     77  C   UNL     1       7.663  -5.744   2.490  1.00  0.00     0.173 A 
ATOM     78  F   UNL     1       7.510  -5.445   6.103  1.00  0.00    -0.203 F 
ATOM     79  C   UNL     1       8.942  -6.713   4.737  1.00  0.00     0.198 A 
ATOM     80  C   UNL     1       8.715  -6.652   2.362  1.00  0.00     0.198 A 
ATOM     81  F   UNL     1       7.035  -5.399   1.358  1.00  0.00    -0.203 F 
ATOM     82  F   UNL     1       9.523  -7.221   5.832  1.00  0.00    -0.200 F 
ATOM     83  C   UNL     1       9.345  -7.148   3.485  1.00  0.00     0.200 A 
ATOM     84  F   UNL     1       9.069  -7.087   1.144  1.00  0.00    -0.200 F 
ATOM     85  F   UNL     1      10.306  -8.073   3.363  1.00  0.00    -0.200 F 
ENDBRANCH  51  75
BRANCH  63  86
ATOM     86  C   UNL     1       2.631  -1.853   6.465  1.00  0.00     0.064 A 
ATOM     87  C   UNL     1       3.374  -1.066   5.566  1.00  0.00     0.173 A 
ATOM     88  C   UNL     1       2.147  -1.223   7.620  1.00  0.00     0.173 A 
ATOM     89  F   UNL     1       3.772  -1.559   4.387  1.00  0.00    -0.203 F 
ATOM     90  C   UNL     1       3.659   0.271   5.838  1.00  0.00     0.198 A 
ATOM     91  C   UNL     1       2.398   0.123   7.870  1.00  0.00     0.198 A 
ATOM     92  F   UNL     1       1.378  -1.905   8.484  1.00  0.00    -0.203 F 
ATOM     93  F   UNL     1       4.378   0.995   4.968  1.00  0.00    -0.200 F 
ATOM     94  C   UNL     1       3.164   0.866   6.986  1.00  0.00     0.200 A 
ATOM     95  F   UNL     1       1.870   0.709   8.953  1.00  0.00    -0.200 F 
ATOM     96  F   UNL     1       3.397   2.164   7.225  1.00  0.00    -0.200 F 
ENDBRANCH  63  86
ENDBRANCH  37  38
ENDBRANCH  30  32
ENDBRANCH  29  30
ENDBRANCH  28  29
ENDBRANCH  27  28
ENDBRANCH  26  27
ENDBRANCH  25  26
ENDBRANCH   1  25
TORSDOF 20
