REMARK SMILES CCOc1cncc(N(CC(=O)OCCOCCOCCOC(=O)c2ccc(-c3c4nc(c(-c5c(F)c(F)c(F)c(F)c5F)c5ccc([nH]5)c(-c5c(F)c(F)c(F)c(F)c5F)c5nc(c(-c6c(F)c(F)c(F)c(F)c6F)c6ccc3[nH]6)C=C5)C=C4)cc2)C(C)(C)C)n1
REMARK SMILES IDX 17 1 16 2 15 3 14 4 13 5 11 6 12 7 10 8 9 9 8 10 4 11 5 12
REMARK SMILES IDX 92 13 6 14 7 15 3 16 2 17 1 18 88 19 89 20 90 21 91 22 18 23
REMARK SMILES IDX 19 24 20 25 21 26 22 27 23 28 24 29 25 30 26 31 87 32 27 33
REMARK SMILES IDX 86 34 28 35 29 36 30 37 80 38 31 39 85 40 79 41 81 42 32 43
REMARK SMILES IDX 84 44 78 45 77 46 33 48 65 49 45 50 64 51 46 52 49 53 63 54
REMARK SMILES IDX 82 55 47 56 48 57 62 59 83 60 50 61 34 62 35 63 43 64 36 65
REMARK SMILES IDX 37 66 41 67 44 68 38 69 39 70 42 71 40 72 66 73 67 74 75 75
REMARK SMILES IDX 68 76 69 77 73 78 76 79 70 80 71 81 74 82 72 83 51 84 52 85
REMARK SMILES IDX 60 86 53 87 54 88 58 89 61 90 55 91 56 92 59 93 57 94
REMARK H PARENT 81 47 49 58
REMARK Flexibility Score: inf
ROOT
ATOM      1  C   UNL     1       5.946   4.780   7.567  1.00  0.00     0.188 C 
ENDROOT
BRANCH   1   2
ATOM      2  O   UNL     1       6.722   5.832   6.997  1.00  0.00    -0.376 OA
BRANCH   2   3
ATOM      3  C   UNL     1       6.562   6.079   5.600  1.00  0.00     0.202 C 
BRANCH   3   4
ATOM      4  C   UNL     1       7.155   5.000   4.689  1.00  0.00     0.261 C 
BRANCH   4   5
ATOM      5  O   UNL     1       6.400   3.770   4.741  1.00  0.00    -0.462 OA
BRANCH   5   6
ATOM      6  C   UNL     1       7.087   2.658   4.370  1.00  0.00     0.325 C 
ATOM      7  O   UNL     1       8.273   2.661   4.048  1.00  0.00    -0.250 OA
BRANCH   6   8
ATOM      8  C   UNL     1       6.287   1.354   4.465  1.00  0.00     0.241 C 
BRANCH   8   9
ATOM      9  N   UNL     1       4.821   1.440   4.248  1.00  0.00    -0.339 N 
BRANCH   9  10
ATOM     10  C   UNL     1       4.355   1.572   2.928  1.00  0.00     0.152 A 
ATOM     11  C   UNL     1       2.611   1.492   1.397  1.00  0.00     0.234 A 
ATOM     12  C   UNL     1       3.460   1.761   0.345  1.00  0.00     0.179 A 
ATOM     13  N   UNL     1       3.035   1.410   2.678  1.00  0.00    -0.193 NA
ATOM     14  N   UNL     1       4.782   1.931   0.530  1.00  0.00    -0.255 NA
ATOM     15  C   UNL     1       5.190   1.839   1.827  1.00  0.00     0.158 A 
BRANCH  11  16
ATOM     16  O   UNL     1       1.263   1.392   1.165  1.00  0.00    -0.477 OA
BRANCH  16  17
ATOM     17  C   UNL     1       0.826   0.034   1.262  1.00  0.00     0.228 C 
ATOM     18  C   UNL     1       0.659  -0.530  -0.140  1.00  0.00     0.049 C 
ENDBRANCH  16  17
ENDBRANCH  11  16
ENDBRANCH   9  10
BRANCH   9  19
ATOM     19  C   UNL     1       3.852   1.006   5.315  1.00  0.00     0.034 C 
ATOM     20  C   UNL     1       2.688   2.018   5.459  1.00  0.00     0.034 C 
ATOM     21  C   UNL     1       3.299  -0.409   5.033  1.00  0.00     0.034 C 
ATOM     22  C   UNL     1       4.528   0.903   6.699  1.00  0.00     0.034 C 
ENDBRANCH   9  19
ENDBRANCH   8   9
ENDBRANCH   6   8
ENDBRANCH   5   6
ENDBRANCH   4   5
ENDBRANCH   3   4
ENDBRANCH   2   3
ENDBRANCH   1   2
BRANCH   1  23
ATOM     23  C   UNL     1       4.504   4.634   7.059  1.00  0.00     0.188 C 
BRANCH  23  24
ATOM     24  O   UNL     1       3.734   5.828   6.979  1.00  0.00    -0.376 OA
BRANCH  24  25
ATOM     25  C   UNL     1       3.568   6.559   8.191  1.00  0.00     0.202 C 
BRANCH  25  26
ATOM     26  C   UNL     1       2.778   5.793   9.249  1.00  0.00     0.261 C 
BRANCH  26  27
ATOM     27  O   UNL     1       3.624   4.795   9.851  1.00  0.00    -0.460 OA
BRANCH  27  28
ATOM     28  C   UNL     1       2.974   3.954  10.681  1.00  0.00     0.338 C 
ATOM     29  O   UNL     1       1.802   4.013  11.027  1.00  0.00    -0.246 OA
BRANCH  28  30
ATOM     30  C   UNL     1       3.885   2.882  11.111  1.00  0.00     0.060 A 
ATOM     31  C   UNL     1       4.402   1.994  10.165  1.00  0.00     0.016 A 
ATOM     32  C   UNL     1       4.096   2.660  12.469  1.00  0.00     0.016 A 
ATOM     33  C   UNL     1       5.056   0.831  10.578  1.00  0.00     0.010 A 
ATOM     34  C   UNL     1       4.800   1.524  12.881  1.00  0.00     0.010 A 
ATOM     35  C   UNL     1       5.235   0.568  11.944  1.00  0.00    -0.014 A 
BRANCH  35  36
ATOM     36  C   UNL     1       5.722  -0.764  12.405  1.00  0.00     0.031 A 
ATOM     37  C   UNL     1       4.790  -1.657  13.187  1.00  0.00     0.074 A 
ATOM     38  C   UNL     1       6.956  -1.210  12.106  1.00  0.00     0.049 A 
ATOM     39  N   UNL     1       5.044  -2.768  13.833  1.00  0.00    -0.248 NA
ATOM     40  C   UNL     1       3.382  -1.234  13.255  1.00  0.00     0.031 C 
ATOM     41  C   UNL     1       7.945  -0.498  11.300  1.00  0.00     0.029 A 
ATOM     42  N   UNL     1       7.585  -2.385  12.445  1.00  0.00    -0.354 N 
ATOM     43  C   UNL     1       3.848  -3.138  14.435  1.00  0.00     0.074 A 
ATOM     44  C   UNL     1       2.865  -2.140  14.072  1.00  0.00     0.031 C 
ATOM     45  C   UNL     1       9.045  -1.261  11.181  1.00  0.00     0.029 A 
ATOM     46  C   UNL     1       8.865  -2.486  11.959  1.00  0.00     0.049 A 
ATOM     47  H   UNL     1       7.157  -3.088  12.985  1.00  0.00     0.167 HD
ATOM     48  C   UNL     1       3.591  -4.210  15.222  1.00  0.00     0.037 A 
ATOM     49  C   UNL     1       9.799  -3.439  12.144  1.00  0.00     0.037 A 
ATOM     50  C   UNL     1       4.544  -5.241  15.535  1.00  0.00     0.049 A 
ATOM     51  C   UNL     1       9.494  -4.620  13.028  1.00  0.00     0.074 A 
ATOM     52  C   UNL     1       4.381  -6.359  16.336  1.00  0.00     0.029 A 
ATOM     53  N   UNL     1       5.837  -5.292  15.037  1.00  0.00    -0.354 N 
ATOM     54  N   UNL     1       8.388  -4.914  13.666  1.00  0.00    -0.248 NA
ATOM     55  C   UNL     1      10.579  -5.592  13.231  1.00  0.00     0.031 C 
ATOM     56  C   UNL     1       5.582  -7.078  16.337  1.00  0.00     0.029 A 
ATOM     57  C   UNL     1       6.481  -6.424  15.511  1.00  0.00     0.049 A 
ATOM     58  H   UNL     1       6.238  -4.624  14.436  1.00  0.00     0.167 HD
ATOM     59  C   UNL     1       8.641  -6.100  14.343  1.00  0.00     0.074 A 
ATOM     60  C   UNL     1       9.996  -6.489  14.013  1.00  0.00     0.031 C 
ATOM     61  C   UNL     1       7.829  -6.798  15.174  1.00  0.00     0.037 A 
BRANCH  48  62
ATOM     62  C   UNL     1       2.225  -4.302  15.835  1.00  0.00     0.064 A 
ATOM     63  C   UNL     1       1.098  -4.668  15.086  1.00  0.00     0.173 A 
ATOM     64  C   UNL     1       2.050  -4.039  17.202  1.00  0.00     0.173 A 
ATOM     65  F   UNL     1       1.212  -4.911  13.771  1.00  0.00    -0.203 F 
ATOM     66  C   UNL     1      -0.160  -4.744  15.679  1.00  0.00     0.198 A 
ATOM     67  C   UNL     1       0.795  -4.140  17.797  1.00  0.00     0.198 A 
ATOM     68  F   UNL     1       3.098  -3.687  17.962  1.00  0.00    -0.203 F 
ATOM     69  F   UNL     1      -1.232  -5.053  14.935  1.00  0.00    -0.200 F 
ATOM     70  C   UNL     1      -0.309  -4.486  17.034  1.00  0.00     0.200 A 
ATOM     71  F   UNL     1       0.655  -3.898  19.108  1.00  0.00    -0.200 F 
ATOM     72  F   UNL     1      -1.520  -4.562  17.603  1.00  0.00    -0.200 F 
ENDBRANCH  48  62
BRANCH  49  73
ATOM     73  C   UNL     1      11.133  -3.307  11.502  1.00  0.00     0.064 A 
ATOM     74  C   UNL     1      11.523  -4.169  10.468  1.00  0.00     0.173 A 
ATOM     75  C   UNL     1      12.048  -2.329  11.919  1.00  0.00     0.173 A 
ATOM     76  F   UNL     1      10.693  -5.139  10.058  1.00  0.00    -0.203 F 
ATOM     77  C   UNL     1      12.782  -4.064   9.881  1.00  0.00     0.198 A 
ATOM     78  C   UNL     1      13.296  -2.208  11.312  1.00  0.00     0.198 A 
ATOM     79  F   UNL     1      11.724  -1.485  12.909  1.00  0.00    -0.203 F 
ATOM     80  F   UNL     1      13.146  -4.927   8.923  1.00  0.00    -0.200 F 
ATOM     81  C   UNL     1      13.664  -3.079  10.298  1.00  0.00     0.200 A 
ATOM     82  F   UNL     1      14.141  -1.248  11.712  1.00  0.00    -0.200 F 
ATOM     83  F   UNL     1      14.873  -2.974   9.729  1.00  0.00    -0.200 F 
ENDBRANCH  49  73
BRANCH  61  84
ATOM     84  C   UNL     1       8.381  -8.059  15.769  1.00  0.00     0.064 A 
ATOM     85  C   UNL     1       9.330  -8.025  16.801  1.00  0.00     0.173 A 
ATOM     86  C   UNL     1       7.945  -9.312  15.315  1.00  0.00     0.173 A 
ATOM     87  F   UNL     1       9.788  -6.849  17.258  1.00  0.00    -0.203 F 
ATOM     88  C   UNL     1       9.843  -9.202  17.340  1.00  0.00     0.198 A 
ATOM     89  C   UNL     1       8.444 -10.487  15.871  1.00  0.00     0.198 A 
ATOM     90  F   UNL     1       7.036  -9.397  14.333  1.00  0.00    -0.203 F 
ATOM     91  F   UNL     1      10.783  -9.146  18.294  1.00  0.00    -0.200 F 
ATOM     92  C   UNL     1       9.397 -10.431  16.877  1.00  0.00     0.200 A 
ATOM     93  F   UNL     1       8.008 -11.674  15.428  1.00  0.00    -0.200 F 
ATOM     94  F   UNL     1       9.895 -11.563  17.394  1.00  0.00    -0.200 F 
ENDBRANCH  61  84
ENDBRANCH  35  36
ENDBRANCH  28  30
ENDBRANCH  27  28
ENDBRANCH  26  27
ENDBRANCH  25  26
ENDBRANCH  24  25
ENDBRANCH  23  24
ENDBRANCH   1  23
TORSDOF 22
