REMARK SMILES CC[C@@H](C)[C@H](NC(=O)[C@@H](C)NC(N)=O)C(=O)OCCOCCOCCOC(=O)c1ccc(-c2c3nc(c(-c4c(F)c(F)c(F)c(F)c4F)c4ccc([nH]4)c(-c4c(F)c(F)c(F)c(F)c4F)c4nc(c(-c5c(F)c(F)c(F)c(F)c5F)c5ccc2[nH]5)C=C4)C=C3)cc1
REMARK SMILES IDX 21 1 20 2 19 3 18 4 17 5 15 6 16 7 5 8 3 9 4 10 2 11 1 12
REMARK SMILES IDX 6 13 7 14 8 16 9 17 10 18 11 19 12 20 13 22 14 23 22 26
REMARK SMILES IDX 23 27 24 28 25 29 26 30 27 31 28 32 29 33 30 34 91 35 31 36
REMARK SMILES IDX 90 37 32 38 33 39 34 40 84 41 35 42 89 43 83 44 85 45 36 46
REMARK SMILES IDX 88 47 82 48 81 49 37 51 69 52 49 53 68 54 50 55 53 56 67 57
REMARK SMILES IDX 86 58 51 59 52 60 66 62 87 63 54 64 38 65 39 66 47 67 40 68
REMARK SMILES IDX 41 69 45 70 48 71 42 72 43 73 46 74 44 75 70 76 71 77 79 78
REMARK SMILES IDX 72 79 73 80 77 81 80 82 74 83 75 84 78 85 76 86 55 87 56 88
REMARK SMILES IDX 64 89 57 90 58 91 62 92 65 93 59 94 60 95 63 96 61 97
REMARK H PARENT 6 15 11 21 13 24 13 25 85 50 53 61
REMARK Flexibility Score: inf
ROOT
ATOM      1  C   UNL     1       0.066   2.929   5.777  1.00  0.00     0.188 C 
ENDROOT
BRANCH   1   2
ATOM      2  O   UNL     1       0.645   3.292   7.022  1.00  0.00    -0.376 OA
BRANCH   2   3
ATOM      3  C   UNL     1       1.911   2.698   7.327  1.00  0.00     0.202 C 
BRANCH   3   4
ATOM      4  C   UNL     1       1.885   1.165   7.467  1.00  0.00     0.261 C 
BRANCH   4   5
ATOM      5  O   UNL     1       1.964   0.527   6.169  1.00  0.00    -0.462 OA
BRANCH   5   6
ATOM      6  C   UNL     1       0.964  -0.309   5.829  1.00  0.00     0.328 C 
ATOM      7  O   UNL     1       0.120  -0.721   6.621  1.00  0.00    -0.250 OA
BRANCH   6   8
ATOM      8  C   UNL     1       0.974  -0.732   4.339  1.00  0.00     0.195 C 
BRANCH   8   9
ATOM      9  C   UNL     1       1.418  -2.211   4.132  1.00  0.00     0.019 C 
ATOM     10  C   UNL     1       0.839  -3.164   5.184  1.00  0.00     0.010 C 
BRANCH   9  11
ATOM     11  C   UNL     1       2.939  -2.306   4.016  1.00  0.00     0.002 C 
ATOM     12  C   UNL     1       3.548  -3.692   4.069  1.00  0.00     0.004 C 
ENDBRANCH   9  11
ENDBRANCH   8   9
BRANCH   8  13
ATOM     13  N   UNL     1       1.393   0.147   3.203  1.00  0.00    -0.341 N 
ATOM     14  C   UNL     1       2.502   0.657   2.611  1.00  0.00     0.243 C 
ATOM     15  H   UNL     1       0.594   0.462   2.722  1.00  0.00     0.164 HD
ATOM     16  O   UNL     1       2.390   0.753   1.377  1.00  0.00    -0.273 OA
BRANCH  14  17
ATOM     17  C   UNL     1       3.846   1.091   3.256  1.00  0.00     0.170 C 
ATOM     18  C   UNL     1       3.668   1.942   4.490  1.00  0.00     0.041 C 
BRANCH  17  19
ATOM     19  N   UNL     1       4.854   0.068   3.469  1.00  0.00    -0.327 N 
ATOM     20  C   UNL     1       6.079   0.387   3.974  1.00  0.00     0.312 C 
ATOM     21  H   UNL     1       4.650  -0.869   3.245  1.00  0.00     0.166 HD
ATOM     22  N   UNL     1       6.720  -0.688   4.484  1.00  0.00    -0.352 N 
ATOM     23  O   UNL     1       6.548   1.511   4.062  1.00  0.00    -0.249 OA
ATOM     24  H   UNL     1       6.322  -1.584   4.401  1.00  0.00     0.161 HD
ATOM     25  H   UNL     1       7.585  -0.574   4.940  1.00  0.00     0.161 HD
ENDBRANCH  17  19
ENDBRANCH  14  17
ENDBRANCH   8  13
ENDBRANCH   6   8
ENDBRANCH   5   6
ENDBRANCH   4   5
ENDBRANCH   3   4
ENDBRANCH   2   3
ENDBRANCH   1   2
BRANCH   1  26
ATOM     26  C   UNL     1       0.279   3.932   4.656  1.00  0.00     0.188 C 
BRANCH  26  27
ATOM     27  O   UNL     1       1.627   4.120   4.242  1.00  0.00    -0.376 OA
BRANCH  27  28
ATOM     28  C   UNL     1       2.175   5.396   4.574  1.00  0.00     0.202 C 
BRANCH  28  29
ATOM     29  C   UNL     1       1.809   6.498   3.566  1.00  0.00     0.261 C 
BRANCH  29  30
ATOM     30  O   UNL     1       0.381   6.646   3.474  1.00  0.00    -0.460 OA
BRANCH  30  31
ATOM     31  C   UNL     1      -0.196   6.075   2.386  1.00  0.00     0.338 C 
ATOM     32  O   UNL     1       0.355   5.743   1.349  1.00  0.00    -0.246 OA
BRANCH  31  33
ATOM     33  C   UNL     1      -1.586   5.680   2.730  1.00  0.00     0.060 A 
ATOM     34  C   UNL     1      -2.073   4.475   2.198  1.00  0.00     0.016 A 
ATOM     35  C   UNL     1      -2.361   6.404   3.642  1.00  0.00     0.016 A 
ATOM     36  C   UNL     1      -3.341   4.009   2.546  1.00  0.00     0.010 A 
ATOM     37  C   UNL     1      -3.639   5.952   3.975  1.00  0.00     0.010 A 
ATOM     38  C   UNL     1      -4.149   4.776   3.395  1.00  0.00    -0.014 A 
BRANCH  38  39
ATOM     39  C   UNL     1      -5.611   4.540   3.423  1.00  0.00     0.031 A 
ATOM     40  C   UNL     1      -6.439   5.320   2.438  1.00  0.00     0.074 A 
ATOM     41  C   UNL     1      -6.193   3.688   4.284  1.00  0.00     0.049 A 
ATOM     42  N   UNL     1      -7.737   5.403   2.315  1.00  0.00    -0.248 NA
ATOM     43  C   UNL     1      -5.688   6.131   1.463  1.00  0.00     0.031 C 
ATOM     44  C   UNL     1      -5.496   2.845   5.251  1.00  0.00     0.029 A 
ATOM     45  N   UNL     1      -7.522   3.410   4.488  1.00  0.00    -0.354 N 
ATOM     46  C   UNL     1      -7.954   6.279   1.260  1.00  0.00     0.074 A 
ATOM     47  C   UNL     1      -6.662   6.726   0.796  1.00  0.00     0.031 C 
ATOM     48  C   UNL     1      -6.407   2.160   5.966  1.00  0.00     0.029 A 
ATOM     49  C   UNL     1      -7.750   2.543   5.528  1.00  0.00     0.049 A 
ATOM     50  H   UNL     1      -8.244   3.796   3.941  1.00  0.00     0.167 HD
ATOM     51  C   UNL     1      -9.129   6.673   0.720  1.00  0.00     0.037 A 
ATOM     52  C   UNL     1      -8.913   2.136   6.075  1.00  0.00     0.037 A 
ATOM     53  C   UNL     1     -10.413   6.239   1.192  1.00  0.00     0.049 A 
ATOM     54  C   UNL     1     -10.215   2.647   5.504  1.00  0.00     0.074 A 
ATOM     55  C   UNL     1     -11.667   6.581   0.723  1.00  0.00     0.029 A 
ATOM     56  N   UNL     1     -10.602   5.368   2.255  1.00  0.00    -0.354 N 
ATOM     57  N   UNL     1     -10.417   3.465   4.499  1.00  0.00    -0.248 NA
ATOM     58  C   UNL     1     -11.452   2.176   6.146  1.00  0.00     0.031 C 
ATOM     59  C   UNL     1     -12.619   5.951   1.532  1.00  0.00     0.029 A 
ATOM     60  C   UNL     1     -11.955   5.174   2.469  1.00  0.00     0.049 A 
ATOM     61  H   UNL     1      -9.881   4.950   2.779  1.00  0.00     0.167 HD
ATOM     62  C   UNL     1     -11.796   3.584   4.370  1.00  0.00     0.074 A 
ATOM     63  C   UNL     1     -12.383   2.744   5.392  1.00  0.00     0.031 C 
ATOM     64  C   UNL     1     -12.514   4.320   3.485  1.00  0.00     0.037 A 
BRANCH  51  65
ATOM     65  C   UNL     1      -9.066   7.647  -0.419  1.00  0.00     0.064 A 
ATOM     66  C   UNL     1      -8.592   7.269  -1.685  1.00  0.00     0.173 A 
ATOM     67  C   UNL     1      -9.478   8.975  -0.240  1.00  0.00     0.173 A 
ATOM     68  F   UNL     1      -8.160   6.017  -1.898  1.00  0.00    -0.203 F 
ATOM     69  C   UNL     1      -8.507   8.194  -2.722  1.00  0.00     0.198 A 
ATOM     70  C   UNL     1      -9.421   9.889  -1.288  1.00  0.00     0.198 A 
ATOM     71  F   UNL     1      -9.932   9.388   0.952  1.00  0.00    -0.203 F 
ATOM     72  F   UNL     1      -7.999   7.826  -3.906  1.00  0.00    -0.200 F 
ATOM     73  C   UNL     1      -8.928   9.501  -2.525  1.00  0.00     0.200 A 
ATOM     74  F   UNL     1      -9.834  11.150  -1.099  1.00  0.00    -0.200 F 
ATOM     75  F   UNL     1      -8.849  10.389  -3.525  1.00  0.00    -0.200 F 
ENDBRANCH  51  65
BRANCH  52  76
ATOM     76  C   UNL     1      -8.910   1.213   7.242  1.00  0.00     0.064 A 
ATOM     77  C   UNL     1      -9.396  -0.097   7.133  1.00  0.00     0.173 A 
ATOM     78  C   UNL     1      -8.454   1.633   8.501  1.00  0.00     0.173 A 
ATOM     79  F   UNL     1      -9.873  -0.538   5.959  1.00  0.00    -0.203 F 
ATOM     80  C   UNL     1      -9.444  -0.945   8.239  1.00  0.00     0.198 A 
ATOM     81  C   UNL     1      -8.476   0.776   9.600  1.00  0.00     0.198 A 
ATOM     82  F   UNL     1      -7.987   2.880   8.665  1.00  0.00    -0.203 F 
ATOM     83  F   UNL     1      -9.961  -2.175   8.116  1.00  0.00    -0.200 F 
ATOM     84  C   UNL     1      -8.978  -0.510   9.470  1.00  0.00     0.200 A 
ATOM     85  F   UNL     1      -8.018   1.198  10.786  1.00  0.00    -0.200 F 
ATOM     86  F   UNL     1      -9.024  -1.325  10.533  1.00  0.00    -0.200 F 
ENDBRANCH  52  76
BRANCH  64  87
ATOM     87  C   UNL     1     -14.010   4.219   3.551  1.00  0.00     0.064 A 
ATOM     88  C   UNL     1     -14.745   4.808   4.590  1.00  0.00     0.173 A 
ATOM     89  C   UNL     1     -14.720   3.575   2.526  1.00  0.00     0.173 A 
ATOM     90  F   UNL     1     -14.112   5.425   5.599  1.00  0.00    -0.203 F 
ATOM     91  C   UNL     1     -16.135   4.736   4.612  1.00  0.00     0.198 A 
ATOM     92  C   UNL     1     -16.111   3.532   2.535  1.00  0.00     0.198 A 
ATOM     93  F   UNL     1     -14.065   3.005   1.504  1.00  0.00    -0.203 F 
ATOM     94  F   UNL     1     -16.816   5.269   5.636  1.00  0.00    -0.200 F 
ATOM     95  C   UNL     1     -16.817   4.106   3.581  1.00  0.00     0.200 A 
ATOM     96  F   UNL     1     -16.768   2.938   1.530  1.00  0.00    -0.200 F 
ATOM     97  F   UNL     1     -18.156   4.049   3.598  1.00  0.00    -0.200 F 
ENDBRANCH  64  87
ENDBRANCH  38  39
ENDBRANCH  31  33
ENDBRANCH  30  31
ENDBRANCH  29  30
ENDBRANCH  28  29
ENDBRANCH  27  28
ENDBRANCH  26  27
ENDBRANCH   1  26
TORSDOF 22
