REMARK SMILES CCOc1cc2c(cc1OCC)[C@@H](C(=O)OCCOCCOCCOC(=O)c1ccc(-c3c4nc(c(-c5c(F)c(F)c(F)c(F)c5F)c5ccc([nH]5)c(-c5c(F)c(F)c(F)c(F)c5F)c5nc(c(-c6c(F)c(F)c(F)c(F)c6F)c6ccc3[nH]6)C=C5)C=C4)cc1)[C@H](c1ccc(F)cc1Cl)N(C)C2=O
REMARK SMILES IDX 20 1 19 2 18 3 17 4 16 5 14 6 15 7 13 8 4 9 5 10 9 11 6 12
REMARK SMILES IDX 8 13 7 14 102 15 100 16 103 17 91 18 101 19 3 20 2 21 1 22
REMARK SMILES IDX 10 23 11 24 12 25 92 26 93 27 98 28 94 29 97 30 99 31 95 32
REMARK SMILES IDX 96 33 21 34 22 35 23 36 24 37 25 38 26 39 27 40 28 41 29 42
REMARK SMILES IDX 90 43 30 44 89 45 31 46 32 47 33 48 83 49 34 50 88 51 82 52
REMARK SMILES IDX 84 53 35 54 87 55 81 56 80 57 36 59 68 60 48 61 67 62 49 63
REMARK SMILES IDX 52 64 66 65 85 66 50 67 51 68 65 70 86 71 53 72 37 73 38 74
REMARK SMILES IDX 46 75 39 76 40 77 44 78 47 79 41 80 42 81 45 82 43 83 69 84
REMARK SMILES IDX 70 85 78 86 71 87 72 88 76 89 79 90 73 91 74 92 77 93 75 94
REMARK SMILES IDX 54 95 55 96 63 97 56 98 57 99 61 100 64 101 58 102 59 103
REMARK SMILES IDX 62 104 60 105
REMARK H PARENT 84 58 52 69
REMARK Flexibility Score: inf
ROOT
ATOM      1  C   UNL     1       9.523  -1.631  -3.787  1.00  0.00     0.188 C 
ENDROOT
BRANCH   1   2
ATOM      2  O   UNL     1       9.490  -0.393  -4.474  1.00  0.00    -0.376 OA
BRANCH   2   3
ATOM      3  C   UNL     1       8.880   0.714  -3.812  1.00  0.00     0.202 C 
BRANCH   3   4
ATOM      4  C   UNL     1       7.436   0.546  -3.307  1.00  0.00     0.261 C 
BRANCH   4   5
ATOM      5  O   UNL     1       7.221  -0.513  -2.340  1.00  0.00    -0.463 OA
BRANCH   5   6
ATOM      6  C   UNL     1       6.559  -1.598  -2.805  1.00  0.00     0.316 C 
ATOM      7  O   UNL     1       6.265  -1.756  -3.992  1.00  0.00    -0.251 OA
BRANCH   6   8
ATOM      8  C   UNL     1       6.098  -2.622  -1.763  1.00  0.00     0.157 C 
ATOM      9  C   UNL     1       1.927  -1.748  -1.477  1.00  0.00     0.161 A 
ATOM     10  C   UNL     1       2.839  -1.214  -0.552  1.00  0.00     0.064 A 
ATOM     11  C   UNL     1       2.368  -2.636  -2.471  1.00  0.00     0.161 A 
ATOM     12  C   UNL     1       4.190  -1.485  -0.658  1.00  0.00     0.048 A 
ATOM     13  C   UNL     1       3.721  -2.963  -2.521  1.00  0.00     0.056 A 
ATOM     14  C   UNL     1       4.622  -2.389  -1.625  1.00  0.00    -0.015 A 
ATOM     15  C   UNL     1       5.178  -0.796   0.228  1.00  0.00     0.254 C 
ATOM     16  N   UNL     1       6.419  -1.419   0.356  1.00  0.00    -0.333 N 
ATOM     17  O   UNL     1       4.879   0.254   0.784  1.00  0.00    -0.269 OA
ATOM     18  C   UNL     1       6.687  -2.684  -0.321  1.00  0.00     0.135 C 
ATOM     19  C   UNL     1       7.439  -0.831   1.207  1.00  0.00     0.147 C 
BRANCH   9  20
ATOM     20  O   UNL     1       0.601  -1.444  -1.326  1.00  0.00    -0.490 OA
BRANCH  20  21
ATOM     21  C   UNL     1       0.317  -0.039  -1.418  1.00  0.00     0.226 C 
ATOM     22  C   UNL     1       0.319   0.642  -0.057  1.00  0.00     0.049 C 
ENDBRANCH  20  21
ENDBRANCH   9  20
BRANCH  11  23
ATOM     23  O   UNL     1       1.685  -3.263  -3.472  1.00  0.00    -0.490 OA
BRANCH  23  24
ATOM     24  C   UNL     1       0.289  -3.073  -3.624  1.00  0.00     0.226 C 
ATOM     25  C   UNL     1      -0.469  -4.017  -2.711  1.00  0.00     0.049 C 
ENDBRANCH  23  24
ENDBRANCH  11  23
BRANCH  18  26
ATOM     26  C   UNL     1       6.174  -3.954   0.453  1.00  0.00    -0.005 A 
ATOM     27  C   UNL     1       6.434  -5.209  -0.161  1.00  0.00     0.010 A 
ATOM     28  C   UNL     1       5.436  -4.004   1.667  1.00  0.00     0.049 A 
ATOM     29  C   UNL     1       5.935  -6.414   0.353  1.00  0.00     0.040 A 
ATOM     30  C   UNL     1       4.943  -5.219   2.176  1.00  0.00     0.060 A 
ATOM     31  Cl  UNL     1       5.046  -2.668   2.689  1.00  0.00    -0.084 Cl
ATOM     32  C   UNL     1       5.184  -6.405   1.513  1.00  0.00     0.124 A 
ATOM     33  F   UNL     1       4.697  -7.551   2.005  1.00  0.00    -0.207 F 
ENDBRANCH  18  26
ENDBRANCH   6   8
ENDBRANCH   5   6
ENDBRANCH   4   5
ENDBRANCH   3   4
ENDBRANCH   2   3
ENDBRANCH   1   2
BRANCH   1  34
ATOM     34  C   UNL     1      10.112  -1.640  -2.375  1.00  0.00     0.188 C 
BRANCH  34  35
ATOM     35  O   UNL     1       9.941  -0.460  -1.616  1.00  0.00    -0.376 OA
BRANCH  35  36
ATOM     36  C   UNL     1      10.781  -0.265  -0.479  1.00  0.00     0.202 C 
BRANCH  36  37
ATOM     37  C   UNL     1      12.298  -0.471  -0.671  1.00  0.00     0.261 C 
BRANCH  37  38
ATOM     38  O   UNL     1      12.733  -1.788  -1.089  1.00  0.00    -0.460 OA
BRANCH  38  39
ATOM     39  C   UNL     1      12.198  -2.878  -0.482  1.00  0.00     0.338 C 
ATOM     40  O   UNL     1      11.598  -2.896   0.570  1.00  0.00    -0.246 OA
BRANCH  39  41
ATOM     41  C   UNL     1      12.181  -4.007  -1.469  1.00  0.00     0.060 A 
ATOM     42  C   UNL     1      11.058  -4.851  -1.481  1.00  0.00     0.016 A 
ATOM     43  C   UNL     1      13.170  -4.172  -2.444  1.00  0.00     0.016 A 
ATOM     44  C   UNL     1      10.932  -5.864  -2.441  1.00  0.00     0.010 A 
ATOM     45  C   UNL     1      13.053  -5.199  -3.393  1.00  0.00     0.010 A 
ATOM     46  C   UNL     1      11.946  -6.067  -3.386  1.00  0.00    -0.014 A 
BRANCH  46  47
ATOM     47  C   UNL     1      11.954  -7.290  -4.237  1.00  0.00     0.031 A 
ATOM     48  C   UNL     1      12.798  -8.457  -3.799  1.00  0.00     0.074 A 
ATOM     49  C   UNL     1      11.235  -7.388  -5.371  1.00  0.00     0.049 A 
ATOM     50  N   UNL     1      13.045  -9.589  -4.408  1.00  0.00    -0.248 NA
ATOM     51  C   UNL     1      13.455  -8.321  -2.490  1.00  0.00     0.031 C 
ATOM     52  C   UNL     1      10.327  -6.371  -5.891  1.00  0.00     0.029 A 
ATOM     53  N   UNL     1      11.173  -8.402  -6.300  1.00  0.00    -0.354 N 
ATOM     54  C   UNL     1      13.892 -10.295  -3.563  1.00  0.00     0.074 A 
ATOM     55  C   UNL     1      14.141  -9.450  -2.414  1.00  0.00     0.031 C 
ATOM     56  C   UNL     1       9.808  -6.805  -7.055  1.00  0.00     0.029 A 
ATOM     57  C   UNL     1      10.381  -8.111  -7.385  1.00  0.00     0.049 A 
ATOM     58  H   UNL     1      11.652  -9.256  -6.197  1.00  0.00     0.167 HD
ATOM     59  C   UNL     1      14.414 -11.535  -3.723  1.00  0.00     0.037 A 
ATOM     60  C   UNL     1      10.168  -8.803  -8.524  1.00  0.00     0.037 A 
ATOM     61  C   UNL     1      14.182 -12.376  -4.869  1.00  0.00     0.049 A 
ATOM     62  C   UNL     1      10.857 -10.130  -8.739  1.00  0.00     0.074 A 
ATOM     63  C   UNL     1      14.656 -13.653  -5.110  1.00  0.00     0.029 A 
ATOM     64  N   UNL     1      13.426 -12.016  -5.974  1.00  0.00    -0.354 N 
ATOM     65  N   UNL     1      11.639 -10.801  -7.928  1.00  0.00    -0.248 NA
ATOM     66  C   UNL     1      10.640 -10.791 -10.036  1.00  0.00     0.031 C 
ATOM     67  C   UNL     1      14.243 -14.040  -6.390  1.00  0.00     0.029 A 
ATOM     68  C   UNL     1      13.456 -13.030  -6.919  1.00  0.00     0.049 A 
ATOM     69  H   UNL     1      12.939 -11.166  -6.073  1.00  0.00     0.167 HD
ATOM     70  C   UNL     1      11.985 -11.967  -8.603  1.00  0.00     0.074 A 
ATOM     71  C   UNL     1      11.314 -11.923  -9.884  1.00  0.00     0.031 C 
ATOM     72  C   UNL     1      12.789 -12.982  -8.196  1.00  0.00     0.037 A 
BRANCH  59  73
ATOM     73  C   UNL     1      15.328 -12.040  -2.643  1.00  0.00     0.064 A 
ATOM     74  C   UNL     1      14.855 -12.359  -1.361  1.00  0.00     0.173 A 
ATOM     75  C   UNL     1      16.698 -12.211  -2.897  1.00  0.00     0.173 A 
ATOM     76  F   UNL     1      13.557 -12.199  -1.060  1.00  0.00    -0.203 F 
ATOM     77  C   UNL     1      15.726 -12.791  -0.363  1.00  0.00     0.198 A 
ATOM     78  C   UNL     1      17.558 -12.679  -1.908  1.00  0.00     0.198 A 
ATOM     79  F   UNL     1      17.203 -11.927  -4.107  1.00  0.00    -0.203 F 
ATOM     80  F   UNL     1      15.261 -13.025   0.872  1.00  0.00    -0.200 F 
ATOM     81  C   UNL     1      17.074 -12.956  -0.639  1.00  0.00     0.200 A 
ATOM     82  F   UNL     1      18.859 -12.851  -2.181  1.00  0.00    -0.200 F 
ATOM     83  F   UNL     1      17.911 -13.371   0.323  1.00  0.00    -0.200 F 
ENDBRANCH  59  73
BRANCH  60  84
ATOM     84  C   UNL     1       9.278  -8.245  -9.581  1.00  0.00     0.064 A 
ATOM     85  C   UNL     1       8.065  -8.867  -9.906  1.00  0.00     0.173 A 
ATOM     86  C   UNL     1       9.637  -7.099 -10.308  1.00  0.00     0.173 A 
ATOM     87  F   UNL     1       7.695  -9.987  -9.268  1.00  0.00    -0.203 F 
ATOM     88  C   UNL     1       7.249  -8.371 -10.922  1.00  0.00     0.198 A 
ATOM     89  C   UNL     1       8.806  -6.587 -11.303  1.00  0.00     0.198 A 
ATOM     90  F   UNL     1      10.795  -6.475 -10.049  1.00  0.00    -0.203 F 
ATOM     91  F   UNL     1       6.119  -9.014 -11.245  1.00  0.00    -0.200 F 
ATOM     92  C   UNL     1       7.616  -7.226 -11.614  1.00  0.00     0.200 A 
ATOM     93  F   UNL     1       9.162  -5.477 -11.964  1.00  0.00    -0.200 F 
ATOM     94  F   UNL     1       6.830  -6.747 -12.587  1.00  0.00    -0.200 F 
ENDBRANCH  60  84
BRANCH  72  95
ATOM     95  C   UNL     1      12.979 -14.145  -9.131  1.00  0.00     0.064 A 
ATOM     96  C   UNL     1      13.726 -14.027 -10.313  1.00  0.00     0.173 A 
ATOM     97  C   UNL     1      12.457 -15.409  -8.813  1.00  0.00     0.173 A 
ATOM     98  F   UNL     1      14.238 -12.840 -10.672  1.00  0.00    -0.203 F 
ATOM     99  C   UNL     1      13.926 -15.124 -11.149  1.00  0.00     0.198 A 
ATOM    100  C   UNL     1      12.686 -16.511  -9.635  1.00  0.00     0.198 A 
ATOM    101  F   UNL     1      11.741 -15.583  -7.692  1.00  0.00    -0.203 F 
ATOM    102  F   UNL     1      14.607 -14.976 -12.294  1.00  0.00    -0.200 F 
ATOM    103  C   UNL     1      13.414 -16.366 -10.805  1.00  0.00     0.200 A 
ATOM    104  F   UNL     1      12.205 -17.713  -9.290  1.00  0.00    -0.200 F 
ATOM    105  F   UNL     1      13.619 -17.422 -11.604  1.00  0.00    -0.200 F 
ENDBRANCH  72  95
ENDBRANCH  46  47
ENDBRANCH  39  41
ENDBRANCH  38  39
ENDBRANCH  37  38
ENDBRANCH  36  37
ENDBRANCH  35  36
ENDBRANCH  34  35
ENDBRANCH   1  34
TORSDOF 22
