REMARK SMILES Cc1ccc2c(C[NH2+][C@H]3CCC[C@@H](C)[C@@H]3C)c(C(=O)OCCOCCOCCOC(=O)c3ccc(-c4c5nc(c(-c6c(F)c(F)c(F)c(F)c6F)c6ccc([nH]6)c(-c6c(F)c(F)c(F)c(F)c6F)c6nc(c(-c7c(F)c(F)c(F)c(F)c7F)c7ccc4[nH]7)C=C6)C=C5)cc3)n(C)c2c1
REMARK SMILES IDX 24 1 23 2 22 3 21 4 20 5 18 6 19 7 17 8 1 9 2 10 3 11 98 12
REMARK SMILES IDX 4 13 97 14 5 15 95 16 6 17 96 18 7 19 8 20 9 23 10 24 15 25
REMARK SMILES IDX 11 26 13 27 16 28 12 29 14 30 25 31 26 32 27 33 28 34 29 35
REMARK SMILES IDX 30 36 31 37 32 38 33 39 94 40 34 41 93 42 35 43 36 44 37 45
REMARK SMILES IDX 87 46 38 47 92 48 86 49 88 50 39 51 91 52 85 53 84 54 40 56
REMARK SMILES IDX 72 57 52 58 71 59 53 60 56 61 70 62 89 63 54 64 55 65 69 67
REMARK SMILES IDX 90 68 57 69 41 70 42 71 50 72 43 73 44 74 48 75 51 76 45 77
REMARK SMILES IDX 46 78 49 79 47 80 73 81 74 82 82 83 75 84 76 85 80 86 83 87
REMARK SMILES IDX 77 88 78 89 81 90 79 91 58 92 59 93 67 94 60 95 61 96 65 97
REMARK SMILES IDX 68 98 62 99 63 100 66 101 64 102
REMARK H PARENT 8 21 8 22 88 55 56 66
REMARK Flexibility Score: inf
ROOT
ATOM      1  C   UNL     1      -6.444   1.824 -10.396  1.00  0.00     0.188 C 
ENDROOT
BRANCH   1   2
ATOM      2  O   UNL     1      -5.475   1.518 -11.365  1.00  0.00    -0.376 OA
BRANCH   2   3
ATOM      3  C   UNL     1      -4.657   2.556 -11.833  1.00  0.00     0.202 C 
BRANCH   3   4
ATOM      4  C   UNL     1      -4.227   3.704 -10.904  1.00  0.00     0.261 C 
BRANCH   4   5
ATOM      5  O   UNL     1      -4.728   3.676  -9.547  1.00  0.00    -0.459 OA
BRANCH   5   6
ATOM      6  C   UNL     1      -5.094   4.886  -9.019  1.00  0.00     0.355 C 
ATOM      7  O   UNL     1      -5.021   5.927  -9.655  1.00  0.00    -0.244 OA
BRANCH   6   8
ATOM      8  C   UNL     1      -5.584   4.824  -7.637  1.00  0.00     0.137 A 
ATOM      9  C   UNL     1      -9.437   6.972  -3.594  1.00  0.00     0.044 C 
ATOM     10  C   UNL     1      -8.197   6.346  -4.163  1.00  0.00    -0.049 A 
ATOM     11  C   UNL     1      -6.952   6.451  -3.532  1.00  0.00     0.004 A 
ATOM     12  C   UNL     1      -8.274   5.722  -5.407  1.00  0.00     0.030 A 
ATOM     13  C   UNL     1      -5.761   6.012  -4.153  1.00  0.00     0.011 A 
ATOM     14  C   UNL     1      -7.073   5.308  -6.008  1.00  0.00     0.049 A 
ATOM     15  C   UNL     1      -5.815   5.480  -5.453  1.00  0.00     0.009 A 
ATOM     16  N   UNL     1      -6.845   4.593  -7.156  1.00  0.00    -0.338 N 
ATOM     17  C   UNL     1      -4.875   5.049  -6.452  1.00  0.00     0.047 A 
ATOM     18  C   UNL     1      -7.737   3.542  -7.523  1.00  0.00     0.150 C 
BRANCH  17  19
ATOM     19  C   UNL     1      -3.409   4.860  -6.348  1.00  0.00     0.300 C 
BRANCH  19  20
ATOM     20  N   UNL     1      -3.232   3.558  -6.971  1.00  0.00    -0.340 N 
ATOM     21  H   UNL     1      -3.720   3.593  -7.866  1.00  0.00     0.346 HD
ATOM     22  H   UNL     1      -3.585   2.913  -6.264  1.00  0.00     0.346 HD
BRANCH  20  23
ATOM     23  C   UNL     1      -1.904   3.052  -7.242  1.00  0.00     0.185 C 
ATOM     24  C   UNL     1      -2.113   1.536  -7.475  1.00  0.00     0.065 C 
ATOM     25  C   UNL     1      -1.222   3.654  -8.505  1.00  0.00     0.047 C 
ATOM     26  C   UNL     1      -0.799   0.821  -7.723  1.00  0.00     0.006 C 
ATOM     27  C   UNL     1       0.138   2.951  -8.754  1.00  0.00    -0.006 C 
ATOM     28  C   UNL     1      -1.101   5.181  -8.478  1.00  0.00     0.014 C 
ATOM     29  C   UNL     1      -0.058   1.431  -8.902  1.00  0.00     0.004 C 
ATOM     30  C   UNL     1       0.854   3.473 -10.004  1.00  0.00     0.008 C 
ENDBRANCH  20  23
ENDBRANCH  19  20
ENDBRANCH  17  19
ENDBRANCH   6   8
ENDBRANCH   5   6
ENDBRANCH   4   5
ENDBRANCH   3   4
ENDBRANCH   2   3
ENDBRANCH   1   2
BRANCH   1  31
ATOM     31  C   UNL     1      -6.125   1.208  -9.018  1.00  0.00     0.188 C 
BRANCH  31  32
ATOM     32  O   UNL     1      -5.213   0.122  -8.942  1.00  0.00    -0.376 OA
BRANCH  32  33
ATOM     33  C   UNL     1      -5.340  -0.926  -9.893  1.00  0.00     0.202 C 
BRANCH  33  34
ATOM     34  C   UNL     1      -6.688  -1.660  -9.909  1.00  0.00     0.261 C 
BRANCH  34  35
ATOM     35  O   UNL     1      -7.771  -0.812 -10.355  1.00  0.00    -0.460 OA
BRANCH  35  36
ATOM     36  C   UNL     1      -8.925  -0.869  -9.638  1.00  0.00     0.338 C 
ATOM     37  O   UNL     1      -9.221  -1.722  -8.819  1.00  0.00    -0.246 OA
BRANCH  36  38
ATOM     38  C   UNL     1      -9.618   0.455  -9.725  1.00  0.00     0.060 A 
ATOM     39  C   UNL     1      -9.697   1.250 -10.881  1.00  0.00     0.016 A 
ATOM     40  C   UNL     1      -9.997   1.007  -8.510  1.00  0.00     0.016 A 
ATOM     41  C   UNL     1      -9.944   2.646 -10.787  1.00  0.00     0.010 A 
ATOM     42  C   UNL     1     -10.286   2.368  -8.438  1.00  0.00     0.010 A 
ATOM     43  C   UNL     1     -10.151   3.244  -9.543  1.00  0.00    -0.014 A 
BRANCH  43  44
ATOM     44  C   UNL     1     -10.428   4.702  -9.312  1.00  0.00     0.031 A 
ATOM     45  C   UNL     1     -11.861   4.908  -9.083  1.00  0.00     0.074 A 
ATOM     46  C   UNL     1      -9.657   5.825  -9.185  1.00  0.00     0.049 A 
ATOM     47  N   UNL     1     -12.677   5.263 -10.017  1.00  0.00    -0.248 NA
ATOM     48  C   UNL     1     -12.495   4.537  -7.813  1.00  0.00     0.031 C 
ATOM     49  C   UNL     1      -8.220   5.964  -9.366  1.00  0.00     0.029 A 
ATOM     50  N   UNL     1      -9.992   7.108  -8.751  1.00  0.00    -0.354 N 
ATOM     51  C   UNL     1     -13.880   5.408  -9.374  1.00  0.00     0.074 A 
ATOM     52  C   UNL     1     -13.782   4.665  -8.141  1.00  0.00     0.031 C 
ATOM     53  C   UNL     1      -7.767   7.107  -8.785  1.00  0.00     0.029 A 
ATOM     54  C   UNL     1      -8.895   7.906  -8.358  1.00  0.00     0.049 A 
ATOM     55  H   UNL     1     -10.921   7.432  -8.722  1.00  0.00     0.167 HD
ATOM     56  C   UNL     1     -14.702   6.436  -9.697  1.00  0.00     0.037 A 
ATOM     57  C   UNL     1      -8.866   9.191  -7.890  1.00  0.00     0.037 A 
ATOM     58  C   UNL     1     -14.266   7.138 -10.882  1.00  0.00     0.049 A 
ATOM     59  C   UNL     1      -9.959   9.862  -8.608  1.00  0.00     0.074 A 
ATOM     60  C   UNL     1     -14.038   6.795 -12.200  1.00  0.00     0.029 A 
ATOM     61  N   UNL     1     -13.598   8.316 -10.664  1.00  0.00    -0.354 N 
ATOM     62  N   UNL     1      -9.913  10.139  -9.879  1.00  0.00    -0.248 NA
ATOM     63  C   UNL     1     -11.252  10.040  -7.964  1.00  0.00     0.031 C 
ATOM     64  C   UNL     1     -13.019   7.671 -12.678  1.00  0.00     0.029 A 
ATOM     65  C   UNL     1     -12.671   8.545 -11.653  1.00  0.00     0.049 A 
ATOM     66  H   UNL     1     -13.760   8.916  -9.901  1.00  0.00     0.167 HD
ATOM     67  C   UNL     1     -11.223  10.000 -10.272  1.00  0.00     0.074 A 
ATOM     68  C   UNL     1     -12.005  10.180  -9.057  1.00  0.00     0.031 C 
ATOM     69  C   UNL     1     -11.506   9.379 -11.451  1.00  0.00     0.037 A 
BRANCH  56  70
ATOM     70  C   UNL     1     -15.644   7.026  -8.698  1.00  0.00     0.064 A 
ATOM     71  C   UNL     1     -16.819   7.646  -9.135  1.00  0.00     0.173 A 
ATOM     72  C   UNL     1     -15.347   7.144  -7.322  1.00  0.00     0.173 A 
ATOM     73  F   UNL     1     -17.126   7.669 -10.440  1.00  0.00    -0.203 F 
ATOM     74  C   UNL     1     -17.671   8.294  -8.240  1.00  0.00     0.198 A 
ATOM     75  C   UNL     1     -16.233   7.719  -6.420  1.00  0.00     0.198 A 
ATOM     76  F   UNL     1     -14.154   6.784  -6.827  1.00  0.00    -0.203 F 
ATOM     77  F   UNL     1     -18.750   8.940  -8.700  1.00  0.00    -0.200 F 
ATOM     78  C   UNL     1     -17.393   8.304  -6.881  1.00  0.00     0.200 A 
ATOM     79  F   UNL     1     -15.927   7.744  -5.116  1.00  0.00    -0.200 F 
ATOM     80  F   UNL     1     -18.215   8.920  -6.023  1.00  0.00    -0.200 F 
ENDBRANCH  56  70
BRANCH  57  81
ATOM     81  C   UNL     1      -7.999  10.010  -6.973  1.00  0.00     0.064 A 
ATOM     82  C   UNL     1      -8.186  11.403  -6.830  1.00  0.00     0.173 A 
ATOM     83  C   UNL     1      -7.250   9.414  -5.953  1.00  0.00     0.173 A 
ATOM     84  F   UNL     1      -8.832  12.104  -7.773  1.00  0.00    -0.203 F 
ATOM     85  C   UNL     1      -7.791  12.102  -5.680  1.00  0.00     0.198 A 
ATOM     86  C   UNL     1      -6.886  10.097  -4.782  1.00  0.00     0.198 A 
ATOM     87  F   UNL     1      -6.887   8.141  -6.074  1.00  0.00    -0.203 F 
ATOM     88  F   UNL     1      -8.067  13.410  -5.564  1.00  0.00    -0.200 F 
ATOM     89  C   UNL     1      -7.189  11.436  -4.632  1.00  0.00     0.200 A 
ATOM     90  F   UNL     1      -6.294   9.445  -3.770  1.00  0.00    -0.200 F 
ATOM     91  F   UNL     1      -6.918  12.074  -3.484  1.00  0.00    -0.200 F 
ENDBRANCH  57  81
BRANCH  69  92
ATOM     92  C   UNL     1     -10.430   9.405 -12.507  1.00  0.00     0.064 A 
ATOM     93  C   UNL     1      -9.179   8.773 -12.396  1.00  0.00     0.173 A 
ATOM     94  C   UNL     1     -10.695  10.072 -13.709  1.00  0.00     0.173 A 
ATOM     95  F   UNL     1      -8.871   8.048 -11.319  1.00  0.00    -0.203 F 
ATOM     96  C   UNL     1      -8.227   8.843 -13.413  1.00  0.00     0.198 A 
ATOM     97  C   UNL     1      -9.758  10.111 -14.741  1.00  0.00     0.198 A 
ATOM     98  F   UNL     1     -11.881  10.671 -13.895  1.00  0.00    -0.203 F 
ATOM     99  F   UNL     1      -7.035   8.245 -13.263  1.00  0.00    -0.200 F 
ATOM    100  C   UNL     1      -8.521   9.507 -14.589  1.00  0.00     0.200 A 
ATOM    101  F   UNL     1     -10.063  10.722 -15.894  1.00  0.00    -0.200 F 
ATOM    102  F   UNL     1      -7.623   9.545 -15.584  1.00  0.00    -0.200 F 
ENDBRANCH  69  92
ENDBRANCH  43  44
ENDBRANCH  36  38
ENDBRANCH  35  36
ENDBRANCH  34  35
ENDBRANCH  33  34
ENDBRANCH  32  33
ENDBRANCH  31  32
ENDBRANCH   1  31
TORSDOF 20
