REMARK SMILES CC(C)CCN(C(=O)N[C@H](C(=O)OCCOCCOCCOC(=O)c1ccc(-c2c3nc(c(-c4c(F)c(F)c(F)c(F)c4F)c4ccc([nH]4)c(-c4c(F)c(F)c(F)c(F)c4F)c4nc(c(-c5c(F)c(F)c(F)c(F)c5F)c5ccc2[nH]5)C=C4)C=C3)cc1)[C@H](C)O)C1CCCC1
REMARK SMILES IDX 16 1 15 2 14 3 13 4 11 5 12 6 10 7 9 8 7 9 8 10 6 12 5 13
REMARK SMILES IDX 4 14 2 15 1 16 3 17 91 18 92 19 95 20 93 21 94 22 88 23
REMARK SMILES IDX 89 24 90 25 17 27 18 28 19 29 20 30 21 31 22 32 23 33 24 34
REMARK SMILES IDX 25 35 26 36 87 37 27 38 86 39 28 40 29 41 30 42 80 43 31 44
REMARK SMILES IDX 85 45 79 46 81 47 32 48 84 49 78 50 77 51 33 53 65 54 45 55
REMARK SMILES IDX 64 56 46 57 49 58 63 59 82 60 47 61 48 62 62 64 83 65 50 66
REMARK SMILES IDX 34 67 35 68 43 69 36 70 37 71 41 72 44 73 38 74 39 75 42 76
REMARK SMILES IDX 40 77 66 78 67 79 75 80 68 81 69 82 73 83 76 84 70 85 71 86
REMARK SMILES IDX 74 87 72 88 51 89 52 90 60 91 53 92 54 93 58 94 61 95 55 96
REMARK SMILES IDX 56 97 59 98 57 99
REMARK H PARENT 9 11 90 26 81 52 49 63
REMARK Flexibility Score: inf
ROOT
ATOM      1  O   UNL     1      -1.056   6.490  -0.176  1.00  0.00    -0.376 OA
ENDROOT
BRANCH   1   2
ATOM      2  C   UNL     1      -0.874   5.825   1.062  1.00  0.00     0.202 C 
BRANCH   2   3
ATOM      3  C   UNL     1      -0.723   4.297   1.008  1.00  0.00     0.261 C 
BRANCH   3   4
ATOM      4  O   UNL     1      -1.759   3.587   0.307  1.00  0.00    -0.462 OA
BRANCH   4   5
ATOM      5  C   UNL     1      -3.016   3.647   0.827  1.00  0.00     0.331 C 
ATOM      6  O   UNL     1      -3.290   4.263   1.848  1.00  0.00    -0.250 OA
BRANCH   5   7
ATOM      7  C   UNL     1      -4.048   3.063  -0.174  1.00  0.00     0.222 C 
BRANCH   7   8
ATOM      8  N   UNL     1      -3.540   2.035  -1.123  1.00  0.00    -0.322 N 
ATOM      9  C   UNL     1      -2.928   0.834  -1.067  1.00  0.00     0.318 C 
ATOM     10  O   UNL     1      -2.557   0.401  -2.162  1.00  0.00    -0.249 OA
ATOM     11  H   UNL     1      -3.695   2.309  -2.056  1.00  0.00     0.166 HD
BRANCH   9  12
ATOM     12  N   UNL     1      -2.699   0.149   0.099  1.00  0.00    -0.322 N 
BRANCH  12  13
ATOM     13  C   UNL     1      -3.349   0.426   1.367  1.00  0.00     0.122 C 
BRANCH  13  14
ATOM     14  C   UNL     1      -4.584  -0.421   1.655  1.00  0.00     0.024 C 
BRANCH  14  15
ATOM     15  C   UNL     1      -4.542  -1.228   2.957  1.00  0.00    -0.016 C 
ATOM     16  C   UNL     1      -4.025  -0.451   4.170  1.00  0.00     0.007 C 
ATOM     17  C   UNL     1      -5.949  -1.750   3.255  1.00  0.00     0.007 C 
ENDBRANCH  14  15
ENDBRANCH  13  14
ENDBRANCH  12  13
BRANCH  12  18
ATOM     18  C   UNL     1      -1.835  -1.062   0.003  1.00  0.00     0.087 C 
ATOM     19  C   UNL     1      -1.099  -1.524   1.274  1.00  0.00     0.025 C 
ATOM     20  C   UNL     1      -2.577  -2.290  -0.543  1.00  0.00     0.025 C 
ATOM     21  C   UNL     1      -1.432  -2.989   1.506  1.00  0.00     0.002 C 
ATOM     22  C   UNL     1      -2.132  -3.499   0.264  1.00  0.00     0.002 C 
ENDBRANCH  12  18
ENDBRANCH   9  12
ENDBRANCH   7   8
BRANCH   7  23
ATOM     23  C   UNL     1      -5.526   2.899   0.282  1.00  0.00     0.145 C 
ATOM     24  C   UNL     1      -5.851   3.015   1.770  1.00  0.00     0.041 C 
BRANCH  23  25
ATOM     25  O   UNL     1      -6.098   1.683  -0.211  1.00  0.00    -0.391 OA
ATOM     26  H   UNL     1      -5.665   0.926   0.215  1.00  0.00     0.211 HD
ENDBRANCH  23  25
ENDBRANCH   7  23
ENDBRANCH   5   7
ENDBRANCH   4   5
ENDBRANCH   3   4
ENDBRANCH   2   3
ENDBRANCH   1   2
BRANCH   1  27
ATOM     27  C   UNL     1      -2.239   6.210  -0.897  1.00  0.00     0.188 C 
BRANCH  27  28
ATOM     28  C   UNL     1      -2.002   5.384  -2.182  1.00  0.00     0.188 C 
BRANCH  28  29
ATOM     29  O   UNL     1      -0.688   5.190  -2.675  1.00  0.00    -0.376 OA
BRANCH  29  30
ATOM     30  C   UNL     1       0.236   6.263  -2.610  1.00  0.00     0.202 C 
BRANCH  30  31
ATOM     31  C   UNL     1      -0.147   7.618  -3.233  1.00  0.00     0.261 C 
BRANCH  31  32
ATOM     32  O   UNL     1      -1.441   8.147  -2.872  1.00  0.00    -0.460 OA
BRANCH  32  33
ATOM     33  C   UNL     1      -2.388   8.154  -3.840  1.00  0.00     0.338 C 
ATOM     34  O   UNL     1      -2.255   7.795  -5.005  1.00  0.00    -0.246 OA
BRANCH  33  35
ATOM     35  C   UNL     1      -3.715   8.496  -3.273  1.00  0.00     0.060 A 
ATOM     36  C   UNL     1      -4.739   7.533  -3.309  1.00  0.00     0.016 A 
ATOM     37  C   UNL     1      -3.983   9.771  -2.775  1.00  0.00     0.016 A 
ATOM     38  C   UNL     1      -6.028   7.844  -2.864  1.00  0.00     0.010 A 
ATOM     39  C   UNL     1      -5.284  10.091  -2.358  1.00  0.00     0.010 A 
ATOM     40  C   UNL     1      -6.322   9.140  -2.425  1.00  0.00    -0.014 A 
BRANCH  40  41
ATOM     41  C   UNL     1      -7.734   9.566  -2.217  1.00  0.00     0.031 A 
ATOM     42  C   UNL     1      -8.427  10.323  -3.319  1.00  0.00     0.074 A 
ATOM     43  C   UNL     1      -8.397   9.304  -1.076  1.00  0.00     0.049 A 
ATOM     44  N   UNL     1      -9.604  10.897  -3.329  1.00  0.00    -0.248 NA
ATOM     45  C   UNL     1      -7.684  10.451  -4.582  1.00  0.00     0.031 C 
ATOM     46  C   UNL     1      -7.878   8.529   0.046  1.00  0.00     0.029 A 
ATOM     47  N   UNL     1      -9.655   9.684  -0.670  1.00  0.00    -0.354 N 
ATOM     48  C   UNL     1      -9.730  11.476  -4.586  1.00  0.00     0.074 A 
ATOM     49  C   UNL     1      -8.505  11.198  -5.304  1.00  0.00     0.031 C 
ATOM     50  C   UNL     1      -8.803   8.504   1.023  1.00  0.00     0.029 A 
ATOM     51  C   UNL     1      -9.961   9.298   0.613  1.00  0.00     0.049 A 
ATOM     52  H   UNL     1     -10.278  10.185  -1.244  1.00  0.00     0.167 HD
ATOM     53  C   UNL     1     -10.772  12.177  -5.097  1.00  0.00     0.037 A 
ATOM     54  C   UNL     1     -11.036   9.581   1.377  1.00  0.00     0.037 A 
ATOM     55  C   UNL     1     -11.994  12.452  -4.385  1.00  0.00     0.049 A 
ATOM     56  C   UNL     1     -12.141  10.448   0.821  1.00  0.00     0.074 A 
ATOM     57  C   UNL     1     -13.118  13.125  -4.831  1.00  0.00     0.029 A 
ATOM     58  N   UNL     1     -12.245  12.082  -3.072  1.00  0.00    -0.354 N 
ATOM     59  N   UNL     1     -12.267  10.971  -0.374  1.00  0.00    -0.248 NA
ATOM     60  C   UNL     1     -13.254  10.767   1.729  1.00  0.00     0.031 C 
ATOM     61  C   UNL     1     -14.020  13.225  -3.766  1.00  0.00     0.029 A 
ATOM     62  C   UNL     1     -13.489  12.550  -2.679  1.00  0.00     0.049 A 
ATOM     63  H   UNL     1     -11.630  11.565  -2.504  1.00  0.00     0.167 HD
ATOM     64  C   UNL     1     -13.483  11.645  -0.374  1.00  0.00     0.074 A 
ATOM     65  C   UNL     1     -14.063  11.458   0.939  1.00  0.00     0.031 C 
ATOM     66  C   UNL     1     -14.068  12.351  -1.374  1.00  0.00     0.037 A 
BRANCH  53  67
ATOM     67  C   UNL     1     -10.617  12.741  -6.481  1.00  0.00     0.064 A 
ATOM     68  C   UNL     1     -10.578  11.922  -7.620  1.00  0.00     0.173 A 
ATOM     69  C   UNL     1     -10.530  14.129  -6.671  1.00  0.00     0.173 A 
ATOM     70  F   UNL     1     -10.647  10.588  -7.495  1.00  0.00    -0.203 F 
ATOM     71  C   UNL     1     -10.421  12.469  -8.891  1.00  0.00     0.198 A 
ATOM     72  C   UNL     1     -10.409  14.674  -7.946  1.00  0.00     0.198 A 
ATOM     73  F   UNL     1     -10.569  14.960  -5.618  1.00  0.00    -0.203 F 
ATOM     74  F   UNL     1     -10.327  11.664  -9.958  1.00  0.00    -0.200 F 
ATOM     75  C   UNL     1     -10.344  13.844  -9.054  1.00  0.00     0.200 A 
ATOM     76  F   UNL     1     -10.352  16.004  -8.101  1.00  0.00    -0.200 F 
ATOM     77  F   UNL     1     -10.198  14.369 -10.278  1.00  0.00    -0.200 F 
ENDBRANCH  53  67
BRANCH  54  78
ATOM     78  C   UNL     1     -11.127   9.054   2.766  1.00  0.00     0.064 A 
ATOM     79  C   UNL     1     -12.110   8.117   3.117  1.00  0.00     0.173 A 
ATOM     80  C   UNL     1     -10.264   9.500   3.778  1.00  0.00     0.173 A 
ATOM     81  F   UNL     1     -12.982   7.686   2.194  1.00  0.00    -0.203 F 
ATOM     82  C   UNL     1     -12.236   7.659   4.428  1.00  0.00     0.198 A 
ATOM     83  C   UNL     1     -10.370   9.017   5.082  1.00  0.00     0.198 A 
ATOM     84  F   UNL     1      -9.312  10.403   3.501  1.00  0.00    -0.203 F 
ATOM     85  F   UNL     1     -13.218   6.805   4.745  1.00  0.00    -0.200 F 
ATOM     86  C   UNL     1     -11.361   8.104   5.407  1.00  0.00     0.200 A 
ATOM     87  F   UNL     1      -9.517   9.442   6.023  1.00  0.00    -0.200 F 
ATOM     88  F   UNL     1     -11.481   7.661   6.666  1.00  0.00    -0.200 F 
ENDBRANCH  54  78
BRANCH  66  89
ATOM     89  C   UNL     1     -15.430  12.937  -1.115  1.00  0.00     0.064 A 
ATOM     90  C   UNL     1     -15.620  14.016  -0.239  1.00  0.00     0.173 A 
ATOM     91  C   UNL     1     -16.554  12.442  -1.796  1.00  0.00     0.173 A 
ATOM     92  F   UNL     1     -14.584  14.520   0.447  1.00  0.00    -0.203 F 
ATOM     93  C   UNL     1     -16.887  14.559  -0.036  1.00  0.00     0.198 A 
ATOM     94  C   UNL     1     -17.812  13.010  -1.617  1.00  0.00     0.198 A 
ATOM     95  F   UNL     1     -16.429  11.416  -2.652  1.00  0.00    -0.203 F 
ATOM     96  F   UNL     1     -17.053  15.558   0.843  1.00  0.00    -0.200 F 
ATOM     97  C   UNL     1     -17.980  14.063  -0.731  1.00  0.00     0.200 A 
ATOM     98  F   UNL     1     -18.863  12.540  -2.304  1.00  0.00    -0.200 F 
ATOM     99  F   UNL     1     -19.195  14.596  -0.543  1.00  0.00    -0.200 F 
ENDBRANCH  66  89
ENDBRANCH  40  41
ENDBRANCH  33  35
ENDBRANCH  32  33
ENDBRANCH  31  32
ENDBRANCH  30  31
ENDBRANCH  29  30
ENDBRANCH  28  29
ENDBRANCH  27  28
ENDBRANCH   1  27
TORSDOF 25
