REMARK SMILES O=C(CSc1nc2[nH]cnc2c(=O)[nH]1)NCCC(=O)OCCOCCOCCOC(=O)c1ccc(-c2c3nc(c(-c4c(F)c(F)c(F)c(F)c4F)c4ccc([nH]4)c(-c4c(F)c(F)c(F)c(F)c4F)c4nc(c(-c5c(F)c(F)c(F)c(F)c5F)c5ccc2[nH]5)C=C4)C=C3)cc1
REMARK SMILES IDX 23 1 22 2 21 3 20 4 18 5 19 6 17 7 16 8 15 9 1 10 2 11 3 13
REMARK SMILES IDX 4 14 5 15 6 16 14 17 7 18 12 19 8 21 11 22 13 23 9 24 10 26
REMARK SMILES IDX 24 27 25 28 26 29 27 30 28 31 29 32 30 33 31 34 32 35 33 36
REMARK SMILES IDX 94 37 34 38 93 39 35 40 36 41 37 42 87 43 38 44 92 45 86 46
REMARK SMILES IDX 88 47 39 48 91 49 85 50 84 51 40 53 72 54 52 55 71 56 53 57
REMARK SMILES IDX 56 58 70 59 89 60 54 61 55 62 69 64 90 65 57 66 41 67 42 68
REMARK SMILES IDX 50 69 43 70 44 71 48 72 51 73 45 74 46 75 49 76 47 77 73 78
REMARK SMILES IDX 74 79 82 80 75 81 76 82 80 83 83 84 77 85 78 86 81 87 79 88
REMARK SMILES IDX 58 89 59 90 67 91 60 92 61 93 65 94 68 95 62 96 63 97 66 98
REMARK SMILES IDX 64 99
REMARK H PARENT 15 12 14 20 8 25 88 52 56 63
REMARK Flexibility Score: inf
ROOT
ATOM      1  O   UNL     1       6.512  -2.353   4.489  1.00  0.00    -0.376 OA
ENDROOT
BRANCH   1   2
ATOM      2  C   UNL     1       7.084  -2.350   3.183  1.00  0.00     0.202 C 
BRANCH   2   3
ATOM      3  C   UNL     1       6.287  -2.985   2.026  1.00  0.00     0.261 C 
BRANCH   3   4
ATOM      4  O   UNL     1       4.925  -2.509   1.857  1.00  0.00    -0.463 OA
BRANCH   4   5
ATOM      5  C   UNL     1       3.962  -3.465   1.878  1.00  0.00     0.307 C 
ATOM      6  O   UNL     1       4.193  -4.666   1.993  1.00  0.00    -0.252 OA
BRANCH   5   7
ATOM      7  C   UNL     1       2.530  -2.975   1.822  1.00  0.00     0.144 C 
BRANCH   7   8
ATOM      8  C   UNL     1       2.127  -1.523   1.618  1.00  0.00     0.127 C 
BRANCH   8   9
ATOM      9  N   UNL     1       2.856  -0.786   0.612  1.00  0.00    -0.355 N 
ATOM     10  O   UNL     1       0.977  -0.094  -0.509  1.00  0.00    -0.274 OA
ATOM     11  C   UNL     1       2.198  -0.069  -0.370  1.00  0.00     0.230 C 
ATOM     12  H   UNL     1       3.840  -0.795   0.626  1.00  0.00     0.163 HD
BRANCH  11  13
ATOM     13  C   UNL     1       3.093   0.653  -1.360  1.00  0.00     0.178 C 
BRANCH  13  14
ATOM     14  S   UNL     1       4.245   1.815  -0.584  1.00  0.00    -0.078 SA
BRANCH  14  15
ATOM     15  C   UNL     1       3.158   3.097  -0.141  1.00  0.00     0.170 A 
ATOM     16  N   UNL     1       2.010   2.869   0.419  1.00  0.00    -0.204 NA
ATOM     17  N   UNL     1       3.681   4.344  -0.417  1.00  0.00    -0.299 N 
ATOM     18  C   UNL     1       1.358   4.013   0.728  1.00  0.00     0.165 A 
ATOM     19  C   UNL     1       3.038   5.533  -0.112  1.00  0.00     0.279 A 
ATOM     20  H   UNL     1       4.562   4.392  -0.856  1.00  0.00     0.172 HD
ATOM     21  N   UNL     1       0.144   4.101   1.341  1.00  0.00    -0.329 N 
ATOM     22  C   UNL     1       1.758   5.315   0.528  1.00  0.00     0.172 A 
ATOM     23  O   UNL     1       3.537   6.628  -0.370  1.00  0.00    -0.267 OA
ATOM     24  C   UNL     1      -0.125   5.437   1.507  1.00  0.00     0.199 A 
ATOM     25  H   UNL     1      -0.431   3.350   1.612  1.00  0.00     0.169 HD
ATOM     26  N   UNL     1       0.831   6.200   1.016  1.00  0.00    -0.229 NA
ENDBRANCH  14  15
ENDBRANCH  13  14
ENDBRANCH  11  13
ENDBRANCH   8   9
ENDBRANCH   7   8
ENDBRANCH   5   7
ENDBRANCH   4   5
ENDBRANCH   3   4
ENDBRANCH   2   3
ENDBRANCH   1   2
BRANCH   1  27
ATOM     27  C   UNL     1       5.174  -1.901   4.631  1.00  0.00     0.188 C 
BRANCH  27  28
ATOM     28  C   UNL     1       4.777  -0.577   3.964  1.00  0.00     0.188 C 
BRANCH  28  29
ATOM     29  O   UNL     1       5.728  -0.050   3.068  1.00  0.00    -0.376 OA
BRANCH  29  30
ATOM     30  C   UNL     1       6.109   1.310   3.207  1.00  0.00     0.202 C 
BRANCH  30  31
ATOM     31  C   UNL     1       6.698   1.782   4.554  1.00  0.00     0.261 C 
BRANCH  31  32
ATOM     32  O   UNL     1       5.989   1.407   5.750  1.00  0.00    -0.460 OA
BRANCH  32  33
ATOM     33  C   UNL     1       4.787   1.998   5.965  1.00  0.00     0.338 C 
ATOM     34  O   UNL     1       4.263   2.854   5.277  1.00  0.00    -0.246 OA
BRANCH  33  35
ATOM     35  C   UNL     1       4.080   1.216   7.015  1.00  0.00     0.060 A 
ATOM     36  C   UNL     1       2.823   0.669   6.712  1.00  0.00     0.016 A 
ATOM     37  C   UNL     1       4.655   0.991   8.266  1.00  0.00     0.016 A 
ATOM     38  C   UNL     1       2.121  -0.068   7.670  1.00  0.00     0.010 A 
ATOM     39  C   UNL     1       3.941   0.274   9.235  1.00  0.00     0.010 A 
ATOM     40  C   UNL     1       2.654  -0.226   8.955  1.00  0.00    -0.014 A 
BRANCH  40  41
ATOM     41  C   UNL     1       1.783  -0.703  10.063  1.00  0.00     0.031 A 
ATOM     42  C   UNL     1       1.165   0.328  10.970  1.00  0.00     0.074 A 
ATOM     43  C   UNL     1       1.516  -2.007  10.257  1.00  0.00     0.049 A 
ATOM     44  N   UNL     1       0.411   0.169  12.029  1.00  0.00    -0.248 NA
ATOM     45  C   UNL     1       1.441   1.734  10.636  1.00  0.00     0.031 C 
ATOM     46  C   UNL     1       2.002  -3.105   9.427  1.00  0.00     0.029 A 
ATOM     47  N   UNL     1       0.766  -2.625  11.229  1.00  0.00    -0.354 N 
ATOM     48  C   UNL     1       0.137   1.450  12.492  1.00  0.00     0.074 A 
ATOM     49  C   UNL     1       0.833   2.373  11.622  1.00  0.00     0.031 C 
ATOM     50  C   UNL     1       1.544  -4.266   9.929  1.00  0.00     0.029 A 
ATOM     51  C   UNL     1       0.762  -3.995  11.136  1.00  0.00     0.049 A 
ATOM     52  H   UNL     1       0.278  -2.131  11.927  1.00  0.00     0.167 HD
ATOM     53  C   UNL     1      -0.630   1.827  13.543  1.00  0.00     0.037 A 
ATOM     54  C   UNL     1       0.207  -4.921  11.944  1.00  0.00     0.037 A 
ATOM     55  C   UNL     1      -1.322   0.911  14.411  1.00  0.00     0.049 A 
ATOM     56  C   UNL     1      -0.570  -4.480  13.162  1.00  0.00     0.074 A 
ATOM     57  C   UNL     1      -2.142   1.198  15.489  1.00  0.00     0.029 A 
ATOM     58  N   UNL     1      -1.265  -0.471  14.310  1.00  0.00    -0.354 N 
ATOM     59  N   UNL     1      -0.850  -3.268  13.577  1.00  0.00    -0.248 NA
ATOM     60  C   UNL     1      -1.112  -5.543  14.023  1.00  0.00     0.031 C 
ATOM     61  C   UNL     1      -2.524  -0.010  16.081  1.00  0.00     0.029 A 
ATOM     62  C   UNL     1      -2.006  -1.051  15.327  1.00  0.00     0.049 A 
ATOM     63  H   UNL     1      -0.770  -0.966  13.618  1.00  0.00     0.167 HD
ATOM     64  C   UNL     1      -1.631  -3.422  14.717  1.00  0.00     0.074 A 
ATOM     65  C   UNL     1      -1.790  -4.846  14.923  1.00  0.00     0.031 C 
ATOM     66  C   UNL     1      -2.172  -2.470  15.518  1.00  0.00     0.037 A 
BRANCH  53  67
ATOM     67  C   UNL     1      -0.727   3.298  13.834  1.00  0.00     0.064 A 
ATOM     68  C   UNL     1      -1.396   4.184  12.975  1.00  0.00     0.173 A 
ATOM     69  C   UNL     1      -0.152   3.826  15.000  1.00  0.00     0.173 A 
ATOM     70  F   UNL     1      -1.951   3.735  11.839  1.00  0.00    -0.203 F 
ATOM     71  C   UNL     1      -1.452   5.548  13.254  1.00  0.00     0.198 A 
ATOM     72  C   UNL     1      -0.242   5.184  15.294  1.00  0.00     0.198 A 
ATOM     73  F   UNL     1       0.496   3.024  15.859  1.00  0.00    -0.203 F 
ATOM     74  F   UNL     1      -2.041   6.383  12.387  1.00  0.00    -0.200 F 
ATOM     75  C   UNL     1      -0.881   6.045  14.416  1.00  0.00     0.200 A 
ATOM     76  F   UNL     1       0.296   5.660  16.426  1.00  0.00    -0.200 F 
ATOM     77  F   UNL     1      -0.940   7.357  14.685  1.00  0.00    -0.200 F 
ENDBRANCH  53  67
BRANCH  54  78
ATOM     78  C   UNL     1       0.361  -6.371  11.640  1.00  0.00     0.064 A 
ATOM     79  C   UNL     1      -0.748  -7.157  11.294  1.00  0.00     0.173 A 
ATOM     80  C   UNL     1       1.607  -7.009  11.730  1.00  0.00     0.173 A 
ATOM     81  F   UNL     1      -1.967  -6.602  11.226  1.00  0.00    -0.203 F 
ATOM     82  C   UNL     1      -0.620  -8.527  11.070  1.00  0.00     0.198 A 
ATOM     83  C   UNL     1       1.740  -8.372  11.474  1.00  0.00     0.198 A 
ATOM     84  F   UNL     1       2.699  -6.306  12.066  1.00  0.00    -0.203 F 
ATOM     85  F   UNL     1      -1.705  -9.264  10.798  1.00  0.00    -0.200 F 
ATOM     86  C   UNL     1       0.625  -9.132  11.154  1.00  0.00     0.200 A 
ATOM     87  F   UNL     1       2.946  -8.951  11.548  1.00  0.00    -0.200 F 
ATOM     88  F   UNL     1       0.748 -10.449  10.939  1.00  0.00    -0.200 F 
ENDBRANCH  54  78
BRANCH  66  89
ATOM     89  C   UNL     1      -3.038  -2.928  16.661  1.00  0.00     0.064 A 
ATOM     90  C   UNL     1      -2.511  -3.599  17.775  1.00  0.00     0.173 A 
ATOM     91  C   UNL     1      -4.417  -2.660  16.654  1.00  0.00     0.173 A 
ATOM     92  F   UNL     1      -1.203  -3.891  17.830  1.00  0.00    -0.203 F 
ATOM     93  C   UNL     1      -3.335  -4.014  18.819  1.00  0.00     0.198 A 
ATOM     94  C   UNL     1      -5.231  -3.042  17.716  1.00  0.00     0.198 A 
ATOM     95  F   UNL     1      -4.975  -2.012  15.619  1.00  0.00    -0.203 F 
ATOM     96  F   UNL     1      -2.818  -4.705  19.844  1.00  0.00    -0.200 F 
ATOM     97  C   UNL     1      -4.692  -3.728  18.793  1.00  0.00     0.200 A 
ATOM     98  F   UNL     1      -6.538  -2.748  17.697  1.00  0.00    -0.200 F 
ATOM     99  F   UNL     1      -5.482  -4.123  19.801  1.00  0.00    -0.200 F 
ENDBRANCH  66  89
ENDBRANCH  40  41
ENDBRANCH  33  35
ENDBRANCH  32  33
ENDBRANCH  31  32
ENDBRANCH  30  31
ENDBRANCH  29  30
ENDBRANCH  28  29
ENDBRANCH  27  28
ENDBRANCH   1  27
TORSDOF 22
