REMARK SMILES CC1(C)O[C@@H]2C[C@H]3[C@H]4CCC5=CC(=O)C=C[C@@]5(C)[C@]4(F)[C@H](O)C[C@]3(C)[C@]2(C(=O)OCCOCCOCCOC(=O)c2ccc(-c3c4nc(c(-c5c(F)c(F)c(F)c(F)c5F)c5ccc([nH]5)c(-c5c(F)c(F)c(F)c(F)c5F)c5nc(c(-c6c(F)c(F)c(F)c(F)c6F)c6ccc3[nH]6)C=C5)C=C4)cc2)O1
REMARK SMILES IDX 34 1 33 2 32 3 31 4 30 5 29 6 27 7 28 8 26 9 1 10 2 11 4 12
REMARK SMILES IDX 104 13 3 14 5 15 6 16 24 17 7 18 23 19 25 20 8 21 21 22 9 23
REMARK SMILES IDX 19 24 10 25 17 26 20 27 11 28 16 29 18 30 12 31 15 32 13 33
REMARK SMILES IDX 14 34 22 35 35 37 36 38 37 39 38 40 39 41 40 42 41 43 42 44
REMARK SMILES IDX 103 45 43 46 102 47 44 48 45 49 46 50 96 51 47 52 101 53
REMARK SMILES IDX 95 54 97 55 48 56 100 57 94 58 93 59 49 61 81 62 61 63 80 64
REMARK SMILES IDX 62 65 65 66 79 67 98 68 63 69 64 70 78 72 99 73 66 74 50 75
REMARK SMILES IDX 51 76 59 77 52 78 53 79 57 80 60 81 54 82 55 83 58 84 56 85
REMARK SMILES IDX 82 86 83 87 91 88 84 89 85 90 89 91 92 92 86 93 87 94 90 95
REMARK SMILES IDX 88 96 67 97 68 98 76 99 69 100 70 101 74 102 77 103 71 104
REMARK SMILES IDX 72 105 75 106 73 107
REMARK H PARENT 22 36 97 60 65 71
REMARK Flexibility Score: inf
ROOT
ATOM      1  C   UNL     1      -3.124  -2.697   2.164  1.00  0.00     0.188 C 
ENDROOT
BRANCH   1   2
ATOM      2  C   UNL     1      -4.537  -2.117   2.318  1.00  0.00     0.188 C 
BRANCH   2   3
ATOM      3  O   UNL     1      -5.417  -2.283   1.208  1.00  0.00    -0.376 OA
BRANCH   3   4
ATOM      4  C   UNL     1      -4.903  -1.940  -0.079  1.00  0.00     0.202 C 
BRANCH   4   5
ATOM      5  C   UNL     1      -4.665  -0.439  -0.276  1.00  0.00     0.261 C 
BRANCH   5   6
ATOM      6  O   UNL     1      -3.472  -0.027   0.415  1.00  0.00    -0.461 OA
BRANCH   6   7
ATOM      7  C   UNL     1      -3.263   1.321   0.517  1.00  0.00     0.341 C 
ATOM      8  O   UNL     1      -4.062   2.176   0.165  1.00  0.00    -0.249 OA
BRANCH   7   9
ATOM      9  C   UNL     1      -1.880   1.599   1.132  1.00  0.00     0.200 C 
ATOM     10  C   UNL     1      -0.410   0.504  -1.638  1.00  0.00     0.075 C 
ATOM     11  C   UNL     1      -0.088   1.113  -0.282  1.00  0.00     0.165 C 
ATOM     12  O   UNL     1      -0.267   2.527  -0.361  1.00  0.00    -0.344 OA
ATOM     13  O   UNL     1      -0.966   0.550   0.707  1.00  0.00    -0.329 OA
ATOM     14  C   UNL     1       1.371   0.784   0.068  1.00  0.00     0.075 C 
ATOM     15  C   UNL     1      -1.227   2.914   0.628  1.00  0.00     0.166 C 
ATOM     16  C   UNL     1      -0.469   3.556   1.843  1.00  0.00     0.040 C 
ATOM     17  C   UNL     1      -1.833   1.752   2.711  1.00  0.00     0.016 C 
ATOM     18  C   UNL     1      -0.416   2.376   2.798  1.00  0.00     0.008 C 
ATOM     19  C   UNL     1      -1.929   0.466   3.546  1.00  0.00     0.046 C 
ATOM     20  C   UNL     1      -2.976   2.688   3.176  1.00  0.00     0.015 C 
ATOM     21  C   UNL     1       0.621   2.087   3.885  1.00  0.00     0.035 C 
ATOM     22  C   UNL     1      -0.587  -0.145   3.969  1.00  0.00     0.154 C 
ATOM     23  C   UNL     1       1.240   3.211   4.695  1.00  0.00     0.012 C 
ATOM     24  C   UNL     1       0.261   0.881   4.776  1.00  0.00     0.152 C 
ATOM     25  C   UNL     1       2.608   2.697   5.191  1.00  0.00     0.032 C 
ATOM     26  C   UNL     1       1.557   0.273   5.453  1.00  0.00     0.044 C 
ATOM     27  F   UNL     1      -0.558   1.358   5.776  1.00  0.00    -0.239 F 
ATOM     28  C   UNL     1       2.545   1.370   5.923  1.00  0.00    -0.053 C 
ATOM     29  C   UNL     1       1.195  -0.622   6.645  1.00  0.00    -0.009 C 
ATOM     30  C   UNL     1       2.329  -0.654   4.474  1.00  0.00     0.024 C 
ATOM     31  C   UNL     1       3.406   1.132   6.933  1.00  0.00     0.052 C 
ATOM     32  C   UNL     1       2.034  -0.837   7.670  1.00  0.00     0.048 C 
ATOM     33  C   UNL     1       3.326  -0.120   7.720  1.00  0.00     0.178 C 
ATOM     34  O   UNL     1       4.254  -0.507   8.416  1.00  0.00    -0.290 OA
BRANCH  22  35
ATOM     35  O   UNL     1       0.073  -0.694   2.834  1.00  0.00    -0.390 OA
ATOM     36  H   UNL     1       0.245   0.009   2.188  1.00  0.00     0.211 HD
ENDBRANCH  22  35
ENDBRANCH   7   9
ENDBRANCH   6   7
ENDBRANCH   5   6
ENDBRANCH   4   5
ENDBRANCH   3   4
ENDBRANCH   2   3
ENDBRANCH   1   2
BRANCH   1  37
ATOM     37  O   UNL     1      -3.168  -4.061   1.752  1.00  0.00    -0.376 OA
BRANCH  37  38
ATOM     38  C   UNL     1      -2.382  -4.928   2.570  1.00  0.00     0.202 C 
BRANCH  38  39
ATOM     39  C   UNL     1      -3.239  -5.525   3.689  1.00  0.00     0.261 C 
BRANCH  39  40
ATOM     40  O   UNL     1      -3.683  -4.530   4.637  1.00  0.00    -0.460 OA
BRANCH  40  41
ATOM     41  C   UNL     1      -2.811  -4.271   5.634  1.00  0.00     0.338 C 
ATOM     42  O   UNL     1      -1.698  -4.739   5.784  1.00  0.00    -0.246 OA
BRANCH  41  43
ATOM     43  C   UNL     1      -3.349  -3.211   6.505  1.00  0.00     0.060 A 
ATOM     44  C   UNL     1      -2.969  -1.901   6.232  1.00  0.00     0.016 A 
ATOM     45  C   UNL     1      -4.040  -3.508   7.675  1.00  0.00     0.016 A 
ATOM     46  C   UNL     1      -3.161  -0.892   7.175  1.00  0.00     0.010 A 
ATOM     47  C   UNL     1      -4.298  -2.482   8.595  1.00  0.00     0.010 A 
ATOM     48  C   UNL     1      -3.807  -1.177   8.383  1.00  0.00    -0.014 A 
BRANCH  48  49
ATOM     49  C   UNL     1      -3.838  -0.161   9.476  1.00  0.00     0.031 A 
ATOM     50  C   UNL     1      -3.092  -0.435  10.758  1.00  0.00     0.074 A 
ATOM     51  C   UNL     1      -4.467   1.022   9.328  1.00  0.00     0.049 A 
ATOM     52  N   UNL     1      -3.116   0.217  11.894  1.00  0.00    -0.248 NA
ATOM     53  C   UNL     1      -2.201  -1.607  10.761  1.00  0.00     0.031 C 
ATOM     54  C   UNL     1      -5.155   1.473   8.120  1.00  0.00     0.029 A 
ATOM     55  N   UNL     1      -4.623   2.066  10.210  1.00  0.00    -0.354 N 
ATOM     56  C   UNL     1      -2.293  -0.495  12.758  1.00  0.00     0.074 A 
ATOM     57  C   UNL     1      -1.779  -1.626  12.017  1.00  0.00     0.031 C 
ATOM     58  C   UNL     1      -5.647   2.706   8.330  1.00  0.00     0.029 A 
ATOM     59  C   UNL     1      -5.371   3.104   9.709  1.00  0.00     0.049 A 
ATOM     60  H   UNL     1      -4.235   2.069  11.114  1.00  0.00     0.167 HD
ATOM     61  C   UNL     1      -1.994  -0.233  14.053  1.00  0.00     0.037 A 
ATOM     62  C   UNL     1      -5.818   4.228  10.302  1.00  0.00     0.037 A 
ATOM     63  C   UNL     1      -2.453   0.921  14.781  1.00  0.00     0.049 A 
ATOM     64  C   UNL     1      -5.497   4.483  11.752  1.00  0.00     0.074 A 
ATOM     65  C   UNL     1      -2.215   1.261  16.102  1.00  0.00     0.029 A 
ATOM     66  N   UNL     1      -3.224   1.937  14.239  1.00  0.00    -0.354 N 
ATOM     67  N   UNL     1      -4.785   3.764  12.584  1.00  0.00    -0.248 NA
ATOM     68  C   UNL     1      -6.059   5.704  12.351  1.00  0.00     0.031 C 
ATOM     69  C   UNL     1      -2.866   2.471  16.368  1.00  0.00     0.029 A 
ATOM     70  C   UNL     1      -3.476   2.902  15.201  1.00  0.00     0.049 A 
ATOM     71  H   UNL     1      -3.545   1.969  13.309  1.00  0.00     0.167 HD
ATOM     72  C   UNL     1      -4.800   4.448  13.792  1.00  0.00     0.074 A 
ATOM     73  C   UNL     1      -5.571   5.654  13.582  1.00  0.00     0.031 C 
ATOM     74  C   UNL     1      -4.233   4.104  14.975  1.00  0.00     0.037 A 
BRANCH  61  75
ATOM     75  C   UNL     1      -1.161  -1.241  14.787  1.00  0.00     0.064 A 
ATOM     76  C   UNL     1       0.219  -1.359  14.577  1.00  0.00     0.173 A 
ATOM     77  C   UNL     1      -1.757  -2.080  15.742  1.00  0.00     0.173 A 
ATOM     78  F   UNL     1       0.830  -0.592  13.662  1.00  0.00    -0.203 F 
ATOM     79  C   UNL     1       0.971  -2.296  15.282  1.00  0.00     0.198 A 
ATOM     80  C   UNL     1      -0.999  -2.998  16.462  1.00  0.00     0.198 A 
ATOM     81  F   UNL     1      -3.075  -2.002  15.980  1.00  0.00    -0.203 F 
ATOM     82  F   UNL     1       2.283  -2.422  15.039  1.00  0.00    -0.200 F 
ATOM     83  C   UNL     1       0.363  -3.109  16.228  1.00  0.00     0.200 A 
ATOM     84  F   UNL     1      -1.587  -3.776  17.381  1.00  0.00    -0.200 F 
ATOM     85  F   UNL     1       1.089  -4.006  16.910  1.00  0.00    -0.200 F 
ENDBRANCH  61  75
BRANCH  62  86
ATOM     86  C   UNL     1      -6.666   5.187   9.544  1.00  0.00     0.064 A 
ATOM     87  C   UNL     1      -6.206   6.475   9.235  1.00  0.00     0.173 A 
ATOM     88  C   UNL     1      -7.969   4.848   9.149  1.00  0.00     0.173 A 
ATOM     89  F   UNL     1      -4.980   6.858   9.619  1.00  0.00    -0.203 F 
ATOM     90  C   UNL     1      -7.024   7.393   8.579  1.00  0.00     0.198 A 
ATOM     91  C   UNL     1      -8.774   5.755   8.465  1.00  0.00     0.198 A 
ATOM     92  F   UNL     1      -8.459   3.631   9.426  1.00  0.00    -0.203 F 
ATOM     93  F   UNL     1      -6.580   8.635   8.344  1.00  0.00    -0.200 F 
ATOM     94  C   UNL     1      -8.305   7.030   8.189  1.00  0.00     0.200 A 
ATOM     95  F   UNL     1     -10.007   5.396   8.081  1.00  0.00    -0.200 F 
ATOM     96  F   UNL     1      -9.091   7.913   7.559  1.00  0.00    -0.200 F 
ENDBRANCH  62  86
BRANCH  74  97
ATOM     97  C   UNL     1      -4.398   5.059  16.120  1.00  0.00     0.064 A 
ATOM     98  C   UNL     1      -5.624   5.201  16.787  1.00  0.00     0.173 A 
ATOM     99  C   UNL     1      -3.311   5.823  16.570  1.00  0.00     0.173 A 
ATOM    100  F   UNL     1      -6.696   4.503  16.384  1.00  0.00    -0.203 F 
ATOM    101  C   UNL     1      -5.762   6.094  17.846  1.00  0.00     0.198 A 
ATOM    102  C   UNL     1      -3.447   6.697  17.645  1.00  0.00     0.198 A 
ATOM    103  F   UNL     1      -2.117   5.720  15.969  1.00  0.00    -0.203 F 
ATOM    104  F   UNL     1      -6.955   6.249  18.438  1.00  0.00    -0.200 F 
ATOM    105  C   UNL     1      -4.673   6.838  18.277  1.00  0.00     0.200 A 
ATOM    106  F   UNL     1      -2.392   7.408  18.067  1.00  0.00    -0.200 F 
ATOM    107  F   UNL     1      -4.809   7.698  19.296  1.00  0.00    -0.200 F 
ENDBRANCH  74  97
ENDBRANCH  48  49
ENDBRANCH  41  43
ENDBRANCH  40  41
ENDBRANCH  39  40
ENDBRANCH  38  39
ENDBRANCH  37  38
ENDBRANCH   1  37
TORSDOF 18
