REMARK SMILES O=C(OCCOCCOCCOC(=O)c1nccnc1C(=O)Nc1n[nH]c2ncccc12)c1ccc(-c2c3nc(c(-c4c(F)c(F)c(F)c(F)c4F)c4ccc([nH]4)c(-c4c(F)c(F)c(F)c(F)c4F)c4nc(c(-c5c(F)c(F)c(F)c(F)c5F)c5ccc2[nH]5)C=C4)C=C3)cc1
REMARK SMILES IDX 7 1 6 2 5 3 4 4 3 5 2 6 1 7 33 8 34 9 95 10 35 11 94 12
REMARK SMILES IDX 36 13 37 14 38 15 88 16 39 17 93 18 87 19 89 20 40 21 92 22
REMARK SMILES IDX 86 23 85 24 41 26 73 27 53 28 72 29 54 30 57 31 71 32 90 33
REMARK SMILES IDX 55 34 56 35 70 37 91 38 58 39 42 40 43 41 51 42 44 43 45 44
REMARK SMILES IDX 49 45 52 46 46 47 47 48 50 49 48 50 74 51 75 52 83 53 76 54
REMARK SMILES IDX 77 55 81 56 84 57 78 58 79 59 82 60 80 61 59 62 60 63 68 64
REMARK SMILES IDX 61 65 62 66 66 67 69 68 63 69 64 70 67 71 65 72 8 73 9 74
REMARK SMILES IDX 10 75 11 76 12 77 13 78 14 79 15 80 16 81 20 82 17 83 19 84
REMARK SMILES IDX 18 85 21 86 22 87 23 88 24 90 25 91 32 92 26 93 27 94 31 95
REMARK SMILES IDX 28 97 30 98 29 99
REMARK H PARENT 89 25 57 36 23 89 26 96
REMARK Flexibility Score: inf
ROOT
ATOM      1  C   UNL     1       3.313  -2.744   0.299  1.00  0.00     0.188 C 
ENDROOT
BRANCH   1   2
ATOM      2  O   UNL     1       4.284  -1.745  -0.005  1.00  0.00    -0.376 OA
BRANCH   2   3
ATOM      3  C   UNL     1       5.252  -1.513   1.013  1.00  0.00     0.202 C 
BRANCH   3   4
ATOM      4  C   UNL     1       4.700  -0.673   2.174  1.00  0.00     0.261 C 
BRANCH   4   5
ATOM      5  O   UNL     1       4.528   0.676   1.714  1.00  0.00    -0.460 OA
BRANCH   5   6
ATOM      6  C   UNL     1       3.310   0.992   1.188  1.00  0.00     0.338 C 
ATOM      7  O   UNL     1       2.247   0.514   1.484  1.00  0.00    -0.246 OA
BRANCH   6   8
ATOM      8  C   UNL     1       3.534   2.047   0.153  1.00  0.00     0.060 A 
ATOM      9  C   UNL     1       4.799   2.184  -0.427  1.00  0.00     0.016 A 
ATOM     10  C   UNL     1       2.489   2.883  -0.265  1.00  0.00     0.016 A 
ATOM     11  C   UNL     1       5.034   3.177  -1.369  1.00  0.00     0.010 A 
ATOM     12  C   UNL     1       2.726   3.894  -1.217  1.00  0.00     0.010 A 
ATOM     13  C   UNL     1       4.010   4.059  -1.756  1.00  0.00    -0.014 A 
BRANCH  13  14
ATOM     14  C   UNL     1       4.461   5.271  -2.489  1.00  0.00     0.031 A 
ATOM     15  C   UNL     1       5.188   6.285  -1.669  1.00  0.00     0.074 A 
ATOM     16  C   UNL     1       4.457   5.367  -3.831  1.00  0.00     0.049 A 
ATOM     17  N   UNL     1       5.899   7.304  -2.060  1.00  0.00    -0.248 NA
ATOM     18  C   UNL     1       5.109   6.116  -0.208  1.00  0.00     0.031 C 
ATOM     19  C   UNL     1       3.730   4.490  -4.718  1.00  0.00     0.029 A 
ATOM     20  N   UNL     1       5.113   6.202  -4.700  1.00  0.00    -0.354 N 
ATOM     21  C   UNL     1       6.354   7.895  -0.895  1.00  0.00     0.074 A 
ATOM     22  C   UNL     1       5.866   7.111   0.217  1.00  0.00     0.031 C 
ATOM     23  C   UNL     1       4.131   4.658  -5.982  1.00  0.00     0.029 A 
ATOM     24  C   UNL     1       4.964   5.847  -6.024  1.00  0.00     0.049 A 
ATOM     25  H   UNL     1       5.640   6.980  -4.406  1.00  0.00     0.167 HD
ATOM     26  C   UNL     1       7.077   9.028  -0.772  1.00  0.00     0.037 A 
ATOM     27  C   UNL     1       5.354   6.468  -7.154  1.00  0.00     0.037 A 
ATOM     28  C   UNL     1       7.441   9.850  -1.889  1.00  0.00     0.049 A 
ATOM     29  C   UNL     1       6.047   7.786  -6.991  1.00  0.00     0.074 A 
ATOM     30  C   UNL     1       8.057  11.085  -1.889  1.00  0.00     0.029 A 
ATOM     31  N   UNL     1       7.176   9.528  -3.216  1.00  0.00    -0.354 N 
ATOM     32  N   UNL     1       6.436   8.369  -5.882  1.00  0.00    -0.248 NA
ATOM     33  C   UNL     1       6.301   8.562  -8.208  1.00  0.00     0.031 C 
ATOM     34  C   UNL     1       8.112  11.536  -3.212  1.00  0.00     0.029 A 
ATOM     35  C   UNL     1       7.594  10.553  -4.043  1.00  0.00     0.049 A 
ATOM     36  H   UNL     1       6.753   8.693  -3.521  1.00  0.00     0.167 HD
ATOM     37  C   UNL     1       6.979   9.583  -6.261  1.00  0.00     0.074 A 
ATOM     38  C   UNL     1       6.890   9.642  -7.709  1.00  0.00     0.031 C 
ATOM     39  C   UNL     1       7.496  10.563  -5.482  1.00  0.00     0.037 A 
BRANCH  26  40
ATOM     40  C   UNL     1       7.366   9.470   0.627  1.00  0.00     0.064 A 
ATOM     41  C   UNL     1       8.283   8.790   1.443  1.00  0.00     0.173 A 
ATOM     42  C   UNL     1       6.629  10.520   1.194  1.00  0.00     0.173 A 
ATOM     43  F   UNL     1       8.972   7.745   0.960  1.00  0.00    -0.203 F 
ATOM     44  C   UNL     1       8.427   9.126   2.787  1.00  0.00     0.198 A 
ATOM     45  C   UNL     1       6.794  10.869   2.530  1.00  0.00     0.198 A 
ATOM     46  F   UNL     1       5.719  11.179   0.461  1.00  0.00    -0.203 F 
ATOM     47  F   UNL     1       9.251   8.415   3.569  1.00  0.00    -0.200 F 
ATOM     48  C   UNL     1       7.684  10.165   3.328  1.00  0.00     0.200 A 
ATOM     49  F   UNL     1       6.069  11.867   3.053  1.00  0.00    -0.200 F 
ATOM     50  F   UNL     1       7.806  10.473   4.627  1.00  0.00    -0.200 F 
ENDBRANCH  26  40
BRANCH  27  51
ATOM     51  C   UNL     1       4.986   5.924  -8.495  1.00  0.00     0.064 A 
ATOM     52  C   UNL     1       5.961   5.513  -9.414  1.00  0.00     0.173 A 
ATOM     53  C   UNL     1       3.641   5.770  -8.878  1.00  0.00     0.173 A 
ATOM     54  F   UNL     1       7.261   5.657  -9.120  1.00  0.00    -0.203 F 
ATOM     55  C   UNL     1       5.607   4.958 -10.647  1.00  0.00     0.198 A 
ATOM     56  C   UNL     1       3.289   5.176 -10.088  1.00  0.00     0.198 A 
ATOM     57  F   UNL     1       2.658   6.146  -8.046  1.00  0.00    -0.203 F 
ATOM     58  F   UNL     1       6.562   4.590 -11.513  1.00  0.00    -0.200 F 
ATOM     59  C   UNL     1       4.273   4.775 -10.975  1.00  0.00     0.200 A 
ATOM     60  F   UNL     1       1.998   4.965 -10.376  1.00  0.00    -0.200 F 
ATOM     61  F   UNL     1       3.935   4.204 -12.139  1.00  0.00    -0.200 F 
ENDBRANCH  27  51
BRANCH  39  62
ATOM     62  C   UNL     1       8.056  11.754  -6.190  1.00  0.00     0.064 A 
ATOM     63  C   UNL     1       7.230  12.733  -6.756  1.00  0.00     0.173 A 
ATOM     64  C   UNL     1       9.445  11.941  -6.238  1.00  0.00     0.173 A 
ATOM     65  F   UNL     1       5.897  12.580  -6.750  1.00  0.00    -0.203 F 
ATOM     66  C   UNL     1       7.780  13.860  -7.358  1.00  0.00     0.198 A 
ATOM     67  C   UNL     1       9.989  13.081  -6.814  1.00  0.00     0.198 A 
ATOM     68  F   UNL     1      10.269  11.025  -5.706  1.00  0.00    -0.203 F 
ATOM     69  F   UNL     1       6.979  14.771  -7.927  1.00  0.00    -0.200 F 
ATOM     70  C   UNL     1       9.156  14.038  -7.376  1.00  0.00     0.200 A 
ATOM     71  F   UNL     1      11.317  13.257  -6.820  1.00  0.00    -0.200 F 
ATOM     72  F   UNL     1       9.683  15.132  -7.942  1.00  0.00    -0.200 F 
ENDBRANCH  39  62
ENDBRANCH  13  14
ENDBRANCH   6   8
ENDBRANCH   5   6
ENDBRANCH   4   5
ENDBRANCH   3   4
ENDBRANCH   2   3
ENDBRANCH   1   2
BRANCH   1  73
ATOM     73  C   UNL     1       3.567  -4.040  -0.516  1.00  0.00     0.188 C 
BRANCH  73  74
ATOM     74  O   UNL     1       3.261  -3.943  -1.932  1.00  0.00    -0.376 OA
BRANCH  74  75
ATOM     75  C   UNL     1       4.391  -3.990  -2.830  1.00  0.00     0.202 C 
BRANCH  75  76
ATOM     76  C   UNL     1       3.971  -3.897  -4.343  1.00  0.00     0.261 C 
BRANCH  76  77
ATOM     77  O   UNL     1       3.633  -2.578  -4.886  1.00  0.00    -0.458 OA
BRANCH  77  78
ATOM     78  C   UNL     1       2.358  -2.294  -5.314  1.00  0.00     0.359 C 
ATOM     79  O   UNL     1       1.390  -3.018  -5.157  1.00  0.00    -0.244 OA
BRANCH  78  80
ATOM     80  C   UNL     1       2.285  -0.955  -6.008  1.00  0.00     0.179 A 
ATOM     81  N   UNL     1       3.337  -0.663  -6.846  1.00  0.00    -0.245 NA
ATOM     82  C   UNL     1       1.248  -0.028  -5.842  1.00  0.00     0.161 A 
ATOM     83  C   UNL     1       3.288   0.533  -7.488  1.00  0.00     0.132 A 
ATOM     84  N   UNL     1       1.244   1.197  -6.470  1.00  0.00    -0.247 NA
ATOM     85  C   UNL     1       2.264   1.442  -7.306  1.00  0.00     0.132 A 
BRANCH  82  86
ATOM     86  C   UNL     1       0.073  -0.146  -4.942  1.00  0.00     0.278 C 
ATOM     87  O   UNL     1      -1.011  -0.493  -5.405  1.00  0.00    -0.267 OA
ATOM     88  N   UNL     1       0.172   0.319  -3.636  1.00  0.00    -0.303 N 
ATOM     89  H   UNL     1      -0.535   0.878  -3.240  1.00  0.00     0.172 HD
BRANCH  88  90
ATOM     90  C   UNL     1       1.286  -0.027  -2.919  1.00  0.00     0.164 A 
ATOM     91  N   UNL     1       1.187  -1.135  -2.202  1.00  0.00    -0.155 NA
ATOM     92  C   UNL     1       2.634   0.366  -3.096  1.00  0.00     0.063 A 
ATOM     93  N   UNL     1       2.440  -1.594  -2.254  1.00  0.00    -0.259 N 
ATOM     94  C   UNL     1       3.379  -0.700  -2.662  1.00  0.00     0.157 A 
ATOM     95  C   UNL     1       3.339   1.378  -3.728  1.00  0.00     0.017 A 
ATOM     96  H   UNL     1       2.668  -2.520  -2.012  1.00  0.00     0.192 HD
ATOM     97  N   UNL     1       4.707  -0.893  -2.807  1.00  0.00    -0.237 NA
ATOM     98  C   UNL     1       4.718   1.257  -3.901  1.00  0.00     0.021 A 
ATOM     99  C   UNL     1       5.337   0.111  -3.442  1.00  0.00     0.113 A 
ENDBRANCH  88  90
ENDBRANCH  82  86
ENDBRANCH  78  80
ENDBRANCH  77  78
ENDBRANCH  76  77
ENDBRANCH  75  76
ENDBRANCH  74  75
ENDBRANCH  73  74
ENDBRANCH   1  73
TORSDOF 19
