REMARK SMILES O=C(OCCOCCOCCOC(=O)c1cc2c(Cl)c(C(F)(F)F)cnc2n1S(=O)(=O)c1ccccc1)c1ccc(-c2c3nc(c(-c4c(F)c(F)c(F)c(F)c4F)c4ccc([nH]4)c(-c4c(F)c(F)c(F)c(F)c4F)c4nc(c(-c5c(F)c(F)c(F)c(F)c5F)c5ccc2[nH]5)C=C4)C=C3)cc1
REMARK SMILES IDX 7 1 6 2 5 3 4 4 3 5 2 6 1 7 38 8 39 9 100 10 40 11 99 12
REMARK SMILES IDX 41 13 42 14 43 15 93 16 44 17 98 18 92 19 94 20 45 21 97 22
REMARK SMILES IDX 91 23 90 24 46 26 78 27 58 28 77 29 59 30 62 31 76 32 95 33
REMARK SMILES IDX 60 34 61 35 75 37 96 38 63 39 47 40 48 41 56 42 49 43 50 44
REMARK SMILES IDX 54 45 57 46 51 47 52 48 55 49 53 50 79 51 80 52 88 53 81 54
REMARK SMILES IDX 82 55 86 56 89 57 83 58 84 59 87 60 85 61 64 62 65 63 73 64
REMARK SMILES IDX 66 65 67 66 71 67 74 68 68 69 69 70 72 71 70 72 8 73 9 74
REMARK SMILES IDX 10 75 11 76 12 77 13 78 14 79 15 80 16 81 28 82 17 83 27 84
REMARK SMILES IDX 18 85 26 86 19 87 20 88 25 89 29 90 30 91 31 92 32 93 33 94
REMARK SMILES IDX 37 95 34 96 36 97 35 98 21 99 22 100 23 101 24 102
REMARK H PARENT 94 25 62 36
REMARK Flexibility Score: inf
ROOT
ATOM      1  C   UNL     1       3.501  -0.256  -1.713  1.00  0.00     0.188 C 
ENDROOT
BRANCH   1   2
ATOM      2  O   UNL     1       4.586  -0.104  -0.799  1.00  0.00    -0.376 OA
BRANCH   2   3
ATOM      3  C   UNL     1       5.001  -1.179   0.028  1.00  0.00     0.202 C 
BRANCH   3   4
ATOM      4  C   UNL     1       4.331  -1.222   1.401  1.00  0.00     0.261 C 
BRANCH   4   5
ATOM      5  O   UNL     1       2.900  -1.291   1.296  1.00  0.00    -0.460 OA
BRANCH   5   6
ATOM      6  C   UNL     1       2.002  -0.299   1.112  1.00  0.00     0.338 C 
ATOM      7  O   UNL     1       0.863  -0.594   0.748  1.00  0.00    -0.246 OA
BRANCH   6   8
ATOM      8  C   UNL     1       2.271   1.132   1.414  1.00  0.00     0.060 A 
ATOM      9  C   UNL     1       3.526   1.736   1.489  1.00  0.00     0.016 A 
ATOM     10  C   UNL     1       1.129   1.921   1.652  1.00  0.00     0.016 A 
ATOM     11  C   UNL     1       3.655   3.015   1.999  1.00  0.00     0.010 A 
ATOM     12  C   UNL     1       1.246   3.225   2.107  1.00  0.00     0.010 A 
ATOM     13  C   UNL     1       2.515   3.730   2.358  1.00  0.00    -0.014 A 
BRANCH  13  14
ATOM     14  C   UNL     1       2.725   5.018   2.993  1.00  0.00     0.031 A 
ATOM     15  C   UNL     1       3.344   6.070   2.149  1.00  0.00     0.074 A 
ATOM     16  C   UNL     1       2.350   5.247   4.265  1.00  0.00     0.049 A 
ATOM     17  N   UNL     1       4.437   6.729   2.363  1.00  0.00    -0.248 NA
ATOM     18  C   UNL     1       2.691   6.381   0.869  1.00  0.00     0.031 C 
ATOM     19  C   UNL     1       1.506   4.406   5.116  1.00  0.00     0.029 A 
ATOM     20  N   UNL     1       2.574   6.349   5.032  1.00  0.00    -0.354 N 
ATOM     21  C   UNL     1       4.529   7.657   1.330  1.00  0.00     0.074 A 
ATOM     22  C   UNL     1       3.493   7.329   0.385  1.00  0.00     0.031 C 
ATOM     23  C   UNL     1       1.112   5.122   6.190  1.00  0.00     0.029 A 
ATOM     24  C   UNL     1       1.774   6.416   6.160  1.00  0.00     0.049 A 
ATOM     25  H   UNL     1       3.244   7.035   4.806  1.00  0.00     0.167 HD
ATOM     26  C   UNL     1       5.313   8.763   1.433  1.00  0.00     0.037 A 
ATOM     27  C   UNL     1       1.600   7.497   6.955  1.00  0.00     0.037 A 
ATOM     28  C   UNL     1       6.369   8.587   2.391  1.00  0.00     0.049 A 
ATOM     29  C   UNL     1       2.757   8.403   6.744  1.00  0.00     0.074 A 
ATOM     30  C   UNL     1       7.428   7.708   2.518  1.00  0.00     0.029 A 
ATOM     31  N   UNL     1       6.271   9.220   3.603  1.00  0.00    -0.354 N 
ATOM     32  N   UNL     1       3.978   8.147   7.124  1.00  0.00    -0.248 NA
ATOM     33  C   UNL     1       2.621   9.471   5.764  1.00  0.00     0.031 C 
ATOM     34  C   UNL     1       7.595   7.523   3.921  1.00  0.00     0.029 A 
ATOM     35  C   UNL     1       6.642   8.316   4.561  1.00  0.00     0.049 A 
ATOM     36  H   UNL     1       5.987  10.150   3.755  1.00  0.00     0.167 HD
ATOM     37  C   UNL     1       4.779   8.722   6.149  1.00  0.00     0.074 A 
ATOM     38  C   UNL     1       3.899   9.621   5.413  1.00  0.00     0.031 C 
ATOM     39  C   UNL     1       6.008   8.209   5.854  1.00  0.00     0.037 A 
BRANCH  26  40
ATOM     40  C   UNL     1       4.897  10.121   0.924  1.00  0.00     0.064 A 
ATOM     41  C   UNL     1       5.826  11.180   0.935  1.00  0.00     0.173 A 
ATOM     42  C   UNL     1       3.550  10.493   0.724  1.00  0.00     0.173 A 
ATOM     43  F   UNL     1       7.130  10.944   1.146  1.00  0.00    -0.203 F 
ATOM     44  C   UNL     1       5.423  12.514   0.830  1.00  0.00     0.198 A 
ATOM     45  C   UNL     1       3.159  11.821   0.565  1.00  0.00     0.198 A 
ATOM     46  F   UNL     1       2.549   9.606   0.789  1.00  0.00    -0.203 F 
ATOM     47  F   UNL     1       6.325  13.494   0.976  1.00  0.00    -0.200 F 
ATOM     48  C   UNL     1       4.090  12.834   0.650  1.00  0.00     0.200 A 
ATOM     49  F   UNL     1       1.859  12.111   0.412  1.00  0.00    -0.200 F 
ATOM     50  F   UNL     1       3.694  14.112   0.613  1.00  0.00    -0.200 F 
ENDBRANCH  26  40
BRANCH  27  51
ATOM     51  C   UNL     1       0.355   7.930   7.633  1.00  0.00     0.064 A 
ATOM     52  C   UNL     1       0.386   8.929   8.618  1.00  0.00     0.173 A 
ATOM     53  C   UNL     1      -0.919   7.569   7.148  1.00  0.00     0.173 A 
ATOM     54  F   UNL     1       1.559   9.365   9.101  1.00  0.00    -0.203 F 
ATOM     55  C   UNL     1      -0.783   9.550   9.069  1.00  0.00     0.198 A 
ATOM     56  C   UNL     1      -2.085   8.177   7.611  1.00  0.00     0.198 A 
ATOM     57  F   UNL     1      -1.057   6.690   6.146  1.00  0.00    -0.203 F 
ATOM     58  F   UNL     1      -0.707  10.551   9.957  1.00  0.00    -0.200 F 
ATOM     59  C   UNL     1      -2.016   9.179   8.559  1.00  0.00     0.200 A 
ATOM     60  F   UNL     1      -3.268   7.830   7.085  1.00  0.00    -0.200 F 
ATOM     61  F   UNL     1      -3.130   9.815   8.947  1.00  0.00    -0.200 F 
ENDBRANCH  27  51
BRANCH  39  62
ATOM     62  C   UNL     1       6.616   7.235   6.818  1.00  0.00     0.064 A 
ATOM     63  C   UNL     1       6.080   5.963   7.080  1.00  0.00     0.173 A 
ATOM     64  C   UNL     1       7.872   7.536   7.362  1.00  0.00     0.173 A 
ATOM     65  F   UNL     1       4.933   5.567   6.512  1.00  0.00    -0.203 F 
ATOM     66  C   UNL     1       6.761   5.049   7.883  1.00  0.00     0.198 A 
ATOM     67  C   UNL     1       8.565   6.609   8.134  1.00  0.00     0.198 A 
ATOM     68  F   UNL     1       8.456   8.715   7.093  1.00  0.00    -0.203 F 
ATOM     69  F   UNL     1       6.231   3.840   8.122  1.00  0.00    -0.200 F 
ATOM     70  C   UNL     1       8.005   5.370   8.401  1.00  0.00     0.200 A 
ATOM     71  F   UNL     1       9.790   6.903   8.590  1.00  0.00    -0.200 F 
ATOM     72  F   UNL     1       8.682   4.471   9.131  1.00  0.00    -0.200 F 
ENDBRANCH  39  62
ENDBRANCH  13  14
ENDBRANCH   6   8
ENDBRANCH   5   6
ENDBRANCH   4   5
ENDBRANCH   3   4
ENDBRANCH   2   3
ENDBRANCH   1   2
BRANCH   1  73
ATOM     73  C   UNL     1       2.734  -1.582  -1.894  1.00  0.00     0.188 C 
BRANCH  73  74
ATOM     74  O   UNL     1       3.452  -2.778  -2.170  1.00  0.00    -0.376 OA
BRANCH  74  75
ATOM     75  C   UNL     1       4.582  -2.724  -3.028  1.00  0.00     0.202 C 
BRANCH  75  76
ATOM     76  C   UNL     1       4.271  -2.517  -4.502  1.00  0.00     0.261 C 
BRANCH  76  77
ATOM     77  O   UNL     1       3.826  -1.173  -4.734  1.00  0.00    -0.459 OA
BRANCH  77  78
ATOM     78  C   UNL     1       2.575  -1.031  -5.212  1.00  0.00     0.356 C 
ATOM     79  O   UNL     1       1.754  -1.935  -5.378  1.00  0.00    -0.244 OA
BRANCH  78  80
ATOM     80  C   UNL     1       2.267   0.357  -5.379  1.00  0.00     0.145 A 
ATOM     81  C   UNL     1       1.209   1.048  -4.809  1.00  0.00     0.048 A 
ATOM     82  N   UNL     1       2.927   1.249  -6.202  1.00  0.00    -0.209 N 
ATOM     83  C   UNL     1       1.173   2.352  -5.368  1.00  0.00     0.040 A 
ATOM     84  C   UNL     1       2.249   2.443  -6.252  1.00  0.00     0.156 A 
ATOM     85  C   UNL     1       0.340   3.481  -5.271  1.00  0.00     0.065 A 
ATOM     86  N   UNL     1       2.522   3.503  -7.035  1.00  0.00    -0.237 NA
ATOM     87  Cl  UNL     1      -0.908   3.371  -4.106  1.00  0.00    -0.083 Cl
ATOM     88  C   UNL     1       0.538   4.574  -6.104  1.00  0.00     0.093 A 
ATOM     89  C   UNL     1       1.633   4.519  -6.950  1.00  0.00     0.128 A 
BRANCH  82  90
ATOM     90  S   UNL     1       4.498   0.998  -6.787  1.00  0.00     0.270 S 
ATOM     91  O   UNL     1       5.362   1.480  -5.725  1.00  0.00    -0.201 OA
ATOM     92  O   UNL     1       4.526  -0.390  -7.216  1.00  0.00    -0.201 OA
BRANCH  90  93
ATOM     93  C   UNL     1       4.762   1.979  -8.232  1.00  0.00     0.088 A 
ATOM     94  C   UNL     1       4.540   1.412  -9.492  1.00  0.00     0.022 A 
ATOM     95  C   UNL     1       5.301   3.264  -8.116  1.00  0.00     0.022 A 
ATOM     96  C   UNL     1       4.818   2.154 -10.638  1.00  0.00     0.001 A 
ATOM     97  C   UNL     1       5.558   4.007  -9.267  1.00  0.00     0.001 A 
ATOM     98  C   UNL     1       5.316   3.453 -10.524  1.00  0.00     0.000 A 
ENDBRANCH  90  93
ENDBRANCH  82  90
BRANCH  88  99
ATOM     99  C   UNL     1      -0.376   5.752  -6.121  1.00  0.00     0.419 C 
ATOM    100  F   UNL     1      -1.683   5.414  -6.291  1.00  0.00    -0.166 F 
ATOM    101  F   UNL     1      -0.312   6.487  -4.979  1.00  0.00    -0.166 F 
ATOM    102  F   UNL     1      -0.098   6.624  -7.133  1.00  0.00    -0.166 F 
ENDBRANCH  88  99
ENDBRANCH  78  80
ENDBRANCH  77  78
ENDBRANCH  76  77
ENDBRANCH  75  76
ENDBRANCH  74  75
ENDBRANCH  73  74
ENDBRANCH   1  73
TORSDOF 20
