REMARK SMILES O=C(CCC(=O)OCCOCCOCCOC(=O)c1ccc(-c2c3nc(c(-c4c(F)c(F)c(F)c(F)c4F)c4ccc([nH]4)c(-c4c(F)c(F)c(F)c(F)c4F)c4nc(c(-c5c(F)c(F)c(F)c(F)c5F)c5ccc2[nH]5)C=C4)C=C3)cc1)Nc1ccc(Br)c([N+](=O)[O-])c1
REMARK SMILES IDX 11 1 10 2 9 3 8 4 7 5 5 6 6 7 4 8 3 9 2 10 1 11 82 12 83 14
REMARK SMILES IDX 84 15 92 16 85 17 88 18 86 19 87 20 89 21 90 22 91 23 12 24
REMARK SMILES IDX 13 25 14 26 15 27 16 28 17 29 18 30 19 31 20 32 81 33 21 34
REMARK SMILES IDX 80 35 22 36 23 37 24 38 74 39 25 40 79 41 73 42 75 43 26 44
REMARK SMILES IDX 78 45 72 46 71 47 27 49 59 50 39 51 58 52 40 53 43 54 57 55
REMARK SMILES IDX 76 56 41 57 42 58 56 60 77 61 44 62 28 63 29 64 37 65 30 66
REMARK SMILES IDX 31 67 35 68 38 69 32 70 33 71 36 72 34 73 60 74 61 75 69 76
REMARK SMILES IDX 62 77 63 78 67 79 70 80 64 81 65 82 68 83 66 84 45 85 46 86
REMARK SMILES IDX 54 87 47 88 48 89 52 90 55 91 49 92 50 93 53 94 51 95
REMARK H PARENT 82 13 75 48 43 59
REMARK Flexibility Score: inf
ROOT
ATOM      1  C   UNL     1       6.743  -0.365   0.268  1.00  0.00     0.188 C 
ENDROOT
BRANCH   1   2
ATOM      2  O   UNL     1       7.504  -0.767  -0.865  1.00  0.00    -0.376 OA
BRANCH   2   3
ATOM      3  C   UNL     1       6.809  -0.823  -2.111  1.00  0.00     0.202 C 
BRANCH   3   4
ATOM      4  C   UNL     1       5.643  -1.821  -2.164  1.00  0.00     0.261 C 
BRANCH   4   5
ATOM      5  O   UNL     1       4.592  -1.533  -1.205  1.00  0.00    -0.463 OA
BRANCH   5   6
ATOM      6  C   UNL     1       4.177  -2.583  -0.443  1.00  0.00     0.306 C 
ATOM      7  O   UNL     1       4.564  -3.736  -0.595  1.00  0.00    -0.252 OA
BRANCH   6   8
ATOM      8  C   UNL     1       3.227  -2.215   0.684  1.00  0.00     0.132 C 
BRANCH   8   9
ATOM      9  C   UNL     1       2.735  -0.783   0.864  1.00  0.00     0.112 C 
BRANCH   9  10
ATOM     10  C   UNL     1       1.746  -0.309  -0.183  1.00  0.00     0.224 C 
ATOM     11  O   UNL     1       0.557  -0.159   0.076  1.00  0.00    -0.275 OA
ATOM     12  N   UNL     1       2.334  -0.091  -1.407  1.00  0.00    -0.326 N 
ATOM     13  H   UNL     1       3.287  -0.324  -1.482  1.00  0.00     0.169 HD
BRANCH  12  14
ATOM     14  C   UNL     1       1.728   0.425  -2.557  1.00  0.00     0.048 A 
ATOM     15  C   UNL     1       2.297   0.066  -3.779  1.00  0.00     0.028 A 
ATOM     16  C   UNL     1       0.646   1.302  -2.530  1.00  0.00     0.113 A 
ATOM     17  C   UNL     1       1.772   0.551  -4.975  1.00  0.00     0.025 A 
ATOM     18  C   UNL     1       0.154   1.843  -3.736  1.00  0.00     0.285 A 
ATOM     19  C   UNL     1       0.706   1.458  -4.966  1.00  0.00     0.095 A 
ATOM     20  Br  UNL     1       0.183   2.103  -6.676  1.00  0.00    -0.043 Br
BRANCH  18  21
ATOM     21  N   UNL     1      -0.892   2.859  -3.627  1.00  0.00     0.064 N 
ATOM     22  O   UNL     1      -1.756   2.920  -4.509  1.00  0.00    -0.258 OA
ATOM     23  O   UNL     1      -0.858   3.596  -2.630  1.00  0.00    -0.258 OA
ENDBRANCH  18  21
ENDBRANCH  12  14
ENDBRANCH   9  10
ENDBRANCH   8   9
ENDBRANCH   6   8
ENDBRANCH   5   6
ENDBRANCH   4   5
ENDBRANCH   3   4
ENDBRANCH   2   3
ENDBRANCH   1   2
BRANCH   1  24
ATOM     24  C   UNL     1       6.153   1.043   0.189  1.00  0.00     0.188 C 
BRANCH  24  25
ATOM     25  O   UNL     1       5.405   1.346  -0.983  1.00  0.00    -0.376 OA
BRANCH  25  26
ATOM     26  C   UNL     1       4.971   2.712  -1.093  1.00  0.00     0.202 C 
BRANCH  26  27
ATOM     27  C   UNL     1       6.061   3.808  -0.977  1.00  0.00     0.261 C 
BRANCH  27  28
ATOM     28  O   UNL     1       6.777   3.859   0.279  1.00  0.00    -0.460 OA
BRANCH  28  29
ATOM     29  C   UNL     1       6.051   3.896   1.421  1.00  0.00     0.338 C 
ATOM     30  O   UNL     1       4.861   4.146   1.512  1.00  0.00    -0.246 OA
BRANCH  29  31
ATOM     31  C   UNL     1       6.855   3.287   2.519  1.00  0.00     0.060 A 
ATOM     32  C   UNL     1       6.195   2.438   3.421  1.00  0.00     0.016 A 
ATOM     33  C   UNL     1       8.238   3.466   2.627  1.00  0.00     0.016 A 
ATOM     34  C   UNL     1       6.899   1.805   4.449  1.00  0.00     0.010 A 
ATOM     35  C   UNL     1       8.942   2.844   3.669  1.00  0.00     0.010 A 
ATOM     36  C   UNL     1       8.271   2.039   4.608  1.00  0.00    -0.014 A 
BRANCH  36  37
ATOM     37  C   UNL     1       8.945   1.632   5.870  1.00  0.00     0.031 A 
ATOM     38  C   UNL     1       9.098   2.666   6.956  1.00  0.00     0.074 A 
ATOM     39  C   UNL     1       9.383   0.378   6.085  1.00  0.00     0.049 A 
ATOM     40  N   UNL     1       9.657   2.567   8.136  1.00  0.00    -0.248 NA
ATOM     41  C   UNL     1       8.540   3.996   6.664  1.00  0.00     0.031 C 
ATOM     42  C   UNL     1       9.259  -0.736   5.149  1.00  0.00     0.029 A 
ATOM     43  N   UNL     1      10.025  -0.166   7.173  1.00  0.00    -0.354 N 
ATOM     44  C   UNL     1       9.524   3.820   8.721  1.00  0.00     0.074 A 
ATOM     45  C   UNL     1       8.865   4.671   7.755  1.00  0.00     0.031 C 
ATOM     46  C   UNL     1       9.807  -1.833   5.703  1.00  0.00     0.029 A 
ATOM     47  C   UNL     1      10.351  -1.491   7.019  1.00  0.00     0.049 A 
ATOM     48  H   UNL     1      10.233   0.348   7.986  1.00  0.00     0.167 HD
ATOM     49  C   UNL     1       9.906   4.227   9.955  1.00  0.00     0.037 A 
ATOM     50  C   UNL     1      11.022  -2.325   7.839  1.00  0.00     0.037 A 
ATOM     51  C   UNL     1      10.565   3.389  10.921  1.00  0.00     0.049 A 
ATOM     52  C   UNL     1      11.525  -1.822   9.172  1.00  0.00     0.074 A 
ATOM     53  C   UNL     1      10.972   3.707  12.205  1.00  0.00     0.029 A 
ATOM     54  N   UNL     1      10.929   2.068  10.703  1.00  0.00    -0.354 N 
ATOM     55  N   UNL     1      11.367  -0.647   9.731  1.00  0.00    -0.248 NA
ATOM     56  C   UNL     1      12.302  -2.769   9.987  1.00  0.00     0.031 C 
ATOM     57  C   UNL     1      11.638   2.599  12.741  1.00  0.00     0.029 A 
ATOM     58  C   UNL     1      11.587   1.569  11.816  1.00  0.00     0.049 A 
ATOM     59  H   UNL     1      10.747   1.560   9.879  1.00  0.00     0.167 HD
ATOM     60  C   UNL     1      11.988  -0.725  10.973  1.00  0.00     0.074 A 
ATOM     61  C   UNL     1      12.517  -2.067  11.091  1.00  0.00     0.031 C 
ATOM     62  C   UNL     1      12.104   0.228  11.932  1.00  0.00     0.037 A 
BRANCH  49  63
ATOM     63  C   UNL     1       9.652   5.663  10.312  1.00  0.00     0.064 A 
ATOM     64  C   UNL     1       8.354   6.159  10.514  1.00  0.00     0.173 A 
ATOM     65  C   UNL     1      10.724   6.556  10.456  1.00  0.00     0.173 A 
ATOM     66  F   UNL     1       7.292   5.352  10.371  1.00  0.00    -0.203 F 
ATOM     67  C   UNL     1       8.139   7.504  10.807  1.00  0.00     0.198 A 
ATOM     68  C   UNL     1      10.507   7.891  10.785  1.00  0.00     0.198 A 
ATOM     69  F   UNL     1      11.985   6.134  10.278  1.00  0.00    -0.203 F 
ATOM     70  F   UNL     1       6.888   7.969  10.931  1.00  0.00    -0.200 F 
ATOM     71  C   UNL     1       9.215   8.367  10.948  1.00  0.00     0.200 A 
ATOM     72  F   UNL     1      11.550   8.720  10.933  1.00  0.00    -0.200 F 
ATOM     73  F   UNL     1       9.007   9.660  11.230  1.00  0.00    -0.200 F 
ENDBRANCH  49  63
BRANCH  50  74
ATOM     74  C   UNL     1      11.269  -3.737   7.436  1.00  0.00     0.064 A 
ATOM     75  C   UNL     1      10.667  -4.800   8.126  1.00  0.00     0.173 A 
ATOM     76  C   UNL     1      12.142  -4.055   6.385  1.00  0.00     0.173 A 
ATOM     77  F   UNL     1       9.852  -4.550   9.161  1.00  0.00    -0.203 F 
ATOM     78  C   UNL     1      10.942  -6.125   7.791  1.00  0.00     0.198 A 
ATOM     79  C   UNL     1      12.393  -5.380   6.032  1.00  0.00     0.198 A 
ATOM     80  F   UNL     1      12.753  -3.078   5.701  1.00  0.00    -0.203 F 
ATOM     81  F   UNL     1      10.394  -7.121   8.502  1.00  0.00    -0.200 F 
ATOM     82  C   UNL     1      11.799  -6.414   6.741  1.00  0.00     0.200 A 
ATOM     83  F   UNL     1      13.217  -5.655   5.012  1.00  0.00    -0.200 F 
ATOM     84  F   UNL     1      12.064  -7.688   6.419  1.00  0.00    -0.200 F 
ENDBRANCH  50  74
BRANCH  62  85
ATOM     85  C   UNL     1      12.787  -0.153  13.217  1.00  0.00     0.064 A 
ATOM     86  C   UNL     1      14.167  -0.397  13.281  1.00  0.00     0.173 A 
ATOM     87  C   UNL     1      12.053  -0.238  14.411  1.00  0.00     0.173 A 
ATOM     88  F   UNL     1      14.915  -0.342  12.169  1.00  0.00    -0.203 F 
ATOM     89  C   UNL     1      14.779  -0.742  14.484  1.00  0.00     0.198 A 
ATOM     90  C   UNL     1      12.674  -0.549  15.618  1.00  0.00     0.198 A 
ATOM     91  F   UNL     1      10.731  -0.005  14.411  1.00  0.00    -0.203 F 
ATOM     92  F   UNL     1      16.090  -1.024  14.510  1.00  0.00    -0.200 F 
ATOM     93  C   UNL     1      14.035  -0.810  15.652  1.00  0.00     0.200 A 
ATOM     94  F   UNL     1      11.954  -0.597  16.748  1.00  0.00    -0.200 F 
ATOM     95  F   UNL     1      14.627  -1.135  16.809  1.00  0.00    -0.200 F 
ENDBRANCH  62  85
ENDBRANCH  36  37
ENDBRANCH  29  31
ENDBRANCH  28  29
ENDBRANCH  27  28
ENDBRANCH  26  27
ENDBRANCH  25  26
ENDBRANCH  24  25
ENDBRANCH   1  24
TORSDOF 21
