REMARK SMILES C[C@@H]1CN(C(=O)Nc2ccc(O)c(C(=O)OCCOCCOCCOC(=O)c3ccc(-c4c5nc(c(-c6c(F)c(F)c(F)c(F)c6F)c6ccc([nH]6)c(-c6c(F)c(F)c(F)c(F)c6F)c6nc(c(-c7c(F)c(F)c(F)c(F)c7F)c7ccc4[nH]7)C=C6)C=C5)cc3)c2)C[C@@H]1C
REMARK SMILES IDX 20 1 19 2 18 3 17 4 16 5 14 6 15 7 13 8 8 9 9 10 91 11 10 12
REMARK SMILES IDX 11 13 7 14 5 15 6 16 4 18 1 19 2 20 3 21 93 22 92 23 94 24
REMARK SMILES IDX 12 25 21 27 22 28 23 29 24 30 25 31 26 32 27 33 28 34 29 35
REMARK SMILES IDX 90 36 30 37 89 38 31 39 32 40 33 41 83 42 34 43 88 44 82 45
REMARK SMILES IDX 84 46 35 47 87 48 81 49 80 50 36 52 68 53 48 54 67 55 49 56
REMARK SMILES IDX 52 57 66 58 85 59 50 60 51 61 65 63 86 64 53 65 37 66 38 67
REMARK SMILES IDX 46 68 39 69 40 70 44 71 47 72 41 73 42 74 45 75 43 76 69 77
REMARK SMILES IDX 70 78 78 79 71 80 72 81 76 82 79 83 73 84 74 85 77 86 75 87
REMARK SMILES IDX 54 88 55 89 63 90 56 91 57 92 61 93 64 94 58 95 59 96 62 97
REMARK SMILES IDX 60 98
REMARK H PARENT 7 17 12 26 84 51 52 62
REMARK Flexibility Score: inf
ROOT
ATOM      1  C   UNL     1       5.100   6.390   4.016  1.00  0.00     0.188 C 
ENDROOT
BRANCH   1   2
ATOM      2  O   UNL     1       6.155   7.099   3.371  1.00  0.00    -0.376 OA
BRANCH   2   3
ATOM      3  C   UNL     1       5.989   7.509   2.014  1.00  0.00     0.202 C 
BRANCH   3   4
ATOM      4  C   UNL     1       5.608   6.444   0.978  1.00  0.00     0.261 C 
BRANCH   4   5
ATOM      5  O   UNL     1       4.366   5.801   1.293  1.00  0.00    -0.460 OA
BRANCH   5   6
ATOM      6  C   UNL     1       4.376   4.442   1.281  1.00  0.00     0.342 C 
ATOM      7  O   UNL     1       5.286   3.720   0.942  1.00  0.00    -0.246 OA
BRANCH   6   8
ATOM      8  C   UNL     1       3.189   3.943   2.016  1.00  0.00     0.103 A 
ATOM      9  C   UNL     1       2.361   2.433   3.708  1.00  0.00     0.044 A 
ATOM     10  C   UNL     1       1.079   2.963   3.558  1.00  0.00     0.030 A 
ATOM     11  C   UNL     1       3.430   2.971   2.997  1.00  0.00     0.045 A 
ATOM     12  C   UNL     1       0.837   3.947   2.595  1.00  0.00     0.049 A 
ATOM     13  C   UNL     1       1.887   4.409   1.799  1.00  0.00     0.130 A 
BRANCH   9  14
ATOM     14  N   UNL     1       2.598   1.328   4.523  1.00  0.00    -0.308 N 
ATOM     15  C   UNL     1       2.062   0.073   4.489  1.00  0.00     0.321 C 
ATOM     16  O   UNL     1       2.317  -0.667   5.444  1.00  0.00    -0.248 OA
ATOM     17  H   UNL     1       3.257   1.476   5.239  1.00  0.00     0.171 HD
BRANCH  15  18
ATOM     18  N   UNL     1       1.406  -0.390   3.376  1.00  0.00    -0.324 N 
ATOM     19  C   UNL     1       0.915  -0.475  -0.286  1.00  0.00     0.010 C 
ATOM     20  C   UNL     1       0.590  -0.787   1.166  1.00  0.00     0.010 C 
ATOM     21  C   UNL     1       1.153   0.275   2.106  1.00  0.00     0.125 C 
ATOM     22  C   UNL     1       1.142  -2.096   1.748  1.00  0.00     0.010 C 
ATOM     23  C   UNL     1       1.093  -1.808   3.257  1.00  0.00     0.125 C 
ATOM     24  C   UNL     1       2.561  -2.437   1.292  1.00  0.00     0.010 C 
ENDBRANCH  15  18
ENDBRANCH   9  14
BRANCH  13  25
ATOM     25  O   UNL     1       1.632   5.306   0.804  1.00  0.00    -0.507 OA
ATOM     26  H   UNL     1       0.758   5.614   0.663  1.00  0.00     0.293 HD
ENDBRANCH  13  25
ENDBRANCH   6   8
ENDBRANCH   5   6
ENDBRANCH   4   5
ENDBRANCH   3   4
ENDBRANCH   2   3
ENDBRANCH   1   2
BRANCH   1  27
ATOM     27  C   UNL     1       3.665   6.952   3.949  1.00  0.00     0.188 C 
BRANCH  27  28
ATOM     28  O   UNL     1       3.564   8.155   3.220  1.00  0.00    -0.376 OA
BRANCH  28  29
ATOM     29  C   UNL     1       3.346   9.357   3.935  1.00  0.00     0.202 C 
BRANCH  29  30
ATOM     30  C   UNL     1       4.237   9.727   5.134  1.00  0.00     0.261 C 
BRANCH  30  31
ATOM     31  O   UNL     1       4.640   8.662   6.009  1.00  0.00    -0.460 OA
BRANCH  31  32
ATOM     32  C   UNL     1       3.764   8.284   6.965  1.00  0.00     0.338 C 
ATOM     33  O   UNL     1       2.644   8.723   7.152  1.00  0.00    -0.246 OA
BRANCH  32  34
ATOM     34  C   UNL     1       4.320   7.097   7.654  1.00  0.00     0.060 A 
ATOM     35  C   UNL     1       3.587   5.905   7.627  1.00  0.00     0.016 A 
ATOM     36  C   UNL     1       5.537   7.163   8.340  1.00  0.00     0.016 A 
ATOM     37  C   UNL     1       4.048   4.788   8.325  1.00  0.00     0.010 A 
ATOM     38  C   UNL     1       5.992   6.044   9.049  1.00  0.00     0.010 A 
ATOM     39  C   UNL     1       5.229   4.864   9.077  1.00  0.00    -0.014 A 
BRANCH  39  40
ATOM     40  C   UNL     1       5.557   3.763  10.019  1.00  0.00     0.031 A 
ATOM     41  C   UNL     1       5.157   3.901  11.463  1.00  0.00     0.074 A 
ATOM     42  C   UNL     1       6.136   2.628   9.591  1.00  0.00     0.049 A 
ATOM     43  N   UNL     1       5.248   3.035  12.441  1.00  0.00    -0.248 NA
ATOM     44  C   UNL     1       4.571   5.192  11.854  1.00  0.00     0.031 C 
ATOM     45  C   UNL     1       6.549   2.359   8.216  1.00  0.00     0.029 A 
ATOM     46  N   UNL     1       6.462   1.483  10.274  1.00  0.00    -0.354 N 
ATOM     47  C   UNL     1       4.719   3.670  13.557  1.00  0.00     0.074 A 
ATOM     48  C   UNL     1       4.357   5.011  13.148  1.00  0.00     0.031 C 
ATOM     49  C   UNL     1       7.057   1.115   8.152  1.00  0.00     0.029 A 
ATOM     50  C   UNL     1       7.022   0.511   9.483  1.00  0.00     0.049 A 
ATOM     51  H   UNL     1       6.309   1.370  11.240  1.00  0.00     0.167 HD
ATOM     52  C   UNL     1       4.532   3.178  14.805  1.00  0.00     0.037 A 
ATOM     53  C   UNL     1       7.450  -0.727   9.800  1.00  0.00     0.037 A 
ATOM     54  C   UNL     1       4.911   1.853  15.221  1.00  0.00     0.049 A 
ATOM     55  C   UNL     1       7.306  -1.226  11.214  1.00  0.00     0.074 A 
ATOM     56  C   UNL     1       4.761   1.259  16.462  1.00  0.00     0.029 A 
ATOM     57  N   UNL     1       5.530   0.917  14.404  1.00  0.00    -0.354 N 
ATOM     58  N   UNL     1       6.769  -0.635  12.254  1.00  0.00    -0.248 NA
ATOM     59  C   UNL     1       7.822  -2.574  11.494  1.00  0.00     0.031 C 
ATOM     60  C   UNL     1       5.338  -0.016  16.411  1.00  0.00     0.029 A 
ATOM     61  C   UNL     1       5.793  -0.240  15.122  1.00  0.00     0.049 A 
ATOM     62  H   UNL     1       5.750   1.055  13.454  1.00  0.00     0.167 HD
ATOM     63  C   UNL     1       6.844  -1.550  13.297  1.00  0.00     0.074 A 
ATOM     64  C   UNL     1       7.477  -2.738  12.763  1.00  0.00     0.031 C 
ATOM     65  C   UNL     1       6.419  -1.420  14.579  1.00  0.00     0.037 A 
BRANCH  52  66
ATOM     66  C   UNL     1       3.914   4.101  15.816  1.00  0.00     0.064 A 
ATOM     67  C   UNL     1       2.570   4.498  15.727  1.00  0.00     0.173 A 
ATOM     68  C   UNL     1       4.676   4.604  16.882  1.00  0.00     0.173 A 
ATOM     69  F   UNL     1       1.802   4.059  14.719  1.00  0.00    -0.203 F 
ATOM     70  C   UNL     1       2.025   5.395  16.642  1.00  0.00     0.198 A 
ATOM     71  C   UNL     1       4.118   5.476  17.813  1.00  0.00     0.198 A 
ATOM     72  F   UNL     1       5.963   4.254  17.017  1.00  0.00    -0.203 F 
ATOM     73  F   UNL     1       0.759   5.811  16.498  1.00  0.00    -0.200 F 
ATOM     74  C   UNL     1       2.798   5.880  17.686  1.00  0.00     0.200 A 
ATOM     75  F   UNL     1       4.863   5.935  18.828  1.00  0.00    -0.200 F 
ATOM     76  F   UNL     1       2.274   6.748  18.562  1.00  0.00    -0.200 F 
ENDBRANCH  52  66
BRANCH  53  77
ATOM     77  C   UNL     1       8.025  -1.601   8.743  1.00  0.00     0.064 A 
ATOM     78  C   UNL     1       7.336  -2.735   8.292  1.00  0.00     0.173 A 
ATOM     79  C   UNL     1       9.273  -1.322   8.168  1.00  0.00     0.173 A 
ATOM     80  F   UNL     1       6.155  -3.062   8.838  1.00  0.00    -0.203 F 
ATOM     81  C   UNL     1       7.877  -3.562   7.310  1.00  0.00     0.198 A 
ATOM     82  C   UNL     1       9.801  -2.136   7.168  1.00  0.00     0.198 A 
ATOM     83  F   UNL     1       9.975  -0.254   8.571  1.00  0.00    -0.203 F 
ATOM     84  F   UNL     1       7.217  -4.664   6.926  1.00  0.00    -0.200 F 
ATOM     85  C   UNL     1       9.105  -3.258   6.743  1.00  0.00     0.200 A 
ATOM     86  F   UNL     1      10.986  -1.835   6.619  1.00  0.00    -0.200 F 
ATOM     87  F   UNL     1       9.623  -4.051   5.795  1.00  0.00    -0.200 F 
ENDBRANCH  53  77
BRANCH  65  88
ATOM     88  C   UNL     1       6.581  -2.609  15.485  1.00  0.00     0.064 A 
ATOM     89  C   UNL     1       7.839  -3.031  15.940  1.00  0.00     0.173 A 
ATOM     90  C   UNL     1       5.454  -3.321  15.925  1.00  0.00     0.173 A 
ATOM     91  F   UNL     1       8.950  -2.393  15.540  1.00  0.00    -0.203 F 
ATOM     92  C   UNL     1       7.965  -4.141  16.772  1.00  0.00     0.198 A 
ATOM     93  C   UNL     1       5.581  -4.411  16.782  1.00  0.00     0.198 A 
ATOM     94  F   UNL     1       4.225  -2.955  15.529  1.00  0.00    -0.203 F 
ATOM     95  F   UNL     1       9.182  -4.559  17.148  1.00  0.00    -0.200 F 
ATOM     96  C   UNL     1       6.837  -4.826  17.197  1.00  0.00     0.200 A 
ATOM     97  F   UNL     1       4.488  -5.061  17.204  1.00  0.00    -0.200 F 
ATOM     98  F   UNL     1       6.960  -5.892  18.000  1.00  0.00    -0.200 F 
ENDBRANCH  65  88
ENDBRANCH  39  40
ENDBRANCH  32  34
ENDBRANCH  31  32
ENDBRANCH  30  31
ENDBRANCH  29  30
ENDBRANCH  28  29
ENDBRANCH  27  28
ENDBRANCH   1  27
TORSDOF 20
