REMARK SMILES [NH3+]C1CC[NH+](CC(=O)Nc2cc(Cl)ccc2C(=O)OCCOCCOCCOC(=O)c2ccc(-c3c4nc(c(-c5c(F)c(F)c(F)c(F)c5F)c5ccc([nH]5)c(-c5c(F)c(F)c(F)c(F)c5F)c5nc(c(-c6c(F)c(F)c(F)c(F)c6F)c6ccc3[nH]6)C=C5)C=C4)cc2)CC1
REMARK SMILES IDX 23 1 22 2 21 3 20 4 19 5 17 6 18 7 16 8 10 9 11 10 12 11
REMARK SMILES IDX 15 12 13 13 14 14 9 15 7 16 8 17 6 19 5 20 2 21 3 22 95 23
REMARK SMILES IDX 4 24 94 25 1 27 24 31 25 32 26 33 27 34 28 35 29 36 30 37
REMARK SMILES IDX 31 38 32 39 93 40 33 41 92 42 34 43 35 44 36 45 86 46 37 47
REMARK SMILES IDX 91 48 85 49 87 50 38 51 90 52 84 53 83 54 39 56 71 57 51 58
REMARK SMILES IDX 70 59 52 60 55 61 69 62 88 63 53 64 54 65 68 67 89 68 56 69
REMARK SMILES IDX 40 70 41 71 49 72 42 73 43 74 47 75 50 76 44 77 45 78 48 79
REMARK SMILES IDX 46 80 72 81 73 82 81 83 74 84 75 85 79 86 82 87 76 88 77 89
REMARK SMILES IDX 80 90 78 91 57 92 58 93 66 94 59 95 60 96 64 97 67 98 61 99
REMARK SMILES IDX 62 100 65 101 63 102
REMARK H PARENT 9 18 5 26 1 28 1 29 1 30 87 55 55 66
REMARK Flexibility Score: inf
ROOT
ATOM      1  C   UNL     1      -6.027   0.608   4.201  1.00  0.00     0.188 C 
ENDROOT
BRANCH   1   2
ATOM      2  O   UNL     1      -5.968   0.302   5.575  1.00  0.00    -0.376 OA
BRANCH   2   3
ATOM      3  C   UNL     1      -4.740   0.066   6.243  1.00  0.00     0.202 C 
BRANCH   3   4
ATOM      4  C   UNL     1      -3.478  -0.492   5.566  1.00  0.00     0.261 C 
BRANCH   4   5
ATOM      5  O   UNL     1      -3.303  -0.131   4.196  1.00  0.00    -0.460 OA
BRANCH   5   6
ATOM      6  C   UNL     1      -3.255  -1.160   3.308  1.00  0.00     0.340 C 
ATOM      7  O   UNL     1      -3.270  -2.342   3.571  1.00  0.00    -0.246 OA
BRANCH   6   8
ATOM      8  C   UNL     1      -3.392  -0.624   1.921  1.00  0.00     0.083 A 
ATOM      9  C   UNL     1      -2.885   0.628   1.481  1.00  0.00     0.057 A 
ATOM     10  C   UNL     1      -3.227   1.035   0.189  1.00  0.00     0.047 A 
ATOM     11  C   UNL     1      -3.971   0.208  -0.663  1.00  0.00     0.043 A 
ATOM     12  C   UNL     1      -4.153  -1.440   1.060  1.00  0.00     0.019 A 
ATOM     13  Cl  UNL     1      -4.324   0.735  -2.264  1.00  0.00    -0.084 Cl
ATOM     14  C   UNL     1      -4.433  -1.028  -0.237  1.00  0.00     0.021 A 
BRANCH   9  15
ATOM     15  N   UNL     1      -2.100   1.399   2.374  1.00  0.00    -0.320 N 
ATOM     16  C   UNL     1      -1.326   2.520   2.342  1.00  0.00     0.279 C 
ATOM     17  O   UNL     1      -0.763   2.810   3.409  1.00  0.00    -0.268 OA
ATOM     18  H   UNL     1      -2.121   1.014   3.280  1.00  0.00     0.170 HD
BRANCH  16  19
ATOM     19  C   UNL     1      -1.098   3.397   1.120  1.00  0.00     0.363 C 
BRANCH  19  20
ATOM     20  N   UNL     1       0.060   3.056   0.276  1.00  0.00    -0.327 N 
ATOM     21  C   UNL     1       1.916   0.799   0.875  1.00  0.00     0.192 C 
ATOM     22  C   UNL     1       2.036   2.155   1.586  1.00  0.00     0.126 C 
ATOM     23  C   UNL     1       0.500   0.595   0.343  1.00  0.00     0.126 C 
ATOM     24  C   UNL     1       1.381   3.325   0.843  1.00  0.00     0.268 C 
ATOM     25  C   UNL     1       0.015   1.801  -0.459  1.00  0.00     0.268 C 
ATOM     26  H   UNL     1      -0.078   3.764  -0.446  1.00  0.00     0.348 HD
BRANCH  21  27
ATOM     27  N   UNL     1       2.880   0.629  -0.214  1.00  0.00    -0.355 N 
ATOM     28  H   UNL     1       3.825   0.766   0.143  1.00  0.00     0.344 HD
ATOM     29  H   UNL     1       2.691   1.314  -0.946  1.00  0.00     0.344 HD
ATOM     30  H   UNL     1       2.795  -0.312  -0.599  1.00  0.00     0.344 HD
ENDBRANCH  21  27
ENDBRANCH  19  20
ENDBRANCH  16  19
ENDBRANCH   9  15
ENDBRANCH   6   8
ENDBRANCH   5   6
ENDBRANCH   4   5
ENDBRANCH   3   4
ENDBRANCH   2   3
ENDBRANCH   1   2
BRANCH   1  31
ATOM     31  C   UNL     1      -5.375   1.890   3.652  1.00  0.00     0.188 C 
BRANCH  31  32
ATOM     32  O   UNL     1      -4.742   2.817   4.506  1.00  0.00    -0.376 OA
BRANCH  32  33
ATOM     33  C   UNL     1      -5.503   3.390   5.557  1.00  0.00     0.202 C 
BRANCH  33  34
ATOM     34  C   UNL     1      -6.870   4.022   5.258  1.00  0.00     0.261 C 
BRANCH  34  35
ATOM     35  O   UNL     1      -7.777   3.164   4.543  1.00  0.00    -0.460 OA
BRANCH  35  36
ATOM     36  C   UNL     1      -8.132   3.596   3.305  1.00  0.00     0.338 C 
ATOM     37  O   UNL     1      -7.814   4.641   2.763  1.00  0.00    -0.246 OA
BRANCH  36  38
ATOM     38  C   UNL     1      -8.810   2.503   2.579  1.00  0.00     0.060 A 
ATOM     39  C   UNL     1      -8.250   2.049   1.374  1.00  0.00     0.016 A 
ATOM     40  C   UNL     1     -10.006   1.964   3.050  1.00  0.00     0.016 A 
ATOM     41  C   UNL     1      -8.900   1.071   0.620  1.00  0.00     0.010 A 
ATOM     42  C   UNL     1     -10.673   1.008   2.279  1.00  0.00     0.010 A 
ATOM     43  C   UNL     1     -10.139   0.581   1.048  1.00  0.00    -0.014 A 
BRANCH  43  44
ATOM     44  C   UNL     1     -10.995  -0.202   0.124  1.00  0.00     0.031 A 
ATOM     45  C   UNL     1     -12.017   0.541  -0.691  1.00  0.00     0.074 A 
ATOM     46  C   UNL     1     -10.891  -1.538   0.023  1.00  0.00     0.049 A 
ATOM     47  N   UNL     1     -12.979   0.078  -1.447  1.00  0.00    -0.248 NA
ATOM     48  C   UNL     1     -11.944   2.011  -0.639  1.00  0.00     0.031 C 
ATOM     49  C   UNL     1      -9.903  -2.367   0.707  1.00  0.00     0.029 A 
ATOM     50  N   UNL     1     -11.653  -2.434  -0.687  1.00  0.00    -0.354 N 
ATOM     51  C   UNL     1     -13.630   1.196  -1.951  1.00  0.00     0.074 A 
ATOM     52  C   UNL     1     -12.970   2.360  -1.400  1.00  0.00     0.031 C 
ATOM     53  C   UNL     1     -10.136  -3.658   0.405  1.00  0.00     0.029 A 
ATOM     54  C   UNL     1     -11.313  -3.745  -0.458  1.00  0.00     0.049 A 
ATOM     55  H   UNL     1     -12.373  -2.163  -1.301  1.00  0.00     0.167 HD
ATOM     56  C   UNL     1     -14.683   1.249  -2.800  1.00  0.00     0.037 A 
ATOM     57  C   UNL     1     -11.912  -4.880  -0.871  1.00  0.00     0.037 A 
ATOM     58  C   UNL     1     -15.350   0.093  -3.334  1.00  0.00     0.049 A 
ATOM     59  C   UNL     1     -13.151  -4.797  -1.730  1.00  0.00     0.074 A 
ATOM     60  C   UNL     1     -16.438   0.040  -4.186  1.00  0.00     0.029 A 
ATOM     61  N   UNL     1     -14.989  -1.218  -3.061  1.00  0.00    -0.354 N 
ATOM     62  N   UNL     1     -13.765  -3.739  -2.203  1.00  0.00    -0.248 NA
ATOM     63  C   UNL     1     -13.784  -6.070  -2.109  1.00  0.00     0.031 C 
ATOM     64  C   UNL     1     -16.764  -1.303  -4.395  1.00  0.00     0.029 A 
ATOM     65  C   UNL     1     -15.845  -2.087  -3.716  1.00  0.00     0.049 A 
ATOM     66  H   UNL     1     -14.237  -1.490  -2.487  1.00  0.00     0.167 HD
ATOM     67  C   UNL     1     -14.825  -4.218  -2.963  1.00  0.00     0.074 A 
ATOM     68  C   UNL     1     -14.772  -5.662  -2.892  1.00  0.00     0.031 C 
ATOM     69  C   UNL     1     -15.758  -3.524  -3.660  1.00  0.00     0.037 A 
BRANCH  56  70
ATOM     70  C   UNL     1     -15.196   2.606  -3.177  1.00  0.00     0.064 A 
ATOM     71  C   UNL     1     -14.474   3.451  -4.034  1.00  0.00     0.173 A 
ATOM     72  C   UNL     1     -16.433   3.058  -2.696  1.00  0.00     0.173 A 
ATOM     73  F   UNL     1     -13.277   3.071  -4.505  1.00  0.00    -0.203 F 
ATOM     74  C   UNL     1     -14.963   4.708  -4.378  1.00  0.00     0.198 A 
ATOM     75  C   UNL     1     -16.933   4.304  -3.065  1.00  0.00     0.198 A 
ATOM     76  F   UNL     1     -17.162   2.288  -1.874  1.00  0.00    -0.203 F 
ATOM     77  F   UNL     1     -14.236   5.517  -5.161  1.00  0.00    -0.200 F 
ATOM     78  C   UNL     1     -16.195   5.131  -3.899  1.00  0.00     0.200 A 
ATOM     79  F   UNL     1     -18.127   4.707  -2.609  1.00  0.00    -0.200 F 
ATOM     80  F   UNL     1     -16.667   6.339  -4.235  1.00  0.00    -0.200 F 
ENDBRANCH  56  70
BRANCH  57  81
ATOM     81  C   UNL     1     -11.376  -6.205  -0.461  1.00  0.00     0.064 A 
ATOM     82  C   UNL     1     -10.822  -7.082  -1.405  1.00  0.00     0.173 A 
ATOM     83  C   UNL     1     -11.450  -6.644   0.870  1.00  0.00     0.173 A 
ATOM     84  F   UNL     1     -10.757  -6.720  -2.695  1.00  0.00    -0.203 F 
ATOM     85  C   UNL     1     -10.387  -8.354  -1.040  1.00  0.00     0.198 A 
ATOM     86  C   UNL     1     -10.987  -7.905   1.239  1.00  0.00     0.198 A 
ATOM     87  F   UNL     1     -11.977  -5.848   1.811  1.00  0.00    -0.203 F 
ATOM     88  F   UNL     1      -9.916  -9.192  -1.973  1.00  0.00    -0.200 F 
ATOM     89  C   UNL     1     -10.466  -8.763   0.283  1.00  0.00     0.200 A 
ATOM     90  F   UNL     1     -11.059  -8.294   2.520  1.00  0.00    -0.200 F 
ATOM     91  F   UNL     1     -10.052  -9.989   0.633  1.00  0.00    -0.200 F 
ENDBRANCH  57  81
BRANCH  69  92
ATOM     92  C   UNL     1     -16.759  -4.307  -4.460  1.00  0.00     0.064 A 
ATOM     93  C   UNL     1     -17.808  -5.009  -3.851  1.00  0.00     0.173 A 
ATOM     94  C   UNL     1     -16.701  -4.298  -5.863  1.00  0.00     0.173 A 
ATOM     95  F   UNL     1     -17.900  -5.059  -2.513  1.00  0.00    -0.203 F 
ATOM     96  C   UNL     1     -18.754  -5.688  -4.616  1.00  0.00     0.198 A 
ATOM     97  C   UNL     1     -17.664  -4.953  -6.625  1.00  0.00     0.198 A 
ATOM     98  F   UNL     1     -15.722  -3.634  -6.495  1.00  0.00    -0.203 F 
ATOM     99  F   UNL     1     -19.727  -6.384  -4.012  1.00  0.00    -0.200 F 
ATOM    100  C   UNL     1     -18.686  -5.652  -6.001  1.00  0.00     0.200 A 
ATOM    101  F   UNL     1     -17.605  -4.904  -7.963  1.00  0.00    -0.200 F 
ATOM    102  F   UNL     1     -19.605  -6.294  -6.736  1.00  0.00    -0.200 F 
ENDBRANCH  69  92
ENDBRANCH  43  44
ENDBRANCH  36  38
ENDBRANCH  35  36
ENDBRANCH  34  35
ENDBRANCH  33  34
ENDBRANCH  32  33
ENDBRANCH  31  32
ENDBRANCH   1  31
TORSDOF 21
