REMARK SMILES CC[C@H](C)C[C@@H](C)[NH2+]Cc1cc(C(=O)OCCOCCOCCOC(=O)c2ccc(-c3c4nc(c(-c5c(F)c(F)c(F)c(F)c5F)c5ccc([nH]5)c(-c5c(F)c(F)c(F)c(F)c5F)c5nc(c(-c6c(F)c(F)c(F)c(F)c6F)c6ccc3[nH]6)C=C5)C=C4)cc2)cs1
REMARK SMILES IDX 17 1 16 2 15 3 13 4 14 5 12 6 10 7 11 8 91 9 90 10 9 11 8 12
REMARK SMILES IDX 6 15 7 16 5 17 3 18 4 19 2 20 1 21 18 22 19 23 20 24 21 25
REMARK SMILES IDX 22 26 23 27 24 28 25 29 26 30 27 31 28 32 89 33 29 34 88 35
REMARK SMILES IDX 30 36 31 37 32 38 82 39 33 40 87 41 81 42 83 43 34 44 86 45
REMARK SMILES IDX 80 46 79 47 35 49 67 50 47 51 66 52 48 53 51 54 65 55 84 56
REMARK SMILES IDX 49 57 50 58 64 60 85 61 52 62 36 63 37 64 45 65 38 66 39 67
REMARK SMILES IDX 43 68 46 69 40 70 41 71 44 72 42 73 68 74 69 75 77 76 70 77
REMARK SMILES IDX 71 78 75 79 78 80 72 81 73 82 76 83 74 84 53 85 54 86 62 87
REMARK SMILES IDX 55 88 56 89 60 90 63 91 57 92 58 93 61 94 59 95
REMARK H PARENT 8 13 8 14 83 48 51 59
REMARK Flexibility Score: inf
ROOT
ATOM      1  C   UNL     1       7.557   7.831  -4.966  1.00  0.00     0.202 C 
ENDROOT
BRANCH   1   2
ATOM      2  C   UNL     1       6.625   7.844  -6.182  1.00  0.00     0.261 C 
BRANCH   2   3
ATOM      3  O   UNL     1       5.529   6.920  -6.106  1.00  0.00    -0.460 OA
BRANCH   3   4
ATOM      4  C   UNL     1       5.637   5.821  -6.910  1.00  0.00     0.339 C 
ATOM      5  O   UNL     1       6.569   5.614  -7.680  1.00  0.00    -0.246 OA
BRANCH   4   6
ATOM      6  C   UNL     1       4.553   4.854  -6.723  1.00  0.00     0.071 A 
ATOM      7  C   UNL     1       2.523   3.872  -6.015  1.00  0.00     0.060 A 
ATOM      8  C   UNL     1       3.317   5.009  -6.000  1.00  0.00     0.037 A 
ATOM      9  S   UNL     1       3.244   2.642  -6.972  1.00  0.00    -0.142 S 
ATOM     10  C   UNL     1       4.632   3.583  -7.260  1.00  0.00     0.081 A 
BRANCH   7  11
ATOM     11  C   UNL     1       1.167   3.678  -5.375  1.00  0.00     0.308 C 
BRANCH  11  12
ATOM     12  N   UNL     1       0.836   2.299  -5.010  1.00  0.00    -0.340 N 
ATOM     13  H   UNL     1      -0.175   2.190  -5.096  1.00  0.00     0.346 HD
ATOM     14  H   UNL     1       1.381   1.715  -5.644  1.00  0.00     0.346 HD
BRANCH  12  15
ATOM     15  C   UNL     1       1.218   1.865  -3.657  1.00  0.00     0.179 C 
ATOM     16  C   UNL     1       2.735   1.806  -3.462  1.00  0.00     0.075 C 
BRANCH  15  17
ATOM     17  C   UNL     1       0.543   0.483  -3.429  1.00  0.00     0.068 C 
BRANCH  17  18
ATOM     18  C   UNL     1       0.919  -0.269  -2.130  1.00  0.00    -0.009 C 
ATOM     19  C   UNL     1       0.680   0.568  -0.872  1.00  0.00     0.008 C 
BRANCH  18  20
ATOM     20  C   UNL     1       0.217  -1.647  -2.058  1.00  0.00    -0.000 C 
ATOM     21  C   UNL     1      -1.196  -1.640  -1.492  1.00  0.00     0.004 C 
ENDBRANCH  18  20
ENDBRANCH  17  18
ENDBRANCH  15  17
ENDBRANCH  12  15
ENDBRANCH  11  12
ENDBRANCH   7  11
ENDBRANCH   4   6
ENDBRANCH   3   4
ENDBRANCH   2   3
ENDBRANCH   1   2
BRANCH   1  22
ATOM     22  O   UNL     1       8.002   6.574  -4.482  1.00  0.00    -0.376 OA
BRANCH  22  23
ATOM     23  C   UNL     1       7.078   5.645  -3.927  1.00  0.00     0.188 C 
BRANCH  23  24
ATOM     24  C   UNL     1       5.806   6.106  -3.187  1.00  0.00     0.188 C 
BRANCH  24  25
ATOM     25  O   UNL     1       5.793   7.474  -2.814  1.00  0.00    -0.376 OA
BRANCH  25  26
ATOM     26  C   UNL     1       5.809   7.741  -1.418  1.00  0.00     0.202 C 
BRANCH  26  27
ATOM     27  C   UNL     1       7.177   7.545  -0.756  1.00  0.00     0.261 C 
BRANCH  27  28
ATOM     28  O   UNL     1       7.731   6.225  -0.884  1.00  0.00    -0.460 OA
BRANCH  28  29
ATOM     29  C   UNL     1       7.117   5.236  -0.199  1.00  0.00     0.338 C 
ATOM     30  O   UNL     1       6.123   5.327   0.498  1.00  0.00    -0.246 OA
BRANCH  29  31
ATOM     31  C   UNL     1       7.772   3.962  -0.560  1.00  0.00     0.060 A 
ATOM     32  C   UNL     1       6.996   2.925  -1.090  1.00  0.00     0.016 A 
ATOM     33  C   UNL     1       9.147   3.794  -0.371  1.00  0.00     0.016 A 
ATOM     34  C   UNL     1       7.594   1.704  -1.411  1.00  0.00     0.010 A 
ATOM     35  C   UNL     1       9.740   2.567  -0.678  1.00  0.00     0.010 A 
ATOM     36  C   UNL     1       8.963   1.507  -1.176  1.00  0.00    -0.014 A 
BRANCH  36  37
ATOM     37  C   UNL     1       9.557   0.153  -1.301  1.00  0.00     0.031 A 
ATOM     38  C   UNL     1       9.665  -0.704  -0.071  1.00  0.00     0.074 A 
ATOM     39  C   UNL     1      10.002  -0.308  -2.483  1.00  0.00     0.049 A 
ATOM     40  N   UNL     1      10.179  -1.899   0.070  1.00  0.00    -0.248 NA
ATOM     41  C   UNL     1       9.120  -0.132   1.170  1.00  0.00     0.031 C 
ATOM     42  C   UNL     1       9.938   0.414  -3.751  1.00  0.00     0.029 A 
ATOM     43  N   UNL     1      10.609  -1.498  -2.801  1.00  0.00    -0.354 N 
ATOM     44  C   UNL     1      10.018  -2.222   1.410  1.00  0.00     0.074 A 
ATOM     45  C   UNL     1       9.386  -1.087   2.048  1.00  0.00     0.031 C 
ATOM     46  C   UNL     1      10.498  -0.344  -4.711  1.00  0.00     0.029 A 
ATOM     47  C   UNL     1      10.981  -1.591  -4.119  1.00  0.00     0.049 A 
ATOM     48  H   UNL     1      10.764  -2.216  -2.145  1.00  0.00     0.167 HD
ATOM     49  C   UNL     1      10.359  -3.365   2.051  1.00  0.00     0.037 A 
ATOM     50  C   UNL     1      11.651  -2.565  -4.767  1.00  0.00     0.037 A 
ATOM     51  C   UNL     1      10.999  -4.490   1.424  1.00  0.00     0.049 A 
ATOM     52  C   UNL     1      12.081  -3.800  -4.017  1.00  0.00     0.074 A 
ATOM     53  C   UNL     1      11.365  -5.700   1.988  1.00  0.00     0.029 A 
ATOM     54  N   UNL     1      11.379  -4.538   0.092  1.00  0.00    -0.354 N 
ATOM     55  N   UNL     1      11.889  -4.115  -2.759  1.00  0.00    -0.248 NA
ATOM     56  C   UNL     1      12.820  -4.817  -4.780  1.00  0.00     0.031 C 
ATOM     57  C   UNL     1      12.007  -6.463   1.006  1.00  0.00     0.029 A 
ATOM     58  C   UNL     1      11.999  -5.747  -0.180  1.00  0.00     0.049 A 
ATOM     59  H   UNL     1      11.230  -3.819  -0.565  1.00  0.00     0.167 HD
ATOM     60  C   UNL     1      12.456  -5.372  -2.587  1.00  0.00     0.074 A 
ATOM     61  C   UNL     1      12.993  -5.767  -3.872  1.00  0.00     0.031 C 
ATOM     62  C   UNL     1      12.521  -6.131  -1.466  1.00  0.00     0.037 A 
BRANCH  49  63
ATOM     63  C   UNL     1      10.064  -3.442   3.519  1.00  0.00     0.064 A 
ATOM     64  C   UNL     1       8.753  -3.589   3.997  1.00  0.00     0.173 A 
ATOM     65  C   UNL     1      11.105  -3.387   4.457  1.00  0.00     0.173 A 
ATOM     66  F   UNL     1       7.723  -3.630   3.139  1.00  0.00    -0.203 F 
ATOM     67  C   UNL     1       8.493  -3.653   5.363  1.00  0.00     0.198 A 
ATOM     68  C   UNL     1      10.843  -3.477   5.822  1.00  0.00     0.198 A 
ATOM     69  F   UNL     1      12.376  -3.248   4.051  1.00  0.00    -0.203 F 
ATOM     70  F   UNL     1       7.229  -3.748   5.799  1.00  0.00    -0.200 F 
ATOM     71  C   UNL     1       9.538  -3.603   6.274  1.00  0.00     0.200 A 
ATOM     72  F   UNL     1      11.854  -3.436   6.700  1.00  0.00    -0.200 F 
ATOM     73  F   UNL     1       9.286  -3.666   7.588  1.00  0.00    -0.200 F 
ENDBRANCH  49  63
BRANCH  50  74
ATOM     74  C   UNL     1      11.966  -2.413  -6.210  1.00  0.00     0.064 A 
ATOM     75  C   UNL     1      11.330  -3.204  -7.176  1.00  0.00     0.173 A 
ATOM     76  C   UNL     1      12.924  -1.488  -6.651  1.00  0.00     0.173 A 
ATOM     77  F   UNL     1      10.430  -4.125  -6.800  1.00  0.00    -0.203 F 
ATOM     78  C   UNL     1      11.650  -3.085  -8.528  1.00  0.00     0.198 A 
ATOM     79  C   UNL     1      13.225  -1.353  -8.004  1.00  0.00     0.198 A 
ATOM     80  F   UNL     1      13.567  -0.714  -5.764  1.00  0.00    -0.203 F 
ATOM     81  F   UNL     1      11.058  -3.884  -9.426  1.00  0.00    -0.200 F 
ATOM     82  C   UNL     1      12.592  -2.156  -8.941  1.00  0.00     0.200 A 
ATOM     83  F   UNL     1      14.133  -0.450  -8.400  1.00  0.00    -0.200 F 
ATOM     84  F   UNL     1      12.899  -2.042 -10.241  1.00  0.00    -0.200 F 
ENDBRANCH  50  74
BRANCH  62  85
ATOM     85  C   UNL     1      13.165  -7.482  -1.580  1.00  0.00     0.064 A 
ATOM     86  C   UNL     1      14.555  -7.627  -1.702  1.00  0.00     0.173 A 
ATOM     87  C   UNL     1      12.386  -8.647  -1.515  1.00  0.00     0.173 A 
ATOM     88  F   UNL     1      15.342  -6.544  -1.782  1.00  0.00    -0.203 F 
ATOM     89  C   UNL     1      15.138  -8.890  -1.772  1.00  0.00     0.198 A 
ATOM     90  C   UNL     1      12.974  -9.908  -1.560  1.00  0.00     0.198 A 
ATOM     91  F   UNL     1      11.052  -8.562  -1.391  1.00  0.00    -0.203 F 
ATOM     92  F   UNL     1      16.465  -9.005  -1.926  1.00  0.00    -0.200 F 
ATOM     93  C   UNL     1      14.349 -10.028  -1.694  1.00  0.00     0.200 A 
ATOM     94  F   UNL     1      12.211 -11.006  -1.471  1.00  0.00    -0.200 F 
ATOM     95  F   UNL     1      14.914 -11.242  -1.753  1.00  0.00    -0.200 F 
ENDBRANCH  62  85
ENDBRANCH  36  37
ENDBRANCH  29  31
ENDBRANCH  28  29
ENDBRANCH  27  28
ENDBRANCH  26  27
ENDBRANCH  25  26
ENDBRANCH  24  25
ENDBRANCH  23  24
ENDBRANCH  22  23
ENDBRANCH   1  22
TORSDOF 23
