REMARK SMILES CCOc1ccc(N2C[C@H](C(=O)OCCOCCOCCOC(=O)c3ccc(-c4c5nc(c(-c6c(F)c(F)c(F)c(F)c6F)c6ccc([nH]6)c(-c6c(F)c(F)c(F)c(F)c6F)c6nc(c(-c7c(F)c(F)c(F)c(F)c7F)c7ccc4[nH]7)C=C6)C=C5)cc3)CC2=O)cc1C(F)(F)F
REMARK SMILES IDX 17 1 16 2 15 3 14 4 13 5 11 6 12 7 10 8 8 9 9 10 89 11 88 12
REMARK SMILES IDX 90 13 7 14 4 15 5 16 92 17 6 18 91 19 3 20 2 21 1 22 93 23
REMARK SMILES IDX 94 24 95 25 96 26 18 27 19 28 20 29 21 30 22 31 23 32 24 33
REMARK SMILES IDX 25 34 26 35 87 36 27 37 86 38 28 39 29 40 30 41 80 42 31 43
REMARK SMILES IDX 85 44 79 45 81 46 32 47 84 48 78 49 77 50 33 52 65 53 45 54
REMARK SMILES IDX 64 55 46 56 49 57 63 58 82 59 47 60 48 61 62 63 83 64 50 65
REMARK SMILES IDX 34 66 35 67 43 68 36 69 37 70 41 71 44 72 38 73 39 74 42 75
REMARK SMILES IDX 40 76 66 77 67 78 75 79 68 80 69 81 73 82 76 83 70 84 71 85
REMARK SMILES IDX 74 86 72 87 51 88 52 89 60 90 53 91 54 92 58 93 61 94 55 95
REMARK SMILES IDX 56 96 59 97 57 98
REMARK H PARENT 81 51 49 62
REMARK Flexibility Score: inf
ROOT
ATOM      1  C   UNL     1       8.909  -6.135   4.337  1.00  0.00     0.188 C 
ENDROOT
BRANCH   1   2
ATOM      2  O   UNL     1       9.226  -6.224   5.720  1.00  0.00    -0.376 OA
BRANCH   2   3
ATOM      3  C   UNL     1       8.334  -5.586   6.632  1.00  0.00     0.202 C 
BRANCH   3   4
ATOM      4  C   UNL     1       8.257  -4.053   6.569  1.00  0.00     0.261 C 
BRANCH   4   5
ATOM      5  O   UNL     1       7.960  -3.518   5.263  1.00  0.00    -0.463 OA
BRANCH   5   6
ATOM      6  C   UNL     1       8.986  -2.895   4.635  1.00  0.00     0.311 C 
ATOM      7  O   UNL     1      10.106  -2.735   5.109  1.00  0.00    -0.252 OA
BRANCH   6   8
ATOM      8  C   UNL     1       8.659  -2.423   3.234  1.00  0.00     0.128 C 
ATOM      9  N   UNL     1       6.468  -1.696   2.789  1.00  0.00    -0.312 N 
ATOM     10  C   UNL     1       7.331  -2.835   2.616  1.00  0.00     0.141 C 
ATOM     11  C   UNL     1       7.169  -0.590   3.283  1.00  0.00     0.227 C 
ATOM     12  C   UNL     1       8.633  -0.907   3.248  1.00  0.00     0.117 C 
ATOM     13  O   UNL     1       6.731   0.490   3.649  1.00  0.00    -0.274 OA
BRANCH   9  14
ATOM     14  C   UNL     1       5.115  -1.657   2.371  1.00  0.00     0.044 A 
ATOM     15  C   UNL     1       2.400  -1.423   1.630  1.00  0.00     0.131 A 
ATOM     16  C   UNL     1       2.942  -2.670   1.968  1.00  0.00     0.049 A 
ATOM     17  C   UNL     1       3.206  -0.287   1.638  1.00  0.00     0.100 A 
ATOM     18  C   UNL     1       4.300  -2.790   2.312  1.00  0.00     0.030 A 
ATOM     19  C   UNL     1       4.557  -0.432   1.990  1.00  0.00     0.043 A 
BRANCH  15  20
ATOM     20  O   UNL     1       1.050  -1.299   1.470  1.00  0.00    -0.493 OA
BRANCH  20  21
ATOM     21  C   UNL     1       0.572  -1.664   0.171  1.00  0.00     0.226 C 
ATOM     22  C   UNL     1       0.231  -0.414  -0.623  1.00  0.00     0.049 C 
ENDBRANCH  20  21
ENDBRANCH  15  20
BRANCH  17  23
ATOM     23  C   UNL     1       2.728   1.083   1.249  1.00  0.00     0.420 C 
ATOM     24  F   UNL     1       3.447   2.084   1.836  1.00  0.00    -0.166 F 
ATOM     25  F   UNL     1       2.856   1.299  -0.092  1.00  0.00    -0.166 F 
ATOM     26  F   UNL     1       1.430   1.351   1.555  1.00  0.00    -0.166 F 
ENDBRANCH  17  23
ENDBRANCH   9  14
ENDBRANCH   6   8
ENDBRANCH   5   6
ENDBRANCH   4   5
ENDBRANCH   3   4
ENDBRANCH   2   3
ENDBRANCH   1   2
BRANCH   1  27
ATOM     27  C   UNL     1       7.499  -6.560   3.934  1.00  0.00     0.188 C 
BRANCH  27  28
ATOM     28  O   UNL     1       6.446  -5.915   4.631  1.00  0.00    -0.376 OA
BRANCH  28  29
ATOM     29  C   UNL     1       5.113  -6.385   4.411  1.00  0.00     0.202 C 
BRANCH  29  30
ATOM     30  C   UNL     1       4.877  -7.895   4.198  1.00  0.00     0.261 C 
BRANCH  30  31
ATOM     31  O   UNL     1       5.631  -8.515   3.132  1.00  0.00    -0.460 OA
BRANCH  31  32
ATOM     32  C   UNL     1       5.614  -7.924   1.914  1.00  0.00     0.338 C 
ATOM     33  O   UNL     1       4.845  -7.060   1.543  1.00  0.00    -0.246 OA
BRANCH  32  34
ATOM     34  C   UNL     1       6.872  -8.286   1.190  1.00  0.00     0.060 A 
ATOM     35  C   UNL     1       7.452  -7.304   0.373  1.00  0.00     0.016 A 
ATOM     36  C   UNL     1       7.528  -9.510   1.364  1.00  0.00     0.016 A 
ATOM     37  C   UNL     1       8.639  -7.562  -0.316  1.00  0.00     0.010 A 
ATOM     38  C   UNL     1       8.716  -9.773   0.663  1.00  0.00     0.010 A 
ATOM     39  C   UNL     1       9.252  -8.818  -0.219  1.00  0.00    -0.014 A 
BRANCH  39  40
ATOM     40  C   UNL     1      10.296  -9.184  -1.216  1.00  0.00     0.031 A 
ATOM     41  C   UNL     1       9.883 -10.001  -2.412  1.00  0.00     0.074 A 
ATOM     42  C   UNL     1      11.566  -8.748  -1.123  1.00  0.00     0.049 A 
ATOM     43  N   UNL     1      10.588 -10.392  -3.445  1.00  0.00    -0.248 NA
ATOM     44  C   UNL     1       8.479 -10.436  -2.446  1.00  0.00     0.031 C 
ATOM     45  C   UNL     1      12.104  -7.931  -0.039  1.00  0.00     0.029 A 
ATOM     46  N   UNL     1      12.635  -8.937  -1.968  1.00  0.00    -0.354 N 
ATOM     47  C   UNL     1       9.716 -11.121  -4.243  1.00  0.00     0.074 A 
ATOM     48  C   UNL     1       8.443 -11.153  -3.557  1.00  0.00     0.031 C 
ATOM     49  C   UNL     1      13.407  -7.695  -0.280  1.00  0.00     0.029 A 
ATOM     50  C   UNL     1      13.800  -8.361  -1.523  1.00  0.00     0.049 A 
ATOM     51  H   UNL     1      12.571  -9.438  -2.813  1.00  0.00     0.167 HD
ATOM     52  C   UNL     1       9.945 -11.704  -5.444  1.00  0.00     0.037 A 
ATOM     53  C   UNL     1      15.042  -8.381  -2.048  1.00  0.00     0.037 A 
ATOM     54  C   UNL     1      11.209 -11.681  -6.133  1.00  0.00     0.049 A 
ATOM     55  C   UNL     1      15.290  -9.075  -3.365  1.00  0.00     0.074 A 
ATOM     56  C   UNL     1      11.526 -12.213  -7.370  1.00  0.00     0.029 A 
ATOM     57  N   UNL     1      12.372 -11.113  -5.634  1.00  0.00    -0.354 N 
ATOM     58  N   UNL     1      14.448  -9.719  -4.137  1.00  0.00    -0.248 NA
ATOM     59  C   UNL     1      16.663  -9.030  -3.890  1.00  0.00     0.031 C 
ATOM     60  C   UNL     1      12.896 -12.031  -7.588  1.00  0.00     0.029 A 
ATOM     61  C   UNL     1      13.418 -11.314  -6.523  1.00  0.00     0.049 A 
ATOM     62  H   UNL     1      12.445 -10.636  -4.776  1.00  0.00     0.167 HD
ATOM     63  C   UNL     1      15.179 -10.130  -5.247  1.00  0.00     0.074 A 
ATOM     64  C   UNL     1      16.530  -9.646  -5.056  1.00  0.00     0.031 C 
ATOM     65  C   UNL     1      14.766 -10.840  -6.327  1.00  0.00     0.037 A 
BRANCH  52  66
ATOM     66  C   UNL     1       8.806 -12.463  -6.066  1.00  0.00     0.064 A 
ATOM     67  C   UNL     1       7.650 -11.822  -6.539  1.00  0.00     0.173 A 
ATOM     68  C   UNL     1       8.873 -13.860  -6.186  1.00  0.00     0.173 A 
ATOM     69  F   UNL     1       7.526 -10.490  -6.434  1.00  0.00    -0.203 F 
ATOM     70  C   UNL     1       6.588 -12.554  -7.064  1.00  0.00     0.198 A 
ATOM     71  C   UNL     1       7.826 -14.585  -6.747  1.00  0.00     0.198 A 
ATOM     72  F   UNL     1       9.955 -14.525  -5.754  1.00  0.00    -0.203 F 
ATOM     73  F   UNL     1       5.465 -11.926  -7.440  1.00  0.00    -0.200 F 
ATOM     74  C   UNL     1       6.679 -13.933  -7.173  1.00  0.00     0.200 A 
ATOM     75  F   UNL     1       7.922 -15.916  -6.864  1.00  0.00    -0.200 F 
ATOM     76  F   UNL     1       5.655 -14.636  -7.677  1.00  0.00    -0.200 F 
ENDBRANCH  52  66
BRANCH  53  77
ATOM     77  C   UNL     1      16.161  -7.728  -1.315  1.00  0.00     0.064 A 
ATOM     78  C   UNL     1      16.792  -6.578  -1.810  1.00  0.00     0.173 A 
ATOM     79  C   UNL     1      16.629  -8.256  -0.102  1.00  0.00     0.173 A 
ATOM     80  F   UNL     1      16.404  -6.054  -2.982  1.00  0.00    -0.203 F 
ATOM     81  C   UNL     1      17.854  -5.988  -1.125  1.00  0.00     0.198 A 
ATOM     82  C   UNL     1      17.669  -7.647   0.597  1.00  0.00     0.198 A 
ATOM     83  F   UNL     1      16.066  -9.360   0.411  1.00  0.00    -0.203 F 
ATOM     84  F   UNL     1      18.468  -4.916  -1.643  1.00  0.00    -0.200 F 
ATOM     85  C   UNL     1      18.285  -6.517   0.082  1.00  0.00     0.200 A 
ATOM     86  F   UNL     1      18.074  -8.156   1.768  1.00  0.00    -0.200 F 
ATOM     87  F   UNL     1      19.298  -5.943   0.745  1.00  0.00    -0.200 F 
ENDBRANCH  53  77
BRANCH  65  88
ATOM     88  C   UNL     1      15.776 -11.108  -7.412  1.00  0.00     0.064 A 
ATOM     89  C   UNL     1      16.875 -11.958  -7.215  1.00  0.00     0.173 A 
ATOM     90  C   UNL     1      15.631 -10.516  -8.678  1.00  0.00     0.173 A 
ATOM     91  F   UNL     1      17.069 -12.546  -6.025  1.00  0.00    -0.203 F 
ATOM     92  C   UNL     1      17.812 -12.168  -8.225  1.00  0.00     0.198 A 
ATOM     93  C   UNL     1      16.549 -10.759  -9.697  1.00  0.00     0.198 A 
ATOM     94  F   UNL     1      14.594  -9.704  -8.931  1.00  0.00    -0.203 F 
ATOM     95  F   UNL     1      18.889 -12.931  -7.989  1.00  0.00    -0.200 F 
ATOM     96  C   UNL     1      17.646 -11.573  -9.466  1.00  0.00     0.200 A 
ATOM     97  F   UNL     1      16.374 -10.198 -10.902  1.00  0.00    -0.200 F 
ATOM     98  F   UNL     1      18.548 -11.776 -10.436  1.00  0.00    -0.200 F 
ENDBRANCH  65  88
ENDBRANCH  39  40
ENDBRANCH  32  34
ENDBRANCH  31  32
ENDBRANCH  30  31
ENDBRANCH  29  30
ENDBRANCH  28  29
ENDBRANCH  27  28
ENDBRANCH   1  27
TORSDOF 21
