REMARK SMILES O=C1C[C@@H](c2cccc(O)c2)c2c(c(C(=O)OCCOCCOCCOC(=O)c3ccc(-c4c5nc(c(-c6c(F)c(F)c(F)c(F)c6F)c6ccc([nH]6)c(-c6c(F)c(F)c(F)c(F)c6F)c6nc(c(-c7c(F)c(F)c(F)c(F)c7F)c7ccc4[nH]7)C=C6)C=C5)cc3)cn2-c2cccc(C(F)(F)F)c2)N1
REMARK SMILES IDX 21 1 20 2 19 3 18 4 17 5 15 6 16 7 14 8 1 9 2 10 3 11 104 12
REMARK SMILES IDX 4 13 13 14 12 16 93 17 92 18 5 19 6 20 11 21 7 22 9 23 8 24
REMARK SMILES IDX 10 25 94 27 95 28 103 29 96 30 98 31 97 32 99 33 100 34
REMARK SMILES IDX 101 35 102 36 22 37 23 38 24 39 25 40 26 41 27 42 28 43
REMARK SMILES IDX 29 44 30 45 91 46 31 47 90 48 32 49 33 50 34 51 84 52 35 53
REMARK SMILES IDX 89 54 83 55 85 56 36 57 88 58 82 59 81 60 37 62 69 63 49 64
REMARK SMILES IDX 68 65 50 66 53 67 67 68 86 69 51 70 52 71 66 73 87 74 54 75
REMARK SMILES IDX 38 76 39 77 47 78 40 79 41 80 45 81 48 82 42 83 43 84 46 85
REMARK SMILES IDX 44 86 70 87 71 88 79 89 72 90 73 91 77 92 80 93 74 94 75 95
REMARK SMILES IDX 78 96 76 97 55 98 56 99 64 100 57 101 58 102 62 103 65 104
REMARK SMILES IDX 59 105 60 106 63 107 61 108
REMARK H PARENT 104 15 10 26 85 61 53 72
REMARK Flexibility Score: inf
ROOT
ATOM      1  C   UNL     1       3.043  -4.226   2.107  1.00  0.00     0.188 C 
ENDROOT
BRANCH   1   2
ATOM      2  O   UNL     1       3.331  -5.600   2.029  1.00  0.00    -0.376 OA
BRANCH   2   3
ATOM      3  C   UNL     1       4.657  -6.085   1.904  1.00  0.00     0.202 C 
BRANCH   3   4
ATOM      4  C   UNL     1       5.937  -5.252   1.673  1.00  0.00     0.261 C 
BRANCH   4   5
ATOM      5  O   UNL     1       5.916  -3.861   1.993  1.00  0.00    -0.460 OA
BRANCH   5   6
ATOM      6  C   UNL     1       5.743  -3.017   0.938  1.00  0.00     0.341 C 
ATOM      7  O   UNL     1       5.633  -3.378  -0.231  1.00  0.00    -0.246 OA
BRANCH   6   8
ATOM      8  C   UNL     1       5.487  -1.651   1.355  1.00  0.00     0.102 A 
ATOM      9  O   UNL     1       1.686  -0.331  -1.210  1.00  0.00    -0.275 OA
ATOM     10  C   UNL     1       2.674  -0.056  -0.532  1.00  0.00     0.225 C 
ATOM     11  C   UNL     1       3.140   1.373  -0.305  1.00  0.00     0.115 C 
ATOM     12  N   UNL     1       3.503  -1.043  -0.065  1.00  0.00    -0.324 N 
ATOM     13  C   UNL     1       3.766   1.631   1.083  1.00  0.00     0.078 C 
ATOM     14  C   UNL     1       4.475  -0.793   0.874  1.00  0.00     0.078 A 
ATOM     15  H   UNL     1       3.399  -1.958  -0.412  1.00  0.00     0.170 HD
ATOM     16  C   UNL     1       4.550   0.421   1.522  1.00  0.00     0.055 A 
ATOM     17  N   UNL     1       5.576   0.333   2.455  1.00  0.00    -0.317 N 
ATOM     18  C   UNL     1       6.148  -0.928   2.331  1.00  0.00     0.109 A 
BRANCH  13  19
ATOM     19  C   UNL     1       2.699   2.137   2.034  1.00  0.00    -0.035 A 
ATOM     20  C   UNL     1       1.671   1.328   2.538  1.00  0.00     0.005 A 
ATOM     21  C   UNL     1       2.725   3.495   2.403  1.00  0.00     0.050 A 
ATOM     22  C   UNL     1       0.716   1.861   3.411  1.00  0.00     0.004 A 
ATOM     23  C   UNL     1       1.789   4.006   3.293  1.00  0.00     0.115 A 
ATOM     24  C   UNL     1       0.779   3.201   3.799  1.00  0.00     0.046 A 
BRANCH  23  25
ATOM     25  O   UNL     1       1.922   5.311   3.663  1.00  0.00    -0.508 OA
ATOM     26  H   UNL     1       1.310   5.692   4.262  1.00  0.00     0.293 HD
ENDBRANCH  23  25
ENDBRANCH  13  19
BRANCH  17  27
ATOM     27  C   UNL     1       6.048   1.314   3.368  1.00  0.00     0.046 A 
ATOM     28  C   UNL     1       7.429   1.504   3.505  1.00  0.00     0.026 A 
ATOM     29  C   UNL     1       5.166   2.049   4.166  1.00  0.00     0.039 A 
ATOM     30  C   UNL     1       7.917   2.476   4.379  1.00  0.00     0.003 A 
ATOM     31  C   UNL     1       5.649   3.025   5.056  1.00  0.00     0.058 A 
ATOM     32  C   UNL     1       7.033   3.241   5.140  1.00  0.00     0.013 A 
BRANCH  31  33
ATOM     33  C   UNL     1       4.717   3.839   5.925  1.00  0.00     0.416 C 
ATOM     34  F   UNL     1       5.085   3.815   7.239  1.00  0.00    -0.166 F 
ATOM     35  F   UNL     1       4.696   5.155   5.576  1.00  0.00    -0.166 F 
ATOM     36  F   UNL     1       3.423   3.420   5.904  1.00  0.00    -0.166 F 
ENDBRANCH  31  33
ENDBRANCH  17  27
ENDBRANCH   6   8
ENDBRANCH   5   6
ENDBRANCH   4   5
ENDBRANCH   3   4
ENDBRANCH   2   3
ENDBRANCH   1   2
BRANCH   1  37
ATOM     37  C   UNL     1       3.345  -3.480   3.420  1.00  0.00     0.188 C 
BRANCH  37  38
ATOM     38  O   UNL     1       4.250  -4.017   4.360  1.00  0.00    -0.376 OA
BRANCH  38  39
ATOM     39  C   UNL     1       4.002  -5.214   5.074  1.00  0.00     0.202 C 
BRANCH  39  40
ATOM     40  C   UNL     1       2.628  -5.826   5.331  1.00  0.00     0.261 C 
BRANCH  40  41
ATOM     41  O   UNL     1       1.607  -5.504   4.411  1.00  0.00    -0.460 OA
BRANCH  41  42
ATOM     42  C   UNL     1       0.800  -4.514   4.843  1.00  0.00     0.338 C 
ATOM     43  O   UNL     1       1.017  -3.715   5.738  1.00  0.00    -0.246 OA
BRANCH  42  44
ATOM     44  C   UNL     1      -0.476  -4.606   4.140  1.00  0.00     0.060 A 
ATOM     45  C   UNL     1      -1.318  -3.495   4.216  1.00  0.00     0.016 A 
ATOM     46  C   UNL     1      -0.921  -5.863   3.707  1.00  0.00     0.016 A 
ATOM     47  C   UNL     1      -2.667  -3.695   4.045  1.00  0.00     0.010 A 
ATOM     48  C   UNL     1      -2.271  -6.064   3.555  1.00  0.00     0.010 A 
ATOM     49  C   UNL     1      -3.128  -4.995   3.808  1.00  0.00    -0.014 A 
BRANCH  49  50
ATOM     50  C   UNL     1      -4.558  -5.201   3.781  1.00  0.00     0.031 A 
ATOM     51  C   UNL     1      -5.200  -4.706   2.548  1.00  0.00     0.074 A 
ATOM     52  C   UNL     1      -5.198  -5.864   4.761  1.00  0.00     0.049 A 
ATOM     53  N   UNL     1      -6.108  -3.796   2.442  1.00  0.00    -0.248 NA
ATOM     54  C   UNL     1      -4.672  -5.193   1.263  1.00  0.00     0.031 C 
ATOM     55  C   UNL     1      -4.600  -6.620   5.865  1.00  0.00     0.029 A 
ATOM     56  N   UNL     1      -6.531  -6.099   4.908  1.00  0.00    -0.354 N 
ATOM     57  C   UNL     1      -6.404  -3.729   1.086  1.00  0.00     0.074 A 
ATOM     58  C   UNL     1      -5.386  -4.476   0.397  1.00  0.00     0.031 C 
ATOM     59  C   UNL     1      -5.547  -7.405   6.426  1.00  0.00     0.029 A 
ATOM     60  C   UNL     1      -6.827  -7.121   5.799  1.00  0.00     0.049 A 
ATOM     61  H   UNL     1      -7.222  -5.590   4.426  1.00  0.00     0.167 HD
ATOM     62  C   UNL     1      -7.623  -3.301   0.668  1.00  0.00     0.037 A 
ATOM     63  C   UNL     1      -8.024  -7.742   5.939  1.00  0.00     0.037 A 
ATOM     64  C   UNL     1      -8.274  -2.505   1.676  1.00  0.00     0.049 A 
ATOM     65  C   UNL     1      -9.059  -6.865   5.338  1.00  0.00     0.074 A 
ATOM     66  C   UNL     1      -7.972  -1.326   2.328  1.00  0.00     0.029 A 
ATOM     67  N   UNL     1      -9.270  -3.097   2.408  1.00  0.00    -0.354 N 
ATOM     68  N   UNL     1      -9.451  -5.732   5.847  1.00  0.00    -0.248 NA
ATOM     69  C   UNL     1      -9.402  -7.068   3.938  1.00  0.00     0.031 C 
ATOM     70  C   UNL     1      -8.496  -1.478   3.646  1.00  0.00     0.029 A 
ATOM     71  C   UNL     1      -9.124  -2.721   3.717  1.00  0.00     0.049 A 
ATOM     72  H   UNL     1      -9.971  -3.691   2.054  1.00  0.00     0.167 HD
ATOM     73  C   UNL     1      -9.676  -4.916   4.750  1.00  0.00     0.074 A 
ATOM     74  C   UNL     1      -9.769  -5.826   3.614  1.00  0.00     0.031 C 
ATOM     75  C   UNL     1      -9.471  -3.570   4.833  1.00  0.00     0.037 A 
BRANCH  62  76
ATOM     76  C   UNL     1      -8.378  -3.964  -0.458  1.00  0.00     0.064 A 
ATOM     77  C   UNL     1      -9.581  -3.385  -0.904  1.00  0.00     0.173 A 
ATOM     78  C   UNL     1      -8.143  -5.290  -0.891  1.00  0.00     0.173 A 
ATOM     79  F   UNL     1      -9.919  -2.142  -0.528  1.00  0.00    -0.203 F 
ATOM     80  C   UNL     1     -10.512  -4.107  -1.654  1.00  0.00     0.198 A 
ATOM     81  C   UNL     1      -9.047  -5.986  -1.688  1.00  0.00     0.198 A 
ATOM     82  F   UNL     1      -7.098  -6.010  -0.467  1.00  0.00    -0.203 F 
ATOM     83  F   UNL     1     -11.703  -3.562  -1.936  1.00  0.00    -0.200 F 
ATOM     84  C   UNL     1     -10.247  -5.408  -2.041  1.00  0.00     0.200 A 
ATOM     85  F   UNL     1      -8.781  -7.254  -2.032  1.00  0.00    -0.200 F 
ATOM     86  F   UNL     1     -11.165  -6.123  -2.703  1.00  0.00    -0.200 F 
ENDBRANCH  62  76
BRANCH  63  87
ATOM     87  C   UNL     1      -8.303  -9.152   6.299  1.00  0.00     0.064 A 
ATOM     88  C   UNL     1      -9.595  -9.555   6.675  1.00  0.00     0.173 A 
ATOM     89  C   UNL     1      -7.386 -10.182   6.014  1.00  0.00     0.173 A 
ATOM     90  F   UNL     1     -10.543  -8.640   6.924  1.00  0.00    -0.203 F 
ATOM     91  C   UNL     1      -9.957 -10.905   6.728  1.00  0.00     0.198 A 
ATOM     92  C   UNL     1      -7.744 -11.529   6.081  1.00  0.00     0.198 A 
ATOM     93  F   UNL     1      -6.152  -9.905   5.570  1.00  0.00    -0.203 F 
ATOM     94  F   UNL     1     -11.220 -11.247   7.019  1.00  0.00    -0.200 F 
ATOM     95  C   UNL     1      -9.034 -11.890   6.420  1.00  0.00     0.200 A 
ATOM     96  F   UNL     1      -6.849 -12.470   5.749  1.00  0.00    -0.200 F 
ATOM     97  F   UNL     1      -9.396 -13.180   6.409  1.00  0.00    -0.200 F 
ENDBRANCH  63  87
BRANCH  75  98
ATOM     98  C   UNL     1      -9.378  -2.970   6.208  1.00  0.00     0.064 A 
ATOM     99  C   UNL     1      -8.396  -3.303   7.157  1.00  0.00     0.173 A 
ATOM    100  C   UNL     1     -10.274  -1.943   6.539  1.00  0.00     0.173 A 
ATOM    101  F   UNL     1      -7.438  -4.197   6.878  1.00  0.00    -0.203 F 
ATOM    102  C   UNL     1      -8.358  -2.679   8.403  1.00  0.00     0.198 A 
ATOM    103  C   UNL     1     -10.206  -1.292   7.766  1.00  0.00     0.198 A 
ATOM    104  F   UNL     1     -11.198  -1.545   5.651  1.00  0.00    -0.203 F 
ATOM    105  F   UNL     1      -7.432  -3.036   9.306  1.00  0.00    -0.200 F 
ATOM    106  C   UNL     1      -9.259  -1.671   8.704  1.00  0.00     0.200 A 
ATOM    107  F   UNL     1     -11.048  -0.284   8.033  1.00  0.00    -0.200 F 
ATOM    108  F   UNL     1      -9.203  -1.049   9.890  1.00  0.00    -0.200 F 
ENDBRANCH  75  98
ENDBRANCH  49  50
ENDBRANCH  42  44
ENDBRANCH  41  42
ENDBRANCH  40  41
ENDBRANCH  39  40
ENDBRANCH  38  39
ENDBRANCH  37  38
ENDBRANCH   1  37
TORSDOF 21
