REMARK SMILES C[C@@H](OCc1ccccc1Cl)c1ccc(C(=O)OCCOCCOCCOC(=O)c2ccc(-c3c4nc(c(-c5c(F)c(F)c(F)c(F)c5F)c5ccc([nH]5)c(-c5c(F)c(F)c(F)c(F)c5F)c5nc(c(-c6c(F)c(F)c(F)c(F)c6F)c6ccc3[nH]6)C=C5)C=C4)cc2)o1
REMARK SMILES IDX 22 1 21 2 20 3 19 4 18 5 16 6 17 7 15 8 12 9 13 10 93 11
REMARK SMILES IDX 14 12 2 13 1 14 3 15 4 16 5 17 6 18 10 19 7 20 9 21 11 22
REMARK SMILES IDX 8 23 23 24 24 25 25 26 26 27 27 28 28 29 29 30 30 31 31 32
REMARK SMILES IDX 92 33 32 34 91 35 33 36 34 37 35 38 85 39 36 40 90 41 84 42
REMARK SMILES IDX 86 43 37 44 89 45 83 46 82 47 38 49 70 50 50 51 69 52 51 53
REMARK SMILES IDX 54 54 68 55 87 56 52 57 53 58 67 60 88 61 55 62 39 63 40 64
REMARK SMILES IDX 48 65 41 66 42 67 46 68 49 69 43 70 44 71 47 72 45 73 71 74
REMARK SMILES IDX 72 75 80 76 73 77 74 78 78 79 81 80 75 81 76 82 79 83 77 84
REMARK SMILES IDX 56 85 57 86 65 87 58 88 59 89 63 90 66 91 60 92 61 93 64 94
REMARK SMILES IDX 62 95
REMARK H PARENT 86 48 54 59
REMARK Flexibility Score: inf
ROOT
ATOM      1  C   UNL     1      -4.697   3.826   2.364  1.00  0.00     0.188 C 
ENDROOT
BRANCH   1   2
ATOM      2  O   UNL     1      -5.777   4.536   1.767  1.00  0.00    -0.376 OA
BRANCH   2   3
ATOM      3  C   UNL     1      -6.771   3.823   1.043  1.00  0.00     0.202 C 
BRANCH   3   4
ATOM      4  C   UNL     1      -6.317   3.123  -0.239  1.00  0.00     0.261 C 
BRANCH   4   5
ATOM      5  O   UNL     1      -5.392   2.057   0.028  1.00  0.00    -0.457 OA
BRANCH   5   6
ATOM      6  C   UNL     1      -4.160   2.163  -0.556  1.00  0.00     0.374 C 
ATOM      7  O   UNL     1      -3.850   3.016  -1.379  1.00  0.00    -0.242 OA
BRANCH   6   8
ATOM      8  C   UNL     1      -3.270   1.184   0.026  1.00  0.00     0.211 A 
ATOM      9  C   UNL     1      -1.297   0.434   0.679  1.00  0.00     0.133 A 
ATOM     10  C   UNL     1      -2.232  -0.459   1.160  1.00  0.00     0.049 A 
ATOM     11  O   UNL     1      -1.920   1.418  -0.033  1.00  0.00    -0.451 OA
ATOM     12  C   UNL     1      -3.495   0.013   0.731  1.00  0.00     0.058 A 
BRANCH   9  13
ATOM     13  C   UNL     1       0.200   0.454   0.743  1.00  0.00     0.181 C 
ATOM     14  C   UNL     1       0.763  -0.060  -0.581  1.00  0.00     0.047 C 
BRANCH  13  15
ATOM     15  O   UNL     1       0.602   1.786   1.072  1.00  0.00    -0.366 OA
BRANCH  15  16
ATOM     16  C   UNL     1       2.008   2.034   1.151  1.00  0.00     0.198 C 
BRANCH  16  17
ATOM     17  C   UNL     1       2.631   1.577   2.453  1.00  0.00    -0.004 A 
ATOM     18  C   UNL     1       2.923   0.211   2.629  1.00  0.00     0.007 A 
ATOM     19  C   UNL     1       2.958   2.456   3.498  1.00  0.00     0.046 A 
ATOM     20  C   UNL     1       3.469  -0.270   3.821  1.00  0.00     0.000 A 
ATOM     21  C   UNL     1       3.525   1.974   4.686  1.00  0.00     0.021 A 
ATOM     22  Cl  UNL     1       2.726   4.164   3.383  1.00  0.00    -0.084 Cl
ATOM     23  C   UNL     1       3.768   0.612   4.852  1.00  0.00     0.002 A 
ENDBRANCH  16  17
ENDBRANCH  15  16
ENDBRANCH  13  15
ENDBRANCH   9  13
ENDBRANCH   6   8
ENDBRANCH   5   6
ENDBRANCH   4   5
ENDBRANCH   3   4
ENDBRANCH   2   3
ENDBRANCH   1   2
BRANCH   1  24
ATOM     24  C   UNL     1      -4.973   2.503   3.103  1.00  0.00     0.188 C 
BRANCH  24  25
ATOM     25  O   UNL     1      -6.327   2.321   3.491  1.00  0.00    -0.376 OA
BRANCH  25  26
ATOM     26  C   UNL     1      -6.562   2.252   4.890  1.00  0.00     0.202 C 
BRANCH  26  27
ATOM     27  C   UNL     1      -6.628   3.636   5.539  1.00  0.00     0.261 C 
BRANCH  27  28
ATOM     28  O   UNL     1      -5.404   4.386   5.458  1.00  0.00    -0.460 OA
BRANCH  28  29
ATOM     29  C   UNL     1      -4.345   3.893   6.137  1.00  0.00     0.338 C 
ATOM     30  O   UNL     1      -4.308   2.888   6.822  1.00  0.00    -0.246 OA
BRANCH  29  31
ATOM     31  C   UNL     1      -3.167   4.707   5.784  1.00  0.00     0.060 A 
ATOM     32  C   UNL     1      -2.029   4.068   5.280  1.00  0.00     0.016 A 
ATOM     33  C   UNL     1      -3.188   6.094   5.952  1.00  0.00     0.016 A 
ATOM     34  C   UNL     1      -0.895   4.819   4.967  1.00  0.00     0.010 A 
ATOM     35  C   UNL     1      -2.048   6.841   5.651  1.00  0.00     0.010 A 
ATOM     36  C   UNL     1      -0.887   6.204   5.182  1.00  0.00    -0.014 A 
BRANCH  36  37
ATOM     37  C   UNL     1       0.375   6.975   5.070  1.00  0.00     0.031 A 
ATOM     38  C   UNL     1       1.186   7.213   6.311  1.00  0.00     0.074 A 
ATOM     39  C   UNL     1       0.786   7.474   3.892  1.00  0.00     0.049 A 
ATOM     40  N   UNL     1       2.293   7.895   6.468  1.00  0.00    -0.248 NA
ATOM     41  C   UNL     1       0.674   6.603   7.549  1.00  0.00     0.031 C 
ATOM     42  C   UNL     1       0.105   7.294   2.613  1.00  0.00     0.029 A 
ATOM     43  N   UNL     1       1.880   8.247   3.589  1.00  0.00    -0.354 N 
ATOM     44  C   UNL     1       2.609   7.795   7.815  1.00  0.00     0.074 A 
ATOM     45  C   UNL     1       1.563   7.014   8.441  1.00  0.00     0.031 C 
ATOM     46  C   UNL     1       0.792   7.949   1.660  1.00  0.00     0.029 A 
ATOM     47  C   UNL     1       1.945   8.611   2.268  1.00  0.00     0.049 A 
ATOM     48  H   UNL     1       2.553   8.514   4.256  1.00  0.00     0.167 HD
ATOM     49  C   UNL     1       3.680   8.300   8.471  1.00  0.00     0.037 A 
ATOM     50  C   UNL     1       2.829   9.402   1.629  1.00  0.00     0.037 A 
ATOM     51  C   UNL     1       4.717   9.084   7.856  1.00  0.00     0.049 A 
ATOM     52  C   UNL     1       3.975  10.012   2.395  1.00  0.00     0.074 A 
ATOM     53  C   UNL     1       5.855   9.617   8.434  1.00  0.00     0.029 A 
ATOM     54  N   UNL     1       4.732   9.458   6.521  1.00  0.00    -0.354 N 
ATOM     55  N   UNL     1       4.293   9.879   3.660  1.00  0.00    -0.248 NA
ATOM     56  C   UNL     1       4.888  10.884   1.640  1.00  0.00     0.031 C 
ATOM     57  C   UNL     1       6.538  10.352   7.458  1.00  0.00     0.029 A 
ATOM     58  C   UNL     1       5.847  10.239   6.262  1.00  0.00     0.049 A 
ATOM     59  H   UNL     1       4.052   9.205   5.855  1.00  0.00     0.167 HD
ATOM     60  C   UNL     1       5.450  10.623   3.846  1.00  0.00     0.074 A 
ATOM     61  C   UNL     1       5.786  11.202   2.562  1.00  0.00     0.031 C 
ATOM     62  C   UNL     1       6.172  10.806   4.979  1.00  0.00     0.037 A 
BRANCH  49  63
ATOM     63  C   UNL     1       3.767   8.033   9.944  1.00  0.00     0.064 A 
ATOM     64  C   UNL     1       4.086   6.761  10.441  1.00  0.00     0.173 A 
ATOM     65  C   UNL     1       3.542   9.064  10.867  1.00  0.00     0.173 A 
ATOM     66  F   UNL     1       4.294   5.739   9.597  1.00  0.00    -0.203 F 
ATOM     67  C   UNL     1       4.149   6.524  11.811  1.00  0.00     0.198 A 
ATOM     68  C   UNL     1       3.631   8.829  12.236  1.00  0.00     0.198 A 
ATOM     69  F   UNL     1       3.235  10.299  10.442  1.00  0.00    -0.203 F 
ATOM     70  F   UNL     1       4.410   5.290  12.265  1.00  0.00    -0.200 F 
ATOM     71  C   UNL     1       3.927   7.559  12.707  1.00  0.00     0.200 A 
ATOM     72  F   UNL     1       3.423   9.832  13.102  1.00  0.00    -0.200 F 
ATOM     73  F   UNL     1       3.989   7.329  14.026  1.00  0.00    -0.200 F 
ENDBRANCH  49  63
BRANCH  50  74
ATOM     74  C   UNL     1       2.665   9.671   0.178  1.00  0.00     0.064 A 
ATOM     75  C   UNL     1       3.552   9.127  -0.761  1.00  0.00     0.173 A 
ATOM     76  C   UNL     1       1.631  10.492  -0.296  1.00  0.00     0.173 A 
ATOM     77  F   UNL     1       4.576   8.365  -0.351  1.00  0.00    -0.203 F 
ATOM     78  C   UNL     1       3.417   9.403  -2.120  1.00  0.00     0.198 A 
ATOM     79  C   UNL     1       1.485  10.748  -1.658  1.00  0.00     0.198 A 
ATOM     80  F   UNL     1       0.765  11.046   0.564  1.00  0.00    -0.203 F 
ATOM     81  F   UNL     1       4.304   8.906  -2.993  1.00  0.00    -0.200 F 
ATOM     82  C   UNL     1       2.381  10.208  -2.568  1.00  0.00     0.200 A 
ATOM     83  F   UNL     1       0.482  11.527  -2.087  1.00  0.00    -0.200 F 
ATOM     84  F   UNL     1       2.254  10.476  -3.875  1.00  0.00    -0.200 F 
ENDBRANCH  50  74
BRANCH  62  85
ATOM     85  C   UNL     1       7.415  11.642   4.880  1.00  0.00     0.064 A 
ATOM     86  C   UNL     1       7.354  13.037   4.754  1.00  0.00     0.173 A 
ATOM     87  C   UNL     1       8.681  11.043   4.963  1.00  0.00     0.173 A 
ATOM     88  F   UNL     1       6.167  13.655   4.657  1.00  0.00    -0.203 F 
ATOM     89  C   UNL     1       8.517  13.801   4.695  1.00  0.00     0.198 A 
ATOM     90  C   UNL     1       9.841  11.812   4.929  1.00  0.00     0.198 A 
ATOM     91  F   UNL     1       8.793   9.713   5.092  1.00  0.00    -0.203 F 
ATOM     92  F   UNL     1       8.436  15.130   4.537  1.00  0.00    -0.200 F 
ATOM     93  C   UNL     1       9.758  13.190   4.790  1.00  0.00     0.200 A 
ATOM     94  F   UNL     1      11.039  11.221   5.033  1.00  0.00    -0.200 F 
ATOM     95  F   UNL     1      10.876  13.928   4.742  1.00  0.00    -0.200 F 
ENDBRANCH  62  85
ENDBRANCH  36  37
ENDBRANCH  29  31
ENDBRANCH  28  29
ENDBRANCH  27  28
ENDBRANCH  26  27
ENDBRANCH  25  26
ENDBRANCH  24  25
ENDBRANCH   1  24
TORSDOF 21
