REMARK SMILES C[C@]1(C(=O)OCCOCCOCCOC(=O)c2ccc(-c3c4nc(c(-c5c(F)c(F)c(F)c(F)c5F)c5ccc([nH]5)c(-c5c(F)c(F)c(F)c(F)c5F)c5nc(c(-c6c(F)c(F)c(F)c(F)c6F)c6ccc3[nH]6)C=C5)C=C4)cc2)[NH2+]C2(C(=O)c3ccccc3C2=O)[C@@H]2C(=O)N(c3ccccc3)C(=O)[C@H]21
REMARK SMILES IDX 10 1 9 2 8 3 7 4 6 5 5 6 3 7 4 8 2 9 1 10 80 11 104 12 81 13
REMARK SMILES IDX 92 16 102 17 82 18 90 19 93 20 95 21 103 22 83 23 84 24
REMARK SMILES IDX 89 25 91 26 94 27 85 28 88 29 86 30 87 31 96 32 97 33 101 34
REMARK SMILES IDX 98 35 100 36 99 37 11 38 12 39 13 40 14 41 15 42 16 43 17 44
REMARK SMILES IDX 18 45 79 46 19 47 78 48 20 49 21 50 22 51 72 52 23 53 77 54
REMARK SMILES IDX 71 55 73 56 24 57 76 58 70 59 69 60 25 62 57 63 37 64 56 65
REMARK SMILES IDX 38 66 41 67 55 68 74 69 39 70 40 71 54 73 75 74 42 75 26 76
REMARK SMILES IDX 27 77 35 78 28 79 29 80 33 81 36 82 30 83 31 84 34 85 32 86
REMARK SMILES IDX 58 87 59 88 67 89 60 90 61 91 65 92 68 93 62 94 63 95 66 96
REMARK SMILES IDX 64 97 43 98 44 99 52 100 45 101 46 102 50 103 53 104 47 105
REMARK SMILES IDX 48 106 51 107 49 108
REMARK H PARENT 80 14 80 15 73 61 41 72
REMARK Flexibility Score: inf
ROOT
ATOM      1  C   UNL     1       0.885  -1.175   3.221  1.00  0.00     0.188 C 
ENDROOT
BRANCH   1   2
ATOM      2  C   UNL     1      -0.023   0.060   3.350  1.00  0.00     0.188 C 
BRANCH   2   3
ATOM      3  O   UNL     1      -1.126  -0.033   4.216  1.00  0.00    -0.376 OA
BRANCH   3   4
ATOM      4  C   UNL     1      -2.314  -0.685   3.791  1.00  0.00     0.202 C 
BRANCH   4   5
ATOM      5  C   UNL     1      -2.562  -1.252   2.379  1.00  0.00     0.261 C 
BRANCH   5   6
ATOM      6  O   UNL     1      -1.412  -1.639   1.621  1.00  0.00    -0.459 OA
BRANCH   6   7
ATOM      7  C   UNL     1      -1.196  -0.985   0.448  1.00  0.00     0.368 C 
ATOM      8  O   UNL     1      -1.910  -0.083   0.027  1.00  0.00    -0.245 OA
BRANCH   7   9
ATOM      9  C   UNL     1       0.068  -1.492  -0.315  1.00  0.00     0.205 C 
ATOM     10  C   UNL     1       1.015  -0.303  -0.496  1.00  0.00     0.093 C 
ATOM     11  N   UNL     1       0.764  -2.667   0.356  1.00  0.00    -0.313 N 
ATOM     12  C   UNL     1      -0.296  -2.159  -1.603  1.00  0.00     0.172 C 
ATOM     13  C   UNL     1       0.181  -3.952  -0.213  1.00  0.00     0.237 C 
ATOM     14  H   UNL     1       0.606  -2.633   1.363  1.00  0.00     0.348 HD
ATOM     15  H   UNL     1       1.768  -2.629   0.182  1.00  0.00     0.348 HD
ATOM     16  C   UNL     1      -0.919  -3.441  -1.082  1.00  0.00     0.177 C 
ATOM     17  C   UNL     1      -1.322  -1.681  -2.559  1.00  0.00     0.244 C 
ATOM     18  C   UNL     1       1.298  -4.760  -0.867  1.00  0.00     0.232 C 
ATOM     19  C   UNL     1      -0.289  -4.871   0.915  1.00  0.00     0.232 C 
ATOM     20  C   UNL     1      -1.514  -3.975  -2.331  1.00  0.00     0.245 C 
ATOM     21  N   UNL     1      -1.944  -2.839  -3.016  1.00  0.00    -0.250 N 
ATOM     22  O   UNL     1      -1.464  -0.520  -2.893  1.00  0.00    -0.273 OA
ATOM     23  O   UNL     1       1.986  -4.415  -1.817  1.00  0.00    -0.286 OA
ATOM     24  C   UNL     1       1.522  -5.970  -0.079  1.00  0.00     0.036 A 
ATOM     25  C   UNL     1       0.607  -6.029   0.966  1.00  0.00     0.036 A 
ATOM     26  O   UNL     1      -1.265  -4.739   1.638  1.00  0.00    -0.286 OA
ATOM     27  O   UNL     1      -1.679  -5.160  -2.568  1.00  0.00    -0.273 OA
ATOM     28  C   UNL     1       2.491  -6.942  -0.255  1.00  0.00     0.013 A 
ATOM     29  C   UNL     1       0.611  -7.076   1.871  1.00  0.00     0.013 A 
ATOM     30  C   UNL     1       2.509  -8.007   0.650  1.00  0.00     0.001 A 
ATOM     31  C   UNL     1       1.576  -8.075   1.703  1.00  0.00     0.001 A 
BRANCH  21  32
ATOM     32  C   UNL     1      -3.001  -2.791  -3.942  1.00  0.00     0.052 A 
ATOM     33  C   UNL     1      -2.961  -1.887  -5.011  1.00  0.00     0.027 A 
ATOM     34  C   UNL     1      -4.168  -3.523  -3.704  1.00  0.00     0.027 A 
ATOM     35  C   UNL     1      -4.079  -1.698  -5.820  1.00  0.00     0.002 A 
ATOM     36  C   UNL     1      -5.302  -3.297  -4.488  1.00  0.00     0.002 A 
ATOM     37  C   UNL     1      -5.256  -2.388  -5.544  1.00  0.00     0.000 A 
ENDBRANCH  21  32
ENDBRANCH   7   9
ENDBRANCH   6   7
ENDBRANCH   5   6
ENDBRANCH   4   5
ENDBRANCH   3   4
ENDBRANCH   2   3
ENDBRANCH   1   2
BRANCH   1  38
ATOM     38  O   UNL     1       0.557  -2.415   3.806  1.00  0.00    -0.376 OA
BRANCH  38  39
ATOM     39  C   UNL     1       0.316  -2.455   5.202  1.00  0.00     0.202 C 
BRANCH  39  40
ATOM     40  C   UNL     1       1.295  -1.793   6.189  1.00  0.00     0.261 C 
BRANCH  40  41
ATOM     41  O   UNL     1       1.797  -0.499   5.812  1.00  0.00    -0.460 OA
BRANCH  41  42
ATOM     42  C   UNL     1       3.094  -0.455   5.408  1.00  0.00     0.338 C 
ATOM     43  O   UNL     1       3.893  -1.381   5.377  1.00  0.00    -0.246 OA
BRANCH  42  44
ATOM     44  C   UNL     1       3.341   0.851   4.756  1.00  0.00     0.060 A 
ATOM     45  C   UNL     1       3.155   2.039   5.458  1.00  0.00     0.016 A 
ATOM     46  C   UNL     1       3.730   0.882   3.405  1.00  0.00     0.016 A 
ATOM     47  C   UNL     1       3.370   3.259   4.810  1.00  0.00     0.010 A 
ATOM     48  C   UNL     1       3.915   2.102   2.751  1.00  0.00     0.010 A 
ATOM     49  C   UNL     1       3.756   3.301   3.456  1.00  0.00    -0.014 A 
BRANCH  49  50
ATOM     50  C   UNL     1       4.151   4.595   2.847  1.00  0.00     0.031 A 
ATOM     51  C   UNL     1       3.237   5.367   1.945  1.00  0.00     0.074 A 
ATOM     52  C   UNL     1       5.370   5.081   3.144  1.00  0.00     0.049 A 
ATOM     53  N   UNL     1       3.404   6.565   1.440  1.00  0.00    -0.248 NA
ATOM     54  C   UNL     1       1.980   4.717   1.555  1.00  0.00     0.031 C 
ATOM     55  C   UNL     1       6.358   4.400   3.981  1.00  0.00     0.029 A 
ATOM     56  N   UNL     1       5.979   6.259   2.795  1.00  0.00    -0.354 N 
ATOM     57  C   UNL     1       2.261   6.829   0.698  1.00  0.00     0.074 A 
ATOM     58  C   UNL     1       1.433   5.641   0.773  1.00  0.00     0.031 C 
ATOM     59  C   UNL     1       7.435   5.188   4.113  1.00  0.00     0.029 A 
ATOM     60  C   UNL     1       7.224   6.416   3.351  1.00  0.00     0.049 A 
ATOM     61  H   UNL     1       5.564   6.928   2.204  1.00  0.00     0.167 HD
ATOM     62  C   UNL     1       1.930   7.966   0.037  1.00  0.00     0.037 A 
ATOM     63  C   UNL     1       8.097   7.438   3.268  1.00  0.00     0.037 A 
ATOM     64  C   UNL     1       2.771   9.137  -0.051  1.00  0.00     0.049 A 
ATOM     65  C   UNL     1       7.722   8.665   2.485  1.00  0.00     0.074 A 
ATOM     66  C   UNL     1       2.501  10.347  -0.669  1.00  0.00     0.029 A 
ATOM     67  N   UNL     1       4.050   9.241   0.478  1.00  0.00    -0.354 N 
ATOM     68  N   UNL     1       6.605   8.938   1.859  1.00  0.00    -0.248 NA
ATOM     69  C   UNL     1       8.731   9.730   2.407  1.00  0.00     0.031 C 
ATOM     70  C   UNL     1       3.635  11.159  -0.565  1.00  0.00     0.029 A 
ATOM     71  C   UNL     1       4.593  10.481   0.169  1.00  0.00     0.049 A 
ATOM     72  H   UNL     1       4.505   8.539   0.996  1.00  0.00     0.167 HD
ATOM     73  C   UNL     1       6.768  10.209   1.323  1.00  0.00     0.074 A 
ATOM     74  C   UNL     1       8.081  10.666   1.728  1.00  0.00     0.031 C 
ATOM     75  C   UNL     1       5.908  10.927   0.559  1.00  0.00     0.037 A 
BRANCH  62  76
ATOM     76  C   UNL     1       0.589   8.021  -0.638  1.00  0.00     0.064 A 
ATOM     77  C   UNL     1      -0.598   8.102   0.106  1.00  0.00     0.173 A 
ATOM     78  C   UNL     1       0.490   8.093  -2.036  1.00  0.00     0.173 A 
ATOM     79  F   UNL     1      -0.560   8.040   1.446  1.00  0.00    -0.203 F 
ATOM     80  C   UNL     1      -1.833   8.239  -0.523  1.00  0.00     0.198 A 
ATOM     81  C   UNL     1      -0.744   8.258  -2.662  1.00  0.00     0.198 A 
ATOM     82  F   UNL     1       1.594   8.036  -2.796  1.00  0.00    -0.203 F 
ATOM     83  F   UNL     1      -2.954   8.291   0.209  1.00  0.00    -0.200 F 
ATOM     84  C   UNL     1      -1.904   8.327  -1.905  1.00  0.00     0.200 A 
ATOM     85  F   UNL     1      -0.808   8.366  -3.996  1.00  0.00    -0.200 F 
ATOM     86  F   UNL     1      -3.091   8.483  -2.508  1.00  0.00    -0.200 F 
ENDBRANCH  62  76
BRANCH  63  87
ATOM     87  C   UNL     1       9.396   7.350   3.981  1.00  0.00     0.064 A 
ATOM     88  C   UNL     1       9.668   8.169   5.085  1.00  0.00     0.173 A 
ATOM     89  C   UNL     1      10.384   6.436   3.586  1.00  0.00     0.173 A 
ATOM     90  F   UNL     1       8.763   9.073   5.488  1.00  0.00    -0.203 F 
ATOM     91  C   UNL     1      10.884   8.085   5.760  1.00  0.00     0.198 A 
ATOM     92  C   UNL     1      11.586   6.331   4.280  1.00  0.00     0.198 A 
ATOM     93  F   UNL     1      10.169   5.627   2.537  1.00  0.00    -0.203 F 
ATOM     94  F   UNL     1      11.134   8.906   6.788  1.00  0.00    -0.200 F 
ATOM     95  C   UNL     1      11.838   7.160   5.363  1.00  0.00     0.200 A 
ATOM     96  F   UNL     1      12.498   5.424   3.904  1.00  0.00    -0.200 F 
ATOM     97  F   UNL     1      13.002   7.071   6.020  1.00  0.00    -0.200 F 
ENDBRANCH  63  87
BRANCH  75  98
ATOM     98  C   UNL     1       6.363  12.285   0.101  1.00  0.00     0.064 A 
ATOM     99  C   UNL     1       7.391  12.434  -0.843  1.00  0.00     0.173 A 
ATOM    100  C   UNL     1       5.746  13.450   0.583  1.00  0.00     0.173 A 
ATOM    101  F   UNL     1       8.025  11.355  -1.326  1.00  0.00    -0.203 F 
ATOM    102  C   UNL     1       7.802  13.696  -1.265  1.00  0.00     0.198 A 
ATOM    103  C   UNL     1       6.136  14.709   0.133  1.00  0.00     0.198 A 
ATOM    104  F   UNL     1       4.754  13.368   1.482  1.00  0.00    -0.203 F 
ATOM    105  F   UNL     1       8.823  13.813  -2.126  1.00  0.00    -0.200 F 
ATOM    106  C   UNL     1       7.170  14.832  -0.783  1.00  0.00     0.200 A 
ATOM    107  F   UNL     1       5.513  15.805   0.588  1.00  0.00    -0.200 F 
ATOM    108  F   UNL     1       7.561  16.045  -1.196  1.00  0.00    -0.200 F 
ENDBRANCH  75  98
ENDBRANCH  49  50
ENDBRANCH  42  44
ENDBRANCH  41  42
ENDBRANCH  40  41
ENDBRANCH  39  40
ENDBRANCH  38  39
ENDBRANCH   1  38
TORSDOF 18
