REMARK SMILES O=C(OCCOCCOCCOC(=O)C(F)(F)[C@H](O)c1ccccc1C1CC1)c1ccc(-c2c3nc(c(-c4c(F)c(F)c(F)c(F)c4F)c4ccc([nH]4)c(-c4c(F)c(F)c(F)c(F)c4F)c4nc(c(-c5c(F)c(F)c(F)c(F)c5F)c5ccc2[nH]5)C=C4)C=C3)cc1
REMARK SMILES IDX 8 1 7 2 6 3 5 4 4 5 3 6 2 7 1 8 29 9 30 10 91 11 31 12 90 13
REMARK SMILES IDX 32 14 33 15 34 16 84 17 35 18 89 19 83 20 85 21 36 22 88 23
REMARK SMILES IDX 82 24 81 25 37 27 69 28 49 29 68 30 50 31 53 32 67 33 86 34
REMARK SMILES IDX 51 35 52 36 66 38 87 39 54 40 38 41 39 42 47 43 40 44 41 45
REMARK SMILES IDX 45 46 48 47 42 48 43 49 46 50 44 51 70 52 71 53 79 54 72 55
REMARK SMILES IDX 73 56 77 57 80 58 74 59 75 60 78 61 76 62 55 63 56 64 64 65
REMARK SMILES IDX 57 66 58 67 62 68 65 69 59 70 60 71 63 72 61 73 9 74 10 75
REMARK SMILES IDX 11 76 12 77 13 78 14 79 15 80 16 81 17 82 18 83 20 84 21 85
REMARK SMILES IDX 25 86 22 87 24 88 23 89 26 90 27 91 28 92 19 93
REMARK H PARENT 85 26 53 37 19 94
REMARK Flexibility Score: inf
ROOT
ATOM      1  C   UNL     1       0.361  -7.073   4.525  1.00  0.00     0.188 C 
ENDROOT
BRANCH   1   2
ATOM      2  C   UNL     1      -1.154  -7.177   4.715  1.00  0.00     0.188 C 
BRANCH   2   3
ATOM      3  O   UNL     1      -1.636  -6.409   5.823  1.00  0.00    -0.376 OA
BRANCH   3   4
ATOM      4  C   UNL     1      -2.636  -7.092   6.591  1.00  0.00     0.202 C 
BRANCH   4   5
ATOM      5  C   UNL     1      -4.041  -7.127   5.965  1.00  0.00     0.261 C 
BRANCH   5   6
ATOM      6  O   UNL     1      -4.022  -7.183   4.529  1.00  0.00    -0.460 OA
BRANCH   6   7
ATOM      7  C   UNL     1      -4.175  -6.168   3.643  1.00  0.00     0.338 C 
ATOM      8  O   UNL     1      -4.341  -6.455   2.457  1.00  0.00    -0.246 OA
BRANCH   7   9
ATOM      9  C   UNL     1      -4.124  -4.713   4.005  1.00  0.00     0.060 A 
ATOM     10  C   UNL     1      -3.692  -4.199   5.226  1.00  0.00     0.016 A 
ATOM     11  C   UNL     1      -4.493  -3.788   3.007  1.00  0.00     0.016 A 
ATOM     12  C   UNL     1      -3.711  -2.838   5.494  1.00  0.00     0.010 A 
ATOM     13  C   UNL     1      -4.472  -2.408   3.249  1.00  0.00     0.010 A 
ATOM     14  C   UNL     1      -4.114  -1.936   4.514  1.00  0.00    -0.014 A 
BRANCH  14  15
ATOM     15  C   UNL     1      -4.276  -0.528   4.920  1.00  0.00     0.031 A 
ATOM     16  C   UNL     1      -5.656  -0.037   5.229  1.00  0.00     0.074 A 
ATOM     17  C   UNL     1      -3.189   0.220   5.179  1.00  0.00     0.049 A 
ATOM     18  N   UNL     1      -6.043   1.137   5.649  1.00  0.00    -0.248 NA
ATOM     19  C   UNL     1      -6.751  -1.010   5.066  1.00  0.00     0.031 C 
ATOM     20  C   UNL     1      -1.809  -0.233   5.019  1.00  0.00     0.029 A 
ATOM     21  N   UNL     1      -3.067   1.493   5.668  1.00  0.00    -0.354 N 
ATOM     22  C   UNL     1      -7.421   1.049   5.782  1.00  0.00     0.074 A 
ATOM     23  C   UNL     1      -7.810  -0.288   5.398  1.00  0.00     0.031 C 
ATOM     24  C   UNL     1      -0.975   0.735   5.429  1.00  0.00     0.029 A 
ATOM     25  C   UNL     1      -1.762   1.901   5.809  1.00  0.00     0.049 A 
ATOM     26  H   UNL     1      -3.838   2.060   5.896  1.00  0.00     0.167 HD
ATOM     27  C   UNL     1      -8.279   2.013   6.184  1.00  0.00     0.037 A 
ATOM     28  C   UNL     1      -1.273   3.102   6.170  1.00  0.00     0.037 A 
ATOM     29  C   UNL     1      -7.861   3.336   6.559  1.00  0.00     0.049 A 
ATOM     30  C   UNL     1      -2.261   4.188   6.510  1.00  0.00     0.074 A 
ATOM     31  C   UNL     1      -8.637   4.417   6.929  1.00  0.00     0.029 A 
ATOM     32  N   UNL     1      -6.536   3.753   6.606  1.00  0.00    -0.354 N 
ATOM     33  N   UNL     1      -3.570   4.120   6.587  1.00  0.00    -0.248 NA
ATOM     34  C   UNL     1      -1.712   5.518   6.798  1.00  0.00     0.031 C 
ATOM     35  C   UNL     1      -7.785   5.504   7.149  1.00  0.00     0.029 A 
ATOM     36  C   UNL     1      -6.474   5.085   6.972  1.00  0.00     0.049 A 
ATOM     37  H   UNL     1      -5.757   3.184   6.407  1.00  0.00     0.167 HD
ATOM     38  C   UNL     1      -4.000   5.389   6.946  1.00  0.00     0.074 A 
ATOM     39  C   UNL     1      -2.808   6.200   7.099  1.00  0.00     0.031 C 
ATOM     40  C   UNL     1      -5.262   5.850   7.124  1.00  0.00     0.037 A 
BRANCH  27  41
ATOM     41  C   UNL     1      -9.741   1.687   6.162  1.00  0.00     0.064 A 
ATOM     42  C   UNL     1     -10.330   0.834   7.105  1.00  0.00     0.173 A 
ATOM     43  C   UNL     1     -10.565   2.237   5.168  1.00  0.00     0.173 A 
ATOM     44  F   UNL     1      -9.580   0.257   8.057  1.00  0.00    -0.203 F 
ATOM     45  C   UNL     1     -11.689   0.529   7.044  1.00  0.00     0.198 A 
ATOM     46  C   UNL     1     -11.926   1.950   5.124  1.00  0.00     0.198 A 
ATOM     47  F   UNL     1     -10.048   3.050   4.235  1.00  0.00    -0.203 F 
ATOM     48  F   UNL     1     -12.223  -0.327   7.927  1.00  0.00    -0.200 F 
ATOM     49  C   UNL     1     -12.486   1.092   6.058  1.00  0.00     0.200 A 
ATOM     50  F   UNL     1     -12.694   2.497   4.172  1.00  0.00    -0.200 F 
ATOM     51  F   UNL     1     -13.792   0.798   6.001  1.00  0.00    -0.200 F 
ENDBRANCH  27  41
BRANCH  28  52
ATOM     52  C   UNL     1       0.194   3.361   6.157  1.00  0.00     0.064 A 
ATOM     53  C   UNL     1       0.886   3.720   7.322  1.00  0.00     0.173 A 
ATOM     54  C   UNL     1       0.929   3.300   4.962  1.00  0.00     0.173 A 
ATOM     55  F   UNL     1       0.231   3.817   8.489  1.00  0.00    -0.203 F 
ATOM     56  C   UNL     1       2.244   4.037   7.287  1.00  0.00     0.198 A 
ATOM     57  C   UNL     1       2.294   3.581   4.934  1.00  0.00     0.198 A 
ATOM     58  F   UNL     1       0.323   2.971   3.812  1.00  0.00    -0.203 F 
ATOM     59  F   UNL     1       2.864   4.443   8.404  1.00  0.00    -0.200 F 
ATOM     60  C   UNL     1       2.948   3.963   6.094  1.00  0.00     0.200 A 
ATOM     61  F   UNL     1       2.968   3.497   3.779  1.00  0.00    -0.200 F 
ATOM     62  F   UNL     1       4.250   4.279   6.059  1.00  0.00    -0.200 F 
ENDBRANCH  28  52
BRANCH  40  63
ATOM     63  C   UNL     1      -5.407   7.285   7.534  1.00  0.00     0.064 A 
ATOM     64  C   UNL     1      -5.167   8.332   6.634  1.00  0.00     0.173 A 
ATOM     65  C   UNL     1      -5.841   7.609   8.828  1.00  0.00     0.173 A 
ATOM     66  F   UNL     1      -4.736   8.069   5.391  1.00  0.00    -0.203 F 
ATOM     67  C   UNL     1      -5.333   9.657   7.023  1.00  0.00     0.198 A 
ATOM     68  C   UNL     1      -6.038   8.934   9.203  1.00  0.00     0.198 A 
ATOM     69  F   UNL     1      -6.092   6.640   9.721  1.00  0.00    -0.203 F 
ATOM     70  F   UNL     1      -5.053  10.646   6.163  1.00  0.00    -0.200 F 
ATOM     71  C   UNL     1      -5.777   9.956   8.303  1.00  0.00     0.200 A 
ATOM     72  F   UNL     1      -6.483   9.220  10.434  1.00  0.00    -0.200 F 
ATOM     73  F   UNL     1      -5.948  11.233   8.672  1.00  0.00    -0.200 F 
ENDBRANCH  40  63
ENDBRANCH  14  15
ENDBRANCH   7   9
ENDBRANCH   6   7
ENDBRANCH   5   6
ENDBRANCH   4   5
ENDBRANCH   3   4
ENDBRANCH   2   3
ENDBRANCH   1   2
BRANCH   1  74
ATOM     74  O   UNL     1       1.175  -7.628   5.555  1.00  0.00    -0.376 OA
BRANCH  74  75
ATOM     75  C   UNL     1       1.018  -7.107   6.872  1.00  0.00     0.202 C 
BRANCH  75  76
ATOM     76  C   UNL     1       1.496  -5.669   7.109  1.00  0.00     0.261 C 
BRANCH  76  77
ATOM     77  O   UNL     1       0.927  -4.723   6.191  1.00  0.00    -0.459 OA
BRANCH  77  78
ATOM     78  C   UNL     1       1.808  -4.015   5.412  1.00  0.00     0.380 C 
ATOM     79  O   UNL     1       3.028  -4.112   5.508  1.00  0.00    -0.245 OA
BRANCH  78  80
ATOM     80  C   UNL     1       1.067  -3.049   4.476  1.00  0.00     0.372 C 
ATOM     81  F   UNL     1      -0.291  -3.114   4.670  1.00  0.00    -0.190 F 
ATOM     82  F   UNL     1       1.407  -1.762   4.790  1.00  0.00    -0.190 F 
BRANCH  80  83
ATOM     83  C   UNL     1       1.334  -3.364   2.969  1.00  0.00     0.227 C 
BRANCH  83  84
ATOM     84  C   UNL     1       0.764  -2.349   1.975  1.00  0.00    -0.009 A 
ATOM     85  C   UNL     1       1.208  -1.009   2.142  1.00  0.00     0.007 A 
ATOM     86  C   UNL     1      -0.106  -2.654   0.892  1.00  0.00    -0.039 A 
ATOM     87  C   UNL     1       0.747   0.038   1.351  1.00  0.00     0.000 A 
ATOM     88  C   UNL     1      -0.558  -1.545   0.121  1.00  0.00     0.004 A 
ATOM     89  C   UNL     1      -0.156  -0.229   0.344  1.00  0.00     0.000 A 
BRANCH  86  90
ATOM     90  C   UNL     1      -0.634  -4.002   0.401  1.00  0.00     0.019 C 
ATOM     91  C   UNL     1      -0.087  -5.372   0.675  1.00  0.00     0.009 C 
ATOM     92  C   UNL     1      -1.360  -4.924   1.341  1.00  0.00     0.009 C 
ENDBRANCH  86  90
ENDBRANCH  83  84
BRANCH  83  93
ATOM     93  O   UNL     1       2.721  -3.546   2.651  1.00  0.00    -0.381 OA
ATOM     94  H   UNL     1       3.190  -2.704   2.760  1.00  0.00     0.211 HD
ENDBRANCH  83  93
ENDBRANCH  80  83
ENDBRANCH  78  80
ENDBRANCH  77  78
ENDBRANCH  76  77
ENDBRANCH  75  76
ENDBRANCH  74  75
ENDBRANCH   1  74
TORSDOF 21
