REMARK SMILES O=C(OCCOCCOCCOC(=O)[C@H](Cc1ccccn1)[C@H]1CCS(=O)(=O)C1)c1ccc(-c2c3nc(c(-c4c(F)c(F)c(F)c(F)c4F)c4ccc([nH]4)c(-c4c(F)c(F)c(F)c(F)c4F)c4nc(c(-c5c(F)c(F)c(F)c(F)c5F)c5ccc2[nH]5)C=C4)C=C3)cc1
REMARK SMILES IDX 7 1 6 2 5 3 4 4 3 5 2 6 1 7 30 8 31 9 92 10 32 11 91 12
REMARK SMILES IDX 33 13 34 14 35 15 85 16 36 17 90 18 84 19 86 20 37 21 89 22
REMARK SMILES IDX 83 23 82 24 38 26 70 27 50 28 69 29 51 30 54 31 68 32 87 33
REMARK SMILES IDX 52 34 53 35 67 37 88 38 55 39 39 40 40 41 48 42 41 43 42 44
REMARK SMILES IDX 46 45 49 46 43 47 44 48 47 49 45 50 71 51 72 52 80 53 73 54
REMARK SMILES IDX 74 55 78 56 81 57 75 58 76 59 79 60 77 61 56 62 57 63 65 64
REMARK SMILES IDX 58 65 59 66 63 67 66 68 60 69 61 70 64 71 62 72 8 73 9 74
REMARK SMILES IDX 10 75 11 76 12 77 13 78 14 79 15 80 16 81 17 82 18 83 22 84
REMARK SMILES IDX 19 85 21 86 20 87 23 88 24 89 29 90 25 91 26 92 27 93 28 94
REMARK H PARENT 86 25 54 36
REMARK Flexibility Score: inf
ROOT
ATOM      1  C   UNL     1       5.551  -1.335  -4.555  1.00  0.00     0.188 C 
ENDROOT
BRANCH   1   2
ATOM      2  O   UNL     1       6.396  -0.739  -3.573  1.00  0.00    -0.376 OA
BRANCH   2   3
ATOM      3  C   UNL     1       7.381  -1.577  -2.970  1.00  0.00     0.202 C 
BRANCH   3   4
ATOM      4  C   UNL     1       6.879  -2.516  -1.870  1.00  0.00     0.261 C 
BRANCH   4   5
ATOM      5  O   UNL     1       5.585  -3.058  -2.135  1.00  0.00    -0.460 OA
BRANCH   5   6
ATOM      6  C   UNL     1       4.413  -2.635  -1.609  1.00  0.00     0.338 C 
ATOM      7  O   UNL     1       3.466  -3.422  -1.617  1.00  0.00    -0.246 OA
BRANCH   6   8
ATOM      8  C   UNL     1       4.151  -1.228  -1.135  1.00  0.00     0.060 A 
ATOM      9  C   UNL     1       5.050  -0.150  -1.081  1.00  0.00     0.016 A 
ATOM     10  C   UNL     1       2.829  -0.963  -0.761  1.00  0.00     0.016 A 
ATOM     11  C   UNL     1       4.656   1.153  -0.743  1.00  0.00     0.010 A 
ATOM     12  C   UNL     1       2.433   0.325  -0.405  1.00  0.00     0.010 A 
ATOM     13  C   UNL     1       3.336   1.407  -0.416  1.00  0.00    -0.014 A 
BRANCH  13  14
ATOM     14  C   UNL     1       2.862   2.719   0.087  1.00  0.00     0.031 A 
ATOM     15  C   UNL     1       2.325   2.720   1.480  1.00  0.00     0.074 A 
ATOM     16  C   UNL     1       2.757   3.822  -0.681  1.00  0.00     0.049 A 
ATOM     17  N   UNL     1       1.545   3.578   2.075  1.00  0.00    -0.248 NA
ATOM     18  C   UNL     1       2.671   1.538   2.292  1.00  0.00     0.031 C 
ATOM     19  C   UNL     1       3.297   3.998  -2.023  1.00  0.00     0.029 A 
ATOM     20  N   UNL     1       2.050   4.982  -0.463  1.00  0.00    -0.354 N 
ATOM     21  C   UNL     1       1.333   3.038   3.330  1.00  0.00     0.074 A 
ATOM     22  C   UNL     1       1.866   1.696   3.325  1.00  0.00     0.031 C 
ATOM     23  C   UNL     1       2.759   5.098  -2.580  1.00  0.00     0.029 A 
ATOM     24  C   UNL     1       1.884   5.736  -1.605  1.00  0.00     0.049 A 
ATOM     25  H   UNL     1       1.698   5.246   0.417  1.00  0.00     0.167 HD
ATOM     26  C   UNL     1       0.863   3.654   4.436  1.00  0.00     0.037 A 
ATOM     27  C   UNL     1       1.100   6.808  -1.828  1.00  0.00     0.037 A 
ATOM     28  C   UNL     1       0.380   5.001   4.432  1.00  0.00     0.049 A 
ATOM     29  C   UNL     1       0.405   7.431  -0.647  1.00  0.00     0.074 A 
ATOM     30  C   UNL     1      -0.054   5.774   5.488  1.00  0.00     0.029 A 
ATOM     31  N   UNL     1       0.266   5.775   3.284  1.00  0.00    -0.354 N 
ATOM     32  N   UNL     1       0.314   6.986   0.584  1.00  0.00    -0.248 NA
ATOM     33  C   UNL     1      -0.214   8.747  -0.857  1.00  0.00     0.031 C 
ATOM     34  C   UNL     1      -0.473   7.006   4.971  1.00  0.00     0.029 A 
ATOM     35  C   UNL     1      -0.252   7.015   3.600  1.00  0.00     0.049 A 
ATOM     36  H   UNL     1       0.517   5.482   2.378  1.00  0.00     0.167 HD
ATOM     37  C   UNL     1      -0.274   8.007   1.316  1.00  0.00     0.074 A 
ATOM     38  C   UNL     1      -0.570   9.072   0.379  1.00  0.00     0.031 C 
ATOM     39  C   UNL     1      -0.500   8.073   2.651  1.00  0.00     0.037 A 
BRANCH  26  40
ATOM     40  C   UNL     1       0.941   2.857   5.701  1.00  0.00     0.064 A 
ATOM     41  C   UNL     1       2.187   2.460   6.226  1.00  0.00     0.173 A 
ATOM     42  C   UNL     1      -0.216   2.356   6.305  1.00  0.00     0.173 A 
ATOM     43  F   UNL     1       3.327   2.889   5.660  1.00  0.00    -0.203 F 
ATOM     44  C   UNL     1       2.267   1.519   7.246  1.00  0.00     0.198 A 
ATOM     45  C   UNL     1      -0.131   1.448   7.357  1.00  0.00     0.198 A 
ATOM     46  F   UNL     1      -1.426   2.701   5.841  1.00  0.00    -0.203 F 
ATOM     47  F   UNL     1       3.463   1.055   7.634  1.00  0.00    -0.200 F 
ATOM     48  C   UNL     1       1.107   1.011   7.809  1.00  0.00     0.200 A 
ATOM     49  F   UNL     1      -1.251   0.957   7.906  1.00  0.00    -0.200 F 
ATOM     50  F   UNL     1       1.183   0.077   8.766  1.00  0.00    -0.200 F 
ENDBRANCH  26  40
BRANCH  27  51
ATOM     51  C   UNL     1       1.000   7.419  -3.181  1.00  0.00     0.064 A 
ATOM     52  C   UNL     1       1.711   8.584  -3.498  1.00  0.00     0.173 A 
ATOM     53  C   UNL     1       0.159   6.881  -4.167  1.00  0.00     0.173 A 
ATOM     54  F   UNL     1       2.504   9.153  -2.578  1.00  0.00    -0.203 F 
ATOM     55  C   UNL     1       1.569   9.203  -4.740  1.00  0.00     0.198 A 
ATOM     56  C   UNL     1       0.030   7.493  -5.416  1.00  0.00     0.198 A 
ATOM     57  F   UNL     1      -0.565   5.783  -3.909  1.00  0.00    -0.203 F 
ATOM     58  F   UNL     1       2.223  10.345  -4.995  1.00  0.00    -0.200 F 
ATOM     59  C   UNL     1       0.730   8.657  -5.699  1.00  0.00     0.200 A 
ATOM     60  F   UNL     1      -0.792   6.971  -6.338  1.00  0.00    -0.200 F 
ATOM     61  F   UNL     1       0.580   9.264  -6.885  1.00  0.00    -0.200 F 
ENDBRANCH  27  51
BRANCH  39  62
ATOM     62  C   UNL     1      -0.996   9.371   3.208  1.00  0.00     0.064 A 
ATOM     63  C   UNL     1      -2.316   9.802   3.030  1.00  0.00     0.173 A 
ATOM     64  C   UNL     1      -0.149  10.145   4.018  1.00  0.00     0.173 A 
ATOM     65  F   UNL     1      -3.155   9.106   2.248  1.00  0.00    -0.203 F 
ATOM     66  C   UNL     1      -2.772  10.965   3.644  1.00  0.00     0.198 A 
ATOM     67  C   UNL     1      -0.617  11.287   4.657  1.00  0.00     0.198 A 
ATOM     68  F   UNL     1       1.124   9.769   4.218  1.00  0.00    -0.203 F 
ATOM     69  F   UNL     1      -4.030  11.377   3.440  1.00  0.00    -0.200 F 
ATOM     70  C   UNL     1      -1.928  11.697   4.468  1.00  0.00     0.200 A 
ATOM     71  F   UNL     1       0.195  11.980   5.466  1.00  0.00    -0.200 F 
ATOM     72  F   UNL     1      -2.379  12.799   5.082  1.00  0.00    -0.200 F 
ENDBRANCH  39  62
ENDBRANCH  13  14
ENDBRANCH   6   8
ENDBRANCH   5   6
ENDBRANCH   4   5
ENDBRANCH   3   4
ENDBRANCH   2   3
ENDBRANCH   1   2
BRANCH   1  73
ATOM     73  C   UNL     1       6.260  -1.978  -5.752  1.00  0.00     0.188 C 
BRANCH  73  74
ATOM     74  O   UNL     1       7.624  -1.604  -5.877  1.00  0.00    -0.376 OA
BRANCH  74  75
ATOM     75  C   UNL     1       7.883  -0.506  -6.742  1.00  0.00     0.202 C 
BRANCH  75  76
ATOM     76  C   UNL     1       7.493   0.871  -6.189  1.00  0.00     0.261 C 
BRANCH  76  77
ATOM     77  O   UNL     1       6.080   1.143  -6.033  1.00  0.00    -0.463 OA
BRANCH  77  78
ATOM     78  C   UNL     1       5.277   1.156  -7.121  1.00  0.00     0.309 C 
ATOM     79  O   UNL     1       5.640   0.829  -8.243  1.00  0.00    -0.252 OA
BRANCH  78  80
ATOM     80  C   UNL     1       3.841   1.599  -6.817  1.00  0.00     0.109 C 
BRANCH  80  81
ATOM     81  C   UNL     1       3.691   2.420  -5.494  1.00  0.00     0.071 C 
BRANCH  81  82
ATOM     82  C   UNL     1       2.325   2.345  -4.833  1.00  0.00     0.041 A 
ATOM     83  C   UNL     1       2.157   1.574  -3.686  1.00  0.00     0.024 A 
ATOM     84  N   UNL     1       1.278   2.925  -5.460  1.00  0.00    -0.261 NA
ATOM     85  C   UNL     1       0.883   1.418  -3.150  1.00  0.00     0.003 A 
ATOM     86  C   UNL     1       0.042   2.714  -4.936  1.00  0.00     0.111 A 
ATOM     87  C   UNL     1      -0.202   1.987  -3.787  1.00  0.00     0.020 A 
ENDBRANCH  81  82
ENDBRANCH  80  81
BRANCH  80  88
ATOM     88  C   UNL     1       2.774   0.482  -6.951  1.00  0.00     0.020 C 
ATOM     89  C   UNL     1       1.618   0.905  -7.885  1.00  0.00     0.021 C 
ATOM     90  C   UNL     1       3.112  -0.918  -7.457  1.00  0.00     0.141 C 
ATOM     91  C   UNL     1       0.558  -0.180  -7.736  1.00  0.00     0.137 C 
ATOM     92  S   UNL     1       1.490  -1.698  -7.575  1.00  0.00     0.150 S 
ATOM     93  O   UNL     1       1.182  -2.291  -6.291  1.00  0.00    -0.229 OA
ATOM     94  O   UNL     1       1.413  -2.445  -8.813  1.00  0.00    -0.229 OA
ENDBRANCH  80  88
ENDBRANCH  78  80
ENDBRANCH  77  78
ENDBRANCH  76  77
ENDBRANCH  75  76
ENDBRANCH  74  75
ENDBRANCH  73  74
ENDBRANCH   1  73
TORSDOF 20
