REMARK SMILES C[C@@H](Oc1ccc(/C=N/NC(=O)c2ccc(I)c(O)c2)cc1)C(=O)OCCOCCOCCOC(=O)c1ccc(-c2c3nc(c(-c4c(F)c(F)c(F)c(F)c4F)c4ccc([nH]4)c(-c4c(F)c(F)c(F)c(F)c4F)c4nc(c(-c5c(F)c(F)c(F)c(F)c5F)c5ccc2[nH]5)C=C4)C=C3)cc1
REMARK SMILES IDX 27 1 26 2 25 3 23 4 24 5 2 6 1 7 3 8 4 9 5 10 22 11 6 12
REMARK SMILES IDX 21 13 7 14 8 15 9 16 10 17 11 18 12 20 13 21 14 22 20 23
REMARK SMILES IDX 15 24 18 25 16 26 17 27 19 28 28 30 29 31 30 32 31 33 32 34
REMARK SMILES IDX 33 35 34 36 35 37 36 38 37 39 38 40 99 41 39 42 98 43 40 44
REMARK SMILES IDX 41 45 42 46 92 47 43 48 97 49 91 50 93 51 44 52 96 53 90 54
REMARK SMILES IDX 89 55 45 57 77 58 57 59 76 60 58 61 61 62 75 63 94 64 59 65
REMARK SMILES IDX 60 66 74 68 95 69 62 70 46 71 47 72 55 73 48 74 49 75 53 76
REMARK SMILES IDX 56 77 50 78 51 79 54 80 52 81 78 82 79 83 87 84 80 85 81 86
REMARK SMILES IDX 85 87 88 88 82 89 83 90 86 91 84 92 63 93 64 94 72 95 65 96
REMARK SMILES IDX 66 97 70 98 73 99 67 100 68 101 71 102 69 103
REMARK H PARENT 10 19 19 29 93 56 61 67
REMARK Flexibility Score: inf
ROOT
ATOM      1  C   UNL     1      -4.126  -0.990   1.196  1.00  0.00     0.202 C 
ENDROOT
BRANCH   1   2
ATOM      2  C   UNL     1      -3.227  -0.401   2.292  1.00  0.00     0.261 C 
BRANCH   2   3
ATOM      3  O   UNL     1      -1.867  -0.175   1.879  1.00  0.00    -0.461 OA
BRANCH   3   4
ATOM      4  C   UNL     1      -0.917  -0.944   2.485  1.00  0.00     0.347 C 
ATOM      5  O   UNL     1      -1.143  -1.775   3.359  1.00  0.00    -0.248 OA
BRANCH   4   6
ATOM      6  C   UNL     1       0.492  -0.689   1.944  1.00  0.00     0.279 C 
ATOM      7  C   UNL     1       0.531   0.053   0.609  1.00  0.00     0.066 C 
BRANCH   6   8
ATOM      8  O   UNL     1       1.176   0.054   2.965  1.00  0.00    -0.479 OA
BRANCH   8   9
ATOM      9  C   UNL     1       2.489  -0.311   3.064  1.00  0.00     0.120 A 
ATOM     10  C   UNL     1       2.895  -1.116   4.129  1.00  0.00     0.047 A 
ATOM     11  C   UNL     1       3.417   0.204   2.164  1.00  0.00     0.047 A 
ATOM     12  C   UNL     1       4.252  -1.410   4.295  1.00  0.00     0.013 A 
ATOM     13  C   UNL     1       4.756  -0.144   2.283  1.00  0.00     0.013 A 
ATOM     14  C   UNL     1       5.171  -0.922   3.365  1.00  0.00    -0.005 A 
BRANCH  14  15
ATOM     15  C   UNL     1       6.618  -1.085   3.544  1.00  0.00     0.141 C 
ATOM     16  N   UNL     1       7.182  -0.735   4.654  1.00  0.00    -0.180 NA
BRANCH  16  17
ATOM     17  N   UNL     1       8.548  -0.703   4.685  1.00  0.00    -0.243 N 
ATOM     18  C   UNL     1       9.436  -0.156   3.771  1.00  0.00     0.271 C 
ATOM     19  H   UNL     1       8.962  -1.130   5.470  1.00  0.00     0.194 HD
ATOM     20  O   UNL     1      10.651  -0.266   3.930  1.00  0.00    -0.267 OA
BRANCH  18  21
ATOM     21  C   UNL     1       8.946   0.574   2.578  1.00  0.00     0.045 A 
ATOM     22  C   UNL     1       9.474   0.224   1.330  1.00  0.00     0.015 A 
ATOM     23  C   UNL     1       7.968   1.571   2.676  1.00  0.00     0.061 A 
ATOM     24  C   UNL     1       8.972   0.815   0.169  1.00  0.00     0.019 A 
ATOM     25  C   UNL     1       7.461   2.151   1.511  1.00  0.00     0.129 A 
ATOM     26  C   UNL     1       7.952   1.767   0.257  1.00  0.00     0.055 A 
ATOM     27  I   UNL     1       7.165   2.536  -1.521  1.00  0.00    -0.040 I 
BRANCH  25  28
ATOM     28  O   UNL     1       6.436   3.053   1.601  1.00  0.00    -0.507 OA
ATOM     29  H   UNL     1       6.090   3.447   0.825  1.00  0.00     0.293 HD
ENDBRANCH  25  28
ENDBRANCH  18  21
ENDBRANCH  16  17
ENDBRANCH  14  15
ENDBRANCH   8   9
ENDBRANCH   6   8
ENDBRANCH   4   6
ENDBRANCH   3   4
ENDBRANCH   2   3
ENDBRANCH   1   2
BRANCH   1  30
ATOM     30  O   UNL     1      -3.702  -2.222   0.614  1.00  0.00    -0.376 OA
BRANCH  30  31
ATOM     31  C   UNL     1      -2.543  -2.176  -0.207  1.00  0.00     0.188 C 
BRANCH  31  32
ATOM     32  C   UNL     1      -2.586  -1.228  -1.406  1.00  0.00     0.188 C 
BRANCH  32  33
ATOM     33  O   UNL     1      -2.832   0.138  -1.093  1.00  0.00    -0.376 OA
BRANCH  33  34
ATOM     34  C   UNL     1      -2.679   1.065  -2.176  1.00  0.00     0.202 C 
BRANCH  34  35
ATOM     35  C   UNL     1      -3.356   0.692  -3.511  1.00  0.00     0.261 C 
BRANCH  35  36
ATOM     36  O   UNL     1      -2.865  -0.525  -4.116  1.00  0.00    -0.460 OA
BRANCH  36  37
ATOM     37  C   UNL     1      -1.538  -0.606  -4.373  1.00  0.00     0.338 C 
ATOM     38  O   UNL     1      -0.739   0.316  -4.361  1.00  0.00    -0.246 OA
BRANCH  37  39
ATOM     39  C   UNL     1      -1.153  -2.044  -4.400  1.00  0.00     0.060 A 
ATOM     40  C   UNL     1       0.059  -2.414  -3.796  1.00  0.00     0.016 A 
ATOM     41  C   UNL     1      -1.996  -3.031  -4.920  1.00  0.00     0.016 A 
ATOM     42  C   UNL     1       0.440  -3.759  -3.739  1.00  0.00     0.010 A 
ATOM     43  C   UNL     1      -1.608  -4.376  -4.873  1.00  0.00     0.010 A 
ATOM     44  C   UNL     1      -0.376  -4.748  -4.305  1.00  0.00    -0.014 A 
BRANCH  44  45
ATOM     45  C   UNL     1       0.132  -6.137  -4.456  1.00  0.00     0.031 A 
ATOM     46  C   UNL     1       0.744  -6.537  -5.772  1.00  0.00     0.074 A 
ATOM     47  C   UNL     1       0.078  -7.031  -3.451  1.00  0.00     0.049 A 
ATOM     48  N   UNL     1       1.218  -7.697  -6.153  1.00  0.00    -0.248 NA
ATOM     49  C   UNL     1       0.836  -5.484  -6.796  1.00  0.00     0.031 C 
ATOM     50  C   UNL     1      -0.449  -6.774  -2.114  1.00  0.00     0.029 A 
ATOM     51  N   UNL     1       0.469  -8.350  -3.412  1.00  0.00    -0.354 N 
ATOM     52  C   UNL     1       1.661  -7.513  -7.456  1.00  0.00     0.074 A 
ATOM     53  C   UNL     1       1.377  -6.139  -7.811  1.00  0.00     0.031 C 
ATOM     54  C   UNL     1      -0.361  -7.904  -1.387  1.00  0.00     0.029 A 
ATOM     55  C   UNL     1       0.197  -8.972  -2.217  1.00  0.00     0.049 A 
ATOM     56  H   UNL     1       0.903  -8.805  -4.169  1.00  0.00     0.167 HD
ATOM     57  C   UNL     1       2.258  -8.404  -8.282  1.00  0.00     0.037 A 
ATOM     58  C   UNL     1       0.355 -10.260  -1.847  1.00  0.00     0.037 A 
ATOM     59  C   UNL     1       2.546  -9.772  -7.941  1.00  0.00     0.049 A 
ATOM     60  C   UNL     1       0.945 -11.255  -2.819  1.00  0.00     0.074 A 
ATOM     61  C   UNL     1       3.173 -10.736  -8.712  1.00  0.00     0.029 A 
ATOM     62  N   UNL     1       2.218 -10.373  -6.737  1.00  0.00    -0.354 N 
ATOM     63  N   UNL     1       1.395 -11.062  -4.035  1.00  0.00    -0.248 NA
ATOM     64  C   UNL     1       1.046 -12.651  -2.364  1.00  0.00     0.031 C 
ATOM     65  C   UNL     1       3.174 -11.937  -7.996  1.00  0.00     0.029 A 
ATOM     66  C   UNL     1       2.600 -11.706  -6.757  1.00  0.00     0.049 A 
ATOM     67  H   UNL     1       1.779  -9.922  -5.981  1.00  0.00     0.167 HD
ATOM     68  C   UNL     1       1.857 -12.298  -4.474  1.00  0.00     0.074 A 
ATOM     69  C   UNL     1       1.649 -13.233  -3.390  1.00  0.00     0.031 C 
ATOM     70  C   UNL     1       2.402 -12.629  -5.670  1.00  0.00     0.037 A 
BRANCH  57  71
ATOM     71  C   UNL     1       2.624  -7.937  -9.659  1.00  0.00     0.064 A 
ATOM     72  C   UNL     1       3.704  -7.070  -9.879  1.00  0.00     0.173 A 
ATOM     73  C   UNL     1       1.924  -8.415 -10.777  1.00  0.00     0.173 A 
ATOM     74  F   UNL     1       4.395  -6.575  -8.841  1.00  0.00    -0.203 F 
ATOM     75  C   UNL     1       4.061  -6.688 -11.169  1.00  0.00     0.198 A 
ATOM     76  C   UNL     1       2.300  -8.051 -12.066  1.00  0.00     0.198 A 
ATOM     77  F   UNL     1       0.884  -9.248 -10.618  1.00  0.00    -0.203 F 
ATOM     78  F   UNL     1       5.075  -5.832 -11.355  1.00  0.00    -0.200 F 
ATOM     79  C   UNL     1       3.366  -7.186 -12.261  1.00  0.00     0.200 A 
ATOM     80  F   UNL     1       1.635  -8.543 -13.120  1.00  0.00    -0.200 F 
ATOM     81  F   UNL     1       3.721  -6.828 -13.503  1.00  0.00    -0.200 F 
ENDBRANCH  57  71
BRANCH  58  82
ATOM     82  C   UNL     1      -0.080 -10.714  -0.497  1.00  0.00     0.064 A 
ATOM     83  C   UNL     1       0.848 -11.172   0.450  1.00  0.00     0.173 A 
ATOM     84  C   UNL     1      -1.439 -10.765  -0.154  1.00  0.00     0.173 A 
ATOM     85  F   UNL     1       2.156 -11.179   0.157  1.00  0.00    -0.203 F 
ATOM     86  C   UNL     1       0.431 -11.690   1.675  1.00  0.00     0.198 A 
ATOM     87  C   UNL     1      -1.853 -11.253   1.084  1.00  0.00     0.198 A 
ATOM     88  F   UNL     1      -2.368 -10.350  -1.027  1.00  0.00    -0.203 F 
ATOM     89  F   UNL     1       1.334 -12.184   2.533  1.00  0.00    -0.200 F 
ATOM     90  C   UNL     1      -0.919 -11.726   1.993  1.00  0.00     0.200 A 
ATOM     91  F   UNL     1      -3.157 -11.281   1.388  1.00  0.00    -0.200 F 
ATOM     92  F   UNL     1      -1.320 -12.233   3.167  1.00  0.00    -0.200 F 
ENDBRANCH  58  82
BRANCH  70  93
ATOM     93  C   UNL     1       2.851 -14.050  -5.866  1.00  0.00     0.064 A 
ATOM     94  C   UNL     1       1.933 -15.102  -6.005  1.00  0.00     0.173 A 
ATOM     95  C   UNL     1       4.218 -14.357  -5.964  1.00  0.00     0.173 A 
ATOM     96  F   UNL     1       0.617 -14.866  -5.907  1.00  0.00    -0.203 F 
ATOM     97  C   UNL     1       2.367 -16.410  -6.208  1.00  0.00     0.198 A 
ATOM     98  C   UNL     1       4.647 -15.661  -6.199  1.00  0.00     0.198 A 
ATOM     99  F   UNL     1       5.138 -13.388  -5.849  1.00  0.00    -0.203 F 
ATOM    100  F   UNL     1       1.473 -17.405  -6.290  1.00  0.00    -0.200 F 
ATOM    101  C   UNL     1       3.722 -16.687  -6.312  1.00  0.00     0.200 A 
ATOM    102  F   UNL     1       5.956 -15.923  -6.316  1.00  0.00    -0.200 F 
ATOM    103  F   UNL     1       4.137 -17.945  -6.517  1.00  0.00    -0.200 F 
ENDBRANCH  70  93
ENDBRANCH  44  45
ENDBRANCH  37  39
ENDBRANCH  36  37
ENDBRANCH  35  36
ENDBRANCH  34  35
ENDBRANCH  33  34
ENDBRANCH  32  33
ENDBRANCH  31  32
ENDBRANCH  30  31
ENDBRANCH   1  30
TORSDOF 23
