REMARK SMILES [NH3+][C@@]1(C(=O)OCCOCCOCCOC(=O)c2ccc(-c3c4nc(c(-c5c(F)c(F)c(F)c(F)c5F)c5ccc([nH]5)c(-c5c(F)c(F)c(F)c(F)c5F)c5nc(c(-c6c(F)c(F)c(F)c(F)c6F)c6ccc3[nH]6)C=C5)C=C4)cc2)CCC[C@H]1CCOC1CCCCCC1
REMARK SMILES IDX 7 1 6 2 5 3 3 4 4 5 2 6 80 7 83 8 81 9 82 10 1 11 84 15
REMARK SMILES IDX 85 16 86 17 87 18 88 19 89 20 90 21 93 23 92 24 91 25 8 27
REMARK SMILES IDX 9 28 10 29 11 30 12 31 13 32 14 33 15 34 16 35 17 36 18 37
REMARK SMILES IDX 79 38 19 39 78 40 20 41 21 42 22 43 72 44 23 45 77 46 71 47
REMARK SMILES IDX 73 48 24 49 76 50 70 51 69 52 25 54 57 55 37 56 56 57 38 58
REMARK SMILES IDX 41 59 55 60 74 61 39 62 40 63 54 65 75 66 42 67 26 68 27 69
REMARK SMILES IDX 35 70 28 71 29 72 33 73 36 74 30 75 31 76 34 77 32 78 58 79
REMARK SMILES IDX 59 80 67 81 60 82 61 83 65 84 68 85 62 86 63 87 66 88 64 89
REMARK SMILES IDX 43 90 44 91 52 92 45 93 46 94 50 95 53 96 47 97 48 98 51 99
REMARK SMILES IDX 49 100
REMARK H PARENT 1 12 1 13 1 14 73 53 41 64
REMARK Flexibility Score: 90.00
ROOT
ATOM      1  C   UNL     1      -4.485  -0.039   2.348  1.00  0.00     0.202 C 
ENDROOT
BRANCH   1   2
ATOM      2  C   UNL     1      -3.043  -0.448   2.692  1.00  0.00     0.261 C 
BRANCH   2   3
ATOM      3  O   UNL     1      -1.926   0.467   2.345  1.00  0.00    -0.459 OA
BRANCH   3   4
ATOM      4  C   UNL     1      -0.877   0.066   1.446  1.00  0.00     0.368 C 
ATOM      5  O   UNL     1      -1.543  -0.676   0.704  1.00  0.00    -0.245 OA
BRANCH   4   6
ATOM      6  C   UNL     1       1.118   0.632   1.509  1.00  0.00     0.195 C 
ATOM      7  C   UNL     1       2.289   0.206   2.716  1.00  0.00     0.081 C 
ATOM      8  C   UNL     1       1.808   2.211   1.318  1.00  0.00     0.065 C 
ATOM      9  C   UNL     1       2.747   1.430   3.478  1.00  0.00     0.008 C 
ATOM     10  C   UNL     1       2.900   2.467   2.400  1.00  0.00     0.011 C 
BRANCH   6  11
ATOM     11  N   UNL     1       2.073  -0.032   0.476  1.00  0.00    -0.343 N 
ATOM     12  H   UNL     1       1.855  -1.026   0.403  1.00  0.00     0.345 HD
ATOM     13  H   UNL     1       3.039   0.083   0.783  1.00  0.00     0.345 HD
ATOM     14  H   UNL     1       1.950   0.411  -0.434  1.00  0.00     0.345 HD
ENDBRANCH   6  11
BRANCH   8  15
ATOM     15  C   UNL     1       2.348   2.682  -0.063  1.00  0.00     0.039 C 
BRANCH  15  16
ATOM     16  C   UNL     1       1.555   2.396  -1.334  1.00  0.00     0.161 C 
BRANCH  16  17
ATOM     17  O   UNL     1       0.154   2.414  -1.198  1.00  0.00    -0.378 OA
BRANCH  17  18
ATOM     18  C   UNL     1      -0.447   1.460  -0.314  1.00  0.00     0.118 C 
BRANCH  18  19
ATOM     19  C   UNL     1      -0.049  -0.291  -0.753  1.00  0.00     0.032 C 
BRANCH  19  20
ATOM     20  C   UNL     1       0.345  -1.678   0.472  1.00  0.00     0.003 C 
BRANCH  20  21
ATOM     21  C   UNL     1       0.248  -1.595   2.337  1.00  0.00     0.000 CG0
ATOM     22  G   UNL     1      -0.069  -0.131   3.507  1.00  0.00     0.000 G0
ENDBRANCH  20  21
ENDBRANCH  19  20
ENDBRANCH  18  19
BRANCH  18  23
ATOM     23  C   UNL     1      -0.753   2.304   1.302  1.00  0.00     0.032 C 
BRANCH  23  24
ATOM     24  C   UNL     1      -0.339   1.689   3.030  1.00  0.00     0.003 C 
BRANCH  24  25
ATOM     25  C   UNL     1      -0.069  -0.131   3.507  1.00  0.00     0.000 CG0
ATOM     26  G   UNL     1       0.248  -1.595   2.337  1.00  0.00     0.000 G0
ENDBRANCH  24  25
ENDBRANCH  23  24
ENDBRANCH  18  23
ENDBRANCH  17  18
ENDBRANCH  16  17
ENDBRANCH  15  16
ENDBRANCH   8  15
ENDBRANCH   4   6
ENDBRANCH   3   4
ENDBRANCH   2   3
ENDBRANCH   1   2
BRANCH   1  27
ATOM     27  O   UNL     1      -4.978  -0.365   1.051  1.00  0.00    -0.376 OA
BRANCH  27  28
ATOM     28  C   UNL     1      -4.420   0.323  -0.062  1.00  0.00     0.188 C 
BRANCH  28  29
ATOM     29  C   UNL     1      -3.946   1.746   0.207  1.00  0.00     0.188 C 
BRANCH  29  30
ATOM     30  O   UNL     1      -4.799   2.708   0.796  1.00  0.00    -0.376 OA
BRANCH  30  31
ATOM     31  C   UNL     1      -6.095   2.802   0.246  1.00  0.00     0.202 C 
BRANCH  31  32
ATOM     32  C   UNL     1      -6.157   3.231  -1.228  1.00  0.00     0.261 C 
BRANCH  32  33
ATOM     33  O   UNL     1      -5.474   2.333  -2.140  1.00  0.00    -0.460 OA
BRANCH  33  34
ATOM     34  C   UNL     1      -4.382   2.830  -2.786  1.00  0.00     0.338 C 
ATOM     35  O   UNL     1      -3.950   3.968  -2.697  1.00  0.00    -0.246 OA
BRANCH  34  36
ATOM     36  C   UNL     1      -3.652   1.758  -3.530  1.00  0.00     0.060 A 
ATOM     37  C   UNL     1      -2.248   1.768  -3.526  1.00  0.00     0.016 A 
ATOM     38  C   UNL     1      -4.316   0.784  -4.275  1.00  0.00     0.016 A 
ATOM     39  C   UNL     1      -1.512   0.816  -4.255  1.00  0.00     0.010 A 
ATOM     40  C   UNL     1      -3.579  -0.143  -5.037  1.00  0.00     0.010 A 
ATOM     41  C   UNL     1      -2.171  -0.133  -5.046  1.00  0.00    -0.014 A 
BRANCH  41  42
ATOM     42  C   UNL     1      -1.429  -1.025  -5.991  1.00  0.00     0.031 A 
ATOM     43  C   UNL     1      -1.145  -0.542  -7.390  1.00  0.00     0.074 A 
ATOM     44  C   UNL     1      -1.041  -2.269  -5.648  1.00  0.00     0.049 A 
ATOM     45  N   UNL     1      -0.726  -1.208  -8.438  1.00  0.00    -0.248 NA
ATOM     46  C   UNL     1      -1.352   0.892  -7.633  1.00  0.00     0.031 C 
ATOM     47  C   UNL     1      -1.132  -2.845  -4.311  1.00  0.00     0.029 A 
ATOM     48  N   UNL     1      -0.509  -3.285  -6.416  1.00  0.00    -0.354 N 
ATOM     49  C   UNL     1      -0.639  -0.280  -9.470  1.00  0.00     0.074 A 
ATOM     50  C   UNL     1      -1.043   0.997  -8.918  1.00  0.00     0.031 C 
ATOM     51  C   UNL     1      -0.712  -4.123  -4.357  1.00  0.00     0.029 A 
ATOM     52  C   UNL     1      -0.380  -4.477  -5.739  1.00  0.00     0.049 A 
ATOM     53  H   UNL     1      -0.247  -3.169  -7.358  1.00  0.00     0.167 HD
ATOM     54  C   UNL     1      -0.271  -0.474 -10.761  1.00  0.00     0.037 A 
ATOM     55  C   UNL     1      -0.088  -5.718  -6.188  1.00  0.00     0.037 A 
ATOM     56  C   UNL     1       0.110  -1.745 -11.322  1.00  0.00     0.049 A 
ATOM     57  C   UNL     1       0.171  -5.944  -7.662  1.00  0.00     0.074 A 
ATOM     58  C   UNL     1       0.475  -2.039 -12.625  1.00  0.00     0.029 A 
ATOM     59  N   UNL     1       0.161  -2.937 -10.616  1.00  0.00    -0.354 N 
ATOM     60  N   UNL     1       0.226  -5.071  -8.639  1.00  0.00    -0.248 NA
ATOM     61  C   UNL     1       0.389  -7.333  -8.100  1.00  0.00     0.031 C 
ATOM     62  C   UNL     1       0.678  -3.419 -12.723  1.00  0.00     0.029 A 
ATOM     63  C   UNL     1       0.508  -3.976 -11.467  1.00  0.00     0.049 A 
ATOM     64  H   UNL     1      -0.022  -3.033  -9.653  1.00  0.00     0.167 HD
ATOM     65  C   UNL     1       0.502  -5.798  -9.793  1.00  0.00     0.074 A 
ATOM     66  C   UNL     1       0.625  -7.183  -9.396  1.00  0.00     0.031 C 
ATOM     67  C   UNL     1       0.636  -5.355 -11.068  1.00  0.00     0.037 A 
BRANCH  54  68
ATOM     68  C   UNL     1      -0.331   0.713 -11.682  1.00  0.00     0.064 A 
ATOM     69  C   UNL     1       0.579   1.776 -11.586  1.00  0.00     0.173 A 
ATOM     70  C   UNL     1      -1.302   0.772 -12.695  1.00  0.00     0.173 A 
ATOM     71  F   UNL     1       1.522   1.773 -10.632  1.00  0.00    -0.203 F 
ATOM     72  C   UNL     1       0.495   2.870 -12.444  1.00  0.00     0.198 A 
ATOM     73  C   UNL     1      -1.361   1.851 -13.572  1.00  0.00     0.198 A 
ATOM     74  F   UNL     1      -2.189  -0.224 -12.841  1.00  0.00    -0.203 F 
ATOM     75  F   UNL     1       1.340   3.901 -12.297  1.00  0.00    -0.200 F 
ATOM     76  C   UNL     1      -0.471   2.904 -13.439  1.00  0.00     0.200 A 
ATOM     77  F   UNL     1      -2.284   1.873 -14.544  1.00  0.00    -0.200 F 
ATOM     78  F   UNL     1      -0.548   3.957 -14.264  1.00  0.00    -0.200 F 
ENDBRANCH  54  68
BRANCH  55  79
ATOM     79  C   UNL     1      -0.100  -6.880  -5.251  1.00  0.00     0.064 A 
ATOM     80  C   UNL     1       1.060  -7.628  -4.998  1.00  0.00     0.173 A 
ATOM     81  C   UNL     1      -1.288  -7.306  -4.635  1.00  0.00     0.173 A 
ATOM     82  F   UNL     1       2.214  -7.297  -5.596  1.00  0.00    -0.203 F 
ATOM     83  C   UNL     1       1.029  -8.759  -4.182  1.00  0.00     0.198 A 
ATOM     84  C   UNL     1      -1.311  -8.415  -3.791  1.00  0.00     0.198 A 
ATOM     85  F   UNL     1      -2.434  -6.646  -4.859  1.00  0.00    -0.203 F 
ATOM     86  F   UNL     1       2.139  -9.491  -4.011  1.00  0.00    -0.200 F 
ATOM     87  C   UNL     1      -0.155  -9.146  -3.572  1.00  0.00     0.200 A 
ATOM     88  F   UNL     1      -2.457  -8.782  -3.201  1.00  0.00    -0.200 F 
ATOM     89  F   UNL     1      -0.184 -10.233  -2.789  1.00  0.00    -0.200 F 
ENDBRANCH  55  79
BRANCH  67  90
ATOM     90  C   UNL     1       0.953  -6.364 -12.139  1.00  0.00     0.064 A 
ATOM     91  C   UNL     1      -0.001  -7.290 -12.585  1.00  0.00     0.173 A 
ATOM     92  C   UNL     1       2.201  -6.349 -12.785  1.00  0.00     0.173 A 
ATOM     93  F   UNL     1      -1.204  -7.357 -11.995  1.00  0.00    -0.203 F 
ATOM     94  C   UNL     1       0.285  -8.170 -13.627  1.00  0.00     0.198 A 
ATOM     95  C   UNL     1       2.472  -7.209 -13.847  1.00  0.00     0.198 A 
ATOM     96  F   UNL     1       3.149  -5.480 -12.405  1.00  0.00    -0.203 F 
ATOM     97  F   UNL     1      -0.632  -9.069 -14.014  1.00  0.00    -0.200 F 
ATOM     98  C   UNL     1       1.515  -8.121 -14.265  1.00  0.00     0.200 A 
ATOM     99  F   UNL     1       3.655  -7.146 -14.473  1.00  0.00    -0.200 F 
ATOM    100  F   UNL     1       1.780  -8.953 -15.281  1.00  0.00    -0.200 F 
ENDBRANCH  67  90
ENDBRANCH  41  42
ENDBRANCH  34  36
ENDBRANCH  33  34
ENDBRANCH  32  33
ENDBRANCH  31  32
ENDBRANCH  30  31
ENDBRANCH  29  30
ENDBRANCH  28  29
ENDBRANCH  27  28
ENDBRANCH   1  27
TORSDOF 22
