REMARK SMILES CC(=O)NS(=O)(=O)c1ccc(-c2ccn(C(F)F)c(=O)c2)cc1C(=O)OCCOCCOCCOC(=O)c1ccc(-c2c3nc(c(-c4c(F)c(F)c(F)c(F)c4F)c4ccc([nH]4)c(-c4c(F)c(F)c(F)c(F)c4F)c4nc(c(-c5c(F)c(F)c(F)c(F)c5F)c5ccc2[nH]5)C=C4)C=C3)cc1
REMARK SMILES IDX 30 1 29 2 28 3 27 4 26 5 24 6 25 7 23 8 8 9 9 10 10 11 22 12
REMARK SMILES IDX 11 13 5 14 6 15 7 16 4 17 1 18 2 19 3 20 12 22 13 23 21 24
REMARK SMILES IDX 14 25 19 26 15 27 20 28 16 29 17 30 18 31 31 32 32 33 33 34
REMARK SMILES IDX 34 35 35 36 36 37 37 38 38 39 39 40 100 41 40 42 99 43 41 44
REMARK SMILES IDX 42 45 43 46 93 47 44 48 98 49 92 50 94 51 45 52 97 53 91 54
REMARK SMILES IDX 90 55 46 57 78 58 58 59 77 60 59 61 62 62 76 63 95 64 60 65
REMARK SMILES IDX 61 66 75 68 96 69 63 70 47 71 48 72 56 73 49 74 50 75 54 76
REMARK SMILES IDX 57 77 51 78 52 79 55 80 53 81 79 82 80 83 88 84 81 85 82 86
REMARK SMILES IDX 86 87 89 88 83 89 84 90 87 91 85 92 64 93 65 94 73 95 66 96
REMARK SMILES IDX 67 97 71 98 74 99 68 100 69 101 72 102 70 103
REMARK H PARENT 4 21 94 56 62 67
REMARK Flexibility Score: inf
ROOT
ATOM      1  C   UNL     1       6.546   0.788   1.555  1.00  0.00     0.188 C 
ENDROOT
BRANCH   1   2
ATOM      2  O   UNL     1       6.882   1.974   0.848  1.00  0.00    -0.376 OA
BRANCH   2   3
ATOM      3  C   UNL     1       5.888   2.977   0.659  1.00  0.00     0.202 C 
BRANCH   3   4
ATOM      4  C   UNL     1       4.641   2.547  -0.105  1.00  0.00     0.261 C 
BRANCH   4   5
ATOM      5  O   UNL     1       3.896   1.594   0.668  1.00  0.00    -0.460 OA
BRANCH   5   6
ATOM      6  C   UNL     1       3.315   0.610  -0.043  1.00  0.00     0.339 C 
ATOM      7  O   UNL     1       3.256   0.506  -1.255  1.00  0.00    -0.246 OA
BRANCH   6   8
ATOM      8  C   UNL     1       2.871  -0.463   0.862  1.00  0.00     0.081 A 
ATOM      9  C   UNL     1       2.000  -0.298   1.938  1.00  0.00     0.102 A 
ATOM     10  C   UNL     1       1.620  -1.414   2.705  1.00  0.00     0.024 A 
ATOM     11  C   UNL     1       2.068  -2.694   2.365  1.00  0.00     0.010 A 
ATOM     12  C   UNL     1       3.320  -1.750   0.529  1.00  0.00     0.025 A 
ATOM     13  C   UNL     1       2.899  -2.869   1.256  1.00  0.00    -0.017 A 
BRANCH   9  14
ATOM     14  S   UNL     1       1.172   1.229   2.281  1.00  0.00     0.264 S 
ATOM     15  O   UNL     1       2.085   2.043   3.051  1.00  0.00    -0.201 OA
ATOM     16  O   UNL     1      -0.142   0.900   2.782  1.00  0.00    -0.201 OA
BRANCH  14  17
ATOM     17  N   UNL     1       0.957   1.979   0.823  1.00  0.00    -0.249 N 
ATOM     18  C   UNL     1      -0.321   0.230  -0.420  1.00  0.00     0.115 C 
ATOM     19  C   UNL     1       0.020   1.673  -0.174  1.00  0.00     0.230 C 
ATOM     20  O   UNL     1      -0.366   2.569  -0.913  1.00  0.00    -0.274 OA
ATOM     21  H   UNL     1       1.560   2.733   0.631  1.00  0.00     0.183 HD
ENDBRANCH  14  17
ENDBRANCH   9  14
BRANCH  13  22
ATOM     22  C   UNL     1       3.269  -4.209   0.781  1.00  0.00    -0.011 A 
ATOM     23  C   UNL     1       4.424  -4.940   1.256  1.00  0.00     0.027 A 
ATOM     24  C   UNL     1       2.514  -4.732  -0.199  1.00  0.00     0.080 A 
ATOM     25  C   UNL     1       4.769  -6.101   0.685  1.00  0.00     0.095 A 
ATOM     26  C   UNL     1       2.871  -6.031  -0.829  1.00  0.00     0.255 A 
ATOM     27  N   UNL     1       4.019  -6.638  -0.347  1.00  0.00    -0.258 N 
ATOM     28  O   UNL     1       2.155  -6.456  -1.730  1.00  0.00    -0.269 OA
BRANCH  27  29
ATOM     29  C   UNL     1       4.421  -7.864  -0.988  1.00  0.00     0.451 C 
ATOM     30  F   UNL     1       3.448  -8.802  -0.898  1.00  0.00    -0.185 F 
ATOM     31  F   UNL     1       4.681  -7.652  -2.302  1.00  0.00    -0.185 F 
ENDBRANCH  27  29
ENDBRANCH  13  22
ENDBRANCH   6   8
ENDBRANCH   5   6
ENDBRANCH   4   5
ENDBRANCH   3   4
ENDBRANCH   2   3
ENDBRANCH   1   2
BRANCH   1  32
ATOM     32  C   UNL     1       5.809   0.867   2.909  1.00  0.00     0.188 C 
BRANCH  32  33
ATOM     33  O   UNL     1       5.776   2.084   3.631  1.00  0.00    -0.376 OA
BRANCH  33  34
ATOM     34  C   UNL     1       6.996   2.768   3.884  1.00  0.00     0.202 C 
BRANCH  34  35
ATOM     35  C   UNL     1       7.989   2.054   4.794  1.00  0.00     0.261 C 
BRANCH  35  36
ATOM     36  O   UNL     1       8.543   0.900   4.139  1.00  0.00    -0.460 OA
BRANCH  36  37
ATOM     37  C   UNL     1       8.425  -0.261   4.822  1.00  0.00     0.338 C 
ATOM     38  O   UNL     1       7.985  -0.429   5.945  1.00  0.00    -0.246 OA
BRANCH  37  39
ATOM     39  C   UNL     1       8.741  -1.379   3.917  1.00  0.00     0.060 A 
ATOM     40  C   UNL     1       7.775  -2.382   3.760  1.00  0.00     0.016 A 
ATOM     41  C   UNL     1       9.975  -1.468   3.271  1.00  0.00     0.016 A 
ATOM     42  C   UNL     1       8.055  -3.497   2.977  1.00  0.00     0.010 A 
ATOM     43  C   UNL     1      10.261  -2.596   2.499  1.00  0.00     0.010 A 
ATOM     44  C   UNL     1       9.311  -3.624   2.369  1.00  0.00    -0.014 A 
BRANCH  44  45
ATOM     45  C   UNL     1       9.682  -4.900   1.719  1.00  0.00     0.031 A 
ATOM     46  C   UNL     1      10.376  -5.952   2.534  1.00  0.00     0.074 A 
ATOM     47  C   UNL     1       9.392  -5.123   0.427  1.00  0.00     0.049 A 
ATOM     48  N   UNL     1      10.839  -7.117   2.161  1.00  0.00    -0.248 NA
ATOM     49  C   UNL     1      10.564  -5.654   3.962  1.00  0.00     0.031 C 
ATOM     50  C   UNL     1       8.674  -4.200  -0.449  1.00  0.00     0.029 A 
ATOM     51  N   UNL     1       9.687  -6.195  -0.377  1.00  0.00    -0.354 N 
ATOM     52  C   UNL     1      11.370  -7.692   3.307  1.00  0.00     0.074 A 
ATOM     53  C   UNL     1      11.189  -6.742   4.384  1.00  0.00     0.031 C 
ATOM     54  C   UNL     1       8.608  -4.734  -1.681  1.00  0.00     0.029 A 
ATOM     55  C   UNL     1       9.312  -6.016  -1.685  1.00  0.00     0.049 A 
ATOM     56  H   UNL     1      10.125  -7.013  -0.047  1.00  0.00     0.167 HD
ATOM     57  C   UNL     1      11.953  -8.906   3.448  1.00  0.00     0.037 A 
ATOM     58  C   UNL     1       9.550  -6.783  -2.766  1.00  0.00     0.037 A 
ATOM     59  C   UNL     1      12.158  -9.837   2.372  1.00  0.00     0.049 A 
ATOM     60  C   UNL     1      10.325  -8.065  -2.610  1.00  0.00     0.074 A 
ATOM     61  C   UNL     1      12.709 -11.105   2.418  1.00  0.00     0.029 A 
ATOM     62  N   UNL     1      11.841  -9.585   1.046  1.00  0.00    -0.354 N 
ATOM     63  N   UNL     1      10.792  -8.621  -1.518  1.00  0.00    -0.248 NA
ATOM     64  C   UNL     1      10.617  -8.817  -3.839  1.00  0.00     0.031 C 
ATOM     65  C   UNL     1      12.771 -11.601   1.111  1.00  0.00     0.029 A 
ATOM     66  C   UNL     1      12.220 -10.659   0.257  1.00  0.00     0.049 A 
ATOM     67  H   UNL     1      11.411  -8.765   0.714  1.00  0.00     0.167 HD
ATOM     68  C   UNL     1      11.419  -9.793  -1.925  1.00  0.00     0.074 A 
ATOM     69  C   UNL     1      11.260  -9.874  -3.362  1.00  0.00     0.031 C 
ATOM     70  C   UNL     1      12.066 -10.719  -1.175  1.00  0.00     0.037 A 
BRANCH  57  71
ATOM     71  C   UNL     1      12.440  -9.274   4.817  1.00  0.00     0.064 A 
ATOM     72  C   UNL     1      11.548  -9.615   5.845  1.00  0.00     0.173 A 
ATOM     73  C   UNL     1      13.813  -9.292   5.102  1.00  0.00     0.173 A 
ATOM     74  F   UNL     1      10.225  -9.594   5.625  1.00  0.00    -0.203 F 
ATOM     75  C   UNL     1      12.014  -9.934   7.117  1.00  0.00     0.198 A 
ATOM     76  C   UNL     1      14.276  -9.633   6.369  1.00  0.00     0.198 A 
ATOM     77  F   UNL     1      14.704  -8.972   4.152  1.00  0.00    -0.203 F 
ATOM     78  F   UNL     1      11.143 -10.210   8.098  1.00  0.00    -0.200 F 
ATOM     79  C   UNL     1      13.376  -9.947   7.378  1.00  0.00     0.200 A 
ATOM     80  F   UNL     1      15.592  -9.650   6.618  1.00  0.00    -0.200 F 
ATOM     81  F   UNL     1      13.823 -10.251   8.604  1.00  0.00    -0.200 F 
ENDBRANCH  57  71
BRANCH  58  82
ATOM     82  C   UNL     1       9.078  -6.342  -4.103  1.00  0.00     0.064 A 
ATOM     83  C   UNL     1       8.033  -7.011  -4.753  1.00  0.00     0.173 A 
ATOM     84  C   UNL     1       9.670  -5.254  -4.760  1.00  0.00     0.173 A 
ATOM     85  F   UNL     1       7.463  -8.078  -4.174  1.00  0.00    -0.203 F 
ATOM     86  C   UNL     1       7.602  -6.612  -6.016  1.00  0.00     0.198 A 
ATOM     87  C   UNL     1       9.223  -4.842  -6.013  1.00  0.00     0.198 A 
ATOM     88  F   UNL     1      10.681  -4.589  -4.181  1.00  0.00    -0.203 F 
ATOM     89  F   UNL     1       6.629  -7.293  -6.636  1.00  0.00    -0.200 F 
ATOM     90  C   UNL     1       8.192  -5.524  -6.642  1.00  0.00     0.200 A 
ATOM     91  F   UNL     1       9.795  -3.788  -6.612  1.00  0.00    -0.200 F 
ATOM     92  F   UNL     1       7.777  -5.139  -7.856  1.00  0.00    -0.200 F 
ENDBRANCH  58  82
BRANCH  70  93
ATOM     93  C   UNL     1      12.642 -11.905  -1.890  1.00  0.00     0.064 A 
ATOM     94  C   UNL     1      13.807 -11.797  -2.663  1.00  0.00     0.173 A 
ATOM     95  C   UNL     1      12.051 -13.171  -1.763  1.00  0.00     0.173 A 
ATOM     96  F   UNL     1      14.398 -10.604  -2.829  1.00  0.00    -0.203 F 
ATOM     97  C   UNL     1      14.351 -12.912  -3.296  1.00  0.00     0.198 A 
ATOM     98  C   UNL     1      12.612 -14.288  -2.376  1.00  0.00     0.198 A 
ATOM     99  F   UNL     1      10.939 -13.326  -1.029  1.00  0.00    -0.203 F 
ATOM    100  F   UNL     1      15.444 -12.779  -4.060  1.00  0.00    -0.200 F 
ATOM    101  C   UNL     1      13.758 -14.157  -3.146  1.00  0.00     0.200 A 
ATOM    102  F   UNL     1      12.044 -15.492  -2.220  1.00  0.00    -0.200 F 
ATOM    103  F   UNL     1      14.288 -15.230  -3.748  1.00  0.00    -0.200 F 
ENDBRANCH  70  93
ENDBRANCH  44  45
ENDBRANCH  37  39
ENDBRANCH  36  37
ENDBRANCH  35  36
ENDBRANCH  34  35
ENDBRANCH  33  34
ENDBRANCH  32  33
ENDBRANCH   1  32
TORSDOF 21
