REMARK SMILES CC1(C)CCC[N@H+](CC[C@@H]2CCC[C@]2([NH3+])C(=O)OCCOCCOCCOC(=O)c2ccc(-c3c4nc(c(-c5c(F)c(F)c(F)c(F)c5F)c5ccc([nH]5)c(-c5c(F)c(F)c(F)c(F)c5F)c5nc(c(-c6c(F)c(F)c(F)c(F)c6F)c6ccc3[nH]6)C=C5)C=C4)cc2)CC1
REMARK SMILES IDX 20 1 19 2 18 3 16 4 17 5 14 6 10 7 11 8 12 9 13 10 9 11 8 12
REMARK SMILES IDX 7 13 6 15 5 16 4 17 2 18 1 19 3 20 93 22 94 23 15 25 21 29
REMARK SMILES IDX 22 30 23 31 24 32 25 33 26 34 27 35 28 36 29 37 30 38 31 39
REMARK SMILES IDX 92 40 32 41 91 42 33 43 34 44 35 45 85 46 36 47 90 48 84 49
REMARK SMILES IDX 86 50 37 51 89 52 83 53 82 54 38 56 70 57 50 58 69 59 51 60
REMARK SMILES IDX 54 61 68 62 87 63 52 64 53 65 67 67 88 68 55 69 39 70 40 71
REMARK SMILES IDX 48 72 41 73 42 74 46 75 49 76 43 77 44 78 47 79 45 80 71 81
REMARK SMILES IDX 72 82 80 83 73 84 74 85 78 86 81 87 75 88 76 89 79 90 77 91
REMARK SMILES IDX 56 92 57 93 65 94 58 95 59 96 63 97 66 98 60 99 61 100
REMARK SMILES IDX 64 101 62 102
REMARK H PARENT 7 14 15 26 15 27 15 28 86 55 54 66
REMARK Flexibility Score: 80.00
ROOT
ATOM      1  C   UNL     1       0.498   6.148   8.473  1.00  0.00     0.202 C 
ENDROOT
BRANCH   1   2
ATOM      2  C   UNL     1      -0.109   6.980   7.337  1.00  0.00     0.261 C 
BRANCH   2   3
ATOM      3  O   UNL     1       0.087   6.472   6.003  1.00  0.00    -0.459 OA
BRANCH   3   4
ATOM      4  C   UNL     1       0.991   7.141   5.246  1.00  0.00     0.368 C 
ATOM      5  O   UNL     1       1.677   8.067   5.678  1.00  0.00    -0.245 OA
BRANCH   4   6
ATOM      6  C   UNL     1       0.996   6.753   3.725  1.00  0.00     0.195 C 
ATOM      7  C   UNL     1       0.784   5.299   3.212  1.00  0.00     0.068 C 
ATOM      8  C   UNL     1       2.157   4.611   3.414  1.00  0.00     0.011 C 
ATOM      9  C   UNL     1       3.184   5.715   3.600  1.00  0.00     0.008 C 
ATOM     10  C   UNL     1       2.448   6.993   3.223  1.00  0.00     0.081 C 
BRANCH   7  11
ATOM     11  C   UNL     1      -0.429   4.446   3.661  1.00  0.00     0.072 C 
BRANCH  11  12
ATOM     12  C   UNL     1      -1.640   4.345   2.696  1.00  0.00     0.262 C 
BRANCH  12  13
ATOM     13  N   UNL     1      -1.578   3.424   1.552  1.00  0.00    -0.335 N 
ATOM     14  H   UNL     1      -2.476   3.585   1.095  1.00  0.00     0.348 HD
BRANCH  13  15
ATOM     15  C   UNL     1      -0.742   3.815   0.437  1.00  0.00     0.262 C 
BRANCH  15  16
ATOM     16  C   UNL     1       0.690   3.317   0.551  1.00  0.00     0.062 C 
BRANCH  16  17
ATOM     17  C   UNL     1       0.957   1.952  -0.045  1.00  0.00     0.012 C 
BRANCH  17  18
ATOM     18  C   UNL     1       0.290   0.772   0.693  1.00  0.00    -0.030 CG0
ATOM     19  C   UNL     1       0.572  -0.482  -0.165  1.00  0.00     0.011 C 
ATOM     20  C   UNL     1       0.936   0.528   2.075  1.00  0.00     0.011 C 
ATOM     21  G   UNL     1      -1.246   0.965   0.823  1.00  0.00     0.000 G0
ENDBRANCH  17  18
ENDBRANCH  16  17
ENDBRANCH  15  16
ENDBRANCH  13  15
BRANCH  13  22
ATOM     22  C   UNL     1      -1.744   2.006   1.854  1.00  0.00     0.262 C 
BRANCH  22  23
ATOM     23  C   UNL     1      -1.246   0.965   0.823  1.00  0.00     0.068 CG0
ATOM     24  G   UNL     1       0.290   0.772   0.693  1.00  0.00     0.000 G0
ENDBRANCH  22  23
ENDBRANCH  13  22
ENDBRANCH  12  13
ENDBRANCH  11  12
ENDBRANCH   7  11
BRANCH   6  25
ATOM     25  N   UNL     1       0.064   7.678   3.043  1.00  0.00    -0.343 N 
ATOM     26  H   UNL     1       0.036   7.459   2.047  1.00  0.00     0.345 HD
ATOM     27  H   UNL     1       0.382   8.638   3.172  1.00  0.00     0.345 HD
ATOM     28  H   UNL     1      -0.870   7.572   3.440  1.00  0.00     0.345 HD
ENDBRANCH   6  25
ENDBRANCH   4   6
ENDBRANCH   3   4
ENDBRANCH   2   3
ENDBRANCH   1   2
BRANCH   1  29
ATOM     29  O   UNL     1       1.864   5.783   8.359  1.00  0.00    -0.376 OA
BRANCH  29  30
ATOM     30  C   UNL     1       2.258   4.824   7.384  1.00  0.00     0.188 C 
BRANCH  30  31
ATOM     31  C   UNL     1       1.231   3.842   6.807  1.00  0.00     0.188 C 
BRANCH  31  32
ATOM     32  O   UNL     1       0.274   3.425   7.760  1.00  0.00    -0.376 OA
BRANCH  32  33
ATOM     33  C   UNL     1       0.143   2.028   7.936  1.00  0.00     0.202 C 
BRANCH  33  34
ATOM     34  C   UNL     1       1.285   1.425   8.759  1.00  0.00     0.261 C 
BRANCH  34  35
ATOM     35  O   UNL     1       2.613   1.712   8.277  1.00  0.00    -0.460 OA
BRANCH  35  36
ATOM     36  C   UNL     1       3.016   1.066   7.159  1.00  0.00     0.338 C 
ATOM     37  O   UNL     1       2.373   0.269   6.505  1.00  0.00    -0.246 OA
BRANCH  36  38
ATOM     38  C   UNL     1       4.322   1.632   6.741  1.00  0.00     0.060 A 
ATOM     39  C   UNL     1       4.451   2.148   5.446  1.00  0.00     0.016 A 
ATOM     40  C   UNL     1       5.417   1.636   7.608  1.00  0.00     0.016 A 
ATOM     41  C   UNL     1       5.678   2.657   5.007  1.00  0.00     0.010 A 
ATOM     42  C   UNL     1       6.652   2.121   7.160  1.00  0.00     0.010 A 
ATOM     43  C   UNL     1       6.798   2.614   5.849  1.00  0.00    -0.014 A 
BRANCH  43  44
ATOM     44  C   UNL     1       8.155   2.909   5.316  1.00  0.00     0.031 A 
ATOM     45  C   UNL     1       9.037   1.756   4.918  1.00  0.00     0.074 A 
ATOM     46  C   UNL     1       8.606   4.168   5.175  1.00  0.00     0.049 A 
ATOM     47  N   UNL     1      10.291   1.752   4.544  1.00  0.00    -0.248 NA
ATOM     48  C   UNL     1       8.412   0.424   4.944  1.00  0.00     0.031 C 
ATOM     49  C   UNL     1       7.838   5.379   5.451  1.00  0.00     0.029 A 
ATOM     50  N   UNL     1       9.836   4.633   4.773  1.00  0.00    -0.354 N 
ATOM     51  C   UNL     1      10.610   0.420   4.307  1.00  0.00     0.074 A 
ATOM     52  C   UNL     1       9.423  -0.356   4.595  1.00  0.00     0.031 C 
ATOM     53  C   UNL     1       8.620   6.450   5.229  1.00  0.00     0.029 A 
ATOM     54  C   UNL     1       9.957   6.000   4.842  1.00  0.00     0.049 A 
ATOM     55  H   UNL     1      10.562   4.043   4.466  1.00  0.00     0.167 HD
ATOM     56  C   UNL     1      11.784  -0.108   3.885  1.00  0.00     0.037 A 
ATOM     57  C   UNL     1      11.033   6.791   4.652  1.00  0.00     0.037 A 
ATOM     58  C   UNL     1      12.967   0.661   3.601  1.00  0.00     0.049 A 
ATOM     59  C   UNL     1      12.360   6.170   4.284  1.00  0.00     0.074 A 
ATOM     60  C   UNL     1      14.205   0.214   3.173  1.00  0.00     0.029 A 
ATOM     61  N   UNL     1      13.061   2.039   3.725  1.00  0.00    -0.354 N 
ATOM     62  N   UNL     1      12.658   4.912   4.067  1.00  0.00    -0.248 NA
ATOM     63  C   UNL     1      13.504   7.085   4.140  1.00  0.00     0.031 C 
ATOM     64  C   UNL     1      15.064   1.315   3.093  1.00  0.00     0.029 A 
ATOM     65  C   UNL     1      14.345   2.456   3.407  1.00  0.00     0.049 A 
ATOM     66  H   UNL     1      12.326   2.634   3.998  1.00  0.00     0.167 HD
ATOM     67  C   UNL     1      14.007   4.888   3.730  1.00  0.00     0.074 A 
ATOM     68  C   UNL     1      14.469   6.259   3.759  1.00  0.00     0.031 C 
ATOM     69  C   UNL     1      14.792   3.825   3.423  1.00  0.00     0.037 A 
BRANCH  56  70
ATOM     70  C   UNL     1      11.859  -1.601   3.748  1.00  0.00     0.064 A 
ATOM     71  C   UNL     1      11.180  -2.287   2.731  1.00  0.00     0.173 A 
ATOM     72  C   UNL     1      12.642  -2.354   4.637  1.00  0.00     0.173 A 
ATOM     73  F   UNL     1      10.405  -1.617   1.865  1.00  0.00    -0.203 F 
ATOM     74  C   UNL     1      11.258  -3.674   2.626  1.00  0.00     0.198 A 
ATOM     75  C   UNL     1      12.744  -3.736   4.510  1.00  0.00     0.198 A 
ATOM     76  F   UNL     1      13.316  -1.747   5.626  1.00  0.00    -0.203 F 
ATOM     77  F   UNL     1      10.558  -4.314   1.679  1.00  0.00    -0.200 F 
ATOM     78  C   UNL     1      12.045  -4.396   3.511  1.00  0.00     0.200 A 
ATOM     79  F   UNL     1      13.516  -4.430   5.358  1.00  0.00    -0.200 F 
ATOM     80  F   UNL     1      12.124  -5.730   3.406  1.00  0.00    -0.200 F 
ENDBRANCH  56  70
BRANCH  57  81
ATOM     81  C   UNL     1      10.924   8.264   4.841  1.00  0.00     0.064 A 
ATOM     82  C   UNL     1      11.089   9.148   3.766  1.00  0.00     0.173 A 
ATOM     83  C   UNL     1      10.699   8.819   6.110  1.00  0.00     0.173 A 
ATOM     84  F   UNL     1      11.341   8.669   2.538  1.00  0.00    -0.203 F 
ATOM     85  C   UNL     1      11.055  10.529   3.955  1.00  0.00     0.198 A 
ATOM     86  C   UNL     1      10.633  10.199   6.293  1.00  0.00     0.198 A 
ATOM     87  F   UNL     1      10.546   8.020   7.176  1.00  0.00    -0.203 F 
ATOM     88  F   UNL     1      11.275  11.350   2.920  1.00  0.00    -0.200 F 
ATOM     89  C   UNL     1      10.820  11.053   5.217  1.00  0.00     0.200 A 
ATOM     90  F   UNL     1      10.399  10.700   7.513  1.00  0.00    -0.200 F 
ATOM     91  F   UNL     1      10.791  12.380   5.399  1.00  0.00    -0.200 F 
ENDBRANCH  57  81
BRANCH  69  92
ATOM     92  C   UNL     1      16.221   4.098   3.040  1.00  0.00     0.064 A 
ATOM     93  C   UNL     1      17.173   4.524   3.978  1.00  0.00     0.173 A 
ATOM     94  C   UNL     1      16.653   3.882   1.722  1.00  0.00     0.173 A 
ATOM     95  F   UNL     1      16.811   4.758   5.248  1.00  0.00    -0.203 F 
ATOM     96  C   UNL     1      18.497   4.747   3.605  1.00  0.00     0.198 A 
ATOM     97  C   UNL     1      17.984   4.073   1.360  1.00  0.00     0.198 A 
ATOM     98  F   UNL     1      15.787   3.466   0.785  1.00  0.00    -0.203 F 
ATOM     99  F   UNL     1      19.378   5.199   4.508  1.00  0.00    -0.200 F 
ATOM    100  C   UNL     1      18.903   4.513   2.300  1.00  0.00     0.200 A 
ATOM    101  F   UNL     1      18.377   3.830   0.102  1.00  0.00    -0.200 F 
ATOM    102  F   UNL     1      20.179   4.717   1.946  1.00  0.00    -0.200 F 
ENDBRANCH  69  92
ENDBRANCH  43  44
ENDBRANCH  36  38
ENDBRANCH  35  36
ENDBRANCH  34  35
ENDBRANCH  33  34
ENDBRANCH  32  33
ENDBRANCH  31  32
ENDBRANCH  30  31
ENDBRANCH  29  30
ENDBRANCH   1  29
TORSDOF 21
