REMARK SMILES COc1cccc2c(C)cc(S[C@H](C)C(=O)Nc3ccc(C(=O)OCCOCCOCCOC(=O)c4ccc(-c5c6nc(c(-c7c(F)c(F)c(F)c(F)c7F)c7ccc([nH]7)c(-c7c(F)c(F)c(F)c(F)c7F)c7nc(c(-c8c(F)c(F)c(F)c(F)c8F)c8ccc5[nH]8)C=C7)C=C6)cc4)cc3)nc12
REMARK SMILES IDX 27 1 26 2 25 3 24 4 22 5 23 6 21 7 18 8 19 9 100 10 20 11
REMARK SMILES IDX 99 12 17 13 15 14 16 15 13 17 14 18 12 19 11 20 3 21 4 22
REMARK SMILES IDX 102 23 5 24 7 25 101 26 6 27 8 28 9 29 10 30 2 31 1 32 28 33
REMARK SMILES IDX 29 34 30 35 31 36 32 37 33 38 34 39 35 40 36 41 37 42 98 43
REMARK SMILES IDX 38 44 97 45 39 46 40 47 41 48 91 49 42 50 96 51 90 52 92 53
REMARK SMILES IDX 43 54 95 55 89 56 88 57 44 59 76 60 56 61 75 62 57 63 60 64
REMARK SMILES IDX 74 65 93 66 58 67 59 68 73 70 94 71 61 72 45 73 46 74 54 75
REMARK SMILES IDX 47 76 48 77 52 78 55 79 49 80 50 81 53 82 51 83 77 84 78 85
REMARK SMILES IDX 86 86 79 87 80 88 84 89 87 90 81 91 82 92 85 93 83 94 62 95
REMARK SMILES IDX 63 96 71 97 64 98 65 99 69 100 72 101 66 102 67 103 70 104
REMARK SMILES IDX 68 105
REMARK H PARENT 17 16 92 58 60 69
REMARK Flexibility Score: inf
ROOT
ATOM      1  O   UNL     1       0.097  -3.276  -6.223  1.00  0.00    -0.376 OA
ENDROOT
BRANCH   1   2
ATOM      2  C   UNL     1       0.527  -4.396  -5.473  1.00  0.00     0.202 C 
BRANCH   2   3
ATOM      3  C   UNL     1       1.865  -4.513  -4.731  1.00  0.00     0.261 C 
BRANCH   3   4
ATOM      4  O   UNL     1       2.491  -3.310  -4.289  1.00  0.00    -0.460 OA
BRANCH   4   5
ATOM      5  C   UNL     1       3.562  -2.922  -5.028  1.00  0.00     0.338 C 
ATOM      6  O   UNL     1       3.985  -3.484  -6.026  1.00  0.00    -0.246 OA
BRANCH   5   7
ATOM      7  C   UNL     1       4.065  -1.602  -4.574  1.00  0.00     0.060 A 
ATOM      8  C   UNL     1       5.268   0.758  -3.746  1.00  0.00     0.041 A 
ATOM      9  C   UNL     1       5.448   0.322  -5.056  1.00  0.00     0.027 A 
ATOM     10  C   UNL     1       4.331   0.143  -2.925  1.00  0.00     0.027 A 
ATOM     11  C   UNL     1       4.866  -0.875  -5.461  1.00  0.00     0.018 A 
ATOM     12  C   UNL     1       3.741  -1.052  -3.329  1.00  0.00     0.018 A 
BRANCH   8  13
ATOM     13  N   UNL     1       6.088   1.784  -3.289  1.00  0.00    -0.325 N 
ATOM     14  C   UNL     1       6.979   1.745  -2.252  1.00  0.00     0.237 C 
ATOM     15  O   UNL     1       7.685   2.754  -2.107  1.00  0.00    -0.273 OA
ATOM     16  H   UNL     1       6.020   2.640  -3.769  1.00  0.00     0.169 HD
BRANCH  14  17
ATOM     17  C   UNL     1       7.148   0.561  -1.280  1.00  0.00     0.139 C 
ATOM     18  C   UNL     1       6.158   0.591  -0.130  1.00  0.00     0.030 C 
BRANCH  17  19
ATOM     19  S   UNL     1       7.763  -0.993  -2.096  1.00  0.00    -0.093 SA
BRANCH  19  20
ATOM     20  C   UNL     1       6.584  -2.323  -1.964  1.00  0.00     0.098 A 
ATOM     21  C   UNL     1       5.951  -5.332  -3.989  1.00  0.00     0.145 A 
ATOM     22  C   UNL     1       5.050  -6.404  -4.064  1.00  0.00     0.049 A 
ATOM     23  C   UNL     1       5.863  -4.339  -2.986  1.00  0.00     0.114 A 
ATOM     24  C   UNL     1       4.056  -6.546  -3.114  1.00  0.00     0.005 A 
ATOM     25  C   UNL     1       4.828  -4.488  -2.034  1.00  0.00     0.007 A 
ATOM     26  N   UNL     1       6.686  -3.253  -2.946  1.00  0.00    -0.238 NA
ATOM     27  C   UNL     1       3.945  -5.592  -2.110  1.00  0.00     0.011 A 
ATOM     28  C   UNL     1       4.704  -3.500  -1.036  1.00  0.00    -0.039 A 
ATOM     29  C   UNL     1       3.537  -3.462  -0.083  1.00  0.00     0.045 C 
ATOM     30  C   UNL     1       5.652  -2.474  -0.961  1.00  0.00     0.039 A 
BRANCH  21  31
ATOM     31  O   UNL     1       6.848  -5.320  -5.036  1.00  0.00    -0.494 OA
ATOM     32  C   UNL     1       8.192  -5.064  -4.649  1.00  0.00     0.278 C 
ENDBRANCH  21  31
ENDBRANCH  19  20
ENDBRANCH  17  19
ENDBRANCH  14  17
ENDBRANCH   8  13
ENDBRANCH   5   7
ENDBRANCH   4   5
ENDBRANCH   3   4
ENDBRANCH   2   3
ENDBRANCH   1   2
BRANCH   1  33
ATOM     33  C   UNL     1       0.754  -2.036  -6.114  1.00  0.00     0.188 C 
BRANCH  33  34
ATOM     34  C   UNL     1       0.556  -1.209  -4.828  1.00  0.00     0.188 C 
BRANCH  34  35
ATOM     35  O   UNL     1      -0.098  -1.773  -3.713  1.00  0.00    -0.376 OA
BRANCH  35  36
ATOM     36  C   UNL     1      -1.460  -2.150  -3.832  1.00  0.00     0.202 C 
BRANCH  36  37
ATOM     37  C   UNL     1      -2.471  -1.463  -4.774  1.00  0.00     0.261 C 
BRANCH  37  38
ATOM     38  O   UNL     1      -1.980  -0.951  -6.019  1.00  0.00    -0.460 OA
BRANCH  38  39
ATOM     39  C   UNL     1      -1.870   0.399  -6.109  1.00  0.00     0.338 C 
ATOM     40  O   UNL     1      -2.145   1.224  -5.252  1.00  0.00    -0.246 OA
BRANCH  39  41
ATOM     41  C   UNL     1      -1.148   0.731  -7.354  1.00  0.00     0.060 A 
ATOM     42  C   UNL     1       0.126   1.322  -7.279  1.00  0.00     0.016 A 
ATOM     43  C   UNL     1      -1.722   0.445  -8.591  1.00  0.00     0.016 A 
ATOM     44  C   UNL     1       0.830   1.628  -8.445  1.00  0.00     0.010 A 
ATOM     45  C   UNL     1      -1.034   0.788  -9.756  1.00  0.00     0.010 A 
ATOM     46  C   UNL     1       0.233   1.399  -9.690  1.00  0.00    -0.014 A 
BRANCH  46  47
ATOM     47  C   UNL     1       0.809   1.975 -10.928  1.00  0.00     0.031 A 
ATOM     48  C   UNL     1       0.250   3.281 -11.416  1.00  0.00     0.074 A 
ATOM     49  C   UNL     1       1.754   1.334 -11.636  1.00  0.00     0.049 A 
ATOM     50  N   UNL     1       0.427   3.890 -12.559  1.00  0.00    -0.248 NA
ATOM     51  C   UNL     1      -0.645   3.989 -10.486  1.00  0.00     0.031 C 
ATOM     52  C   UNL     1       2.417   0.095 -11.239  1.00  0.00     0.029 A 
ATOM     53  N   UNL     1       2.295   1.631 -12.863  1.00  0.00    -0.354 N 
ATOM     54  C   UNL     1      -0.351   5.037 -12.495  1.00  0.00     0.074 A 
ATOM     55  C   UNL     1      -1.016   5.032 -11.210  1.00  0.00     0.031 C 
ATOM     56  C   UNL     1       3.255  -0.282 -12.221  1.00  0.00     0.029 A 
ATOM     57  C   UNL     1       3.147   0.661 -13.334  1.00  0.00     0.049 A 
ATOM     58  H   UNL     1       2.092   2.458 -13.357  1.00  0.00     0.167 HD
ATOM     59  C   UNL     1      -0.499   6.007 -13.427  1.00  0.00     0.037 A 
ATOM     60  C   UNL     1       3.732   0.533 -14.542  1.00  0.00     0.037 A 
ATOM     61  C   UNL     1       0.158   6.000 -14.706  1.00  0.00     0.049 A 
ATOM     62  C   UNL     1       3.477   1.577 -15.604  1.00  0.00     0.074 A 
ATOM     63  C   UNL     1       0.084   6.940 -15.719  1.00  0.00     0.029 A 
ATOM     64  N   UNL     1       1.003   4.994 -15.152  1.00  0.00    -0.354 N 
ATOM     65  N   UNL     1       2.750   2.667 -15.540  1.00  0.00    -0.248 NA
ATOM     66  C   UNL     1       4.118   1.368 -16.912  1.00  0.00     0.031 C 
ATOM     67  C   UNL     1       0.835   6.473 -16.801  1.00  0.00     0.029 A 
ATOM     68  C   UNL     1       1.434   5.277 -16.437  1.00  0.00     0.049 A 
ATOM     69  H   UNL     1       1.257   4.197 -14.633  1.00  0.00     0.167 HD
ATOM     70  C   UNL     1       2.881   3.291 -16.775  1.00  0.00     0.074 A 
ATOM     71  C   UNL     1       3.756   2.459 -17.572  1.00  0.00     0.031 C 
ATOM     72  C   UNL     1       2.329   4.451 -17.208  1.00  0.00     0.037 A 
BRANCH  59  73
ATOM     73  C   UNL     1      -1.438   7.134 -13.112  1.00  0.00     0.064 A 
ATOM     74  C   UNL     1      -1.143   8.092 -12.131  1.00  0.00     0.173 A 
ATOM     75  C   UNL     1      -2.642   7.271 -13.821  1.00  0.00     0.173 A 
ATOM     76  F   UNL     1      -0.013   7.997 -11.414  1.00  0.00    -0.203 F 
ATOM     77  C   UNL     1      -2.030   9.128 -11.852  1.00  0.00     0.198 A 
ATOM     78  C   UNL     1      -3.510   8.328 -13.563  1.00  0.00     0.198 A 
ATOM     79  F   UNL     1      -2.973   6.384 -14.771  1.00  0.00    -0.203 F 
ATOM     80  F   UNL     1      -1.751  10.001 -10.874  1.00  0.00    -0.200 F 
ATOM     81  C   UNL     1      -3.208   9.250 -12.573  1.00  0.00     0.200 A 
ATOM     82  F   UNL     1      -4.641   8.451 -14.271  1.00  0.00    -0.200 F 
ATOM     83  F   UNL     1      -4.056  10.253 -12.309  1.00  0.00    -0.200 F 
ENDBRANCH  59  73
BRANCH  60  84
ATOM     84  C   UNL     1       4.598  -0.641 -14.832  1.00  0.00     0.064 A 
ATOM     85  C   UNL     1       5.974  -0.485 -15.055  1.00  0.00     0.173 A 
ATOM     86  C   UNL     1       4.068  -1.937 -14.926  1.00  0.00     0.173 A 
ATOM     87  F   UNL     1       6.524   0.738 -15.009  1.00  0.00    -0.203 F 
ATOM     88  C   UNL     1       6.781  -1.574 -15.379  1.00  0.00     0.198 A 
ATOM     89  C   UNL     1       4.882  -3.030 -15.218  1.00  0.00     0.198 A 
ATOM     90  F   UNL     1       2.757  -2.142 -14.732  1.00  0.00    -0.203 F 
ATOM     91  F   UNL     1       8.081  -1.386 -15.642  1.00  0.00    -0.200 F 
ATOM     92  C   UNL     1       6.236  -2.846 -15.454  1.00  0.00     0.200 A 
ATOM     93  F   UNL     1       4.352  -4.259 -15.283  1.00  0.00    -0.200 F 
ATOM     94  F   UNL     1       7.012  -3.893 -15.767  1.00  0.00    -0.200 F 
ENDBRANCH  60  84
BRANCH  72  95
ATOM     95  C   UNL     1       2.699   4.938 -18.581  1.00  0.00     0.064 A 
ATOM     96  C   UNL     1       2.211   4.325 -19.743  1.00  0.00     0.173 A 
ATOM     97  C   UNL     1       3.485   6.093 -18.728  1.00  0.00     0.173 A 
ATOM     98  F   UNL     1       1.466   3.212 -19.658  1.00  0.00    -0.203 F 
ATOM     99  C   UNL     1       2.506   4.842 -21.002  1.00  0.00     0.198 A 
ATOM    100  C   UNL     1       3.751   6.626 -19.986  1.00  0.00     0.198 A 
ATOM    101  F   UNL     1       3.968   6.724 -17.647  1.00  0.00    -0.203 F 
ATOM    102  F   UNL     1       2.057   4.221 -22.102  1.00  0.00    -0.200 F 
ATOM    103  C   UNL     1       3.265   5.998 -21.122  1.00  0.00     0.200 A 
ATOM    104  F   UNL     1       4.467   7.753 -20.097  1.00  0.00    -0.200 F 
ATOM    105  F   UNL     1       3.528   6.506 -22.334  1.00  0.00    -0.200 F 
ENDBRANCH  72  95
ENDBRANCH  46  47
ENDBRANCH  39  41
ENDBRANCH  38  39
ENDBRANCH  37  38
ENDBRANCH  36  37
ENDBRANCH  35  36
ENDBRANCH  34  35
ENDBRANCH  33  34
ENDBRANCH   1  33
TORSDOF 22
