REMARK SMILES [NH3+]C1(C(=O)N2[C@@H](C(=O)OCCOCCOCCOC(=O)c3ccc(-c4c5nc(c(-c6c(F)c(F)c(F)c(F)c6F)c6ccc([nH]6)c(-c6c(F)c(F)c(F)c(F)c6F)c6nc(c(-c7c(F)c(F)c(F)c(F)c7F)c7ccc4[nH]7)C=C6)C=C5)cc3)CC[C@@H]3CCCC[C@@H]32)CC1
REMARK SMILES IDX 13 1 12 2 11 3 10 4 9 5 7 6 8 7 6 8 5 9 91 10 84 11 86 12
REMARK SMILES IDX 90 13 85 14 87 15 89 16 88 17 3 18 4 19 2 20 92 21 93 22
REMARK SMILES IDX 1 23 14 27 15 28 16 29 17 30 18 31 19 32 20 33 21 34 22 35
REMARK SMILES IDX 83 36 23 37 82 38 24 39 25 40 26 41 76 42 27 43 81 44 75 45
REMARK SMILES IDX 77 46 28 47 80 48 74 49 73 50 29 52 61 53 41 54 60 55 42 56
REMARK SMILES IDX 45 57 59 58 78 59 43 60 44 61 58 63 79 64 46 65 30 66 31 67
REMARK SMILES IDX 39 68 32 69 33 70 37 71 40 72 34 73 35 74 38 75 36 76 62 77
REMARK SMILES IDX 63 78 71 79 64 80 65 81 69 82 72 83 66 84 67 85 70 86 68 87
REMARK SMILES IDX 47 88 48 89 56 90 49 91 50 92 54 93 57 94 51 95 52 96 55 97
REMARK SMILES IDX 53 98
REMARK H PARENT 1 24 1 25 1 26 77 51 45 62
REMARK Flexibility Score: inf
ROOT
ATOM      1  C   UNL     1      -4.606   1.938   2.764  1.00  0.00     0.188 C 
ENDROOT
BRANCH   1   2
ATOM      2  O   UNL     1      -5.068   1.183   1.664  1.00  0.00    -0.376 OA
BRANCH   2   3
ATOM      3  C   UNL     1      -4.258   0.179   1.068  1.00  0.00     0.202 C 
BRANCH   3   4
ATOM      4  C   UNL     1      -2.733   0.301   0.934  1.00  0.00     0.261 C 
BRANCH   4   5
ATOM      5  O   UNL     1      -1.959   0.254   2.146  1.00  0.00    -0.462 OA
BRANCH   5   6
ATOM      6  C   UNL     1      -1.422   1.434   2.541  1.00  0.00     0.328 C 
ATOM      7  O   UNL     1      -1.720   2.532   2.076  1.00  0.00    -0.250 OA
BRANCH   6   8
ATOM      8  C   UNL     1      -0.381   1.315   3.636  1.00  0.00     0.195 C 
ATOM      9  N   UNL     1       1.026   1.385   3.218  1.00  0.00    -0.320 N 
ATOM     10  C   UNL     1       1.971   1.660   4.332  1.00  0.00     0.089 C 
ATOM     11  C   UNL     1      -0.607   0.276   4.739  1.00  0.00     0.037 C 
ATOM     12  C   UNL     1       1.711   0.765   5.571  1.00  0.00     0.012 C 
ATOM     13  C   UNL     1       2.007   3.171   4.617  1.00  0.00     0.025 C 
ATOM     14  C   UNL     1       0.226   0.693   5.957  1.00  0.00     0.008 C 
ATOM     15  C   UNL     1       2.587   1.204   6.747  1.00  0.00     0.006 C 
ATOM     16  C   UNL     1       2.475   3.634   5.995  1.00  0.00     0.002 C 
ATOM     17  C   UNL     1       2.346   2.650   7.149  1.00  0.00     0.000 C 
BRANCH   9  18
ATOM     18  C   UNL     1       1.486   0.544   2.198  1.00  0.00     0.284 C 
ATOM     19  O   UNL     1       2.326  -0.328   2.430  1.00  0.00    -0.268 OA
BRANCH  18  20
ATOM     20  C   UNL     1       1.171   0.836   0.713  1.00  0.00     0.174 C 
ATOM     21  C   UNL     1       1.717   2.182   0.234  1.00  0.00     0.086 C 
ATOM     22  C   UNL     1       0.287   1.851   0.021  1.00  0.00     0.086 C 
BRANCH  20  23
ATOM     23  N   UNL     1       1.439  -0.364  -0.134  1.00  0.00    -0.345 N 
ATOM     24  H   UNL     1       2.037  -1.014   0.377  1.00  0.00     0.345 HD
ATOM     25  H   UNL     1       1.906  -0.076  -0.994  1.00  0.00     0.345 HD
ATOM     26  H   UNL     1       0.557  -0.822  -0.364  1.00  0.00     0.345 HD
ENDBRANCH  20  23
ENDBRANCH  18  20
ENDBRANCH   9  18
ENDBRANCH   6   8
ENDBRANCH   5   6
ENDBRANCH   4   5
ENDBRANCH   3   4
ENDBRANCH   2   3
ENDBRANCH   1   2
BRANCH   1  27
ATOM     27  C   UNL     1      -4.086   1.197   3.997  1.00  0.00     0.188 C 
BRANCH  27  28
ATOM     28  O   UNL     1      -4.180  -0.202   4.028  1.00  0.00    -0.376 OA
BRANCH  28  29
ATOM     29  C   UNL     1      -5.452  -0.808   4.189  1.00  0.00     0.202 C 
BRANCH  29  30
ATOM     30  C   UNL     1      -6.764  -0.064   4.543  1.00  0.00     0.261 C 
BRANCH  30  31
ATOM     31  O   UNL     1      -6.741   1.358   4.736  1.00  0.00    -0.460 OA
BRANCH  31  32
ATOM     32  C   UNL     1      -6.471   1.816   5.982  1.00  0.00     0.338 C 
ATOM     33  O   UNL     1      -6.292   1.142   6.987  1.00  0.00    -0.246 OA
BRANCH  32  34
ATOM     34  C   UNL     1      -6.143   3.264   5.884  1.00  0.00     0.060 A 
ATOM     35  C   UNL     1      -4.866   3.698   6.280  1.00  0.00     0.016 A 
ATOM     36  C   UNL     1      -7.059   4.182   5.369  1.00  0.00     0.016 A 
ATOM     37  C   UNL     1      -4.510   5.045   6.188  1.00  0.00     0.010 A 
ATOM     38  C   UNL     1      -6.716   5.540   5.314  1.00  0.00     0.010 A 
ATOM     39  C   UNL     1      -5.453   5.984   5.753  1.00  0.00    -0.014 A 
BRANCH  39  40
ATOM     40  C   UNL     1      -5.210   7.434   5.975  1.00  0.00     0.031 A 
ATOM     41  C   UNL     1      -5.822   8.073   7.194  1.00  0.00     0.074 A 
ATOM     42  C   UNL     1      -4.461   8.175   5.139  1.00  0.00     0.049 A 
ATOM     43  N   UNL     1      -5.836   9.328   7.564  1.00  0.00    -0.248 NA
ATOM     44  C   UNL     1      -6.520   7.165   8.119  1.00  0.00     0.031 C 
ATOM     45  C   UNL     1      -3.763   7.677   3.958  1.00  0.00     0.029 A 
ATOM     46  N   UNL     1      -4.178   9.521   5.157  1.00  0.00    -0.354 N 
ATOM     47  C   UNL     1      -6.554   9.362   8.752  1.00  0.00     0.074 A 
ATOM     48  C   UNL     1      -6.985   8.008   9.027  1.00  0.00     0.031 C 
ATOM     49  C   UNL     1      -3.148   8.708   3.350  1.00  0.00     0.029 A 
ATOM     50  C   UNL     1      -3.441   9.943   4.078  1.00  0.00     0.049 A 
ATOM     51  H   UNL     1      -4.476  10.124   5.876  1.00  0.00     0.167 HD
ATOM     52  C   UNL     1      -6.828  10.423   9.548  1.00  0.00     0.037 A 
ATOM     53  C   UNL     1      -3.073  11.187   3.707  1.00  0.00     0.037 A 
ATOM     54  C   UNL     1      -6.402  11.771   9.277  1.00  0.00     0.049 A 
ATOM     55  C   UNL     1      -3.464  12.368   4.563  1.00  0.00     0.074 A 
ATOM     56  C   UNL     1      -6.615  12.911  10.032  1.00  0.00     0.029 A 
ATOM     57  N   UNL     1      -5.687  12.163   8.155  1.00  0.00    -0.354 N 
ATOM     58  N   UNL     1      -4.126  12.392   5.695  1.00  0.00    -0.248 NA
ATOM     59  C   UNL     1      -3.053  13.698   4.088  1.00  0.00     0.031 C 
ATOM     60  C   UNL     1      -6.086  14.002   9.336  1.00  0.00     0.029 A 
ATOM     61  C   UNL     1      -5.479  13.533   8.182  1.00  0.00     0.049 A 
ATOM     62  H   UNL     1      -5.373  11.558   7.445  1.00  0.00     0.167 HD
ATOM     63  C   UNL     1      -4.181  13.727   6.081  1.00  0.00     0.074 A 
ATOM     64  C   UNL     1      -3.472  14.482   5.071  1.00  0.00     0.031 C 
ATOM     65  C   UNL     1      -4.764  14.277   7.176  1.00  0.00     0.037 A 
BRANCH  52  66
ATOM     66  C   UNL     1      -7.660  10.174  10.773  1.00  0.00     0.064 A 
ATOM     67  C   UNL     1      -7.170   9.445  11.868  1.00  0.00     0.173 A 
ATOM     68  C   UNL     1      -8.960  10.694  10.862  1.00  0.00     0.173 A 
ATOM     69  F   UNL     1      -5.940   8.912  11.828  1.00  0.00    -0.203 F 
ATOM     70  C   UNL     1      -7.962   9.221  12.992  1.00  0.00     0.198 A 
ATOM     71  C   UNL     1      -9.736  10.499  12.002  1.00  0.00     0.198 A 
ATOM     72  F   UNL     1      -9.477  11.401   9.846  1.00  0.00    -0.203 F 
ATOM     73  F   UNL     1      -7.493   8.475  14.001  1.00  0.00    -0.200 F 
ATOM     74  C   UNL     1      -9.240   9.755  13.061  1.00  0.00     0.200 A 
ATOM     75  F   UNL     1     -10.965  11.029  12.073  1.00  0.00    -0.200 F 
ATOM     76  F   UNL     1      -9.997   9.545  14.146  1.00  0.00    -0.200 F 
ENDBRANCH  52  66
BRANCH  53  77
ATOM     77  C   UNL     1      -2.304  11.394   2.449  1.00  0.00     0.064 A 
ATOM     78  C   UNL     1      -0.984  11.869   2.476  1.00  0.00     0.173 A 
ATOM     79  C   UNL     1      -2.884  11.159   1.194  1.00  0.00     0.173 A 
ATOM     80  F   UNL     1      -0.395  12.142   3.649  1.00  0.00    -0.203 F 
ATOM     81  C   UNL     1      -0.283  12.118   1.297  1.00  0.00     0.198 A 
ATOM     82  C   UNL     1      -2.170  11.376   0.016  1.00  0.00     0.198 A 
ATOM     83  F   UNL     1      -4.146  10.714   1.109  1.00  0.00    -0.203 F 
ATOM     84  F   UNL     1       0.956  12.625   1.352  1.00  0.00    -0.200 F 
ATOM     85  C   UNL     1      -0.874  11.865   0.069  1.00  0.00     0.200 A 
ATOM     86  F   UNL     1      -2.742  11.121  -1.168  1.00  0.00    -0.200 F 
ATOM     87  F   UNL     1      -0.199  12.102  -1.064  1.00  0.00    -0.200 F 
ENDBRANCH  53  77
BRANCH  65  88
ATOM     88  C   UNL     1      -4.625  15.763   7.369  1.00  0.00     0.064 A 
ATOM     89  C   UNL     1      -5.278  16.685   6.538  1.00  0.00     0.173 A 
ATOM     90  C   UNL     1      -3.858  16.270   8.431  1.00  0.00     0.173 A 
ATOM     91  F   UNL     1      -6.014  16.257   5.502  1.00  0.00    -0.203 F 
ATOM     92  C   UNL     1      -5.142  18.057   6.743  1.00  0.00     0.198 A 
ATOM     93  C   UNL     1      -3.754  17.640   8.655  1.00  0.00     0.198 A 
ATOM     94  F   UNL     1      -3.220  15.434   9.264  1.00  0.00    -0.203 F 
ATOM     95  F   UNL     1      -5.731  18.919   5.902  1.00  0.00    -0.200 F 
ATOM     96  C   UNL     1      -4.388  18.533   7.805  1.00  0.00     0.200 A 
ATOM     97  F   UNL     1      -3.041  18.096   9.694  1.00  0.00    -0.200 F 
ATOM     98  F   UNL     1      -4.266  19.852   8.005  1.00  0.00    -0.200 F 
ENDBRANCH  65  88
ENDBRANCH  39  40
ENDBRANCH  32  34
ENDBRANCH  31  32
ENDBRANCH  30  31
ENDBRANCH  29  30
ENDBRANCH  28  29
ENDBRANCH  27  28
ENDBRANCH   1  27
TORSDOF 20
