REMARK SMILES Cc1cccc(OCC(=O)Nc2cc(C(=O)OCCOCCOCCOC(=O)c3ccc(-c4c5nc(c(-c6c(F)c(F)c(F)c(F)c6F)c6ccc([nH]6)c(-c6c(F)c(F)c(F)c(F)c6F)c6nc(c(-c7c(F)c(F)c(F)c(F)c7F)c7ccc4[nH]7)C=C6)C=C5)cc3)c(Cl)cc2Cl)c1
REMARK SMILES IDX 21 1 20 2 19 3 18 4 17 5 15 6 16 7 14 8 12 9 13 10 95 11
REMARK SMILES IDX 94 12 96 13 92 14 93 15 11 16 9 17 10 18 8 20 7 21 6 22 1 23
REMARK SMILES IDX 2 24 3 25 97 26 4 27 5 28 22 29 23 30 24 31 25 32 26 33
REMARK SMILES IDX 27 34 28 35 29 36 30 37 91 38 31 39 90 40 32 41 33 42 34 43
REMARK SMILES IDX 84 44 35 45 89 46 83 47 85 48 36 49 88 50 82 51 81 52 37 54
REMARK SMILES IDX 69 55 49 56 68 57 50 58 53 59 67 60 86 61 51 62 52 63 66 65
REMARK SMILES IDX 87 66 54 67 38 68 39 69 47 70 40 71 41 72 45 73 48 74 42 75
REMARK SMILES IDX 43 76 46 77 44 78 70 79 71 80 79 81 72 82 73 83 77 84 80 85
REMARK SMILES IDX 74 86 75 87 78 88 76 89 55 90 56 91 64 92 57 93 58 94 62 95
REMARK SMILES IDX 65 96 59 97 60 98 63 99 61 100
REMARK H PARENT 11 19 85 53 53 64
REMARK Flexibility Score: inf
ROOT
ATOM      1  C   UNL     1      -7.174  -1.485   1.277  1.00  0.00     0.188 C 
ENDROOT
BRANCH   1   2
ATOM      2  O   UNL     1      -7.043  -1.298  -0.120  1.00  0.00    -0.376 OA
BRANCH   2   3
ATOM      3  C   UNL     1      -5.782  -1.593  -0.703  1.00  0.00     0.202 C 
BRANCH   3   4
ATOM      4  C   UNL     1      -4.593  -0.571  -0.717  1.00  0.00     0.261 C 
BRANCH   4   5
ATOM      5  O   UNL     1      -3.944   0.104   0.546  1.00  0.00    -0.460 OA
BRANCH   5   6
ATOM      6  C   UNL     1      -2.833   0.651   1.304  1.00  0.00     0.339 C 
ATOM      7  O   UNL     1      -1.789   0.000   1.345  1.00  0.00    -0.246 OA
BRANCH   6   8
ATOM      8  C   UNL     1      -2.968   2.128   2.480  1.00  0.00     0.080 A 
ATOM      9  C   UNL     1      -1.374   3.656   3.324  1.00  0.00     0.061 A 
ATOM     10  C   UNL     1      -1.732   2.332   3.055  1.00  0.00     0.045 A 
ATOM     11  C   UNL     1      -2.213   4.418   4.119  1.00  0.00     0.066 A 
ATOM     12  C   UNL     1      -3.539   4.229   3.905  1.00  0.00     0.044 A 
ATOM     13  Cl  UNL     1      -1.694   5.864   4.891  1.00  0.00    -0.082 Cl
ATOM     14  C   UNL     1      -3.896   3.281   2.921  1.00  0.00     0.057 A 
ATOM     15  Cl  UNL     1      -5.401   4.054   2.291  1.00  0.00    -0.083 Cl
BRANCH   9  16
ATOM     16  N   UNL     1      -0.784   4.430   2.275  1.00  0.00    -0.322 N 
ATOM     17  C   UNL     1      -1.238   4.864   1.024  1.00  0.00     0.262 C 
ATOM     18  O   UNL     1      -0.590   5.832   0.578  1.00  0.00    -0.271 OA
ATOM     19  H   UNL     1       0.136   4.718   2.475  1.00  0.00     0.170 HD
BRANCH  17  20
ATOM     20  C   UNL     1      -2.568   4.167  -0.073  1.00  0.00     0.329 C 
BRANCH  20  21
ATOM     21  O   UNL     1      -2.419   2.380  -1.206  1.00  0.00    -0.484 OA
BRANCH  21  22
ATOM     22  C   UNL     1      -1.257   1.188  -1.484  1.00  0.00     0.120 A 
ATOM     23  C   UNL     1       2.252   0.073  -0.200  1.00  0.00     0.044 C 
ATOM     24  C   UNL     1       0.827   0.018  -0.687  1.00  0.00    -0.047 A 
ATOM     25  C   UNL     1       0.145  -1.189  -0.714  1.00  0.00     0.003 A 
ATOM     26  C   UNL     1       0.135   1.188  -1.081  1.00  0.00     0.049 A 
ATOM     27  C   UNL     1      -1.140  -1.228  -1.270  1.00  0.00     0.004 A 
ATOM     28  C   UNL     1      -1.795  -0.054  -1.739  1.00  0.00     0.046 A 
ENDBRANCH  21  22
ENDBRANCH  20  21
ENDBRANCH  17  20
ENDBRANCH   9  16
ENDBRANCH   6   8
ENDBRANCH   5   6
ENDBRANCH   4   5
ENDBRANCH   3   4
ENDBRANCH   2   3
ENDBRANCH   1   2
BRANCH   1  29
ATOM     29  C   UNL     1      -6.490  -2.623   1.960  1.00  0.00     0.188 C 
BRANCH  29  30
ATOM     30  O   UNL     1      -5.082  -2.555   1.787  1.00  0.00    -0.376 OA
BRANCH  30  31
ATOM     31  C   UNL     1      -4.430  -3.744   2.213  1.00  0.00     0.202 C 
BRANCH  31  32
ATOM     32  C   UNL     1      -4.812  -4.144   3.656  1.00  0.00     0.261 C 
BRANCH  32  33
ATOM     33  O   UNL     1      -4.527  -3.059   4.580  1.00  0.00    -0.460 OA
BRANCH  33  34
ATOM     34  C   UNL     1      -5.552  -2.352   5.184  1.00  0.00     0.338 C 
ATOM     35  O   UNL     1      -6.596  -2.837   5.579  1.00  0.00    -0.246 OA
BRANCH  34  36
ATOM     36  C   UNL     1      -5.297  -0.863   4.984  1.00  0.00     0.060 A 
ATOM     37  C   UNL     1      -6.278   0.114   4.732  1.00  0.00     0.016 A 
ATOM     38  C   UNL     1      -4.110  -0.610   4.413  1.00  0.00     0.016 A 
ATOM     39  C   UNL     1      -6.179   1.052   3.607  1.00  0.00     0.010 A 
ATOM     40  C   UNL     1      -4.244  -0.031   3.159  1.00  0.00     0.010 A 
ATOM     41  C   UNL     1      -5.214   0.901   2.609  1.00  0.00    -0.014 A 
BRANCH  41  42
ATOM     42  C   UNL     1      -5.158   1.784   1.018  1.00  0.00     0.031 A 
ATOM     43  C   UNL     1      -3.675   2.494   0.080  1.00  0.00     0.074 A 
ATOM     44  C   UNL     1      -6.341   1.790   0.330  1.00  0.00     0.049 A 
ATOM     45  N   UNL     1      -4.011   3.348  -1.219  1.00  0.00    -0.248 NA
ATOM     46  C   UNL     1      -1.625   2.627   0.329  1.00  0.00     0.031 C 
ATOM     47  C   UNL     1      -6.608   2.165  -1.061  1.00  0.00     0.029 A 
ATOM     48  N   UNL     1      -7.614   1.361   0.758  1.00  0.00    -0.354 N 
ATOM     49  C   UNL     1      -2.576   3.950  -2.122  1.00  0.00     0.074 A 
ATOM     50  C   UNL     1      -1.044   3.545  -1.031  1.00  0.00     0.031 C 
ATOM     51  C   UNL     1      -7.934   2.190  -1.286  1.00  0.00     0.029 A 
ATOM     52  C   UNL     1      -8.578   2.031  -0.004  1.00  0.00     0.049 A 
ATOM     53  H   UNL     1      -7.794   0.704   1.469  1.00  0.00     0.167 HD
ATOM     54  C   UNL     1      -2.819   4.472  -3.351  1.00  0.00     0.037 A 
ATOM     55  C   UNL     1      -9.480   2.858   0.581  1.00  0.00     0.037 A 
ATOM     56  C   UNL     1      -4.268   4.658  -3.498  1.00  0.00     0.049 A 
ATOM     57  C   UNL     1      -9.225   4.246   0.048  1.00  0.00     0.074 A 
ATOM     58  C   UNL     1      -5.264   3.959  -4.160  1.00  0.00     0.029 A 
ATOM     59  N   UNL     1      -4.949   5.504  -2.603  1.00  0.00    -0.354 N 
ATOM     60  N   UNL     1      -8.075   4.604  -0.476  1.00  0.00    -0.248 NA
ATOM     61  C   UNL     1     -10.254   5.259  -0.124  1.00  0.00     0.031 C 
ATOM     62  C   UNL     1      -6.531   4.395  -3.659  1.00  0.00     0.029 A 
ATOM     63  C   UNL     1      -6.332   5.369  -2.687  1.00  0.00     0.049 A 
ATOM     64  H   UNL     1      -4.497   6.123  -1.984  1.00  0.00     0.167 HD
ATOM     65  C   UNL     1      -8.227   5.758  -1.182  1.00  0.00     0.074 A 
ATOM     66  C   UNL     1      -9.602   6.154  -0.889  1.00  0.00     0.031 C 
ATOM     67  C   UNL     1      -7.258   6.291  -1.994  1.00  0.00     0.037 A 
BRANCH  54  68
ATOM     68  C   UNL     1      -1.757   4.527  -4.419  1.00  0.00     0.064 A 
ATOM     69  C   UNL     1      -2.088   4.448  -5.786  1.00  0.00     0.173 A 
ATOM     70  C   UNL     1      -0.373   4.567  -4.159  1.00  0.00     0.173 A 
ATOM     71  F   UNL     1      -3.364   4.488  -6.191  1.00  0.00    -0.203 F 
ATOM     72  C   UNL     1      -1.114   4.319  -6.788  1.00  0.00     0.198 A 
ATOM     73  C   UNL     1       0.598   4.361  -5.145  1.00  0.00     0.198 A 
ATOM     74  F   UNL     1       0.089   4.901  -2.953  1.00  0.00    -0.203 F 
ATOM     75  F   UNL     1      -1.486   4.269  -8.075  1.00  0.00    -0.200 F 
ATOM     76  C   UNL     1       0.226   4.233  -6.464  1.00  0.00     0.200 A 
ATOM     77  F   UNL     1       1.894   4.306  -4.805  1.00  0.00    -0.200 F 
ATOM     78  F   UNL     1       1.153   4.069  -7.418  1.00  0.00    -0.200 F 
ENDBRANCH  54  68
BRANCH  55  79
ATOM     79  C   UNL     1      -9.933   2.318   1.903  1.00  0.00     0.064 A 
ATOM     80  C   UNL     1     -10.507   1.017   1.867  1.00  0.00     0.173 A 
ATOM     81  C   UNL     1      -9.401   2.725   3.129  1.00  0.00     0.173 A 
ATOM     82  F   UNL     1     -11.085   0.575   0.738  1.00  0.00    -0.203 F 
ATOM     83  C   UNL     1     -10.332   0.101   2.905  1.00  0.00     0.198 A 
ATOM     84  C   UNL     1      -9.306   1.822   4.204  1.00  0.00     0.198 A 
ATOM     85  F   UNL     1      -8.817   3.925   3.252  1.00  0.00    -0.203 F 
ATOM     86  F   UNL     1     -10.670  -1.186   2.733  1.00  0.00    -0.200 F 
ATOM     87  C   UNL     1      -9.694   0.495   4.060  1.00  0.00     0.200 A 
ATOM     88  F   UNL     1      -8.660   2.189   5.323  1.00  0.00    -0.200 F 
ATOM     89  F   UNL     1      -9.377  -0.415   4.993  1.00  0.00    -0.200 F 
ENDBRANCH  55  79
BRANCH  67  90
ATOM     90  C   UNL     1      -7.203   7.770  -2.317  1.00  0.00     0.064 A 
ATOM     91  C   UNL     1      -7.866   8.755  -1.560  1.00  0.00     0.173 A 
ATOM     92  C   UNL     1      -6.333   8.271  -3.314  1.00  0.00     0.173 A 
ATOM     93  F   UNL     1      -8.594   8.448  -0.478  1.00  0.00    -0.203 F 
ATOM     94  C   UNL     1      -7.752  10.114  -1.845  1.00  0.00     0.198 A 
ATOM     95  C   UNL     1      -6.139   9.633  -3.523  1.00  0.00     0.198 A 
ATOM     96  F   UNL     1      -5.608   7.465  -4.101  1.00  0.00    -0.203 F 
ATOM     97  F   UNL     1      -8.479  10.997  -1.146  1.00  0.00    -0.200 F 
ATOM     98  C   UNL     1      -6.874  10.555  -2.812  1.00  0.00     0.200 A 
ATOM     99  F   UNL     1      -5.218  10.041  -4.406  1.00  0.00    -0.200 F 
ATOM    100  F   UNL     1      -6.717  11.864  -3.039  1.00  0.00    -0.200 F 
ENDBRANCH  67  90
ENDBRANCH  41  42
ENDBRANCH  34  36
ENDBRANCH  33  34
ENDBRANCH  32  33
ENDBRANCH  31  32
ENDBRANCH  30  31
ENDBRANCH  29  30
ENDBRANCH   1  29
TORSDOF 21
