REMARK SMILES O=C(OCCOCCOCCOC(=O)c1cc(Br)cc2c1OCC2)c1ccc(-c2c3nc(c(-c4c(F)c(F)c(F)c(F)c4F)c4ccc([nH]4)c(-c4c(F)c(F)c(F)c(F)c4F)c4nc(c(-c5c(F)c(F)c(F)c(F)c5F)c5ccc2[nH]5)C=C4)C=C3)cc1
REMARK SMILES IDX 7 1 6 2 5 3 4 4 3 5 2 6 1 7 25 8 26 9 87 10 27 11 86 12
REMARK SMILES IDX 28 13 29 14 30 15 80 16 31 17 85 18 79 19 81 20 32 21 84 22
REMARK SMILES IDX 78 23 77 24 33 26 65 27 45 28 64 29 46 30 49 31 63 32 82 33
REMARK SMILES IDX 47 34 48 35 62 37 83 38 50 39 34 40 35 41 43 42 36 43 37 44
REMARK SMILES IDX 41 45 44 46 38 47 39 48 42 49 40 50 66 51 67 52 75 53 68 54
REMARK SMILES IDX 69 55 73 56 76 57 70 58 71 59 74 60 72 61 51 62 52 63 60 64
REMARK SMILES IDX 53 65 54 66 58 67 61 68 55 69 56 70 59 71 57 72 8 73 9 74
REMARK SMILES IDX 10 75 11 76 12 77 13 78 14 79 15 80 16 81 21 82 17 83 20 84
REMARK SMILES IDX 22 85 18 86 19 87 24 88 23 89
REMARK H PARENT 81 25 49 36
REMARK Flexibility Score: inf
ROOT
ATOM      1  C   UNL     1       2.651  -2.255  -0.212  1.00  0.00     0.188 C 
ENDROOT
BRANCH   1   2
ATOM      2  O   UNL     1       3.890  -1.597  -0.511  1.00  0.00    -0.376 OA
BRANCH   2   3
ATOM      3  C   UNL     1       4.782  -1.511   0.602  1.00  0.00     0.202 C 
BRANCH   3   4
ATOM      4  C   UNL     1       4.641  -0.214   1.404  1.00  0.00     0.261 C 
BRANCH   4   5
ATOM      5  O   UNL     1       3.263   0.158   1.563  1.00  0.00    -0.460 OA
BRANCH   5   6
ATOM      6  C   UNL     1       2.550   1.026   0.805  1.00  0.00     0.338 C 
ATOM      7  O   UNL     1       1.357   1.195   1.055  1.00  0.00    -0.246 OA
BRANCH   6   8
ATOM      8  C   UNL     1       3.153   1.871  -0.270  1.00  0.00     0.060 A 
ATOM      9  C   UNL     1       4.186   1.484  -1.127  1.00  0.00     0.016 A 
ATOM     10  C   UNL     1       2.571   3.135  -0.467  1.00  0.00     0.016 A 
ATOM     11  C   UNL     1       4.722   2.372  -2.061  1.00  0.00     0.010 A 
ATOM     12  C   UNL     1       3.054   4.002  -1.448  1.00  0.00     0.010 A 
ATOM     13  C   UNL     1       4.171   3.644  -2.214  1.00  0.00    -0.014 A 
BRANCH  13  14
ATOM     14  C   UNL     1       4.843   4.660  -3.053  1.00  0.00     0.031 A 
ATOM     15  C   UNL     1       5.507   5.817  -2.368  1.00  0.00     0.074 A 
ATOM     16  C   UNL     1       4.879   4.552  -4.391  1.00  0.00     0.049 A 
ATOM     17  N   UNL     1       5.995   6.918  -2.874  1.00  0.00    -0.248 NA
ATOM     18  C   UNL     1       5.634   5.716  -0.905  1.00  0.00     0.031 C 
ATOM     19  C   UNL     1       4.359   3.426  -5.162  1.00  0.00     0.029 A 
ATOM     20  N   UNL     1       5.369   5.412  -5.340  1.00  0.00    -0.354 N 
ATOM     21  C   UNL     1       6.454   7.654  -1.791  1.00  0.00     0.074 A 
ATOM     22  C   UNL     1       6.171   6.885  -0.599  1.00  0.00     0.031 C 
ATOM     23  C   UNL     1       4.532   3.677  -6.470  1.00  0.00     0.029 A 
ATOM     24  C   UNL     1       5.125   4.999  -6.626  1.00  0.00     0.049 A 
ATOM     25  H   UNL     1       5.848   6.244  -5.121  1.00  0.00     0.167 HD
ATOM     26  C   UNL     1       7.059   8.864  -1.794  1.00  0.00     0.037 A 
ATOM     27  C   UNL     1       5.319   5.637  -7.795  1.00  0.00     0.037 A 
ATOM     28  C   UNL     1       7.350   9.609  -2.987  1.00  0.00     0.049 A 
ATOM     29  C   UNL     1       5.931   7.008  -7.779  1.00  0.00     0.074 A 
ATOM     30  C   UNL     1       7.934  10.855  -3.112  1.00  0.00     0.029 A 
ATOM     31  N   UNL     1       7.077   9.160  -4.272  1.00  0.00    -0.354 N 
ATOM     32  N   UNL     1       6.311   7.728  -6.751  1.00  0.00    -0.248 NA
ATOM     33  C   UNL     1       6.141   7.657  -9.080  1.00  0.00     0.031 C 
ATOM     34  C   UNL     1       7.992  11.172  -4.475  1.00  0.00     0.029 A 
ATOM     35  C   UNL     1       7.475  10.107  -5.199  1.00  0.00     0.049 A 
ATOM     36  H   UNL     1       6.662   8.294  -4.492  1.00  0.00     0.167 HD
ATOM     37  C   UNL     1       6.826   8.903  -7.278  1.00  0.00     0.074 A 
ATOM     38  C   UNL     1       6.708   8.800  -8.719  1.00  0.00     0.031 C 
ATOM     39  C   UNL     1       7.355   9.968  -6.628  1.00  0.00     0.037 A 
BRANCH  26  40
ATOM     40  C   UNL     1       7.388   9.454  -0.456  1.00  0.00     0.064 A 
ATOM     41  C   UNL     1       8.423   8.944   0.342  1.00  0.00     0.173 A 
ATOM     42  C   UNL     1       6.612  10.501   0.062  1.00  0.00     0.173 A 
ATOM     43  F   UNL     1       9.173   7.922  -0.097  1.00  0.00    -0.203 F 
ATOM     44  C   UNL     1       8.642   9.434   1.627  1.00  0.00     0.198 A 
ATOM     45  C   UNL     1       6.850  11.005   1.337  1.00  0.00     0.198 A 
ATOM     46  F   UNL     1       5.606  11.018  -0.660  1.00  0.00    -0.203 F 
ATOM     47  F   UNL     1       9.588   8.882   2.400  1.00  0.00    -0.200 F 
ATOM     48  C   UNL     1       7.856  10.463   2.123  1.00  0.00     0.200 A 
ATOM     49  F   UNL     1       6.089  11.999   1.816  1.00  0.00    -0.200 F 
ATOM     50  F   UNL     1       8.053  10.918   3.368  1.00  0.00    -0.200 F 
ENDBRANCH  26  40
BRANCH  27  51
ATOM     51  C   UNL     1       4.883   5.000  -9.062  1.00  0.00     0.064 A 
ATOM     52  C   UNL     1       5.809   4.451  -9.957  1.00  0.00     0.173 A 
ATOM     53  C   UNL     1       3.522   4.917  -9.394  1.00  0.00     0.173 A 
ATOM     54  F   UNL     1       7.121   4.526  -9.691  1.00  0.00    -0.203 F 
ATOM     55  C   UNL     1       5.391   3.846 -11.141  1.00  0.00     0.198 A 
ATOM     56  C   UNL     1       3.105   4.305 -10.574  1.00  0.00     0.198 A 
ATOM     57  F   UNL     1       2.597   5.420  -8.563  1.00  0.00    -0.203 F 
ATOM     58  F   UNL     1       6.299   3.348 -11.992  1.00  0.00    -0.200 F 
ATOM     59  C   UNL     1       4.040   3.770 -11.447  1.00  0.00     0.200 A 
ATOM     60  F   UNL     1       1.798   4.225 -10.859  1.00  0.00    -0.200 F 
ATOM     61  F   UNL     1       3.640   3.184 -12.584  1.00  0.00    -0.200 F 
ENDBRANCH  27  51
BRANCH  39  62
ATOM     62  C   UNL     1       7.885  11.086  -7.468  1.00  0.00     0.064 A 
ATOM     63  C   UNL     1       7.030  12.028  -8.056  1.00  0.00     0.173 A 
ATOM     64  C   UNL     1       9.268  11.252  -7.627  1.00  0.00     0.173 A 
ATOM     65  F   UNL     1       5.700  11.896  -7.941  1.00  0.00    -0.203 F 
ATOM     66  C   UNL     1       7.544  13.098  -8.781  1.00  0.00     0.198 A 
ATOM     67  C   UNL     1       9.779  12.334  -8.336  1.00  0.00     0.198 A 
ATOM     68  F   UNL     1      10.122  10.374  -7.079  1.00  0.00    -0.203 F 
ATOM     69  F   UNL     1       6.712  13.978  -9.355  1.00  0.00    -0.200 F 
ATOM     70  C   UNL     1       8.917  13.255  -8.913  1.00  0.00     0.200 A 
ATOM     71  F   UNL     1      11.104  12.489  -8.457  1.00  0.00    -0.200 F 
ATOM     72  F   UNL     1       9.410  14.295  -9.601  1.00  0.00    -0.200 F 
ENDBRANCH  39  62
ENDBRANCH  13  14
ENDBRANCH   6   8
ENDBRANCH   5   6
ENDBRANCH   4   5
ENDBRANCH   3   4
ENDBRANCH   2   3
ENDBRANCH   1   2
BRANCH   1  73
ATOM     73  C   UNL     1       2.099  -2.970  -1.450  1.00  0.00     0.188 C 
BRANCH  73  74
ATOM     74  O   UNL     1       2.809  -4.155  -1.821  1.00  0.00    -0.376 OA
BRANCH  74  75
ATOM     75  C   UNL     1       4.167  -3.987  -2.215  1.00  0.00     0.202 C 
BRANCH  75  76
ATOM     76  C   UNL     1       4.409  -3.420  -3.617  1.00  0.00     0.261 C 
BRANCH  76  77
ATOM     77  O   UNL     1       3.810  -2.135  -3.873  1.00  0.00    -0.460 OA
BRANCH  77  78
ATOM     78  C   UNL     1       2.803  -2.167  -4.783  1.00  0.00     0.342 C 
ATOM     79  O   UNL     1       2.329  -3.153  -5.323  1.00  0.00    -0.246 OA
BRANCH  78  80
ATOM     80  C   UNL     1       2.444  -0.820  -5.242  1.00  0.00     0.103 A 
ATOM     81  C   UNL     1       2.703  -0.526  -6.588  1.00  0.00     0.035 A 
ATOM     82  C   UNL     1       1.704   0.080  -4.493  1.00  0.00     0.137 A 
ATOM     83  C   UNL     1       2.212   0.654  -7.156  1.00  0.00     0.019 A 
ATOM     84  C   UNL     1       1.212   1.244  -5.071  1.00  0.00    -0.000 A 
ATOM     85  O   UNL     1       1.343  -0.062  -3.182  1.00  0.00    -0.492 OA
ATOM     86  Br  UNL     1       2.542   0.998  -8.984  1.00  0.00    -0.051 Br
ATOM     87  C   UNL     1       1.459   1.553  -6.401  1.00  0.00     0.023 A 
ATOM     88  C   UNL     1       0.421   2.011  -4.084  1.00  0.00     0.081 C 
ATOM     89  C   UNL     1       0.430   1.028  -2.914  1.00  0.00     0.234 C 
ENDBRANCH  78  80
ENDBRANCH  77  78
ENDBRANCH  76  77
ENDBRANCH  75  76
ENDBRANCH  74  75
ENDBRANCH  73  74
ENDBRANCH   1  73
TORSDOF 17
