REMARK SMILES CCCCCNC(=O)Oc1cccc(-c2ccc([C@@H](C)C(=O)OCCOCCOCCOC(=O)c3ccc(-c4c5nc(c(-c6c(F)c(F)c(F)c(F)c6F)c6ccc([nH]6)c(-c6c(F)c(F)c(F)c(F)c6F)c6nc(c(-c7c(F)c(F)c(F)c(F)c7F)c7ccc4[nH]7)C=C6)C=C5)cc3)cc2F)c1
REMARK SMILES IDX 24 1 23 2 21 3 22 4 19 5 20 6 18 7 15 8 16 9 99 10 17 11
REMARK SMILES IDX 98 12 100 13 14 14 10 15 11 16 101 17 12 18 13 19 9 20 7 21
REMARK SMILES IDX 6 22 8 24 5 25 4 26 3 27 2 28 1 29 25 30 26 31 27 32 28 33
REMARK SMILES IDX 29 34 30 35 31 36 32 37 33 38 34 39 35 40 36 41 97 42 37 43
REMARK SMILES IDX 96 44 38 45 39 46 40 47 90 48 41 49 95 50 89 51 91 52 42 53
REMARK SMILES IDX 94 54 88 55 87 56 43 58 75 59 55 60 74 61 56 62 59 63 73 64
REMARK SMILES IDX 92 65 57 66 58 67 72 69 93 70 60 71 44 72 45 73 53 74 46 75
REMARK SMILES IDX 47 76 51 77 54 78 48 79 49 80 52 81 50 82 76 83 77 84 85 85
REMARK SMILES IDX 78 86 79 87 83 88 86 89 80 90 81 91 84 92 82 93 61 94 62 95
REMARK SMILES IDX 70 96 63 97 64 98 68 99 71 100 65 101 66 102 69 103 67 104
REMARK H PARENT 6 23 91 57 59 68
REMARK Flexibility Score: inf
ROOT
ATOM      1  C   UNL     1      -3.755 -14.892   1.825  1.00  0.00     0.261 C 
ENDROOT
BRANCH   1   2
ATOM      2  O   UNL     1      -3.535 -13.965   2.915  1.00  0.00    -0.463 OA
BRANCH   2   3
ATOM      3  C   UNL     1      -2.740 -14.398   3.927  1.00  0.00     0.313 C 
ATOM      4  O   UNL     1      -2.254 -15.527   3.966  1.00  0.00    -0.252 OA
BRANCH   3   5
ATOM      5  C   UNL     1      -2.444 -13.390   5.043  1.00  0.00     0.126 C 
ATOM      6  C   UNL     1      -2.951 -13.958   6.366  1.00  0.00     0.025 C 
BRANCH   5   7
ATOM      7  C   UNL     1      -2.822 -11.916   4.914  1.00  0.00    -0.031 A 
ATOM      8  C   UNL     1      -3.401  -9.109   4.695  1.00  0.00     0.018 A 
ATOM      9  C   UNL     1      -4.401 -10.087   4.537  1.00  0.00     0.012 A 
ATOM     10  C   UNL     1      -2.110  -9.572   4.971  1.00  0.00     0.131 A 
ATOM     11  C   UNL     1      -4.122 -11.465   4.652  1.00  0.00     0.005 A 
ATOM     12  C   UNL     1      -1.823 -10.937   5.090  1.00  0.00     0.044 A 
ATOM     13  F   UNL     1      -1.101  -8.704   5.149  1.00  0.00    -0.206 F 
BRANCH   8  14
ATOM     14  C   UNL     1      -3.712  -7.665   4.625  1.00  0.00    -0.012 A 
ATOM     15  C   UNL     1      -3.311  -5.419   3.770  1.00  0.00     0.133 A 
ATOM     16  C   UNL     1      -4.285  -4.890   4.614  1.00  0.00     0.047 A 
ATOM     17  C   UNL     1      -3.015  -6.788   3.771  1.00  0.00     0.056 A 
ATOM     18  C   UNL     1      -4.988  -5.743   5.458  1.00  0.00     0.004 A 
ATOM     19  C   UNL     1      -4.702  -7.113   5.464  1.00  0.00     0.009 A 
BRANCH  15  20
ATOM     20  O   UNL     1      -2.542  -4.493   3.040  1.00  0.00    -0.410 OA
BRANCH  20  21
ATOM     21  C   UNL     1      -2.454  -4.637   1.665  1.00  0.00     0.412 C 
ATOM     22  N   UNL     1      -1.647  -3.702   1.073  1.00  0.00    -0.321 N 
ATOM     23  H   UNL     1      -1.475  -3.816   0.110  1.00  0.00     0.167 HD
ATOM     24  O   UNL     1      -3.037  -5.482   0.991  1.00  0.00    -0.224 OA
BRANCH  22  25
ATOM     25  C   UNL     1      -1.019  -2.561   1.712  1.00  0.00     0.119 C 
BRANCH  25  26
ATOM     26  C   UNL     1       0.506  -2.585   1.603  1.00  0.00     0.021 C 
BRANCH  26  27
ATOM     27  C   UNL     1       1.065  -2.508   0.177  1.00  0.00     0.002 C 
BRANCH  27  28
ATOM     28  C   UNL     1       0.643  -1.285  -0.642  1.00  0.00    -0.003 C 
ATOM     29  C   UNL     1       1.086   0.038  -0.036  1.00  0.00     0.004 C 
ENDBRANCH  27  28
ENDBRANCH  26  27
ENDBRANCH  25  26
ENDBRANCH  22  25
ENDBRANCH  20  21
ENDBRANCH  15  20
ENDBRANCH   8  14
ENDBRANCH   5   7
ENDBRANCH   3   5
ENDBRANCH   2   3
ENDBRANCH   1   2
BRANCH   1  30
ATOM     30  C   UNL     1      -3.263 -14.430   0.444  1.00  0.00     0.202 C 
BRANCH  30  31
ATOM     31  O   UNL     1      -1.897 -14.056   0.306  1.00  0.00    -0.376 OA
BRANCH  31  32
ATOM     32  C   UNL     1      -1.372 -13.016   1.122  1.00  0.00     0.188 C 
BRANCH  32  33
ATOM     33  C   UNL     1      -2.265 -11.829   1.510  1.00  0.00     0.188 C 
BRANCH  33  34
ATOM     34  O   UNL     1      -3.473 -11.748   0.787  1.00  0.00    -0.376 OA
BRANCH  34  35
ATOM     35  C   UNL     1      -3.736 -10.526   0.125  1.00  0.00     0.202 C 
BRANCH  35  36
ATOM     36  C   UNL     1      -2.807 -10.227  -1.060  1.00  0.00     0.261 C 
BRANCH  36  37
ATOM     37  O   UNL     1      -1.395 -10.343  -0.797  1.00  0.00    -0.460 OA
BRANCH  37  38
ATOM     38  C   UNL     1      -0.828  -9.382  -0.036  1.00  0.00     0.338 C 
ATOM     39  O   UNL     1      -1.379  -8.405   0.452  1.00  0.00    -0.246 OA
BRANCH  38  40
ATOM     40  C   UNL     1       0.542  -9.811   0.311  1.00  0.00     0.060 A 
ATOM     41  C   UNL     1       0.892  -9.953   1.663  1.00  0.00     0.016 A 
ATOM     42  C   UNL     1       1.480 -10.070  -0.689  1.00  0.00     0.016 A 
ATOM     43  C   UNL     1       2.190 -10.328   2.017  1.00  0.00     0.010 A 
ATOM     44  C   UNL     1       2.785 -10.424  -0.333  1.00  0.00     0.010 A 
ATOM     45  C   UNL     1       3.155 -10.527   1.020  1.00  0.00    -0.014 A 
BRANCH  45  46
ATOM     46  C   UNL     1       4.591 -10.658   1.379  1.00  0.00     0.031 A 
ATOM     47  C   UNL     1       5.468  -9.441   1.269  1.00  0.00     0.074 A 
ATOM     48  C   UNL     1       5.114 -11.829   1.783  1.00  0.00     0.049 A 
ATOM     49  N   UNL     1       6.763  -9.327   1.426  1.00  0.00    -0.248 NA
ATOM     50  C   UNL     1       4.790  -8.180   0.927  1.00  0.00     0.031 C 
ATOM     51  C   UNL     1       4.366 -13.069   1.975  1.00  0.00     0.029 A 
ATOM     52  N   UNL     1       6.411 -12.165   2.088  1.00  0.00    -0.354 N 
ATOM     53  C   UNL     1       7.055  -7.991   1.184  1.00  0.00     0.074 A 
ATOM     54  C   UNL     1       5.809  -7.338   0.847  1.00  0.00     0.031 C 
ATOM     55  C   UNL     1       5.220 -14.038   2.349  1.00  0.00     0.029 A 
ATOM     56  C   UNL     1       6.579 -13.496   2.384  1.00  0.00     0.049 A 
ATOM     57  H   UNL     1       7.149 -11.515   2.095  1.00  0.00     0.167 HD
ATOM     58  C   UNL     1       8.255  -7.364   1.242  1.00  0.00     0.037 A 
ATOM     59  C   UNL     1       7.704 -14.199   2.623  1.00  0.00     0.037 A 
ATOM     60  C   UNL     1       9.493  -8.015   1.582  1.00  0.00     0.049 A 
ATOM     61  C   UNL     1       9.039 -13.492   2.603  1.00  0.00     0.074 A 
ATOM     62  C   UNL     1      10.755  -7.459   1.698  1.00  0.00     0.029 A 
ATOM     63  N   UNL     1       9.626  -9.369   1.850  1.00  0.00    -0.354 N 
ATOM     64  N   UNL     1       9.306 -12.224   2.406  1.00  0.00    -0.248 NA
ATOM     65  C   UNL     1      10.231 -14.321   2.839  1.00  0.00     0.031 C 
ATOM     66  C   UNL     1      11.662  -8.487   1.970  1.00  0.00     0.029 A 
ATOM     67  C   UNL     1      10.956  -9.673   2.096  1.00  0.00     0.049 A 
ATOM     68  H   UNL     1       8.886 -10.018   1.863  1.00  0.00     0.167 HD
ATOM     69  C   UNL     1      10.685 -12.096   2.533  1.00  0.00     0.074 A 
ATOM     70  C   UNL     1      11.199 -13.415   2.835  1.00  0.00     0.031 C 
ATOM     71  C   UNL     1      11.455 -10.987   2.412  1.00  0.00     0.037 A 
BRANCH  58  72
ATOM     72  C   UNL     1       8.295  -5.904   0.893  1.00  0.00     0.064 A 
ATOM     73  C   UNL     1       7.730  -4.926   1.725  1.00  0.00     0.173 A 
ATOM     74  C   UNL     1       8.945  -5.476  -0.275  1.00  0.00     0.173 A 
ATOM     75  F   UNL     1       7.085  -5.282   2.846  1.00  0.00    -0.203 F 
ATOM     76  C   UNL     1       7.791  -3.576   1.387  1.00  0.00     0.198 A 
ATOM     77  C   UNL     1       9.034  -4.123  -0.592  1.00  0.00     0.198 A 
ATOM     78  F   UNL     1       9.505  -6.369  -1.104  1.00  0.00    -0.203 F 
ATOM     79  F   UNL     1       7.201  -2.663   2.171  1.00  0.00    -0.200 F 
ATOM     80  C   UNL     1       8.450  -3.176   0.234  1.00  0.00     0.200 A 
ATOM     81  F   UNL     1       9.684  -3.738  -1.699  1.00  0.00    -0.200 F 
ATOM     82  F   UNL     1       8.517  -1.875  -0.084  1.00  0.00    -0.200 F 
ENDBRANCH  58  72
BRANCH  59  83
ATOM     83  C   UNL     1       7.635 -15.662   2.885  1.00  0.00     0.064 A 
ATOM     84  C   UNL     1       7.996 -16.191   4.133  1.00  0.00     0.173 A 
ATOM     85  C   UNL     1       7.253 -16.567   1.882  1.00  0.00     0.173 A 
ATOM     86  F   UNL     1       8.399 -15.372   5.115  1.00  0.00    -0.203 F 
ATOM     87  C   UNL     1       8.004 -17.567   4.359  1.00  0.00     0.198 A 
ATOM     88  C   UNL     1       7.229 -17.939   2.120  1.00  0.00     0.198 A 
ATOM     89  F   UNL     1       6.906 -16.116   0.668  1.00  0.00    -0.203 F 
ATOM     90  F   UNL     1       8.415 -18.046   5.540  1.00  0.00    -0.200 F 
ATOM     91  C   UNL     1       7.615 -18.439   3.354  1.00  0.00     0.200 A 
ATOM     92  F   UNL     1       6.843 -18.779   1.149  1.00  0.00    -0.200 F 
ATOM     93  F   UNL     1       7.627 -19.762   3.571  1.00  0.00    -0.200 F 
ENDBRANCH  59  83
BRANCH  71  94
ATOM     94  C   UNL     1      12.931 -11.132   2.661  1.00  0.00     0.064 A 
ATOM     95  C   UNL     1      13.771 -11.821   1.774  1.00  0.00     0.173 A 
ATOM     96  C   UNL     1      13.521 -10.532   3.786  1.00  0.00     0.173 A 
ATOM     97  F   UNL     1      13.259 -12.424   0.690  1.00  0.00    -0.203 F 
ATOM     98  C   UNL     1      15.138 -11.929   2.018  1.00  0.00     0.198 A 
ATOM     99  C   UNL     1      14.893 -10.611   4.007  1.00  0.00     0.198 A 
ATOM    100  F   UNL     1      12.767  -9.852   4.663  1.00  0.00    -0.203 F 
ATOM    101  F   UNL     1      15.912 -12.638   1.183  1.00  0.00    -0.200 F 
ATOM    102  C   UNL     1      15.699 -11.317   3.129  1.00  0.00     0.200 A 
ATOM    103  F   UNL     1      15.435 -10.002   5.072  1.00  0.00    -0.200 F 
ATOM    104  F   UNL     1      17.016 -11.414   3.356  1.00  0.00    -0.200 F 
ENDBRANCH  71  94
ENDBRANCH  45  46
ENDBRANCH  38  40
ENDBRANCH  37  38
ENDBRANCH  36  37
ENDBRANCH  35  36
ENDBRANCH  34  35
ENDBRANCH  33  34
ENDBRANCH  32  33
ENDBRANCH  31  32
ENDBRANCH  30  31
ENDBRANCH   1  30
TORSDOF 25
