REMARK SMILES COc1cccc(NC2=[NH+]C(=O)/C(=C\c3cccc(O[C@@H](C)C(=O)OCCOCCOCCOC(=O)c4ccc(-c5c6nc(c(-c7c(F)c(F)c(F)c(F)c7F)c7ccc([nH]7)c(-c7c(F)c(F)c(F)c(F)c7F)c7nc(c(-c8c(F)c(F)c(F)c(F)c8F)c8ccc5[nH]8)C=C7)C=C6)cc4)c3)S2)c1
REMARK SMILES IDX 28 1 27 2 26 3 25 4 23 5 24 6 21 7 22 8 20 9 19 10 15 11
REMARK SMILES IDX 16 12 100 13 17 14 18 15 14 16 8 17 9 18 10 20 101 21 11 22
REMARK SMILES IDX 13 24 12 25 7 26 3 27 4 28 102 29 5 30 6 31 2 32 1 33 29 34
REMARK SMILES IDX 30 35 31 36 32 37 33 38 34 39 35 40 36 41 37 42 38 43 99 44
REMARK SMILES IDX 39 45 98 46 40 47 41 48 42 49 92 50 43 51 97 52 91 53 93 54
REMARK SMILES IDX 44 55 96 56 90 57 89 58 45 60 77 61 57 62 76 63 58 64 61 65
REMARK SMILES IDX 75 66 94 67 59 68 60 69 74 71 95 72 62 73 46 74 47 75 55 76
REMARK SMILES IDX 48 77 49 78 53 79 56 80 50 81 51 82 54 83 52 84 78 85 79 86
REMARK SMILES IDX 87 87 80 88 81 89 85 90 88 91 82 92 83 93 86 94 84 95 63 96
REMARK SMILES IDX 64 97 72 98 65 99 66 100 70 101 73 102 67 103 68 104 71 105
REMARK SMILES IDX 69 106
REMARK H PARENT 8 19 10 23 93 59 61 70
REMARK Flexibility Score: inf
ROOT
ATOM      1  O   UNL     1       1.650  13.208  -0.853  1.00  0.00    -0.376 OA
ENDROOT
BRANCH   1   2
ATOM      2  C   UNL     1       1.559  12.053  -0.024  1.00  0.00     0.202 C 
BRANCH   2   3
ATOM      3  C   UNL     1       2.057  10.741  -0.636  1.00  0.00     0.261 C 
BRANCH   3   4
ATOM      4  O   UNL     1       3.452  10.807  -0.980  1.00  0.00    -0.461 OA
BRANCH   4   5
ATOM      5  C   UNL     1       3.835  10.186  -2.124  1.00  0.00     0.347 C 
ATOM      6  O   UNL     1       3.080   9.506  -2.812  1.00  0.00    -0.248 OA
BRANCH   5   7
ATOM      7  C   UNL     1       5.319  10.469  -2.513  1.00  0.00     0.279 C 
ATOM      8  C   UNL     1       5.952   9.192  -3.069  1.00  0.00     0.066 C 
BRANCH   7   9
ATOM      9  O   UNL     1       6.279  11.190  -1.745  1.00  0.00    -0.479 OA
BRANCH   9  10
ATOM     10  C   UNL     1       6.577  10.859  -0.457  1.00  0.00     0.121 A 
ATOM     11  C   UNL     1       6.274   9.626   1.621  1.00  0.00    -0.021 A 
ATOM     12  C   UNL     1       7.185  10.459   2.266  1.00  0.00     0.008 A 
ATOM     13  C   UNL     1       5.978   9.841   0.264  1.00  0.00     0.054 A 
ATOM     14  C   UNL     1       7.818  11.472   1.542  1.00  0.00     0.004 A 
ATOM     15  C   UNL     1       7.516  11.668   0.188  1.00  0.00     0.046 A 
BRANCH  11  16
ATOM     16  C   UNL     1       5.520   8.574   2.314  1.00  0.00     0.032 C 
ATOM     17  N   UNL     1       3.995   4.049   0.638  1.00  0.00    -0.234 N 
ATOM     18  C   UNL     1       4.680   5.178   0.960  1.00  0.00     0.322 C 
ATOM     19  H   UNL     1       4.523   3.218   0.647  1.00  0.00     0.313 HD
ATOM     20  N   UNL     1       5.764   5.512   0.341  1.00  0.00    -0.199 N 
ATOM     21  S   UNL     1       4.213   6.202   2.303  1.00  0.00     0.006 SA
ATOM     22  C   UNL     1       6.313   6.684   0.801  1.00  0.00     0.346 C 
ATOM     23  H   UNL     1       6.158   4.980  -0.388  1.00  0.00     0.316 HD
ATOM     24  C   UNL     1       5.459   7.311   1.865  1.00  0.00     0.110 C 
ATOM     25  O   UNL     1       7.367   7.144   0.396  1.00  0.00    -0.240 OA
BRANCH  17  26
ATOM     26  C   UNL     1       2.636   3.901   0.295  1.00  0.00     0.129 A 
ATOM     27  C   UNL     1       0.839   2.354  -0.298  1.00  0.00     0.123 A 
ATOM     28  C   UNL     1      -0.021   3.433  -0.487  1.00  0.00     0.047 A 
ATOM     29  C   UNL     1       2.158   2.594   0.093  1.00  0.00     0.098 A 
ATOM     30  C   UNL     1       0.423   4.734  -0.254  1.00  0.00     0.008 A 
ATOM     31  C   UNL     1       1.743   4.966   0.146  1.00  0.00     0.052 A 
BRANCH  27  32
ATOM     32  O   UNL     1       0.299   1.125  -0.556  1.00  0.00    -0.497 OA
ATOM     33  C   UNL     1       0.995   0.004  -0.022  1.00  0.00     0.278 C 
ENDBRANCH  27  32
ENDBRANCH  17  26
ENDBRANCH  11  16
ENDBRANCH   9  10
ENDBRANCH   7   9
ENDBRANCH   5   7
ENDBRANCH   4   5
ENDBRANCH   3   4
ENDBRANCH   2   3
ENDBRANCH   1   2
BRANCH   1  34
ATOM     34  C   UNL     1       2.927  13.584  -1.364  1.00  0.00     0.188 C 
BRANCH  34  35
ATOM     35  C   UNL     1       4.149  13.548  -0.430  1.00  0.00     0.188 C 
BRANCH  35  36
ATOM     36  O   UNL     1       3.827  13.467   0.947  1.00  0.00    -0.376 OA
BRANCH  36  37
ATOM     37  C   UNL     1       4.378  14.493   1.756  1.00  0.00     0.202 C 
BRANCH  37  38
ATOM     38  C   UNL     1       3.580  15.796   1.645  1.00  0.00     0.261 C 
BRANCH  38  39
ATOM     39  O   UNL     1       3.510  16.339   0.313  1.00  0.00    -0.460 OA
BRANCH  39  40
ATOM     40  C   UNL     1       4.665  16.797  -0.223  1.00  0.00     0.338 C 
ATOM     41  O   UNL     1       5.756  16.849   0.312  1.00  0.00    -0.246 OA
BRANCH  40  42
ATOM     42  C   UNL     1       4.425  17.037  -1.664  1.00  0.00     0.060 A 
ATOM     43  C   UNL     1       5.243  16.400  -2.608  1.00  0.00     0.016 A 
ATOM     44  C   UNL     1       3.378  17.862  -2.080  1.00  0.00     0.016 A 
ATOM     45  C   UNL     1       5.025  16.603  -3.974  1.00  0.00     0.010 A 
ATOM     46  C   UNL     1       3.175  18.081  -3.445  1.00  0.00     0.010 A 
ATOM     47  C   UNL     1       4.010  17.471  -4.398  1.00  0.00    -0.014 A 
BRANCH  47  48
ATOM     48  C   UNL     1       3.916  17.894  -5.817  1.00  0.00     0.031 A 
ATOM     49  C   UNL     1       4.585  19.177  -6.223  1.00  0.00     0.074 A 
ATOM     50  C   UNL     1       3.218  17.184  -6.720  1.00  0.00     0.049 A 
ATOM     51  N   UNL     1       4.536  19.819  -7.362  1.00  0.00    -0.248 NA
ATOM     52  C   UNL     1       5.417  19.828  -5.198  1.00  0.00     0.031 C 
ATOM     53  C   UNL     1       2.554  15.909  -6.465  1.00  0.00     0.029 A 
ATOM     54  N   UNL     1       2.933  17.457  -8.037  1.00  0.00    -0.354 N 
ATOM     55  C   UNL     1       5.318  20.952  -7.187  1.00  0.00     0.074 A 
ATOM     56  C   UNL     1       5.816  20.922  -5.829  1.00  0.00     0.031 C 
ATOM     57  C   UNL     1       1.914  15.521  -7.583  1.00  0.00     0.029 A 
ATOM     58  C   UNL     1       2.091  16.540  -8.617  1.00  0.00     0.049 A 
ATOM     59  H   UNL     1       3.297  18.235  -8.517  1.00  0.00     0.167 HD
ATOM     60  C   UNL     1       5.598  21.931  -8.080  1.00  0.00     0.037 A 
ATOM     61  C   UNL     1       1.503  16.546  -9.831  1.00  0.00     0.037 A 
ATOM     62  C   UNL     1       5.101  21.965  -9.429  1.00  0.00     0.049 A 
ATOM     63  C   UNL     1       1.762  17.690 -10.780  1.00  0.00     0.074 A 
ATOM     64  C   UNL     1       5.361  22.894 -10.420  1.00  0.00     0.029 A 
ATOM     65  N   UNL     1       4.230  21.032  -9.971  1.00  0.00    -0.354 N 
ATOM     66  N   UNL     1       2.531  18.740 -10.623  1.00  0.00    -0.248 NA
ATOM     67  C   UNL     1       1.062  17.652 -12.074  1.00  0.00     0.031 C 
ATOM     68  C   UNL     1       4.603  22.555 -11.546  1.00  0.00     0.029 A 
ATOM     69  C   UNL     1       3.912  21.385 -11.272  1.00  0.00     0.049 A 
ATOM     70  H   UNL     1       3.888  20.238  -9.501  1.00  0.00     0.167 HD
ATOM     71  C   UNL     1       2.424  19.474 -11.798  1.00  0.00     0.074 A 
ATOM     72  C   UNL     1       1.526  18.744 -12.667  1.00  0.00     0.031 C 
ATOM     73  C   UNL     1       3.017  20.648 -12.127  1.00  0.00     0.037 A 
BRANCH  60  74
ATOM     74  C   UNL     1       6.457  23.067  -7.611  1.00  0.00     0.064 A 
ATOM     75  C   UNL     1       7.831  22.907  -7.382  1.00  0.00     0.173 A 
ATOM     76  C   UNL     1       5.900  24.339  -7.413  1.00  0.00     0.173 A 
ATOM     77  F   UNL     1       8.407  21.705  -7.542  1.00  0.00    -0.203 F 
ATOM     78  C   UNL     1       8.612  23.974  -6.949  1.00  0.00     0.198 A 
ATOM     79  C   UNL     1       6.689  25.410  -7.006  1.00  0.00     0.198 A 
ATOM     80  F   UNL     1       4.590  24.544  -7.620  1.00  0.00    -0.203 F 
ATOM     81  F   UNL     1       9.915  23.789  -6.692  1.00  0.00    -0.200 F 
ATOM     82  C   UNL     1       8.043  25.226  -6.768  1.00  0.00     0.200 A 
ATOM     83  F   UNL     1       6.139  26.621  -6.841  1.00  0.00    -0.200 F 
ATOM     84  F   UNL     1       8.797  26.254  -6.355  1.00  0.00    -0.200 F 
ENDBRANCH  60  74
BRANCH  61  85
ATOM     85  C   UNL     1       0.576  15.448 -10.212  1.00  0.00     0.064 A 
ATOM     86  C   UNL     1       0.913  14.531 -11.217  1.00  0.00     0.173 A 
ATOM     87  C   UNL     1      -0.677  15.309  -9.597  1.00  0.00     0.173 A 
ATOM     88  F   UNL     1       2.086  14.643 -11.859  1.00  0.00    -0.203 F 
ATOM     89  C   UNL     1       0.027  13.527 -11.602  1.00  0.00     0.198 A 
ATOM     90  C   UNL     1      -1.552  14.288  -9.964  1.00  0.00     0.198 A 
ATOM     91  F   UNL     1      -1.053  16.167  -8.637  1.00  0.00    -0.203 F 
ATOM     92  F   UNL     1       0.354  12.693 -12.599  1.00  0.00    -0.200 F 
ATOM     93  C   UNL     1      -1.202  13.402 -10.971  1.00  0.00     0.200 A 
ATOM     94  F   UNL     1      -2.735  14.168  -9.347  1.00  0.00    -0.200 F 
ATOM     95  F   UNL     1      -2.053  12.436 -11.341  1.00  0.00    -0.200 F 
ENDBRANCH  61  85
BRANCH  73  96
ATOM     96  C   UNL     1       2.736  21.214 -13.489  1.00  0.00     0.064 A 
ATOM     97  C   UNL     1       1.502  21.803 -13.799  1.00  0.00     0.173 A 
ATOM     98  C   UNL     1       3.736  21.227 -14.474  1.00  0.00     0.173 A 
ATOM     99  F   UNL     1       0.509  21.803 -12.897  1.00  0.00    -0.203 F 
ATOM    100  C   UNL     1       1.274  22.373 -15.049  1.00  0.00     0.198 A 
ATOM    101  C   UNL     1       3.515  21.822 -15.713  1.00  0.00     0.198 A 
ATOM    102  F   UNL     1       4.937  20.684 -14.226  1.00  0.00    -0.203 F 
ATOM    103  F   UNL     1       0.076  22.901 -15.335  1.00  0.00    -0.200 F 
ATOM    104  C   UNL     1       2.283  22.391 -16.001  1.00  0.00     0.200 A 
ATOM    105  F   UNL     1       4.495  21.852 -16.626  1.00  0.00    -0.200 F 
ATOM    106  F   UNL     1       2.067  22.953 -17.198  1.00  0.00    -0.200 F 
ENDBRANCH  73  96
ENDBRANCH  47  48
ENDBRANCH  40  42
ENDBRANCH  39  40
ENDBRANCH  38  39
ENDBRANCH  37  38
ENDBRANCH  36  37
ENDBRANCH  35  36
ENDBRANCH  34  35
ENDBRANCH   1  34
TORSDOF 22
