REMARK SMILES C[C@]1(C(=O)OCCOCCOCCOC(=O)c2ccc(-c3c4nc(c(-c5c(F)c(F)c(F)c(F)c5F)c5ccc([nH]5)c(-c5c(F)c(F)c(F)c(F)c5F)c5nc(c(-c6c(F)c(F)c(F)c(F)c6F)c6ccc3[nH]6)C=C5)C=C4)cc2)CCN(c2ccc([N+](=O)[O-])c(N)n2)C1
REMARK SMILES IDX 9 1 8 2 7 3 6 4 5 5 3 6 4 7 2 8 1 9 80 10 93 11 81 12 82 13
REMARK SMILES IDX 83 14 84 15 92 16 85 17 90 18 86 19 91 20 87 23 88 24 89 25
REMARK SMILES IDX 10 26 11 27 12 28 13 29 14 30 15 31 16 32 17 33 18 34 79 35
REMARK SMILES IDX 19 36 78 37 20 38 21 39 22 40 72 41 23 42 77 43 71 44 73 45
REMARK SMILES IDX 24 46 76 47 70 48 69 49 25 51 57 52 37 53 56 54 38 55 41 56
REMARK SMILES IDX 55 57 74 58 39 59 40 60 54 62 75 63 42 64 26 65 27 66 35 67
REMARK SMILES IDX 28 68 29 69 33 70 36 71 30 72 31 73 34 74 32 75 58 76 59 77
REMARK SMILES IDX 67 78 60 79 61 80 65 81 68 82 62 83 63 84 66 85 64 86 43 87
REMARK SMILES IDX 44 88 52 89 45 90 46 91 50 92 53 93 47 94 48 95 51 96 49 97
REMARK H PARENT 91 21 91 22 73 50 41 61
REMARK Flexibility Score: inf
ROOT
ATOM      1  C   UNL     1      -0.189   0.311   2.002  1.00  0.00     0.188 C 
ENDROOT
BRANCH   1   2
ATOM      2  O   UNL     1       0.675  -0.349   2.913  1.00  0.00    -0.376 OA
BRANCH   2   3
ATOM      3  C   UNL     1       2.069  -0.407   2.631  1.00  0.00     0.202 C 
BRANCH   3   4
ATOM      4  C   UNL     1       2.566  -0.844   1.236  1.00  0.00     0.261 C 
BRANCH   4   5
ATOM      5  O   UNL     1       2.097  -0.080   0.092  1.00  0.00    -0.463 OA
BRANCH   5   6
ATOM      6  C   UNL     1       1.351  -0.766  -0.807  1.00  0.00     0.313 C 
ATOM      7  O   UNL     1       1.080  -1.960  -0.682  1.00  0.00    -0.252 OA
BRANCH   6   8
ATOM      8  C   UNL     1       0.815   0.026  -2.007  1.00  0.00     0.084 C 
ATOM      9  C   UNL     1       1.457  -0.596  -3.257  1.00  0.00     0.026 C 
ATOM     10  C   UNL     1      -0.718  -0.189  -1.985  1.00  0.00     0.042 C 
ATOM     11  C   UNL     1       0.967   1.568  -2.097  1.00  0.00     0.136 C 
ATOM     12  C   UNL     1      -1.320   1.006  -2.695  1.00  0.00     0.119 C 
ATOM     13  N   UNL     1      -0.380   2.073  -2.405  1.00  0.00    -0.355 N 
BRANCH  13  14
ATOM     14  C   UNL     1      -0.743   3.351  -2.753  1.00  0.00     0.131 A 
ATOM     15  C   UNL     1       0.154   4.238  -3.335  1.00  0.00     0.054 A 
ATOM     16  N   UNL     1      -2.034   3.725  -2.550  1.00  0.00    -0.207 NA
ATOM     17  C   UNL     1      -0.275   5.507  -3.725  1.00  0.00     0.093 A 
ATOM     18  C   UNL     1      -2.457   4.973  -2.882  1.00  0.00     0.204 A 
ATOM     19  C   UNL     1      -1.599   5.884  -3.487  1.00  0.00     0.311 A 
BRANCH  18  20
ATOM     20  N   UNL     1      -3.800   5.198  -2.654  1.00  0.00    -0.378 N 
ATOM     21  H   UNL     1      -4.195   6.074  -2.866  1.00  0.00     0.158 HD
ATOM     22  H   UNL     1      -4.362   4.481  -2.280  1.00  0.00     0.158 HD
ENDBRANCH  18  20
BRANCH  19  23
ATOM     23  N   UNL     1      -2.032   7.229  -3.859  1.00  0.00     0.066 N 
ATOM     24  O   UNL     1      -1.288   7.881  -4.608  1.00  0.00    -0.258 OA
ATOM     25  O   UNL     1      -3.093   7.666  -3.387  1.00  0.00    -0.258 OA
ENDBRANCH  19  23
ENDBRANCH  13  14
ENDBRANCH   6   8
ENDBRANCH   5   6
ENDBRANCH   4   5
ENDBRANCH   3   4
ENDBRANCH   2   3
ENDBRANCH   1   2
BRANCH   1  26
ATOM     26  C   UNL     1       0.254   1.649   1.398  1.00  0.00     0.188 C 
BRANCH  26  27
ATOM     27  O   UNL     1       1.518   2.104   1.817  1.00  0.00    -0.376 OA
BRANCH  27  28
ATOM     28  C   UNL     1       1.584   3.225   2.682  1.00  0.00     0.202 C 
BRANCH  28  29
ATOM     29  C   UNL     1       0.621   3.361   3.878  1.00  0.00     0.261 C 
BRANCH  29  30
ATOM     30  O   UNL     1      -0.754   3.005   3.658  1.00  0.00    -0.460 OA
BRANCH  30  31
ATOM     31  C   UNL     1      -1.513   3.860   2.935  1.00  0.00     0.338 C 
ATOM     32  O   UNL     1      -1.171   4.941   2.481  1.00  0.00    -0.246 OA
BRANCH  31  33
ATOM     33  C   UNL     1      -2.763   3.147   2.575  1.00  0.00     0.060 A 
ATOM     34  C   UNL     1      -3.064   2.934   1.220  1.00  0.00     0.016 A 
ATOM     35  C   UNL     1      -3.614   2.658   3.568  1.00  0.00     0.016 A 
ATOM     36  C   UNL     1      -4.231   2.259   0.857  1.00  0.00     0.010 A 
ATOM     37  C   UNL     1      -4.797   2.007   3.203  1.00  0.00     0.010 A 
ATOM     38  C   UNL     1      -5.129   1.835   1.846  1.00  0.00    -0.014 A 
BRANCH  38  39
ATOM     39  C   UNL     1      -6.502   1.414   1.466  1.00  0.00     0.031 A 
ATOM     40  C   UNL     1      -7.607   2.433   1.560  1.00  0.00     0.074 A 
ATOM     41  C   UNL     1      -6.772   0.172   1.029  1.00  0.00     0.049 A 
ATOM     42  N   UNL     1      -8.889   2.300   1.334  1.00  0.00    -0.248 NA
ATOM     43  C   UNL     1      -7.205   3.788   1.972  1.00  0.00     0.031 C 
ATOM     44  C   UNL     1      -5.792  -0.895   0.850  1.00  0.00     0.029 A 
ATOM     45  N   UNL     1      -7.967  -0.402   0.664  1.00  0.00    -0.354 N 
ATOM     46  C   UNL     1      -9.445   3.549   1.580  1.00  0.00     0.074 A 
ATOM     47  C   UNL     1      -8.370   4.416   2.009  1.00  0.00     0.031 C 
ATOM     48  C   UNL     1      -6.426  -2.000   0.419  1.00  0.00     0.029 A 
ATOM     49  C   UNL     1      -7.861  -1.728   0.325  1.00  0.00     0.049 A 
ATOM     50  H   UNL     1      -8.818   0.092   0.647  1.00  0.00     0.167 HD
ATOM     51  C   UNL     1     -10.735   3.942   1.450  1.00  0.00     0.037 A 
ATOM     52  C   UNL     1      -8.817  -2.621  -0.001  1.00  0.00     0.037 A 
ATOM     53  C   UNL     1     -11.807   3.079   1.031  1.00  0.00     0.049 A 
ATOM     54  C   UNL     1     -10.260  -2.180  -0.057  1.00  0.00     0.074 A 
ATOM     55  C   UNL     1     -13.145   3.388   0.858  1.00  0.00     0.029 A 
ATOM     56  N   UNL     1     -11.666   1.732   0.730  1.00  0.00    -0.354 N 
ATOM     57  N   UNL     1     -10.776  -0.993   0.150  1.00  0.00    -0.248 NA
ATOM     58  C   UNL     1     -11.254  -3.209  -0.399  1.00  0.00     0.031 C 
ATOM     59  C   UNL     1     -13.824   2.214   0.514  1.00  0.00     0.029 A 
ATOM     60  C   UNL     1     -12.898   1.190   0.401  1.00  0.00     0.049 A 
ATOM     61  H   UNL     1     -10.816   1.236   0.748  1.00  0.00     0.167 HD
ATOM     62  C   UNL     1     -12.143  -1.122  -0.072  1.00  0.00     0.074 A 
ATOM     63  C   UNL     1     -12.374  -2.502  -0.444  1.00  0.00     0.031 C 
ATOM     64  C   UNL     1     -13.118  -0.183   0.021  1.00  0.00     0.037 A 
BRANCH  51  65
ATOM     65  C   UNL     1     -11.062   5.367   1.798  1.00  0.00     0.064 A 
ATOM     66  C   UNL     1     -10.623   6.441   1.008  1.00  0.00     0.173 A 
ATOM     67  C   UNL     1     -11.850   5.659   2.921  1.00  0.00     0.173 A 
ATOM     68  F   UNL     1      -9.853   6.219  -0.068  1.00  0.00    -0.203 F 
ATOM     69  C   UNL     1     -10.936   7.755   1.348  1.00  0.00     0.198 A 
ATOM     70  C   UNL     1     -12.190   6.971   3.238  1.00  0.00     0.198 A 
ATOM     71  F   UNL     1     -12.298   4.670   3.709  1.00  0.00    -0.203 F 
ATOM     72  F   UNL     1     -10.460   8.768   0.611  1.00  0.00    -0.200 F 
ATOM     73  C   UNL     1     -11.726   8.018   2.457  1.00  0.00     0.200 A 
ATOM     74  F   UNL     1     -12.966   7.222   4.302  1.00  0.00    -0.200 F 
ATOM     75  F   UNL     1     -12.034   9.282   2.778  1.00  0.00    -0.200 F 
ENDBRANCH  51  65
BRANCH  52  76
ATOM     76  C   UNL     1      -8.452  -4.035  -0.294  1.00  0.00     0.064 A 
ATOM     77  C   UNL     1      -8.623  -4.577  -1.576  1.00  0.00     0.173 A 
ATOM     78  C   UNL     1      -7.963  -4.883   0.711  1.00  0.00     0.173 A 
ATOM     79  F   UNL     1      -9.117  -3.817  -2.564  1.00  0.00    -0.203 F 
ATOM     80  C   UNL     1      -8.343  -5.918  -1.835  1.00  0.00     0.198 A 
ATOM     81  C   UNL     1      -7.651  -6.214   0.442  1.00  0.00     0.198 A 
ATOM     82  F   UNL     1      -7.787  -4.418   1.956  1.00  0.00    -0.203 F 
ATOM     83  F   UNL     1      -8.573  -6.424  -3.054  1.00  0.00    -0.200 F 
ATOM     84  C   UNL     1      -7.851  -6.734  -0.828  1.00  0.00     0.200 A 
ATOM     85  F   UNL     1      -7.167  -6.997   1.416  1.00  0.00    -0.200 F 
ATOM     86  F   UNL     1      -7.582  -8.022  -1.077  1.00  0.00    -0.200 F 
ENDBRANCH  52  76
BRANCH  64  87
ATOM     87  C   UNL     1     -14.520  -0.598  -0.335  1.00  0.00     0.064 A 
ATOM     88  C   UNL     1     -15.260  -1.483   0.462  1.00  0.00     0.173 A 
ATOM     89  C   UNL     1     -15.144  -0.072  -1.478  1.00  0.00     0.173 A 
ATOM     90  F   UNL     1     -14.711  -2.024   1.560  1.00  0.00    -0.203 F 
ATOM     91  C   UNL     1     -16.556  -1.855   0.109  1.00  0.00     0.198 A 
ATOM     92  C   UNL     1     -16.452  -0.416  -1.807  1.00  0.00     0.198 A 
ATOM     93  F   UNL     1     -14.488   0.789  -2.272  1.00  0.00    -0.203 F 
ATOM     94  F   UNL     1     -17.220  -2.750   0.854  1.00  0.00    -0.200 F 
ATOM     95  C   UNL     1     -17.153  -1.316  -1.020  1.00  0.00     0.200 A 
ATOM     96  F   UNL     1     -17.033   0.122  -2.889  1.00  0.00    -0.200 F 
ATOM     97  F   UNL     1     -18.401  -1.671  -1.355  1.00  0.00    -0.200 F 
ENDBRANCH  64  87
ENDBRANCH  38  39
ENDBRANCH  31  33
ENDBRANCH  30  31
ENDBRANCH  29  30
ENDBRANCH  28  29
ENDBRANCH  27  28
ENDBRANCH  26  27
ENDBRANCH   1  26
TORSDOF 20
