REMARK SMILES CC[C@@](C)(NC(=O)CCc1ccc(OC)c(Br)c1)C(=O)OCCOCCOCCOC(=O)c1ccc(-c2c3nc(c(-c4c(F)c(F)c(F)c(F)c4F)c4ccc([nH]4)c(-c4c(F)c(F)c(F)c(F)c4F)c4nc(c(-c5c(F)c(F)c(F)c(F)c5F)c5ccc2[nH]5)C=C4)C=C3)cc1
REMARK SMILES IDX 24 1 23 2 22 3 21 4 19 5 20 6 3 7 4 8 2 9 1 10 5 11 6 12
REMARK SMILES IDX 7 14 8 15 9 16 10 17 11 18 18 19 12 20 16 21 13 22 17 23
REMARK SMILES IDX 14 24 15 25 25 26 26 27 27 28 28 29 29 30 30 31 31 32 32 33
REMARK SMILES IDX 33 34 34 35 95 36 35 37 94 38 36 39 37 40 38 41 88 42 39 43
REMARK SMILES IDX 93 44 87 45 89 46 40 47 92 48 86 49 85 50 41 52 73 53 53 54
REMARK SMILES IDX 72 55 54 56 57 57 71 58 90 59 55 60 56 61 70 63 91 64 58 65
REMARK SMILES IDX 42 66 43 67 51 68 44 69 45 70 49 71 52 72 46 73 47 74 50 75
REMARK SMILES IDX 48 76 74 77 75 78 83 79 76 80 77 81 81 82 84 83 78 84 79 85
REMARK SMILES IDX 82 86 80 87 59 88 60 89 68 90 61 91 62 92 66 93 69 94 63 95
REMARK SMILES IDX 64 96 67 97 65 98
REMARK H PARENT 5 13 89 51 57 62
REMARK Flexibility Score: inf
ROOT
ATOM      1  O   UNL     1       5.031  -1.968   2.110  1.00  0.00    -0.376 OA
ENDROOT
BRANCH   1   2
ATOM      2  C   UNL     1       5.080  -1.962   3.545  1.00  0.00     0.202 C 
BRANCH   2   3
ATOM      3  C   UNL     1       4.458  -0.642   4.113  1.00  0.00     0.261 C 
BRANCH   3   4
ATOM      4  O   UNL     1       3.009  -0.731   4.309  1.00  0.00    -0.462 OA
BRANCH   4   5
ATOM      5  C   UNL     1       2.202   0.244   3.758  1.00  0.00     0.331 C 
ATOM      6  O   UNL     1       2.635   1.291   3.289  1.00  0.00    -0.249 OA
BRANCH   5   7
ATOM      7  C   UNL     1       0.663  -0.102   3.844  1.00  0.00     0.135 C 
ATOM      8  C   UNL     1       0.085   0.937   4.832  1.00  0.00     0.047 C 
BRANCH   7   9
ATOM      9  C   UNL     1      -0.205  -0.018   2.558  1.00  0.00     0.037 C 
ATOM     10  C   UNL     1      -0.181   1.245   1.725  1.00  0.00     0.007 C 
ENDBRANCH   7   9
BRANCH   7  11
ATOM     11  N   UNL     1       0.405  -1.454   4.386  1.00  0.00    -0.340 N 
ATOM     12  C   UNL     1       0.444  -2.664   3.780  1.00  0.00     0.221 C 
ATOM     13  H   UNL     1       0.167  -1.477   5.341  1.00  0.00     0.164 HD
ATOM     14  O   UNL     1      -0.276  -3.532   4.295  1.00  0.00    -0.275 OA
BRANCH  12  15
ATOM     15  C   UNL     1       1.337  -3.081   2.614  1.00  0.00     0.105 C 
BRANCH  15  16
ATOM     16  C   UNL     1       2.229  -2.207   1.751  1.00  0.00     0.045 C 
BRANCH  16  17
ATOM     17  C   UNL     1       2.007  -1.307   0.569  1.00  0.00    -0.046 A 
ATOM     18  C   UNL     1       1.088  -1.546  -0.445  1.00  0.00     0.007 A 
ATOM     19  C   UNL     1       2.903  -0.218   0.420  1.00  0.00     0.023 A 
ATOM     20  C   UNL     1       0.975  -0.633  -1.503  1.00  0.00     0.048 A 
ATOM     21  C   UNL     1       2.808   0.679  -0.636  1.00  0.00     0.060 A 
ATOM     22  C   UNL     1       1.786   0.508  -1.563  1.00  0.00     0.133 A 
ATOM     23  Br  UNL     1       4.093   2.071  -0.737  1.00  0.00    -0.047 Br
BRANCH  22  24
ATOM     24  O   UNL     1       1.519   1.414  -2.555  1.00  0.00    -0.496 OA
ATOM     25  C   UNL     1       1.025   2.641  -1.998  1.00  0.00     0.278 C 
ENDBRANCH  22  24
ENDBRANCH  16  17
ENDBRANCH  15  16
ENDBRANCH  12  15
ENDBRANCH   7  11
ENDBRANCH   5   7
ENDBRANCH   4   5
ENDBRANCH   3   4
ENDBRANCH   2   3
ENDBRANCH   1   2
BRANCH   1  26
ATOM     26  C   UNL     1       5.720  -3.027   1.437  1.00  0.00     0.188 C 
BRANCH  26  27
ATOM     27  C   UNL     1       4.945  -4.329   1.165  1.00  0.00     0.188 C 
BRANCH  27  28
ATOM     28  O   UNL     1       4.646  -5.082   2.342  1.00  0.00    -0.376 OA
BRANCH  28  29
ATOM     29  C   UNL     1       5.633  -6.081   2.615  1.00  0.00     0.202 C 
BRANCH  29  30
ATOM     30  C   UNL     1       5.447  -7.397   1.832  1.00  0.00     0.261 C 
BRANCH  30  31
ATOM     31  O   UNL     1       5.018  -7.173   0.478  1.00  0.00    -0.460 OA
BRANCH  31  32
ATOM     32  C   UNL     1       3.680  -7.340   0.280  1.00  0.00     0.338 C 
ATOM     33  O   UNL     1       2.896  -7.875   1.031  1.00  0.00    -0.246 OA
BRANCH  32  34
ATOM     34  C   UNL     1       3.252  -6.641  -0.959  1.00  0.00     0.060 A 
ATOM     35  C   UNL     1       1.990  -6.029  -0.947  1.00  0.00     0.016 A 
ATOM     36  C   UNL     1       4.029  -6.613  -2.121  1.00  0.00     0.016 A 
ATOM     37  C   UNL     1       1.475  -5.441  -2.106  1.00  0.00     0.010 A 
ATOM     38  C   UNL     1       3.509  -6.035  -3.287  1.00  0.00     0.010 A 
ATOM     39  C   UNL     1       2.212  -5.487  -3.296  1.00  0.00    -0.014 A 
BRANCH  39  40
ATOM     40  C   UNL     1       1.540  -5.231  -4.596  1.00  0.00     0.031 A 
ATOM     41  C   UNL     1       0.920  -6.409  -5.303  1.00  0.00     0.074 A 
ATOM     42  C   UNL     1       1.474  -4.008  -5.149  1.00  0.00     0.049 A 
ATOM     43  N   UNL     1       0.403  -6.490  -6.502  1.00  0.00    -0.248 NA
ATOM     44  C   UNL     1       0.886  -7.671  -4.546  1.00  0.00     0.031 C 
ATOM     45  C   UNL     1       1.961  -2.773  -4.542  1.00  0.00     0.029 A 
ATOM     46  N   UNL     1       0.973  -3.611  -6.367  1.00  0.00    -0.354 N 
ATOM     47  C   UNL     1      -0.004  -7.811  -6.645  1.00  0.00     0.074 A 
ATOM     48  C   UNL     1       0.337  -8.498  -5.420  1.00  0.00     0.031 C 
ATOM     49  C   UNL     1       1.749  -1.755  -5.396  1.00  0.00     0.029 A 
ATOM     50  C   UNL     1       1.157  -2.275  -6.630  1.00  0.00     0.049 A 
ATOM     51  H   UNL     1       0.525  -4.226  -6.991  1.00  0.00     0.167 HD
ATOM     52  C   UNL     1      -0.602  -8.403  -7.706  1.00  0.00     0.037 A 
ATOM     53  C   UNL     1       0.908  -1.570  -7.752  1.00  0.00     0.037 A 
ATOM     54  C   UNL     1      -0.921  -7.728  -8.934  1.00  0.00     0.049 A 
ATOM     55  C   UNL     1       0.337  -2.274  -8.962  1.00  0.00     0.074 A 
ATOM     56  C   UNL     1      -1.496  -8.246 -10.081  1.00  0.00     0.029 A 
ATOM     57  N   UNL     1      -0.683  -6.384  -9.175  1.00  0.00    -0.354 N 
ATOM     58  N   UNL     1      -0.024  -3.527  -9.104  1.00  0.00    -0.248 NA
ATOM     59  C   UNL     1       0.150  -1.463 -10.176  1.00  0.00     0.031 C 
ATOM     60  C   UNL     1      -1.565  -7.223 -11.033  1.00  0.00     0.029 A 
ATOM     61  C   UNL     1      -1.083  -6.057 -10.459  1.00  0.00     0.049 A 
ATOM     62  H   UNL     1      -0.289  -5.755  -8.528  1.00  0.00     0.167 HD
ATOM     63  C   UNL     1      -0.504  -3.646 -10.403  1.00  0.00     0.074 A 
ATOM     64  C   UNL     1      -0.399  -2.336 -11.009  1.00  0.00     0.031 C 
ATOM     65  C   UNL     1      -0.988  -4.742 -11.039  1.00  0.00     0.037 A 
BRANCH  52  66
ATOM     66  C   UNL     1      -0.901  -9.868  -7.591  1.00  0.00     0.064 A 
ATOM     67  C   UNL     1      -1.923 -10.349  -6.760  1.00  0.00     0.173 A 
ATOM     68  C   UNL     1      -0.151 -10.803  -8.320  1.00  0.00     0.173 A 
ATOM     69  F   UNL     1      -2.653  -9.496  -6.025  1.00  0.00    -0.203 F 
ATOM     70  C   UNL     1      -2.164 -11.715  -6.640  1.00  0.00     0.198 A 
ATOM     71  C   UNL     1      -0.413 -12.166  -8.220  1.00  0.00     0.198 A 
ATOM     72  F   UNL     1       0.840 -10.394  -9.127  1.00  0.00    -0.203 F 
ATOM     73  F   UNL     1      -3.109 -12.156  -5.798  1.00  0.00    -0.200 F 
ATOM     74  C   UNL     1      -1.413 -12.621  -7.374  1.00  0.00     0.200 A 
ATOM     75  F   UNL     1       0.309 -13.040  -8.935  1.00  0.00    -0.200 F 
ATOM     76  F   UNL     1      -1.645 -13.936  -7.257  1.00  0.00    -0.200 F 
ENDBRANCH  52  66
BRANCH  53  77
ATOM     77  C   UNL     1       1.229  -0.118  -7.814  1.00  0.00     0.064 A 
ATOM     78  C   UNL     1       0.213   0.842  -7.935  1.00  0.00     0.173 A 
ATOM     79  C   UNL     1       2.555   0.338  -7.806  1.00  0.00     0.173 A 
ATOM     80  F   UNL     1      -1.070   0.455  -7.989  1.00  0.00    -0.203 F 
ATOM     81  C   UNL     1       0.513   2.197  -8.061  1.00  0.00     0.198 A 
ATOM     82  C   UNL     1       2.853   1.696  -7.904  1.00  0.00     0.198 A 
ATOM     83  F   UNL     1       3.566  -0.539  -7.714  1.00  0.00    -0.203 F 
ATOM     84  F   UNL     1      -0.475   3.087  -8.235  1.00  0.00    -0.200 F 
ATOM     85  C   UNL     1       1.832   2.624  -8.040  1.00  0.00     0.200 A 
ATOM     86  F   UNL     1       4.129   2.104  -7.886  1.00  0.00    -0.200 F 
ATOM     87  F   UNL     1       2.119   3.927  -8.170  1.00  0.00    -0.200 F 
ENDBRANCH  53  77
BRANCH  65  88
ATOM     88  C   UNL     1      -1.488  -4.570 -12.445  1.00  0.00     0.064 A 
ATOM     89  C   UNL     1      -0.611  -4.385 -13.524  1.00  0.00     0.173 A 
ATOM     90  C   UNL     1      -2.861  -4.657 -12.722  1.00  0.00     0.173 A 
ATOM     91  F   UNL     1       0.709  -4.285 -13.311  1.00  0.00    -0.203 F 
ATOM     92  C   UNL     1      -1.093  -4.273 -14.826  1.00  0.00     0.198 A 
ATOM     93  C   UNL     1      -3.337  -4.573 -14.028  1.00  0.00     0.198 A 
ATOM     94  F   UNL     1      -3.741  -4.845 -11.727  1.00  0.00    -0.203 F 
ATOM     95  F   UNL     1      -0.241  -4.058 -15.838  1.00  0.00    -0.200 F 
ATOM     96  C   UNL     1      -2.454  -4.375 -15.078  1.00  0.00     0.200 A 
ATOM     97  F   UNL     1      -4.650  -4.689 -14.270  1.00  0.00    -0.200 F 
ATOM     98  F   UNL     1      -2.913  -4.280 -16.333  1.00  0.00    -0.200 F 
ENDBRANCH  65  88
ENDBRANCH  39  40
ENDBRANCH  32  34
ENDBRANCH  31  32
ENDBRANCH  30  31
ENDBRANCH  29  30
ENDBRANCH  28  29
ENDBRANCH  27  28
ENDBRANCH  26  27
ENDBRANCH   1  26
TORSDOF 23
