REMARK SMILES Cc1ccc(S(=O)(=O)n2cc(C(=O)C(=O)N[C@@H](Cc3cnc[nH]3)C(=O)OCCOCCOCCOC(=O)c3ccc(-c4c5nc(c(-c6c(F)c(F)c(F)c(F)c6F)c6ccc([nH]6)c(-c6c(F)c(F)c(F)c(F)c6F)c6nc(c(-c7c(F)c(F)c(F)c(F)c7F)c7ccc4[nH]7)C=C6)C=C5)cc3)c3ccccc32)cc1
REMARK SMILES IDX 29 1 28 2 27 3 26 4 24 5 25 6 17 7 16 8 14 9 15 10 12 12
REMARK SMILES IDX 13 13 11 14 9 15 10 16 106 17 101 18 105 19 102 20 104 21
REMARK SMILES IDX 103 22 6 23 7 24 8 25 5 26 1 27 2 28 3 29 108 30 4 31 107 32
REMARK SMILES IDX 18 33 19 34 20 35 23 36 21 37 22 38 30 40 31 41 32 42 33 43
REMARK SMILES IDX 34 44 35 45 36 46 37 47 38 48 39 49 100 50 40 51 99 52 41 53
REMARK SMILES IDX 42 54 43 55 93 56 44 57 98 58 92 59 94 60 45 61 97 62 91 63
REMARK SMILES IDX 90 64 46 66 78 67 58 68 77 69 59 70 62 71 76 72 95 73 60 74
REMARK SMILES IDX 61 75 75 77 96 78 63 79 47 80 48 81 56 82 49 83 50 84 54 85
REMARK SMILES IDX 57 86 51 87 52 88 55 89 53 90 79 91 80 92 88 93 81 94 82 95
REMARK SMILES IDX 86 96 89 97 83 98 84 99 87 100 85 101 64 102 65 103 73 104
REMARK SMILES IDX 66 105 67 106 71 107 74 108 68 109 69 110 72 111 70 112
REMARK H PARENT 16 11 23 39 94 65 62 76
REMARK Flexibility Score: inf
ROOT
ATOM      1  O   UNL     1      -3.117   8.111   6.946  1.00  0.00    -0.376 OA
ENDROOT
BRANCH   1   2
ATOM      2  C   UNL     1      -4.525   8.256   6.815  1.00  0.00     0.202 C 
BRANCH   2   3
ATOM      3  C   UNL     1      -5.262   7.056   6.177  1.00  0.00     0.261 C 
BRANCH   3   4
ATOM      4  O   UNL     1      -5.394   7.030   4.604  1.00  0.00    -0.462 OA
BRANCH   4   5
ATOM      5  C   UNL     1      -6.099   6.982   3.406  1.00  0.00     0.329 C 
ATOM      6  O   UNL     1      -5.367   6.602   2.483  1.00  0.00    -0.250 OA
BRANCH   5   7
ATOM      7  C   UNL     1      -7.781   7.422   2.960  1.00  0.00     0.198 C 
BRANCH   7   8
ATOM      8  N   UNL     1      -8.350   6.208   2.223  1.00  0.00    -0.335 N 
ATOM      9  C   UNL     1      -7.853   5.283   1.276  1.00  0.00     0.293 C 
ATOM     10  O   UNL     1      -8.561   4.309   1.013  1.00  0.00    -0.265 OA
ATOM     11  H   UNL     1      -9.287   6.027   2.466  1.00  0.00     0.164 HD
BRANCH   9  12
ATOM     12  C   UNL     1      -6.519   5.410   0.497  1.00  0.00     0.252 C 
ATOM     13  O   UNL     1      -6.327   6.536   0.026  1.00  0.00    -0.283 OA
BRANCH  12  14
ATOM     14  C   UNL     1      -5.601   4.256   0.132  1.00  0.00     0.054 A 
ATOM     15  N   UNL     1      -4.445   2.297  -0.026  1.00  0.00    -0.240 N 
ATOM     16  C   UNL     1      -5.437   2.980   0.686  1.00  0.00     0.117 A 
ATOM     17  C   UNL     1      -4.068   3.018  -1.136  1.00  0.00     0.065 A 
ATOM     18  C   UNL     1      -4.677   4.276  -0.998  1.00  0.00     0.012 A 
ATOM     19  C   UNL     1      -3.241   2.698  -2.233  1.00  0.00     0.028 A 
ATOM     20  C   UNL     1      -4.356   5.260  -1.960  1.00  0.00     0.011 A 
ATOM     21  C   UNL     1      -2.962   3.693  -3.167  1.00  0.00     0.002 A 
ATOM     22  C   UNL     1      -3.497   4.965  -3.024  1.00  0.00     0.001 A 
BRANCH  15  23
ATOM     23  S   UNL     1      -3.942   0.665   0.250  1.00  0.00     0.268 S 
ATOM     24  O   UNL     1      -4.450  -0.068  -0.897  1.00  0.00    -0.201 OA
ATOM     25  O   UNL     1      -4.362   0.356   1.602  1.00  0.00    -0.201 OA
BRANCH  23  26
ATOM     26  C   UNL     1      -2.150   0.523   0.204  1.00  0.00     0.088 A 
ATOM     27  C   UNL     1       2.150  -0.018   0.012  1.00  0.00     0.044 C 
ATOM     28  C   UNL     1       0.658   0.171   0.066  1.00  0.00    -0.051 A 
ATOM     29  C   UNL     1      -0.199  -0.932  -0.018  1.00  0.00     0.005 A 
ATOM     30  C   UNL     1       0.094   1.445   0.227  1.00  0.00     0.005 A 
ATOM     31  C   UNL     1      -1.592  -0.759   0.042  1.00  0.00     0.022 A 
ATOM     32  C   UNL     1      -1.300   1.624   0.307  1.00  0.00     0.022 A 
ENDBRANCH  23  26
ENDBRANCH  15  23
ENDBRANCH  12  14
ENDBRANCH   9  12
ENDBRANCH   7   8
BRANCH   7  33
ATOM     33  C   UNL     1      -9.112   8.565   3.610  1.00  0.00     0.092 C 
BRANCH  33  34
ATOM     34  C   UNL     1      -9.925   8.850   5.250  1.00  0.00     0.037 A 
ATOM     35  C   UNL     1     -10.452   8.104   6.377  1.00  0.00     0.134 A 
ATOM     36  N   UNL     1     -10.118  10.122   5.800  1.00  0.00    -0.348 N 
ATOM     37  N   UNL     1     -10.828   8.837   7.467  1.00  0.00    -0.245 NA
ATOM     38  C   UNL     1     -10.604  10.059   7.087  1.00  0.00     0.196 A 
ATOM     39  H   UNL     1      -9.930  10.963   5.323  1.00  0.00     0.167 HD
ENDBRANCH  33  34
ENDBRANCH   7  33
ENDBRANCH   5   7
ENDBRANCH   4   5
ENDBRANCH   3   4
ENDBRANCH   2   3
ENDBRANCH   1   2
BRANCH   1  40
ATOM     40  C   UNL     1      -2.505   7.748   5.720  1.00  0.00     0.188 C 
BRANCH  40  41
ATOM     41  C   UNL     1      -2.122   6.269   5.689  1.00  0.00     0.188 C 
BRANCH  41  42
ATOM     42  O   UNL     1      -3.022   5.393   6.341  1.00  0.00    -0.376 OA
BRANCH  42  43
ATOM     43  C   UNL     1      -2.917   5.272   7.763  1.00  0.00     0.202 C 
BRANCH  43  44
ATOM     44  C   UNL     1      -2.670   3.792   8.046  1.00  0.00     0.261 C 
BRANCH  44  45
ATOM     45  O   UNL     1      -3.881   3.049   7.775  1.00  0.00    -0.460 OA
BRANCH  45  46
ATOM     46  C   UNL     1      -4.157   2.846   6.445  1.00  0.00     0.338 C 
ATOM     47  O   UNL     1      -3.375   2.546   5.597  1.00  0.00    -0.246 OA
BRANCH  46  48
ATOM     48  C   UNL     1      -5.556   3.352   6.197  1.00  0.00     0.060 A 
ATOM     49  C   UNL     1      -5.925   3.615   4.885  1.00  0.00     0.016 A 
ATOM     50  C   UNL     1      -6.383   3.816   7.232  1.00  0.00     0.016 A 
ATOM     51  C   UNL     1      -6.991   4.491   4.644  1.00  0.00     0.010 A 
ATOM     52  C   UNL     1      -7.396   4.756   6.978  1.00  0.00     0.010 A 
ATOM     53  C   UNL     1      -7.604   5.220   5.682  1.00  0.00    -0.014 A 
BRANCH  53  54
ATOM     54  C   UNL     1      -8.354   6.527   5.439  1.00  0.00     0.031 A 
ATOM     55  C   UNL     1      -9.888   6.115   4.692  1.00  0.00     0.074 A 
ATOM     56  C   UNL     1      -7.692   7.837   5.694  1.00  0.00     0.049 A 
ATOM     57  N   UNL     1     -10.724   6.866   3.985  1.00  0.00    -0.248 NA
ATOM     58  C   UNL     1     -10.563   4.824   4.936  1.00  0.00     0.031 C 
ATOM     59  C   UNL     1      -7.753   8.837   6.842  1.00  0.00     0.029 A 
ATOM     60  N   UNL     1      -6.948   8.753   4.809  1.00  0.00    -0.354 N 
ATOM     61  C   UNL     1     -12.020   6.530   4.350  1.00  0.00     0.074 A 
ATOM     62  C   UNL     1     -11.844   5.114   4.621  1.00  0.00     0.031 C 
ATOM     63  C   UNL     1      -7.434  10.116   6.431  1.00  0.00     0.029 A 
ATOM     64  C   UNL     1      -6.970  10.115   5.062  1.00  0.00     0.049 A 
ATOM     65  H   UNL     1      -6.439   8.399   4.045  1.00  0.00     0.167 HD
ATOM     66  C   UNL     1     -12.982   7.448   4.788  1.00  0.00     0.037 A 
ATOM     67  C   UNL     1      -6.670  11.082   4.135  1.00  0.00     0.037 A 
ATOM     68  C   UNL     1     -12.810   8.955   4.578  1.00  0.00     0.049 A 
ATOM     69  C   UNL     1      -7.903  11.762   3.492  1.00  0.00     0.074 A 
ATOM     70  C   UNL     1     -13.120  10.034   5.425  1.00  0.00     0.029 A 
ATOM     71  N   UNL     1     -12.195   9.584   3.482  1.00  0.00    -0.354 N 
ATOM     72  N   UNL     1      -9.151  11.604   3.865  1.00  0.00    -0.248 NA
ATOM     73  C   UNL     1      -7.798  12.565   2.263  1.00  0.00     0.031 C 
ATOM     74  C   UNL     1     -12.645  11.258   4.895  1.00  0.00     0.029 A 
ATOM     75  C   UNL     1     -11.986  10.964   3.723  1.00  0.00     0.049 A 
ATOM     76  H   UNL     1     -11.941   9.123   2.651  1.00  0.00     0.167 HD
ATOM     77  C   UNL     1      -9.984  12.077   2.857  1.00  0.00     0.074 A 
ATOM     78  C   UNL     1      -9.085  12.728   1.921  1.00  0.00     0.031 C 
ATOM     79  C   UNL     1     -11.341  11.873   2.779  1.00  0.00     0.037 A 
BRANCH  66  80
ATOM     80  C   UNL     1     -14.051   7.050   5.883  1.00  0.00     0.064 A 
ATOM     81  C   UNL     1     -15.127   7.929   6.185  1.00  0.00     0.173 A 
ATOM     82  C   UNL     1     -13.925   5.992   6.814  1.00  0.00     0.173 A 
ATOM     83  F   UNL     1     -15.468   8.921   5.347  1.00  0.00    -0.203 F 
ATOM     84  C   UNL     1     -15.867   7.860   7.377  1.00  0.00     0.198 A 
ATOM     85  C   UNL     1     -14.761   5.846   7.931  1.00  0.00     0.198 A 
ATOM     86  F   UNL     1     -12.962   5.071   6.738  1.00  0.00    -0.203 F 
ATOM     87  F   UNL     1     -16.731   8.838   7.688  1.00  0.00    -0.200 F 
ATOM     88  C   UNL     1     -15.692   6.808   8.246  1.00  0.00     0.200 A 
ATOM     89  F   UNL     1     -14.618   4.774   8.725  1.00  0.00    -0.200 F 
ATOM     90  F   UNL     1     -16.414   6.716   9.371  1.00  0.00    -0.200 F 
ENDBRANCH  66  80
BRANCH  67  91
ATOM     91  C   UNL     1      -5.440  10.769   3.287  1.00  0.00     0.064 A 
ATOM     92  C   UNL     1      -4.184  10.942   3.901  1.00  0.00     0.173 A 
ATOM     93  C   UNL     1      -5.419  10.157   2.019  1.00  0.00     0.173 A 
ATOM     94  F   UNL     1      -4.112  11.568   5.085  1.00  0.00    -0.203 F 
ATOM     95  C   UNL     1      -3.003  10.429   3.353  1.00  0.00     0.198 A 
ATOM     96  C   UNL     1      -4.231   9.639   1.466  1.00  0.00     0.198 A 
ATOM     97  F   UNL     1      -6.555  10.015   1.325  1.00  0.00    -0.203 F 
ATOM     98  F   UNL     1      -1.850  10.545   4.027  1.00  0.00    -0.200 F 
ATOM     99  C   UNL     1      -3.032   9.741   2.154  1.00  0.00     0.200 A 
ATOM    100  F   UNL     1      -4.253   9.012   0.281  1.00  0.00    -0.200 F 
ATOM    101  F   UNL     1      -1.915   9.169   1.681  1.00  0.00    -0.200 F 
ENDBRANCH  67  91
BRANCH  79 102
ATOM    102  C   UNL     1     -12.280  12.688   1.904  1.00  0.00     0.064 A 
ATOM    103  C   UNL     1     -12.059  14.030   1.546  1.00  0.00     0.173 A 
ATOM    104  C   UNL     1     -13.572  12.188   1.611  1.00  0.00     0.173 A 
ATOM    105  F   UNL     1     -10.932  14.669   1.892  1.00  0.00    -0.203 F 
ATOM    106  C   UNL     1     -13.028  14.786   0.877  1.00  0.00     0.198 A 
ATOM    107  C   UNL     1     -14.560  12.968   1.015  1.00  0.00     0.198 A 
ATOM    108  F   UNL     1     -13.921  10.932   1.924  1.00  0.00    -0.203 F 
ATOM    109  F   UNL     1     -12.750  16.045   0.510  1.00  0.00    -0.200 F 
ATOM    110  C   UNL     1     -14.281  14.260   0.625  1.00  0.00     0.200 A 
ATOM    111  F   UNL     1     -15.789  12.462   0.839  1.00  0.00    -0.200 F 
ATOM    112  F   UNL     1     -15.222  15.001   0.025  1.00  0.00    -0.200 F 
ENDBRANCH  79 102
ENDBRANCH  53  54
ENDBRANCH  46  48
ENDBRANCH  45  46
ENDBRANCH  44  45
ENDBRANCH  43  44
ENDBRANCH  42  43
ENDBRANCH  41  42
ENDBRANCH  40  41
ENDBRANCH   1  40
TORSDOF 24
