REMARK SMILES O=C(/C=C\c1ccc([N+](=O)[O-])cc1)OCCOCCOCCOC(=O)c1ccc(-c2c3nc(c(-c4c(F)c(F)c(F)c(F)c4F)c4ccc([nH]4)c(-c4c(F)c(F)c(F)c(F)c4F)c4nc(c(-c5c(F)c(F)c(F)c(F)c5F)c5ccc2[nH]5)C=C4)C=C3)cc1
REMARK SMILES IDX 18 1 17 2 16 3 15 4 14 5 2 6 1 7 3 8 4 9 5 10 6 11 13 12
REMARK SMILES IDX 7 13 12 14 8 15 9 16 10 17 11 18 19 19 20 20 21 21 22 22
REMARK SMILES IDX 23 23 24 24 25 25 26 26 27 27 88 28 28 29 87 30 29 31 30 32
REMARK SMILES IDX 31 33 81 34 32 35 86 36 80 37 82 38 33 39 85 40 79 41 78 42
REMARK SMILES IDX 34 44 66 45 46 46 65 47 47 48 50 49 64 50 83 51 48 52 49 53
REMARK SMILES IDX 63 55 84 56 51 57 35 58 36 59 44 60 37 61 38 62 42 63 45 64
REMARK SMILES IDX 39 65 40 66 43 67 41 68 67 69 68 70 76 71 69 72 70 73 74 74
REMARK SMILES IDX 77 75 71 76 72 77 75 78 73 79 52 80 53 81 61 82 54 83 55 84
REMARK SMILES IDX 59 85 62 86 56 87 57 88 60 89 58 90
REMARK H PARENT 82 43 50 54
REMARK Flexibility Score: inf
ROOT
ATOM      1  C   UNL     1       1.262  -1.891  -0.455  1.00  0.00     0.188 C 
ENDROOT
BRANCH   1   2
ATOM      2  O   UNL     1       2.442  -1.479  -1.145  1.00  0.00    -0.376 OA
BRANCH   2   3
ATOM      3  C   UNL     1       3.492  -0.954  -0.327  1.00  0.00     0.202 C 
BRANCH   3   4
ATOM      4  C   UNL     1       3.058   0.029   0.777  1.00  0.00     0.261 C 
BRANCH   4   5
ATOM      5  O   UNL     1       2.481   1.237   0.278  1.00  0.00    -0.460 OA
BRANCH   5   6
ATOM      6  C   UNL     1       3.098   2.126  -0.516  1.00  0.00     0.330 C 
ATOM      7  O   UNL     1       2.445   3.049  -1.004  1.00  0.00    -0.247 OA
BRANCH   6   8
ATOM      8  C   UNL     1       4.494   1.966  -0.982  1.00  0.00     0.094 C 
ATOM      9  C   UNL     1       5.745   1.681  -0.572  1.00  0.00     0.015 C 
BRANCH   9  10
ATOM     10  C   UNL     1       6.473   1.356   0.671  1.00  0.00    -0.025 A 
ATOM     11  C   UNL     1       7.579   2.165   0.983  1.00  0.00     0.015 A 
ATOM     12  C   UNL     1       6.301   0.195   1.433  1.00  0.00     0.015 A 
ATOM     13  C   UNL     1       8.437   1.861   2.050  1.00  0.00     0.086 A 
ATOM     14  C   UNL     1       7.101  -0.089   2.548  1.00  0.00     0.086 A 
ATOM     15  C   UNL     1       8.175   0.746   2.849  1.00  0.00     0.269 A 
BRANCH  15  16
ATOM     16  N   UNL     1       9.055   0.420   3.978  1.00  0.00     0.062 N 
ATOM     17  O   UNL     1      10.086   1.092   4.116  1.00  0.00    -0.258 OA
ATOM     18  O   UNL     1       8.715  -0.512   4.721  1.00  0.00    -0.258 OA
ENDBRANCH  15  16
ENDBRANCH   9  10
ENDBRANCH   6   8
ENDBRANCH   5   6
ENDBRANCH   4   5
ENDBRANCH   3   4
ENDBRANCH   2   3
ENDBRANCH   1   2
BRANCH   1  19
ATOM     19  C   UNL     1       1.436  -3.066   0.525  1.00  0.00     0.188 C 
BRANCH  19  20
ATOM     20  O   UNL     1       2.598  -2.896   1.331  1.00  0.00    -0.376 OA
BRANCH  20  21
ATOM     21  C   UNL     1       3.374  -4.063   1.573  1.00  0.00     0.202 C 
BRANCH  21  22
ATOM     22  C   UNL     1       4.147  -4.708   0.397  1.00  0.00     0.261 C 
BRANCH  22  23
ATOM     23  O   UNL     1       3.738  -4.331  -0.924  1.00  0.00    -0.460 OA
BRANCH  23  24
ATOM     24  C   UNL     1       2.942  -5.212  -1.572  1.00  0.00     0.338 C 
ATOM     25  O   UNL     1       2.488  -6.255  -1.139  1.00  0.00    -0.246 OA
BRANCH  24  26
ATOM     26  C   UNL     1       2.568  -4.648  -2.880  1.00  0.00     0.060 A 
ATOM     27  C   UNL     1       1.250  -4.218  -3.065  1.00  0.00     0.016 A 
ATOM     28  C   UNL     1       3.481  -4.626  -3.937  1.00  0.00     0.016 A 
ATOM     29  C   UNL     1       0.840  -3.741  -4.306  1.00  0.00     0.010 A 
ATOM     30  C   UNL     1       3.057  -4.190  -5.196  1.00  0.00     0.010 A 
ATOM     31  C   UNL     1       1.730  -3.766  -5.387  1.00  0.00    -0.014 A 
BRANCH  31  32
ATOM     32  C   UNL     1       1.200  -3.558  -6.753  1.00  0.00     0.031 A 
ATOM     33  C   UNL     1       0.654  -4.751  -7.485  1.00  0.00     0.074 A 
ATOM     34  C   UNL     1       1.171  -2.337  -7.311  1.00  0.00     0.049 A 
ATOM     35  N   UNL     1       0.148  -4.831  -8.688  1.00  0.00    -0.248 NA
ATOM     36  C   UNL     1       0.675  -6.029  -6.753  1.00  0.00     0.031 C 
ATOM     37  C   UNL     1       1.613  -1.103  -6.666  1.00  0.00     0.029 A 
ATOM     38  N   UNL     1       0.749  -1.939  -8.554  1.00  0.00    -0.354 N 
ATOM     39  C   UNL     1      -0.220  -6.160  -8.850  1.00  0.00     0.074 A 
ATOM     40  C   UNL     1       0.145  -6.858  -7.638  1.00  0.00     0.031 C 
ATOM     41  C   UNL     1       1.454  -0.083  -7.528  1.00  0.00     0.029 A 
ATOM     42  C   UNL     1       0.927  -0.599  -8.790  1.00  0.00     0.049 A 
ATOM     43  H   UNL     1       0.356  -2.556  -9.213  1.00  0.00     0.167 HD
ATOM     44  C   UNL     1      -0.814  -6.744  -9.917  1.00  0.00     0.037 A 
ATOM     45  C   UNL     1       0.705   0.116  -9.911  1.00  0.00     0.037 A 
ATOM     46  C   UNL     1      -1.141  -6.050 -11.133  1.00  0.00     0.049 A 
ATOM     47  C   UNL     1       0.146  -0.581 -11.126  1.00  0.00     0.074 A 
ATOM     48  C   UNL     1      -1.724  -6.549 -12.283  1.00  0.00     0.029 A 
ATOM     49  N   UNL     1      -0.895  -4.703 -11.358  1.00  0.00    -0.354 N 
ATOM     50  N   UNL     1      -0.214  -1.835 -11.272  1.00  0.00    -0.248 NA
ATOM     51  C   UNL     1      -0.039   0.237 -12.333  1.00  0.00     0.031 C 
ATOM     52  C   UNL     1      -1.781  -5.516 -13.224  1.00  0.00     0.029 A 
ATOM     53  C   UNL     1      -1.290  -4.359 -12.640  1.00  0.00     0.049 A 
ATOM     54  H   UNL     1      -0.498  -4.083 -10.704  1.00  0.00     0.167 HD
ATOM     55  C   UNL     1      -0.698  -1.947 -12.569  1.00  0.00     0.074 A 
ATOM     56  C   UNL     1      -0.595  -0.632 -13.166  1.00  0.00     0.031 C 
ATOM     57  C   UNL     1      -1.187  -3.038 -13.209  1.00  0.00     0.037 A 
BRANCH  44  58
ATOM     58  C   UNL     1      -1.106  -8.212  -9.823  1.00  0.00     0.064 A 
ATOM     59  C   UNL     1      -2.115  -8.710  -8.983  1.00  0.00     0.173 A 
ATOM     60  C   UNL     1      -0.376  -9.133 -10.588  1.00  0.00     0.173 A 
ATOM     61  F   UNL     1      -2.827  -7.872  -8.214  1.00  0.00    -0.203 F 
ATOM     62  C   UNL     1      -2.363 -10.077  -8.895  1.00  0.00     0.198 A 
ATOM     63  C   UNL     1      -0.646 -10.496 -10.519  1.00  0.00     0.198 A 
ATOM     64  F   UNL     1       0.602  -8.709 -11.404  1.00  0.00    -0.203 F 
ATOM     65  F   UNL     1      -3.296 -10.534  -8.049  1.00  0.00    -0.200 F 
ATOM     66  C   UNL     1      -1.634 -10.968  -9.668  1.00  0.00     0.200 A 
ATOM     67  F   UNL     1       0.054 -11.355 -11.273  1.00  0.00    -0.200 F 
ATOM     68  F   UNL     1      -1.876 -12.284  -9.585  1.00  0.00    -0.200 F 
ENDBRANCH  44  58
BRANCH  45  69
ATOM     69  C   UNL     1       1.023   1.569  -9.947  1.00  0.00     0.064 A 
ATOM     70  C   UNL     1       0.011   2.530 -10.071  1.00  0.00     0.173 A 
ATOM     71  C   UNL     1       2.349   2.024  -9.888  1.00  0.00     0.173 A 
ATOM     72  F   UNL     1      -1.271   2.144 -10.162  1.00  0.00    -0.203 F 
ATOM     73  C   UNL     1       0.312   3.888 -10.156  1.00  0.00     0.198 A 
ATOM     74  C   UNL     1       2.648   3.384  -9.943  1.00  0.00     0.198 A 
ATOM     75  F   UNL     1       3.357   1.147  -9.776  1.00  0.00    -0.203 F 
ATOM     76  F   UNL     1      -0.672   4.781 -10.328  1.00  0.00    -0.200 F 
ATOM     77  C   UNL     1       1.630   4.315 -10.085  1.00  0.00     0.200 A 
ATOM     78  F   UNL     1       3.922   3.792  -9.867  1.00  0.00    -0.200 F 
ATOM     79  F   UNL     1       1.920   5.620 -10.169  1.00  0.00    -0.200 F 
ENDBRANCH  45  69
BRANCH  57  80
ATOM     80  C   UNL     1      -1.689  -2.851 -14.612  1.00  0.00     0.064 A 
ATOM     81  C   UNL     1      -0.815  -2.630 -15.686  1.00  0.00     0.173 A 
ATOM     82  C   UNL     1      -3.061  -2.947 -14.891  1.00  0.00     0.173 A 
ATOM     83  F   UNL     1       0.505  -2.518 -15.471  1.00  0.00    -0.203 F 
ATOM     84  C   UNL     1      -1.298  -2.488 -16.984  1.00  0.00     0.198 A 
ATOM     85  C   UNL     1      -3.538  -2.838 -16.194  1.00  0.00     0.198 A 
ATOM     86  F   UNL     1      -3.939  -3.168 -13.900  1.00  0.00    -0.203 F 
ATOM     87  F   UNL     1      -0.449  -2.232 -17.989  1.00  0.00    -0.200 F 
ATOM     88  C   UNL     1      -2.658  -2.601 -17.238  1.00  0.00     0.200 A 
ATOM     89  F   UNL     1      -4.849  -2.965 -16.439  1.00  0.00    -0.200 F 
ATOM     90  F   UNL     1      -3.119  -2.475 -18.490  1.00  0.00    -0.200 F 
ENDBRANCH  57  80
ENDBRANCH  31  32
ENDBRANCH  24  26
ENDBRANCH  23  24
ENDBRANCH  22  23
ENDBRANCH  21  22
ENDBRANCH  20  21
ENDBRANCH  19  20
ENDBRANCH   1  19
TORSDOF 19
