REMARK SMILES Cc1cccc(N2C(=O)/C(=C/c3ccc(C(=O)OCCOCCOCCOC(=O)c4ccc(-c5c6nc(c(-c7c(F)c(F)c(F)c(F)c7F)c7ccc([nH]7)c(-c7c(F)c(F)c(F)c(F)c7F)c7nc(c(-c8c(F)c(F)c(F)c(F)c8F)c8ccc5[nH]8)C=C7)C=C6)cc4)cc3)c3ccccc3C2=O)c1
REMARK SMILES IDX 22 1 21 2 20 3 19 4 18 5 16 6 17 7 15 8 12 9 13 10 94 11
REMARK SMILES IDX 14 12 93 13 11 14 7 15 8 16 101 17 9 18 10 19 100 20 102 21
REMARK SMILES IDX 95 22 99 23 96 24 98 25 97 26 6 27 1 28 2 29 3 30 103 31
REMARK SMILES IDX 4 32 5 33 23 34 24 35 25 36 26 37 27 38 28 39 29 40 30 41
REMARK SMILES IDX 31 42 92 43 32 44 91 45 33 46 34 47 35 48 85 49 36 50 90 51
REMARK SMILES IDX 84 52 86 53 37 54 89 55 83 56 82 57 38 59 70 60 50 61 69 62
REMARK SMILES IDX 51 63 54 64 68 65 87 66 52 67 53 68 67 70 88 71 55 72 39 73
REMARK SMILES IDX 40 74 48 75 41 76 42 77 46 78 49 79 43 80 44 81 47 82 45 83
REMARK SMILES IDX 71 84 72 85 80 86 73 87 74 88 78 89 81 90 75 91 76 92 79 93
REMARK SMILES IDX 77 94 56 95 57 96 65 97 58 98 59 99 63 100 66 101 60 102
REMARK SMILES IDX 61 103 64 104 62 105
REMARK H PARENT 86 58 54 69
REMARK Flexibility Score: inf
ROOT
ATOM      1  C   UNL     1      -4.203  15.094   0.738  1.00  0.00     0.188 C 
ENDROOT
BRANCH   1   2
ATOM      2  O   UNL     1      -5.163  14.033   0.615  1.00  0.00    -0.376 OA
BRANCH   2   3
ATOM      3  C   UNL     1      -5.902  13.441   1.669  1.00  0.00     0.202 C 
BRANCH   3   4
ATOM      4  C   UNL     1      -6.092  11.788   1.969  1.00  0.00     0.261 C 
BRANCH   4   5
ATOM      5  O   UNL     1      -5.324  10.334   1.479  1.00  0.00    -0.460 OA
BRANCH   5   6
ATOM      6  C   UNL     1      -4.951   9.608   0.338  1.00  0.00     0.338 C 
ATOM      7  O   UNL     1      -5.217   9.781  -0.846  1.00  0.00    -0.246 OA
BRANCH   6   8
ATOM      8  C   UNL     1      -4.037   8.478   0.258  1.00  0.00     0.060 A 
ATOM      9  C   UNL     1      -2.455   6.435  -0.783  1.00  0.00    -0.025 A 
ATOM     10  C   UNL     1      -1.913   7.706  -0.676  1.00  0.00     0.009 A 
ATOM     11  C   UNL     1      -3.837   6.236  -0.651  1.00  0.00     0.009 A 
ATOM     12  C   UNL     1      -2.716   8.725  -0.179  1.00  0.00     0.016 A 
ATOM     13  C   UNL     1      -4.622   7.255  -0.114  1.00  0.00     0.016 A 
BRANCH   9  14
ATOM     14  C   UNL     1      -1.532   5.317  -0.631  1.00  0.00     0.022 C 
ATOM     15  N   UNL     1      -1.471   2.268   0.752  1.00  0.00    -0.242 N 
ATOM     16  C   UNL     1      -0.690   3.425   0.551  1.00  0.00     0.265 C 
ATOM     17  C   UNL     1      -2.832   2.376   1.168  1.00  0.00     0.265 C 
ATOM     18  O   UNL     1       0.513   3.557   0.349  1.00  0.00    -0.268 OA
ATOM     19  C   UNL     1      -1.504   4.649   0.544  1.00  0.00     0.049 C 
ATOM     20  C   UNL     1      -3.255   3.653   1.818  1.00  0.00     0.048 A 
ATOM     21  O   UNL     1      -3.720   1.533   1.062  1.00  0.00    -0.268 OA
ATOM     22  C   UNL     1      -2.477   4.786   1.624  1.00  0.00    -0.000 A 
ATOM     23  C   UNL     1      -4.437   3.749   2.562  1.00  0.00     0.014 A 
ATOM     24  C   UNL     1      -2.779   5.976   2.297  1.00  0.00     0.010 A 
ATOM     25  C   UNL     1      -4.799   4.966   3.149  1.00  0.00     0.001 A 
ATOM     26  C   UNL     1      -3.957   6.072   3.040  1.00  0.00     0.001 A 
BRANCH  15  27
ATOM     27  C   UNL     1      -0.883   0.966   0.460  1.00  0.00     0.053 A 
ATOM     28  C   UNL     1       2.601  -0.537  -0.107  1.00  0.00     0.044 C 
ATOM     29  C   UNL     1       1.109  -0.436   0.015  1.00  0.00    -0.049 A 
ATOM     30  C   UNL     1       0.304  -1.558  -0.134  1.00  0.00     0.003 A 
ATOM     31  C   UNL     1       0.510   0.796   0.325  1.00  0.00     0.030 A 
ATOM     32  C   UNL     1      -1.073  -1.437   0.005  1.00  0.00     0.002 A 
ATOM     33  C   UNL     1      -1.653  -0.195   0.293  1.00  0.00     0.027 A 
ENDBRANCH  15  27
ENDBRANCH   9  14
ENDBRANCH   6   8
ENDBRANCH   5   6
ENDBRANCH   4   5
ENDBRANCH   3   4
ENDBRANCH   2   3
ENDBRANCH   1   2
BRANCH   1  34
ATOM     34  C   UNL     1      -3.514  15.362   2.070  1.00  0.00     0.188 C 
BRANCH  34  35
ATOM     35  O   UNL     1      -3.421  14.150   2.792  1.00  0.00    -0.376 OA
BRANCH  35  36
ATOM     36  C   UNL     1      -2.850  14.259   4.083  1.00  0.00     0.202 C 
BRANCH  36  37
ATOM     37  C   UNL     1      -1.316  14.213   4.029  1.00  0.00     0.261 C 
BRANCH  37  38
ATOM     38  O   UNL     1      -0.879  13.080   3.237  1.00  0.00    -0.460 OA
BRANCH  38  39
ATOM     39  C   UNL     1      -0.427  13.334   1.966  1.00  0.00     0.338 C 
ATOM     40  O   UNL     1       0.364  14.223   1.675  1.00  0.00    -0.246 OA
BRANCH  39  41
ATOM     41  C   UNL     1      -1.240  12.563   0.958  1.00  0.00     0.060 A 
ATOM     42  C   UNL     1      -1.364  12.875  -0.404  1.00  0.00     0.016 A 
ATOM     43  C   UNL     1      -2.226  11.785   1.459  1.00  0.00     0.016 A 
ATOM     44  C   UNL     1      -2.584  12.579  -1.165  1.00  0.00     0.010 A 
ATOM     45  C   UNL     1      -3.442  11.832   0.760  1.00  0.00     0.010 A 
ATOM     46  C   UNL     1      -3.780  12.132  -0.580  1.00  0.00    -0.014 A 
BRANCH  46  47
ATOM     47  C   UNL     1      -5.328  12.277  -1.264  1.00  0.00     0.031 A 
ATOM     48  C   UNL     1      -6.737  11.342  -1.286  1.00  0.00     0.074 A 
ATOM     49  C   UNL     1      -5.522  13.318  -2.109  1.00  0.00     0.049 A 
ATOM     50  N   UNL     1      -7.336  10.943  -2.404  1.00  0.00    -0.248 NA
ATOM     51  C   UNL     1      -7.484  10.693  -0.165  1.00  0.00     0.031 C 
ATOM     52  C   UNL     1      -6.776  13.717  -2.748  1.00  0.00     0.029 A 
ATOM     53  N   UNL     1      -4.572  14.180  -2.667  1.00  0.00    -0.354 N 
ATOM     54  C   UNL     1      -8.405  10.088  -2.087  1.00  0.00     0.074 A 
ATOM     55  C   UNL     1      -8.350   9.854  -0.705  1.00  0.00     0.031 C 
ATOM     56  C   UNL     1      -6.491  14.476  -3.814  1.00  0.00     0.029 A 
ATOM     57  C   UNL     1      -5.048  14.531  -3.937  1.00  0.00     0.049 A 
ATOM     58  H   UNL     1      -3.732  14.481  -2.249  1.00  0.00     0.167 HD
ATOM     59  C   UNL     1      -9.426   9.701  -2.897  1.00  0.00     0.037 A 
ATOM     60  C   UNL     1      -4.324  14.322  -5.068  1.00  0.00     0.037 A 
ATOM     61  C   UNL     1      -9.405  10.490  -4.082  1.00  0.00     0.049 A 
ATOM     62  C   UNL     1      -5.058  13.537  -6.121  1.00  0.00     0.074 A 
ATOM     63  C   UNL     1      -9.932  11.745  -4.322  1.00  0.00     0.029 A 
ATOM     64  N   UNL     1      -8.439  10.249  -5.030  1.00  0.00    -0.354 N 
ATOM     65  N   UNL     1      -6.116  12.814  -5.885  1.00  0.00    -0.248 NA
ATOM     66  C   UNL     1      -4.640  13.474  -7.518  1.00  0.00     0.031 C 
ATOM     67  C   UNL     1      -9.253  12.283  -5.431  1.00  0.00     0.029 A 
ATOM     68  C   UNL     1      -8.367  11.323  -5.887  1.00  0.00     0.049 A 
ATOM     69  H   UNL     1      -7.886   9.437  -5.087  1.00  0.00     0.167 HD
ATOM     70  C   UNL     1      -6.480  12.155  -7.032  1.00  0.00     0.074 A 
ATOM     71  C   UNL     1      -5.547  12.625  -8.032  1.00  0.00     0.031 C 
ATOM     72  C   UNL     1      -7.507  11.258  -7.042  1.00  0.00     0.037 A 
BRANCH  59  73
ATOM     73  C   UNL     1     -10.626   8.943  -2.349  1.00  0.00     0.064 A 
ATOM     74  C   UNL     1     -11.936   9.415  -2.546  1.00  0.00     0.173 A 
ATOM     75  C   UNL     1     -10.512   7.814  -1.506  1.00  0.00     0.173 A 
ATOM     76  F   UNL     1     -12.192  10.414  -3.398  1.00  0.00    -0.203 F 
ATOM     77  C   UNL     1     -13.026   8.903  -1.833  1.00  0.00     0.198 A 
ATOM     78  C   UNL     1     -11.594   7.335  -0.755  1.00  0.00     0.198 A 
ATOM     79  F   UNL     1      -9.326   7.206  -1.334  1.00  0.00    -0.203 F 
ATOM     80  F   UNL     1     -14.246   9.426  -2.019  1.00  0.00    -0.200 F 
ATOM     81  C   UNL     1     -12.848   7.897  -0.903  1.00  0.00     0.200 A 
ATOM     82  F   UNL     1     -11.405   6.366   0.154  1.00  0.00    -0.200 F 
ATOM     83  F   UNL     1     -13.874   7.481  -0.148  1.00  0.00    -0.200 F 
ENDBRANCH  59  73
BRANCH  60  84
ATOM     84  C   UNL     1      -2.850  14.336  -4.861  1.00  0.00     0.064 A 
ATOM     85  C   UNL     1      -2.265  15.515  -4.354  1.00  0.00     0.173 A 
ATOM     86  C   UNL     1      -2.080  13.167  -4.820  1.00  0.00     0.173 A 
ATOM     87  F   UNL     1      -2.961  16.664  -4.361  1.00  0.00    -0.203 F 
ATOM     88  C   UNL     1      -1.018  15.504  -3.734  1.00  0.00     0.198 A 
ATOM     89  C   UNL     1      -0.819  13.162  -4.210  1.00  0.00     0.198 A 
ATOM     90  F   UNL     1      -2.589  12.004  -5.248  1.00  0.00    -0.203 F 
ATOM     91  F   UNL     1      -0.551  16.618  -3.152  1.00  0.00    -0.200 F 
ATOM     92  C   UNL     1      -0.305  14.322  -3.644  1.00  0.00     0.200 A 
ATOM     93  F   UNL     1      -0.151  12.009  -4.063  1.00  0.00    -0.200 F 
ATOM     94  F   UNL     1       0.842  14.284  -2.950  1.00  0.00    -0.200 F 
ENDBRANCH  60  84
BRANCH  72  95
ATOM     95  C   UNL     1      -7.865  10.256  -8.114  1.00  0.00     0.064 A 
ATOM     96  C   UNL     1      -6.944   9.729  -9.027  1.00  0.00     0.173 A 
ATOM     97  C   UNL     1      -9.149   9.644  -8.118  1.00  0.00     0.173 A 
ATOM     98  F   UNL     1      -5.674  10.149  -9.060  1.00  0.00    -0.203 F 
ATOM     99  C   UNL     1      -7.288   8.695  -9.903  1.00  0.00     0.198 A 
ATOM    100  C   UNL     1      -9.464   8.569  -8.943  1.00  0.00     0.198 A 
ATOM    101  F   UNL     1     -10.129  10.047  -7.295  1.00  0.00    -0.203 F 
ATOM    102  F   UNL     1      -6.383   8.250 -10.785  1.00  0.00    -0.200 F 
ATOM    103  C   UNL     1      -8.537   8.103  -9.848  1.00  0.00     0.200 A 
ATOM    104  F   UNL     1     -10.662   7.974  -8.836  1.00  0.00    -0.200 F 
ATOM    105  F   UNL     1      -8.839   7.075 -10.652  1.00  0.00    -0.200 F 
ENDBRANCH  72  95
ENDBRANCH  46  47
ENDBRANCH  39  41
ENDBRANCH  38  39
ENDBRANCH  37  38
ENDBRANCH  36  37
ENDBRANCH  35  36
ENDBRANCH  34  35
ENDBRANCH   1  34
TORSDOF 19
