REMARK SMILES C[C@@H]1C[NH+](CC2(C(=O)OCCOCCOCCOC(=O)c3ccc(-c4c5nc(c(-c6c(F)c(F)c(F)c(F)c6F)c6ccc([nH]6)c(-c6c(F)c(F)c(F)c(F)c6F)c6nc(c(-c7c(F)c(F)c(F)c(F)c7F)c7ccc4[nH]7)C=C6)C=C5)cc3)CCCC2)C[C@H]1C
REMARK SMILES IDX 13 1 12 2 11 3 10 4 9 5 7 6 8 7 6 8 84 9 87 10 85 11 86 12
REMARK SMILES IDX 5 13 4 14 1 15 2 16 3 17 89 18 88 19 90 20 14 22 15 23 16 24
REMARK SMILES IDX 17 25 18 26 19 27 20 28 21 29 22 30 83 31 23 32 82 33 24 34
REMARK SMILES IDX 25 35 26 36 76 37 27 38 81 39 75 40 77 41 28 42 80 43 74 44
REMARK SMILES IDX 73 45 29 47 61 48 41 49 60 50 42 51 45 52 59 53 78 54 43 55
REMARK SMILES IDX 44 56 58 58 79 59 46 60 30 61 31 62 39 63 32 64 33 65 37 66
REMARK SMILES IDX 40 67 34 68 35 69 38 70 36 71 62 72 63 73 71 74 64 75 65 76
REMARK SMILES IDX 69 77 72 78 66 79 67 80 70 81 68 82 47 83 48 84 56 85 49 86
REMARK SMILES IDX 50 87 54 88 57 89 51 90 52 91 55 92 53 93
REMARK H PARENT 4 21 77 46 45 57
REMARK Flexibility Score: inf
ROOT
ATOM      1  C   UNL     1      -3.629  -6.176   2.920  1.00  0.00     0.188 C 
ENDROOT
BRANCH   1   2
ATOM      2  O   UNL     1      -4.812  -6.158   3.705  1.00  0.00    -0.376 OA
BRANCH   2   3
ATOM      3  C   UNL     1      -5.825  -5.194   3.432  1.00  0.00     0.202 C 
BRANCH   3   4
ATOM      4  C   UNL     1      -5.449  -3.708   3.315  1.00  0.00     0.261 C 
BRANCH   4   5
ATOM      5  O   UNL     1      -4.483  -3.394   2.292  1.00  0.00    -0.463 OA
BRANCH   5   6
ATOM      6  C   UNL     1      -3.299  -2.891   2.720  1.00  0.00     0.317 C 
ATOM      7  O   UNL     1      -3.044  -2.694   3.906  1.00  0.00    -0.251 OA
BRANCH   6   8
ATOM      8  C   UNL     1      -2.284  -2.552   1.595  1.00  0.00     0.117 C 
ATOM      9  C   UNL     1      -2.324  -1.005   1.557  1.00  0.00     0.025 C 
ATOM     10  C   UNL     1      -2.704  -2.969   0.156  1.00  0.00     0.025 C 
ATOM     11  C   UNL     1      -3.252  -0.663   0.394  1.00  0.00     0.001 C 
ATOM     12  C   UNL     1      -2.910  -1.699  -0.653  1.00  0.00     0.001 C 
BRANCH   8  13
ATOM     13  C   UNL     1      -0.958  -3.265   2.085  1.00  0.00     0.281 C 
BRANCH  13  14
ATOM     14  N   UNL     1       0.402  -3.079   1.573  1.00  0.00    -0.334 N 
ATOM     15  C   UNL     1       1.607   0.006  -0.090  1.00  0.00     0.014 C 
ATOM     16  C   UNL     1       0.883  -1.298   0.171  1.00  0.00     0.049 C 
ATOM     17  C   UNL     1       0.937  -1.727   1.628  1.00  0.00     0.265 C 
ATOM     18  C   UNL     1       1.417  -2.544  -0.528  1.00  0.00     0.049 C 
ATOM     19  C   UNL     1       0.792  -3.683   0.298  1.00  0.00     0.265 C 
ATOM     20  C   UNL     1       1.067  -2.621  -2.005  1.00  0.00     0.014 C 
ATOM     21  H   UNL     1       0.839  -3.657   2.290  1.00  0.00     0.348 HD
ENDBRANCH  13  14
ENDBRANCH   8  13
ENDBRANCH   6   8
ENDBRANCH   5   6
ENDBRANCH   4   5
ENDBRANCH   3   4
ENDBRANCH   2   3
ENDBRANCH   1   2
BRANCH   1  22
ATOM     22  C   UNL     1      -3.736  -6.036   1.395  1.00  0.00     0.188 C 
BRANCH  22  23
ATOM     23  O   UNL     1      -5.043  -5.835   0.913  1.00  0.00    -0.376 OA
BRANCH  23  24
ATOM     24  C   UNL     1      -5.618  -6.845   0.102  1.00  0.00     0.202 C 
BRANCH  24  25
ATOM     25  C   UNL     1      -5.593  -8.312   0.574  1.00  0.00     0.261 C 
BRANCH  25  26
ATOM     26  O   UNL     1      -4.369  -8.792   1.159  1.00  0.00    -0.460 OA
BRANCH  26  27
ATOM     27  C   UNL     1      -3.337  -9.055   0.326  1.00  0.00     0.338 C 
ATOM     28  O   UNL     1      -3.332  -8.954  -0.892  1.00  0.00    -0.246 OA
BRANCH  27  29
ATOM     29  C   UNL     1      -2.124  -9.242   1.158  1.00  0.00     0.060 A 
ATOM     30  C   UNL     1      -1.044  -8.359   0.999  1.00  0.00     0.016 A 
ATOM     31  C   UNL     1      -2.062 -10.259   2.111  1.00  0.00     0.016 A 
ATOM     32  C   UNL     1       0.107  -8.505   1.777  1.00  0.00     0.010 A 
ATOM     33  C   UNL     1      -0.897 -10.423   2.869  1.00  0.00     0.010 A 
ATOM     34  C   UNL     1       0.204  -9.566   2.687  1.00  0.00    -0.014 A 
BRANCH  34  35
ATOM     35  C   UNL     1       1.513  -9.902   3.305  1.00  0.00     0.031 A 
ATOM     36  C   UNL     1       2.324 -11.013   2.694  1.00  0.00     0.074 A 
ATOM     37  C   UNL     1       1.985  -9.239   4.376  1.00  0.00     0.049 A 
ATOM     38  N   UNL     1       3.445 -11.552   3.102  1.00  0.00    -0.248 NA
ATOM     39  C   UNL     1       1.793 -11.597   1.452  1.00  0.00     0.031 C 
ATOM     40  C   UNL     1       1.325  -8.115   5.035  1.00  0.00     0.029 A 
ATOM     41  N   UNL     1       3.132  -9.434   5.108  1.00  0.00    -0.354 N 
ATOM     42  C   UNL     1       3.751 -12.534   2.170  1.00  0.00     0.074 A 
ATOM     43  C   UNL     1       2.680 -12.546   1.197  1.00  0.00     0.031 C 
ATOM     44  C   UNL     1       2.065  -7.736   6.092  1.00  0.00     0.029 A 
ATOM     45  C   UNL     1       3.230  -8.613   6.205  1.00  0.00     0.049 A 
ATOM     46  H   UNL     1       3.818 -10.099   4.869  1.00  0.00     0.167 HD
ATOM     47  C   UNL     1       4.835 -13.345   2.119  1.00  0.00     0.037 A 
ATOM     48  C   UNL     1       4.138  -8.598   7.202  1.00  0.00     0.037 A 
ATOM     49  C   UNL     1       5.895 -13.344   3.092  1.00  0.00     0.049 A 
ATOM     50  C   UNL     1       5.289  -9.576   7.175  1.00  0.00     0.074 A 
ATOM     51  C   UNL     1       7.029 -14.135   3.133  1.00  0.00     0.029 A 
ATOM     52  N   UNL     1       5.948 -12.513   4.201  1.00  0.00    -0.354 N 
ATOM     53  N   UNL     1       5.580 -10.494   6.285  1.00  0.00    -0.248 NA
ATOM     54  C   UNL     1       6.244  -9.509   8.292  1.00  0.00     0.031 C 
ATOM     55  C   UNL     1       7.741 -13.821   4.295  1.00  0.00     0.029 A 
ATOM     56  C   UNL     1       7.086 -12.787   4.943  1.00  0.00     0.049 A 
ATOM     57  H   UNL     1       5.276 -11.829   4.428  1.00  0.00     0.167 HD
ATOM     58  C   UNL     1       6.761 -11.087   6.715  1.00  0.00     0.074 A 
ATOM     59  C   UNL     1       7.145 -10.413   7.936  1.00  0.00     0.031 C 
ATOM     60  C   UNL     1       7.466 -12.100   6.151  1.00  0.00     0.037 A 
BRANCH  47  61
ATOM     61  C   UNL     1       4.921 -14.318   0.979  1.00  0.00     0.064 A 
ATOM     62  C   UNL     1       5.160 -13.890  -0.336  1.00  0.00     0.173 A 
ATOM     63  C   UNL     1       4.808 -15.697   1.209  1.00  0.00     0.173 A 
ATOM     64  F   UNL     1       5.260 -12.581  -0.612  1.00  0.00    -0.203 F 
ATOM     65  C   UNL     1       5.261 -14.805  -1.380  1.00  0.00     0.198 A 
ATOM     66  C   UNL     1       4.942 -16.611   0.168  1.00  0.00     0.198 A 
ATOM     67  F   UNL     1       4.581 -16.161   2.447  1.00  0.00    -0.203 F 
ATOM     68  F   UNL     1       5.444 -14.370  -2.635  1.00  0.00    -0.200 F 
ATOM     69  C   UNL     1       5.162 -16.164  -1.127  1.00  0.00     0.200 A 
ATOM     70  F   UNL     1       4.860 -17.925   0.417  1.00  0.00    -0.200 F 
ATOM     71  F   UNL     1       5.273 -17.045  -2.131  1.00  0.00    -0.200 F 
ENDBRANCH  47  61
BRANCH  48  72
ATOM     72  C   UNL     1       3.986  -7.649   8.341  1.00  0.00     0.064 A 
ATOM     73  C   UNL     1       4.925  -6.635   8.576  1.00  0.00     0.173 A 
ATOM     74  C   UNL     1       2.925  -7.776   9.251  1.00  0.00     0.173 A 
ATOM     75  F   UNL     1       5.976  -6.491   7.755  1.00  0.00    -0.203 F 
ATOM     76  C   UNL     1       4.828  -5.807   9.694  1.00  0.00     0.198 A 
ATOM     77  C   UNL     1       2.809  -6.924  10.348  1.00  0.00     0.198 A 
ATOM     78  F   UNL     1       2.003  -8.734   9.080  1.00  0.00    -0.203 F 
ATOM     79  F   UNL     1       5.779  -4.894   9.933  1.00  0.00    -0.200 F 
ATOM     80  C   UNL     1       3.768  -5.949  10.576  1.00  0.00     0.200 A 
ATOM     81  F   UNL     1       1.778  -7.060  11.193  1.00  0.00    -0.200 F 
ATOM     82  F   UNL     1       3.679  -5.159  11.654  1.00  0.00    -0.200 F 
ENDBRANCH  48  72
BRANCH  60  83
ATOM     83  C   UNL     1       8.750 -12.511   6.817  1.00  0.00     0.064 A 
ATOM     84  C   UNL     1       8.768 -13.166   8.057  1.00  0.00     0.173 A 
ATOM     85  C   UNL     1       9.982 -12.279   6.183  1.00  0.00     0.173 A 
ATOM     86  F   UNL     1       7.621 -13.403   8.712  1.00  0.00    -0.203 F 
ATOM     87  C   UNL     1       9.970 -13.541   8.653  1.00  0.00     0.198 A 
ATOM     88  C   UNL     1      11.179 -12.689   6.764  1.00  0.00     0.198 A 
ATOM     89  F   UNL     1      10.025 -11.667   4.990  1.00  0.00    -0.203 F 
ATOM     90  F   UNL     1       9.964 -14.114   9.865  1.00  0.00    -0.200 F 
ATOM     91  C   UNL     1      11.173 -13.310   8.004  1.00  0.00     0.200 A 
ATOM     92  F   UNL     1      12.338 -12.481   6.125  1.00  0.00    -0.200 F 
ATOM     93  F   UNL     1      12.327 -13.679   8.575  1.00  0.00    -0.200 F 
ENDBRANCH  60  83
ENDBRANCH  34  35
ENDBRANCH  27  29
ENDBRANCH  26  27
ENDBRANCH  25  26
ENDBRANCH  24  25
ENDBRANCH  23  24
ENDBRANCH  22  23
ENDBRANCH   1  22
TORSDOF 19
