REMARK SMILES COc1ccc(/C=C/C(=O)OCCOCCOCCOC(=O)c2ccc(-c3c4nc(c(-c5c(F)c(F)c(F)c(F)c5F)c5ccc([nH]5)c(-c5c(F)c(F)c(F)c(F)c5F)c5nc(c(-c6c(F)c(F)c(F)c(F)c6F)c6ccc3[nH]6)C=C5)C=C4)cc2)cc1S(=O)(=O)Nc1ccc(F)cc1F
REMARK SMILES IDX 15 1 14 2 13 3 12 4 11 5 9 6 10 7 8 8 7 9 6 10 3 11 4 12
REMARK SMILES IDX 87 13 5 14 86 15 2 16 1 17 88 18 89 19 90 20 91 21 92 23
REMARK SMILES IDX 93 24 98 25 94 26 97 27 99 28 95 29 96 30 16 31 17 32 18 33
REMARK SMILES IDX 19 34 20 35 21 36 22 37 23 38 24 39 85 40 25 41 84 42 26 43
REMARK SMILES IDX 27 44 28 45 78 46 29 47 83 48 77 49 79 50 30 51 82 52 76 53
REMARK SMILES IDX 75 54 31 56 63 57 43 58 62 59 44 60 47 61 61 62 80 63 45 64
REMARK SMILES IDX 46 65 60 67 81 68 48 69 32 70 33 71 41 72 34 73 35 74 39 75
REMARK SMILES IDX 42 76 36 77 37 78 40 79 38 80 64 81 65 82 73 83 66 84 67 85
REMARK SMILES IDX 71 86 74 87 68 88 69 89 72 90 70 91 49 92 50 93 58 94 51 95
REMARK SMILES IDX 52 96 56 97 59 98 53 99 54 100 57 101 55 102
REMARK H PARENT 91 22 79 55 47 66
REMARK Flexibility Score: inf
ROOT
ATOM      1  C   UNL     1       1.065  -2.220 -10.077  1.00  0.00     0.188 C 
ENDROOT
BRANCH   1   2
ATOM      2  O   UNL     1       1.363  -1.681 -11.361  1.00  0.00    -0.376 OA
BRANCH   2   3
ATOM      3  C   UNL     1       2.471  -0.798 -11.510  1.00  0.00     0.202 C 
BRANCH   3   4
ATOM      4  C   UNL     1       2.553   0.442 -10.611  1.00  0.00     0.261 C 
BRANCH   4   5
ATOM      5  O   UNL     1       2.436   0.173  -9.202  1.00  0.00    -0.460 OA
BRANCH   5   6
ATOM      6  C   UNL     1       1.416   0.816  -8.593  1.00  0.00     0.330 C 
ATOM      7  O   UNL     1       0.637   1.601  -9.118  1.00  0.00    -0.247 OA
BRANCH   6   8
ATOM      8  C   UNL     1       1.219   0.432  -7.183  1.00  0.00     0.094 C 
ATOM      9  C   UNL     1       1.954  -0.337  -6.359  1.00  0.00     0.015 C 
BRANCH   9  10
ATOM     10  C   UNL     1       1.514  -0.507  -4.959  1.00  0.00    -0.024 A 
ATOM     11  C   UNL     1       0.666  -0.071  -2.341  1.00  0.00     0.139 A 
ATOM     12  C   UNL     1      -0.274  -0.274  -3.345  1.00  0.00     0.048 A 
ATOM     13  C   UNL     1       1.998  -0.393  -2.573  1.00  0.00     0.130 A 
ATOM     14  C   UNL     1       0.149  -0.527  -4.644  1.00  0.00     0.012 A 
ATOM     15  C   UNL     1       2.434  -0.565  -3.904  1.00  0.00     0.034 A 
BRANCH  11  16
ATOM     16  O   UNL     1       0.175   0.485  -1.198  1.00  0.00    -0.495 OA
ATOM     17  C   UNL     1       0.662   1.818  -1.016  1.00  0.00     0.278 C 
ENDBRANCH  11  16
BRANCH  13  18
ATOM     18  S   UNL     1       3.199  -0.678  -1.296  1.00  0.00     0.265 S 
ATOM     19  O   UNL     1       3.849  -1.936  -1.594  1.00  0.00    -0.201 OA
ATOM     20  O   UNL     1       3.978   0.544  -1.223  1.00  0.00    -0.201 OA
BRANCH  18  21
ATOM     21  N   UNL     1       2.498  -0.807   0.226  1.00  0.00    -0.277 N 
ATOM     22  H   UNL     1       2.995  -0.428   0.986  1.00  0.00     0.180 HD
BRANCH  21  23
ATOM     23  C   UNL     1       1.240  -1.423   0.505  1.00  0.00     0.085 A 
ATOM     24  C   UNL     1       0.465  -0.811   1.505  1.00  0.00     0.033 A 
ATOM     25  C   UNL     1       0.703  -2.510  -0.193  1.00  0.00     0.150 A 
ATOM     26  C   UNL     1      -0.867  -1.184   1.693  1.00  0.00     0.041 A 
ATOM     27  C   UNL     1      -0.623  -2.894  -0.001  1.00  0.00     0.080 A 
ATOM     28  F   UNL     1       1.415  -3.150  -1.129  1.00  0.00    -0.205 F 
ATOM     29  C   UNL     1      -1.403  -2.207   0.920  1.00  0.00     0.126 A 
ATOM     30  F   UNL     1      -2.698  -2.520   1.056  1.00  0.00    -0.207 F 
ENDBRANCH  21  23
ENDBRANCH  18  21
ENDBRANCH  13  18
ENDBRANCH   9  10
ENDBRANCH   6   8
ENDBRANCH   5   6
ENDBRANCH   4   5
ENDBRANCH   3   4
ENDBRANCH   2   3
ENDBRANCH   1   2
BRANCH   1  31
ATOM     31  C   UNL     1       2.201  -2.793  -9.204  1.00  0.00     0.188 C 
BRANCH  31  32
ATOM     32  O   UNL     1       3.484  -2.658  -9.777  1.00  0.00    -0.376 OA
BRANCH  32  33
ATOM     33  C   UNL     1       4.146  -3.843 -10.191  1.00  0.00     0.202 C 
BRANCH  33  34
ATOM     34  C   UNL     1       3.456  -4.782 -11.196  1.00  0.00     0.261 C 
BRANCH  34  35
ATOM     35  O   UNL     1       2.053  -5.018 -11.006  1.00  0.00    -0.460 OA
BRANCH  35  36
ATOM     36  C   UNL     1       1.701  -5.948 -10.091  1.00  0.00     0.338 C 
ATOM     37  O   UNL     1       2.436  -6.584  -9.363  1.00  0.00    -0.246 OA
BRANCH  36  38
ATOM     38  C   UNL     1       0.224  -5.957 -10.008  1.00  0.00     0.060 A 
ATOM     39  C   UNL     1      -0.393  -5.571  -8.812  1.00  0.00     0.016 A 
ATOM     40  C   UNL     1      -0.543  -6.356 -11.105  1.00  0.00     0.016 A 
ATOM     41  C   UNL     1      -1.786  -5.607  -8.704  1.00  0.00     0.010 A 
ATOM     42  C   UNL     1      -1.935  -6.408 -10.989  1.00  0.00     0.010 A 
ATOM     43  C   UNL     1      -2.562  -6.059  -9.780  1.00  0.00    -0.014 A 
BRANCH  43  44
ATOM     44  C   UNL     1      -4.009  -6.329  -9.593  1.00  0.00     0.031 A 
ATOM     45  C   UNL     1      -4.444  -7.732  -9.273  1.00  0.00     0.074 A 
ATOM     46  C   UNL     1      -4.923  -5.349  -9.702  1.00  0.00     0.049 A 
ATOM     47  N   UNL     1      -5.649  -8.217  -9.116  1.00  0.00    -0.248 NA
ATOM     48  C   UNL     1      -3.369  -8.723  -9.109  1.00  0.00     0.031 C 
ATOM     49  C   UNL     1      -4.627  -3.944  -9.972  1.00  0.00     0.029 A 
ATOM     50  N   UNL     1      -6.292  -5.395  -9.607  1.00  0.00    -0.354 N 
ATOM     51  C   UNL     1      -5.478  -9.566  -8.837  1.00  0.00     0.074 A 
ATOM     52  C   UNL     1      -4.055  -9.831  -8.875  1.00  0.00     0.031 C 
ATOM     53  C   UNL     1      -5.784  -3.260 -10.032  1.00  0.00     0.029 A 
ATOM     54  C   UNL     1      -6.900  -4.185  -9.836  1.00  0.00     0.049 A 
ATOM     55  H   UNL     1      -6.790  -6.217  -9.394  1.00  0.00     0.167 HD
ATOM     56  C   UNL     1      -6.420 -10.500  -8.564  1.00  0.00     0.037 A 
ATOM     57  C   UNL     1      -8.209  -3.871  -9.902  1.00  0.00     0.037 A 
ATOM     58  C   UNL     1      -7.835 -10.240  -8.537  1.00  0.00     0.049 A 
ATOM     59  C   UNL     1      -9.242  -4.947  -9.683  1.00  0.00     0.074 A 
ATOM     60  C   UNL     1      -8.869 -11.116  -8.260  1.00  0.00     0.029 A 
ATOM     61  N   UNL     1      -8.415  -9.010  -8.812  1.00  0.00    -0.354 N 
ATOM     62  N   UNL     1      -9.073  -6.213  -9.388  1.00  0.00    -0.248 NA
ATOM     63  C   UNL     1     -10.652  -4.546  -9.806  1.00  0.00     0.031 C 
ATOM     64  C   UNL     1     -10.078 -10.428  -8.415  1.00  0.00     0.029 A 
ATOM     65  C   UNL     1      -9.795  -9.111  -8.737  1.00  0.00     0.049 A 
ATOM     66  H   UNL     1      -7.919  -8.187  -9.028  1.00  0.00     0.167 HD
ATOM     67  C   UNL     1     -10.348  -6.751  -9.259  1.00  0.00     0.074 A 
ATOM     68  C   UNL     1     -11.283  -5.671  -9.498  1.00  0.00     0.031 C 
ATOM     69  C   UNL     1     -10.712  -8.024  -8.966  1.00  0.00     0.037 A 
BRANCH  56  70
ATOM     70  C   UNL     1      -5.946 -11.899  -8.300  1.00  0.00     0.064 A 
ATOM     71  C   UNL     1      -5.267 -12.235  -7.119  1.00  0.00     0.173 A 
ATOM     72  C   UNL     1      -6.187 -12.918  -9.232  1.00  0.00     0.173 A 
ATOM     73  F   UNL     1      -4.998 -11.293  -6.203  1.00  0.00    -0.203 F 
ATOM     74  C   UNL     1      -4.822 -13.535  -6.894  1.00  0.00     0.198 A 
ATOM     75  C   UNL     1      -5.766 -14.223  -8.992  1.00  0.00     0.198 A 
ATOM     76  F   UNL     1      -6.834 -12.650 -10.376  1.00  0.00    -0.203 F 
ATOM     77  F   UNL     1      -4.132 -13.823  -5.782  1.00  0.00    -0.200 F 
ATOM     78  C   UNL     1      -5.077 -14.529  -7.828  1.00  0.00     0.200 A 
ATOM     79  F   UNL     1      -6.022 -15.185  -9.889  1.00  0.00    -0.200 F 
ATOM     80  F   UNL     1      -4.651 -15.781  -7.609  1.00  0.00    -0.200 F 
ENDBRANCH  56  70
BRANCH  57  81
ATOM     81  C   UNL     1      -8.626  -2.475 -10.197  1.00  0.00     0.064 A 
ATOM     82  C   UNL     1      -9.261  -1.691  -9.224  1.00  0.00     0.173 A 
ATOM     83  C   UNL     1      -8.427  -1.906 -11.464  1.00  0.00     0.173 A 
ATOM     84  F   UNL     1      -9.501  -2.201  -8.007  1.00  0.00    -0.203 F 
ATOM     85  C   UNL     1      -9.696  -0.399  -9.511  1.00  0.00     0.198 A 
ATOM     86  C   UNL     1      -8.837  -0.604 -11.742  1.00  0.00     0.198 A 
ATOM     87  F   UNL     1      -7.831  -2.617 -12.433  1.00  0.00    -0.203 F 
ATOM     88  F   UNL     1     -10.344   0.311  -8.576  1.00  0.00    -0.200 F 
ATOM     89  C   UNL     1      -9.479   0.146 -10.767  1.00  0.00     0.200 A 
ATOM     90  F   UNL     1      -8.620  -0.079 -12.955  1.00  0.00    -0.200 F 
ATOM     91  F   UNL     1      -9.898   1.389 -11.043  1.00  0.00    -0.200 F 
ENDBRANCH  57  81
BRANCH  69  92
ATOM     92  C   UNL     1     -12.181  -8.313  -8.843  1.00  0.00     0.064 A 
ATOM     93  C   UNL     1     -13.022  -8.355  -9.965  1.00  0.00     0.173 A 
ATOM     94  C   UNL     1     -12.745  -8.597  -7.589  1.00  0.00     0.173 A 
ATOM     95  F   UNL     1     -12.535  -8.078 -11.184  1.00  0.00    -0.203 F 
ATOM     96  C   UNL     1     -14.377  -8.647  -9.833  1.00  0.00     0.198 A 
ATOM     97  C   UNL     1     -14.094  -8.917  -7.465  1.00  0.00     0.198 A 
ATOM     98  F   UNL     1     -11.983  -8.577  -6.485  1.00  0.00    -0.203 F 
ATOM     99  F   UNL     1     -15.171  -8.637 -10.912  1.00  0.00    -0.200 F 
ATOM    100  C   UNL     1     -14.910  -8.935  -8.585  1.00  0.00     0.200 A 
ATOM    101  F   UNL     1     -14.603  -9.208  -6.260  1.00  0.00    -0.200 F 
ATOM    102  F   UNL     1     -16.213  -9.223  -8.461  1.00  0.00    -0.200 F 
ENDBRANCH  69  92
ENDBRANCH  43  44
ENDBRANCH  36  38
ENDBRANCH  35  36
ENDBRANCH  34  35
ENDBRANCH  33  34
ENDBRANCH  32  33
ENDBRANCH  31  32
ENDBRANCH   1  31
TORSDOF 22
