REMARK SMILES CC[C@H]1CC[C@](C(=O)OCCOCCOCCOC(=O)c2ccc(-c3c4nc(c(-c5c(F)c(F)c(F)c(F)c5F)c5ccc([nH]5)c(-c5c(F)c(F)c(F)c(F)c5F)c5nc(c(-c6c(F)c(F)c(F)c(F)c6F)c6ccc3[nH]6)C=C5)C=C4)cc2)([C@H]2CCC[C@@H](S(C)(=O)=O)C2)CC1
REMARK SMILES IDX 13 1 12 2 11 3 10 4 9 5 7 6 8 7 6 8 3 9 95 10 4 11 94 12
REMARK SMILES IDX 5 13 2 14 1 15 84 16 85 17 93 18 86 19 88 20 87 21 89 22
REMARK SMILES IDX 90 23 91 24 92 25 14 26 15 27 16 28 17 29 18 30 19 31 20 32
REMARK SMILES IDX 21 33 22 34 83 35 23 36 82 37 24 38 25 39 26 40 76 41 27 42
REMARK SMILES IDX 81 43 75 44 77 45 28 46 80 47 74 48 73 49 29 51 61 52 41 53
REMARK SMILES IDX 60 54 42 55 45 56 59 57 78 58 43 59 44 60 58 62 79 63 46 64
REMARK SMILES IDX 30 65 31 66 39 67 32 68 33 69 37 70 40 71 34 72 35 73 38 74
REMARK SMILES IDX 36 75 62 76 63 77 71 78 64 79 65 80 69 81 72 82 66 83 67 84
REMARK SMILES IDX 70 85 68 86 47 87 48 88 56 89 49 90 50 91 54 92 57 93 51 94
REMARK SMILES IDX 52 95 55 96 53 97
REMARK H PARENT 77 50 45 61
REMARK Flexibility Score: inf
ROOT
ATOM      1  C   UNL     1       5.431  -8.470  -5.549  1.00  0.00     0.188 C 
ENDROOT
BRANCH   1   2
ATOM      2  O   UNL     1       6.641  -8.215  -6.262  1.00  0.00    -0.376 OA
BRANCH   2   3
ATOM      3  C   UNL     1       6.664  -7.072  -7.116  1.00  0.00     0.202 C 
BRANCH   3   4
ATOM      4  C   UNL     1       7.138  -5.742  -6.481  1.00  0.00     0.261 C 
BRANCH   4   5
ATOM      5  O   UNL     1       6.264  -5.084  -5.524  1.00  0.00    -0.463 OA
BRANCH   5   6
ATOM      6  C   UNL     1       5.527  -3.989  -5.852  1.00  0.00     0.312 C 
ATOM      7  O   UNL     1       5.476  -3.508  -6.980  1.00  0.00    -0.252 OA
BRANCH   6   8
ATOM      8  C   UNL     1       4.791  -3.334  -4.644  1.00  0.00     0.071 C 
ATOM      9  C   UNL     1       7.362  -2.635  -3.135  1.00  0.00    -0.011 C 
ATOM     10  C   UNL     1       6.851  -1.821  -4.335  1.00  0.00     0.005 C 
ATOM     11  C   UNL     1       6.624  -3.954  -2.876  1.00  0.00     0.005 C 
ATOM     12  C   UNL     1       5.335  -1.879  -4.558  1.00  0.00     0.019 C 
ATOM     13  C   UNL     1       5.144  -3.955  -3.253  1.00  0.00     0.019 C 
BRANCH   9  14
ATOM     14  C   UNL     1       8.895  -2.844  -3.207  1.00  0.00    -0.000 C 
ATOM     15  C   UNL     1       9.383  -3.822  -4.275  1.00  0.00     0.004 C 
ENDBRANCH   9  14
BRANCH   8  16
ATOM     16  C   UNL     1       3.183  -3.335  -4.775  1.00  0.00     0.008 C 
ATOM     17  C   UNL     1       2.448  -2.315  -5.677  1.00  0.00     0.005 C 
ATOM     18  C   UNL     1       2.474  -4.705  -4.827  1.00  0.00     0.024 C 
ATOM     19  C   UNL     1       1.882  -2.806  -7.006  1.00  0.00     0.002 C 
ATOM     20  C   UNL     1       1.900  -5.167  -6.184  1.00  0.00     0.108 C 
ATOM     21  C   UNL     1       1.120  -4.117  -6.918  1.00  0.00     0.020 C 
BRANCH  20  22
ATOM     22  S   UNL     1       3.010  -6.104  -7.195  1.00  0.00     0.150 S 
ATOM     23  C   UNL     1       3.591  -5.270  -8.665  1.00  0.00     0.158 C 
ATOM     24  O   UNL     1       4.152  -6.236  -6.326  1.00  0.00    -0.229 OA
ATOM     25  O   UNL     1       2.308  -7.292  -7.632  1.00  0.00    -0.229 OA
ENDBRANCH  20  22
ENDBRANCH   8  16
ENDBRANCH   6   8
ENDBRANCH   5   6
ENDBRANCH   4   5
ENDBRANCH   3   4
ENDBRANCH   2   3
ENDBRANCH   1   2
BRANCH   1  26
ATOM     26  C   UNL     1       5.434  -7.804  -4.166  1.00  0.00     0.188 C 
BRANCH  26  27
ATOM     27  O   UNL     1       6.429  -8.244  -3.236  1.00  0.00    -0.376 OA
BRANCH  27  28
ATOM     28  C   UNL     1       6.960  -9.539  -3.468  1.00  0.00     0.202 C 
BRANCH  28  29
ATOM     29  C   UNL     1       6.006 -10.723  -3.201  1.00  0.00     0.261 C 
BRANCH  29  30
ATOM     30  O   UNL     1       4.601 -10.491  -3.474  1.00  0.00    -0.460 OA
BRANCH  30  31
ATOM     31  C   UNL     1       3.848 -10.020  -2.446  1.00  0.00     0.338 C 
ATOM     32  O   UNL     1       4.219  -9.841  -1.299  1.00  0.00    -0.246 OA
BRANCH  31  33
ATOM     33  C   UNL     1       2.498  -9.599  -2.936  1.00  0.00     0.060 A 
ATOM     34  C   UNL     1       2.014  -8.332  -2.572  1.00  0.00     0.016 A 
ATOM     35  C   UNL     1       1.686 -10.436  -3.704  1.00  0.00     0.016 A 
ATOM     36  C   UNL     1       0.729  -7.909  -2.958  1.00  0.00     0.010 A 
ATOM     37  C   UNL     1       0.385 -10.024  -4.063  1.00  0.00     0.010 A 
ATOM     38  C   UNL     1      -0.117  -8.766  -3.679  1.00  0.00    -0.014 A 
BRANCH  38  39
ATOM     39  C   UNL     1      -1.565  -8.432  -3.886  1.00  0.00     0.031 A 
ATOM     40  C   UNL     1      -2.570  -8.888  -2.863  1.00  0.00     0.074 A 
ATOM     41  C   UNL     1      -2.019  -7.749  -4.955  1.00  0.00     0.049 A 
ATOM     42  N   UNL     1      -3.879  -8.841  -2.904  1.00  0.00    -0.248 NA
ATOM     43  C   UNL     1      -2.025  -9.496  -1.642  1.00  0.00     0.031 C 
ATOM     44  C   UNL     1      -1.183  -7.234  -6.024  1.00  0.00     0.029 A 
ATOM     45  N   UNL     1      -3.295  -7.377  -5.328  1.00  0.00    -0.354 N 
ATOM     46  C   UNL     1      -4.316  -9.442  -1.732  1.00  0.00     0.074 A 
ATOM     47  C   UNL     1      -3.131  -9.841  -0.999  1.00  0.00     0.031 C 
ATOM     48  C   UNL     1      -1.943  -6.563  -6.905  1.00  0.00     0.029 A 
ATOM     49  C   UNL     1      -3.350  -6.711  -6.532  1.00  0.00     0.049 A 
ATOM     50  H   UNL     1      -4.092  -7.570  -4.783  1.00  0.00     0.167 HD
ATOM     51  C   UNL     1      -5.585  -9.661  -1.311  1.00  0.00     0.037 A 
ATOM     52  C   UNL     1      -4.403  -6.330  -7.290  1.00  0.00     0.037 A 
ATOM     53  C   UNL     1      -6.772  -9.282  -2.035  1.00  0.00     0.049 A 
ATOM     54  C   UNL     1      -5.807  -6.676  -6.847  1.00  0.00     0.074 A 
ATOM     55  C   UNL     1      -8.095  -9.463  -1.670  1.00  0.00     0.029 A 
ATOM     56  N   UNL     1      -6.784  -8.663  -3.276  1.00  0.00    -0.354 N 
ATOM     57  N   UNL     1      -6.210  -7.246  -5.739  1.00  0.00    -0.248 NA
ATOM     58  C   UNL     1      -6.901  -6.358  -7.781  1.00  0.00     0.031 C 
ATOM     59  C   UNL     1      -8.907  -9.016  -2.718  1.00  0.00     0.029 A 
ATOM     60  C   UNL     1      -8.092  -8.493  -3.707  1.00  0.00     0.049 A 
ATOM     61  H   UNL     1      -5.983  -8.385  -3.776  1.00  0.00     0.167 HD
ATOM     62  C   UNL     1      -7.594  -7.345  -5.838  1.00  0.00     0.074 A 
ATOM     63  C   UNL     1      -7.969  -6.749  -7.100  1.00  0.00     0.031 C 
ATOM     64  C   UNL     1      -8.470  -7.895  -4.962  1.00  0.00     0.037 A 
BRANCH  51  65
ATOM     65  C   UNL     1      -5.762 -10.406  -0.020  1.00  0.00     0.064 A 
ATOM     66  C   UNL     1      -5.450  -9.829   1.219  1.00  0.00     0.173 A 
ATOM     67  C   UNL     1      -6.283 -11.710  -0.026  1.00  0.00     0.173 A 
ATOM     68  F   UNL     1      -4.938  -8.590   1.277  1.00  0.00    -0.203 F 
ATOM     69  C   UNL     1      -5.623 -10.541   2.402  1.00  0.00     0.198 A 
ATOM     70  C   UNL     1      -6.488 -12.405   1.162  1.00  0.00     0.198 A 
ATOM     71  F   UNL     1      -6.607 -12.305  -1.184  1.00  0.00    -0.203 F 
ATOM     72  F   UNL     1      -5.268  -9.990   3.571  1.00  0.00    -0.200 F 
ATOM     73  C   UNL     1      -6.148 -11.825   2.374  1.00  0.00     0.200 A 
ATOM     74  F   UNL     1      -7.012 -13.639   1.132  1.00  0.00    -0.200 F 
ATOM     75  F   UNL     1      -6.321 -12.506   3.515  1.00  0.00    -0.200 F 
ENDBRANCH  51  65
BRANCH  52  76
ATOM     76  C   UNL     1      -4.192  -5.651  -8.603  1.00  0.00     0.064 A 
ATOM     77  C   UNL     1      -4.672  -4.353  -8.835  1.00  0.00     0.173 A 
ATOM     78  C   UNL     1      -3.564  -6.305  -9.675  1.00  0.00     0.173 A 
ATOM     79  F   UNL     1      -5.319  -3.694  -7.862  1.00  0.00    -0.203 F 
ATOM     80  C   UNL     1      -4.545  -3.745 -10.085  1.00  0.00     0.198 A 
ATOM     81  C   UNL     1      -3.400  -5.682 -10.910  1.00  0.00     0.198 A 
ATOM     82  F   UNL     1      -3.103  -7.555  -9.522  1.00  0.00    -0.203 F 
ATOM     83  F   UNL     1      -5.069  -2.530 -10.293  1.00  0.00    -0.200 F 
ATOM     84  C   UNL     1      -3.901  -4.407 -11.118  1.00  0.00     0.200 A 
ATOM     85  F   UNL     1      -2.764  -6.321 -11.901  1.00  0.00    -0.200 F 
ATOM     86  F   UNL     1      -3.772  -3.821 -12.316  1.00  0.00    -0.200 F 
ENDBRANCH  52  76
BRANCH  64  87
ATOM     87  C   UNL     1      -9.933  -7.863  -5.314  1.00  0.00     0.064 A 
ATOM     88  C   UNL     1     -10.464  -8.666  -6.335  1.00  0.00     0.173 A 
ATOM     89  C   UNL     1     -10.826  -7.067  -4.579  1.00  0.00     0.173 A 
ATOM     90  F   UNL     1      -9.655  -9.434  -7.080  1.00  0.00    -0.203 F 
ATOM     91  C   UNL     1     -11.829  -8.662  -6.616  1.00  0.00     0.198 A 
ATOM     92  C   UNL     1     -12.194  -7.090  -4.841  1.00  0.00     0.198 A 
ATOM     93  F   UNL     1     -10.375  -6.282  -3.589  1.00  0.00    -0.203 F 
ATOM     94  F   UNL     1     -12.307  -9.408  -7.622  1.00  0.00    -0.200 F 
ATOM     95  C   UNL     1     -12.694  -7.883  -5.862  1.00  0.00     0.200 A 
ATOM     96  F   UNL     1     -13.029  -6.347  -4.101  1.00  0.00    -0.200 F 
ATOM     97  F   UNL     1     -14.009  -7.893  -6.123  1.00  0.00    -0.200 F 
ENDBRANCH  64  87
ENDBRANCH  38  39
ENDBRANCH  31  33
ENDBRANCH  30  31
ENDBRANCH  29  30
ENDBRANCH  28  29
ENDBRANCH  27  28
ENDBRANCH  26  27
ENDBRANCH   1  26
TORSDOF 20
