REMARK SMILES CCOC(=O)[C@@]1(C)C/C(=N/c2cccc(C(=O)OCCOCCOCCOC(=O)c3ccc(-c4c5nc(c(-c6c(F)c(F)c(F)c(F)c6F)c6ccc([nH]6)c(-c6c(F)c(F)c(F)c(F)c6F)c6nc(c(-c7c(F)c(F)c(F)c(F)c7F)c7ccc4[nH]7)C=C6)C=C5)cc3)c2)C(=O)N1c1ccccc1
REMARK SMILES IDX 22 1 21 2 20 3 19 4 18 5 16 6 17 7 15 8 11 9 12 10 93 11
REMARK SMILES IDX 13 12 14 13 10 14 6 15 7 16 8 17 96 18 9 19 94 20 95 21 4 22
REMARK SMILES IDX 5 23 3 24 2 25 1 26 97 27 98 28 102 29 99 30 101 31 100 32
REMARK SMILES IDX 23 33 24 34 25 35 26 36 27 37 28 38 29 39 30 40 31 41 92 42
REMARK SMILES IDX 32 43 91 44 33 45 34 46 35 47 85 48 36 49 90 50 84 51 86 52
REMARK SMILES IDX 37 53 89 54 83 55 82 56 38 58 70 59 50 60 69 61 51 62 54 63
REMARK SMILES IDX 68 64 87 65 52 66 53 67 67 69 88 70 55 71 39 72 40 73 48 74
REMARK SMILES IDX 41 75 42 76 46 77 49 78 43 79 44 80 47 81 45 82 71 83 72 84
REMARK SMILES IDX 80 85 73 86 74 87 78 88 81 89 75 90 76 91 79 92 77 93 56 94
REMARK SMILES IDX 57 95 65 96 58 97 59 98 63 99 66 100 60 101 61 102 64 103
REMARK SMILES IDX 62 104
REMARK H PARENT 86 57 54 68
REMARK Flexibility Score: inf
ROOT
ATOM      1  C   UNL     1       5.993   3.099  11.571  1.00  0.00     0.188 C 
ENDROOT
BRANCH   1   2
ATOM      2  O   UNL     1       5.848   1.819  12.190  1.00  0.00    -0.376 OA
BRANCH   2   3
ATOM      3  C   UNL     1       5.024   0.869  11.513  1.00  0.00     0.202 C 
BRANCH   3   4
ATOM      4  C   UNL     1       3.548   1.266  11.475  1.00  0.00     0.261 C 
BRANCH   4   5
ATOM      5  O   UNL     1       3.316   2.131  10.347  1.00  0.00    -0.460 OA
BRANCH   5   6
ATOM      6  C   UNL     1       2.422   3.132  10.536  1.00  0.00     0.338 C 
ATOM      7  O   UNL     1       1.831   3.385  11.574  1.00  0.00    -0.246 OA
BRANCH   6   8
ATOM      8  C   UNL     1       2.281   3.943   9.299  1.00  0.00     0.062 A 
ATOM      9  C   UNL     1       2.541   4.266   6.903  1.00  0.00     0.064 A 
ATOM     10  C   UNL     1       1.897   5.500   7.015  1.00  0.00     0.028 A 
ATOM     11  C   UNL     1       2.769   3.508   8.059  1.00  0.00     0.044 A 
ATOM     12  C   UNL     1       1.436   5.956   8.251  1.00  0.00     0.003 A 
ATOM     13  C   UNL     1       1.615   5.172   9.389  1.00  0.00     0.016 A 
BRANCH   9  14
ATOM     14  N   UNL     1       3.003   3.860   5.643  1.00  0.00    -0.248 NA
ATOM     15  C   UNL     1       3.042   0.734   4.052  1.00  0.00     0.148 C 
ATOM     16  C   UNL     1       4.397   0.275   4.626  1.00  0.00     0.048 C 
ATOM     17  C   UNL     1       3.112   2.262   3.813  1.00  0.00     0.103 C 
ATOM     18  N   UNL     1       1.944   0.541   5.032  1.00  0.00    -0.290 N 
ATOM     19  C   UNL     1       2.570   2.763   5.102  1.00  0.00     0.109 C 
ATOM     20  C   UNL     1       1.589   1.748   5.631  1.00  0.00     0.273 C 
ATOM     21  O   UNL     1       0.713   2.036   6.418  1.00  0.00    -0.267 OA
BRANCH  15  22
ATOM     22  C   UNL     1       2.796   0.145   2.646  1.00  0.00     0.332 C 
ATOM     23  O   UNL     1       3.684  -0.040   1.822  1.00  0.00    -0.249 OA
BRANCH  22  24
ATOM     24  O   UNL     1       1.470  -0.042   2.400  1.00  0.00    -0.464 OA
BRANCH  24  25
ATOM     25  C   UNL     1       1.131  -0.656   1.147  1.00  0.00     0.229 C 
ATOM     26  C   UNL     1       0.987   0.393   0.063  1.00  0.00     0.049 C 
ENDBRANCH  24  25
ENDBRANCH  22  24
ENDBRANCH  15  22
BRANCH  18  27
ATOM     27  C   UNL     1       1.378  -0.733   5.374  1.00  0.00     0.045 A 
ATOM     28  C   UNL     1       0.284  -0.837   6.247  1.00  0.00     0.026 A 
ATOM     29  C   UNL     1       1.891  -1.937   4.863  1.00  0.00     0.026 A 
ATOM     30  C   UNL     1      -0.265  -2.078   6.599  1.00  0.00     0.002 A 
ATOM     31  C   UNL     1       1.349  -3.180   5.216  1.00  0.00     0.002 A 
ATOM     32  C   UNL     1       0.271  -3.251   6.087  1.00  0.00     0.000 A 
ENDBRANCH  18  27
ENDBRANCH   9  14
ENDBRANCH   6   8
ENDBRANCH   5   6
ENDBRANCH   4   5
ENDBRANCH   3   4
ENDBRANCH   2   3
ENDBRANCH   1   2
BRANCH   1  33
ATOM     33  C   UNL     1       6.557   3.076  10.146  1.00  0.00     0.188 C 
BRANCH  33  34
ATOM     34  O   UNL     1       7.768   2.321  10.086  1.00  0.00    -0.376 OA
BRANCH  34  35
ATOM     35  C   UNL     1       8.923   3.081   9.723  1.00  0.00     0.202 C 
BRANCH  35  36
ATOM     36  C   UNL     1       9.556   3.785  10.927  1.00  0.00     0.261 C 
BRANCH  36  37
ATOM     37  O   UNL     1       8.771   4.883  11.427  1.00  0.00    -0.460 OA
BRANCH  37  38
ATOM     38  C   UNL     1       8.744   5.988  10.648  1.00  0.00     0.338 C 
ATOM     39  O   UNL     1       9.274   6.121   9.558  1.00  0.00    -0.246 OA
BRANCH  38  40
ATOM     40  C   UNL     1       7.902   7.028  11.284  1.00  0.00     0.060 A 
ATOM     41  C   UNL     1       7.224   7.927  10.454  1.00  0.00     0.016 A 
ATOM     42  C   UNL     1       7.821   7.161  12.677  1.00  0.00     0.016 A 
ATOM     43  C   UNL     1       6.484   8.970  11.013  1.00  0.00     0.010 A 
ATOM     44  C   UNL     1       7.093   8.216  13.235  1.00  0.00     0.010 A 
ATOM     45  C   UNL     1       6.438   9.137  12.404  1.00  0.00    -0.014 A 
BRANCH  45  46
ATOM     46  C   UNL     1       5.788  10.339  12.973  1.00  0.00     0.031 A 
ATOM     47  C   UNL     1       6.531  11.643  12.978  1.00  0.00     0.074 A 
ATOM     48  C   UNL     1       4.542  10.275  13.473  1.00  0.00     0.049 A 
ATOM     49  N   UNL     1       6.099  12.840  13.285  1.00  0.00    -0.248 NA
ATOM     50  C   UNL     1       7.946  11.594  12.581  1.00  0.00     0.031 C 
ATOM     51  C   UNL     1       3.720   9.070  13.553  1.00  0.00     0.029 A 
ATOM     52  N   UNL     1       3.754  11.260  14.012  1.00  0.00    -0.354 N 
ATOM     53  C   UNL     1       7.173  13.691  13.073  1.00  0.00     0.074 A 
ATOM     54  C   UNL     1       8.291  12.872  12.654  1.00  0.00     0.031 C 
ATOM     55  C   UNL     1       2.544   9.384  14.124  1.00  0.00     0.029 A 
ATOM     56  C   UNL     1       2.528  10.812  14.432  1.00  0.00     0.049 A 
ATOM     57  H   UNL     1       4.042  12.198  14.091  1.00  0.00     0.167 HD
ATOM     58  C   UNL     1       7.216  15.038  13.194  1.00  0.00     0.037 A 
ATOM     59  C   UNL     1       1.508  11.486  14.993  1.00  0.00     0.037 A 
ATOM     60  C   UNL     1       6.120  15.856  13.633  1.00  0.00     0.049 A 
ATOM     61  C   UNL     1       1.610  12.969  15.202  1.00  0.00     0.074 A 
ATOM     62  C   UNL     1       6.037  17.236  13.698  1.00  0.00     0.029 A 
ATOM     63  N   UNL     1       4.919  15.358  14.113  1.00  0.00    -0.354 N 
ATOM     64  N   UNL     1       2.584  13.783  14.877  1.00  0.00    -0.248 NA
ATOM     65  C   UNL     1       0.465  13.629  15.848  1.00  0.00     0.031 C 
ATOM     66  C   UNL     1       4.793  17.573  14.250  1.00  0.00     0.029 A 
ATOM     67  C   UNL     1       4.104  16.401  14.516  1.00  0.00     0.049 A 
ATOM     68  H   UNL     1       4.682  14.404  14.160  1.00  0.00     0.167 HD
ATOM     69  C   UNL     1       2.163  15.050  15.255  1.00  0.00     0.074 A 
ATOM     70  C   UNL     1       0.850  14.898  15.847  1.00  0.00     0.031 C 
ATOM     71  C   UNL     1       2.805  16.233  15.110  1.00  0.00     0.037 A 
BRANCH  58  72
ATOM     72  C   UNL     1       8.495  15.710  12.819  1.00  0.00     0.064 A 
ATOM     73  C   UNL     1       8.759  16.046  11.483  1.00  0.00     0.173 A 
ATOM     74  C   UNL     1       9.453  16.030  13.788  1.00  0.00     0.173 A 
ATOM     75  F   UNL     1       7.872  15.745  10.524  1.00  0.00    -0.203 F 
ATOM     76  C   UNL     1       9.947  16.678  11.130  1.00  0.00     0.198 A 
ATOM     77  C   UNL     1      10.640  16.665  13.431  1.00  0.00     0.198 A 
ATOM     78  F   UNL     1       9.244  15.714  15.075  1.00  0.00    -0.203 F 
ATOM     79  F   UNL     1      10.190  16.978   9.847  1.00  0.00    -0.200 F 
ATOM     80  C   UNL     1      10.886  16.987  12.104  1.00  0.00     0.200 A 
ATOM     81  F   UNL     1      11.551  16.956  14.370  1.00  0.00    -0.200 F 
ATOM     82  F   UNL     1      12.033  17.589  11.761  1.00  0.00    -0.200 F 
ENDBRANCH  58  72
BRANCH  59  83
ATOM     83  C   UNL     1       0.282  10.756  15.386  1.00  0.00     0.064 A 
ATOM     84  C   UNL     1      -0.838  10.727  14.545  1.00  0.00     0.173 A 
ATOM     85  C   UNL     1       0.211  10.077  16.609  1.00  0.00     0.173 A 
ATOM     86  F   UNL     1      -0.814  11.382  13.376  1.00  0.00    -0.203 F 
ATOM     87  C   UNL     1      -1.992  10.043  14.918  1.00  0.00     0.198 A 
ATOM     88  C   UNL     1      -0.942   9.389  16.977  1.00  0.00     0.198 A 
ATOM     89  F   UNL     1       1.258  10.094  17.446  1.00  0.00    -0.203 F 
ATOM     90  F   UNL     1      -3.059  10.041  14.108  1.00  0.00    -0.200 F 
ATOM     91  C   UNL     1      -2.042   9.373  16.133  1.00  0.00     0.200 A 
ATOM     92  F   UNL     1      -0.991   8.750  18.154  1.00  0.00    -0.200 F 
ATOM     93  F   UNL     1      -3.156   8.721  16.494  1.00  0.00    -0.200 F 
ENDBRANCH  59  83
BRANCH  71  94
ATOM     94  C   UNL     1       2.095  17.457  15.592  1.00  0.00     0.064 A 
ATOM     95  C   UNL     1       2.161  17.847  16.936  1.00  0.00     0.173 A 
ATOM     96  C   UNL     1       1.379  18.265  14.698  1.00  0.00     0.173 A 
ATOM     97  F   UNL     1       2.824  17.094  17.825  1.00  0.00    -0.203 F 
ATOM     98  C   UNL     1       1.527  19.007  17.371  1.00  0.00     0.198 A 
ATOM     99  C   UNL     1       0.753  19.429  15.136  1.00  0.00     0.198 A 
ATOM    100  F   UNL     1       1.289  17.926  13.404  1.00  0.00    -0.203 F 
ATOM    101  F   UNL     1       1.586  19.357  18.664  1.00  0.00    -0.200 F 
ATOM    102  C   UNL     1       0.827  19.798  16.471  1.00  0.00     0.200 A 
ATOM    103  F   UNL     1       0.075  20.192  14.267  1.00  0.00    -0.200 F 
ATOM    104  F   UNL     1       0.217  20.915  16.892  1.00  0.00    -0.200 F 
ENDBRANCH  71  94
ENDBRANCH  45  46
ENDBRANCH  38  40
ENDBRANCH  37  38
ENDBRANCH  36  37
ENDBRANCH  35  36
ENDBRANCH  34  35
ENDBRANCH  33  34
ENDBRANCH   1  33
TORSDOF 22
