REMARK SMILES Cc1ccccc1CNc1ccc(C(=O)OCCOCCOCCOC(=O)c2ccc(-c3c4nc(c(-c5c(F)c(F)c(F)c(F)c5F)c5ccc([nH]5)c(-c5c(F)c(F)c(F)c(F)c5F)c5nc(c(-c6c(F)c(F)c(F)c(F)c6F)c6ccc3[nH]6)C=C5)C=C4)cc2)c(F)c1F
REMARK SMILES IDX 20 1 19 2 18 3 17 4 16 5 14 6 15 7 13 8 10 9 11 10 93 11
REMARK SMILES IDX 12 12 91 13 94 14 92 15 9 16 8 18 7 19 1 20 2 21 3 22 4 23
REMARK SMILES IDX 6 24 5 25 21 26 22 27 23 28 24 29 25 30 26 31 27 32 28 33
REMARK SMILES IDX 29 34 90 35 30 36 89 37 31 38 32 39 33 40 83 41 34 42 88 43
REMARK SMILES IDX 82 44 84 45 35 46 87 47 81 48 80 49 36 51 68 52 48 53 67 54
REMARK SMILES IDX 49 55 52 56 66 57 85 58 50 59 51 60 65 62 86 63 53 64 37 65
REMARK SMILES IDX 38 66 46 67 39 68 40 69 44 70 47 71 41 72 42 73 45 74 43 75
REMARK SMILES IDX 69 76 70 77 78 78 71 79 72 80 76 81 79 82 73 83 74 84 77 85
REMARK SMILES IDX 75 86 54 87 55 88 63 89 56 90 57 91 61 92 64 93 58 94 59 95
REMARK SMILES IDX 62 96 60 97
REMARK H PARENT 9 17 84 50 52 61
REMARK Flexibility Score: inf
ROOT
ATOM      1  C   UNL     1      -2.033  12.272  -1.922  1.00  0.00     0.188 C 
ENDROOT
BRANCH   1   2
ATOM      2  O   UNL     1      -1.657  11.889  -0.576  1.00  0.00    -0.376 OA
BRANCH   2   3
ATOM      3  C   UNL     1      -0.366  12.110   0.007  1.00  0.00     0.202 C 
BRANCH   3   4
ATOM      4  C   UNL     1       0.575  10.901   0.737  1.00  0.00     0.261 C 
BRANCH   4   5
ATOM      5  O   UNL     1       1.108   9.401   0.158  1.00  0.00    -0.460 OA
BRANCH   5   6
ATOM      6  C   UNL     1       0.663   8.049   0.162  1.00  0.00     0.341 C 
ATOM      7  O   UNL     1      -0.229   7.530   0.828  1.00  0.00    -0.246 OA
BRANCH   6   8
ATOM      8  C   UNL     1       1.157   6.930  -0.664  1.00  0.00     0.099 A 
ATOM      9  C   UNL     1       1.523   4.129  -1.100  1.00  0.00     0.074 A 
ATOM     10  C   UNL     1       2.487   4.912  -0.443  1.00  0.00     0.030 A 
ATOM     11  C   UNL     1       0.376   4.765  -1.557  1.00  0.00     0.182 A 
ATOM     12  C   UNL     1       2.318   6.298  -0.233  1.00  0.00     0.021 A 
ATOM     13  C   UNL     1       0.178   6.115  -1.308  1.00  0.00     0.175 A 
ATOM     14  F   UNL     1      -0.624   4.032  -2.082  1.00  0.00    -0.201 F 
ATOM     15  F   UNL     1      -1.080   6.527  -1.492  1.00  0.00    -0.203 F 
BRANCH   9  16
ATOM     16  N   UNL     1       1.571   2.725  -1.096  1.00  0.00    -0.379 N 
ATOM     17  H   UNL     1       1.732   2.201  -1.914  1.00  0.00     0.161 HD
BRANCH  16  18
ATOM     18  C   UNL     1       1.365   2.099   0.208  1.00  0.00     0.149 C 
BRANCH  18  19
ATOM     19  C   UNL     1       0.552   0.826   0.069  1.00  0.00    -0.026 A 
ATOM     20  C   UNL     1       2.621  -0.673  -0.110  1.00  0.00     0.044 C 
ATOM     21  C   UNL     1       1.135  -0.450  -0.066  1.00  0.00    -0.046 A 
ATOM     22  C   UNL     1       0.302  -1.584  -0.113  1.00  0.00     0.004 A 
ATOM     23  C   UNL     1      -1.086  -1.462  -0.078  1.00  0.00     0.000 A 
ATOM     24  C   UNL     1      -0.855   0.931   0.069  1.00  0.00     0.006 A 
ATOM     25  C   UNL     1      -1.666  -0.202  -0.001  1.00  0.00     0.000 A 
ENDBRANCH  18  19
ENDBRANCH  16  18
ENDBRANCH   9  16
ENDBRANCH   6   8
ENDBRANCH   5   6
ENDBRANCH   4   5
ENDBRANCH   3   4
ENDBRANCH   2   3
ENDBRANCH   1   2
BRANCH   1  26
ATOM     26  C   UNL     1      -1.051  12.908  -2.908  1.00  0.00     0.188 C 
BRANCH  26  27
ATOM     27  O   UNL     1       0.224  12.319  -2.746  1.00  0.00    -0.376 OA
BRANCH  27  28
ATOM     28  C   UNL     1       1.245  12.813  -3.594  1.00  0.00     0.202 C 
BRANCH  28  29
ATOM     29  C   UNL     1       1.241  12.120  -4.968  1.00  0.00     0.261 C 
BRANCH  29  30
ATOM     30  O   UNL     1       1.199  10.679  -4.809  1.00  0.00    -0.460 OA
BRANCH  30  31
ATOM     31  C   UNL     1       0.021  10.035  -5.143  1.00  0.00     0.338 C 
ATOM     32  O   UNL     1      -0.614  10.237  -6.140  1.00  0.00    -0.246 OA
BRANCH  31  33
ATOM     33  C   UNL     1      -0.483   9.250  -3.947  1.00  0.00     0.060 A 
ATOM     34  C   UNL     1      -1.777   8.731  -3.781  1.00  0.00     0.016 A 
ATOM     35  C   UNL     1       0.215   9.415  -2.804  1.00  0.00     0.016 A 
ATOM     36  C   UNL     1      -2.377   8.561  -2.449  1.00  0.00     0.010 A 
ATOM     37  C   UNL     1      -0.556   9.530  -1.644  1.00  0.00     0.010 A 
ATOM     38  C   UNL     1      -1.792   9.030  -1.264  1.00  0.00    -0.014 A 
BRANCH  38  39
ATOM     39  C   UNL     1      -2.467   9.295   0.174  1.00  0.00     0.031 A 
ATOM     40  C   UNL     1      -2.086   8.974   1.747  1.00  0.00     0.074 A 
ATOM     41  C   UNL     1      -3.663   9.924   0.112  1.00  0.00     0.049 A 
ATOM     42  N   UNL     1      -2.955   8.529   2.654  1.00  0.00    -0.248 NA
ATOM     43  C   UNL     1      -0.766   9.045   2.450  1.00  0.00     0.031 C 
ATOM     44  C   UNL     1      -4.428  10.508   1.210  1.00  0.00     0.029 A 
ATOM     45  N   UNL     1      -4.509  10.059  -1.000  1.00  0.00    -0.354 N 
ATOM     46  C   UNL     1      -2.273   8.390   3.877  1.00  0.00     0.074 A 
ATOM     47  C   UNL     1      -0.935   8.301   3.525  1.00  0.00     0.031 C 
ATOM     48  C   UNL     1      -5.704  10.635   0.818  1.00  0.00     0.029 A 
ATOM     49  C   UNL     1      -5.816  10.025  -0.492  1.00  0.00     0.049 A 
ATOM     50  H   UNL     1      -4.241  10.158  -1.942  1.00  0.00     0.167 HD
ATOM     51  C   UNL     1      -2.746   8.647   5.132  1.00  0.00     0.037 A 
ATOM     52  C   UNL     1      -6.691   9.051  -0.863  1.00  0.00     0.037 A 
ATOM     53  C   UNL     1      -4.169   8.838   5.045  1.00  0.00     0.049 A 
ATOM     54  C   UNL     1      -7.261   8.285   0.304  1.00  0.00     0.074 A 
ATOM     55  C   UNL     1      -4.985   9.952   5.044  1.00  0.00     0.029 A 
ATOM     56  N   UNL     1      -4.920   7.780   4.567  1.00  0.00    -0.354 N 
ATOM     57  N   UNL     1      -6.792   8.349   1.520  1.00  0.00    -0.248 NA
ATOM     58  C   UNL     1      -8.395   7.374   0.198  1.00  0.00     0.031 C 
ATOM     59  C   UNL     1      -6.222   9.565   4.461  1.00  0.00     0.029 A 
ATOM     60  C   UNL     1      -6.163   8.212   4.171  1.00  0.00     0.049 A 
ATOM     61  H   UNL     1      -4.607   6.848   4.517  1.00  0.00     0.167 HD
ATOM     62  C   UNL     1      -7.470   7.473   2.323  1.00  0.00     0.074 A 
ATOM     63  C   UNL     1      -8.494   6.922   1.460  1.00  0.00     0.031 C 
ATOM     64  C   UNL     1      -7.096   7.246   3.617  1.00  0.00     0.037 A 
BRANCH  51  65
ATOM     65  C   UNL     1      -1.872   8.990   6.382  1.00  0.00     0.064 A 
ATOM     66  C   UNL     1      -2.474   9.579   7.519  1.00  0.00     0.173 A 
ATOM     67  C   UNL     1      -0.461   8.854   6.532  1.00  0.00     0.173 A 
ATOM     68  F   UNL     1      -3.804   9.713   7.604  1.00  0.00    -0.203 F 
ATOM     69  C   UNL     1      -1.740  10.058   8.625  1.00  0.00     0.198 A 
ATOM     70  C   UNL     1       0.272   9.357   7.618  1.00  0.00     0.198 A 
ATOM     71  F   UNL     1       0.315   8.191   5.678  1.00  0.00    -0.203 F 
ATOM     72  F   UNL     1      -2.384  10.621   9.657  1.00  0.00    -0.200 F 
ATOM     73  C   UNL     1      -0.365   9.971   8.662  1.00  0.00     0.200 A 
ATOM     74  F   UNL     1       1.609   9.227   7.630  1.00  0.00    -0.200 F 
ATOM     75  F   UNL     1       0.337  10.450   9.698  1.00  0.00    -0.200 F 
ENDBRANCH  51  65
BRANCH  52  76
ATOM     76  C   UNL     1      -6.477   8.554  -2.255  1.00  0.00     0.064 A 
ATOM     77  C   UNL     1      -6.551   9.500  -3.302  1.00  0.00     0.173 A 
ATOM     78  C   UNL     1      -5.870   7.327  -2.550  1.00  0.00     0.173 A 
ATOM     79  F   UNL     1      -7.122  10.696  -3.082  1.00  0.00    -0.203 F 
ATOM     80  C   UNL     1      -5.939   9.284  -4.535  1.00  0.00     0.198 A 
ATOM     81  C   UNL     1      -5.278   7.101  -3.803  1.00  0.00     0.198 A 
ATOM     82  F   UNL     1      -5.723   6.396  -1.597  1.00  0.00    -0.203 F 
ATOM     83  F   UNL     1      -5.914  10.264  -5.450  1.00  0.00    -0.200 F 
ATOM     84  C   UNL     1      -5.282   8.092  -4.777  1.00  0.00     0.200 A 
ATOM     85  F   UNL     1      -4.585   5.974  -4.023  1.00  0.00    -0.200 F 
ATOM     86  F   UNL     1      -4.594   7.926  -5.916  1.00  0.00    -0.200 F 
ENDBRANCH  52  76
BRANCH  64  87
ATOM     87  C   UNL     1      -7.537   6.097   4.498  1.00  0.00     0.064 A 
ATOM     88  C   UNL     1      -7.993   4.862   4.012  1.00  0.00     0.173 A 
ATOM     89  C   UNL     1      -7.329   6.154   5.902  1.00  0.00     0.173 A 
ATOM     90  F   UNL     1      -8.117   4.627   2.700  1.00  0.00    -0.203 F 
ATOM     91  C   UNL     1      -8.274   3.789   4.863  1.00  0.00     0.198 A 
ATOM     92  C   UNL     1      -7.538   5.058   6.737  1.00  0.00     0.198 A 
ATOM     93  F   UNL     1      -6.880   7.267   6.502  1.00  0.00    -0.203 F 
ATOM     94  F   UNL     1      -8.753   2.647   4.350  1.00  0.00    -0.200 F 
ATOM     95  C   UNL     1      -8.029   3.880   6.220  1.00  0.00     0.200 A 
ATOM     96  F   UNL     1      -7.235   5.146   8.040  1.00  0.00    -0.200 F 
ATOM     97  F   UNL     1      -8.246   2.829   7.021  1.00  0.00    -0.200 F 
ENDBRANCH  64  87
ENDBRANCH  38  39
ENDBRANCH  31  33
ENDBRANCH  30  31
ENDBRANCH  29  30
ENDBRANCH  28  29
ENDBRANCH  27  28
ENDBRANCH  26  27
ENDBRANCH   1  26
TORSDOF 20
