REMARK SMILES O=C(OCCOCCOCCOC(=O)c1ccc(COc2cccc(Cl)c2Cl)o1)c1ccc(-c2c3nc(c(-c4c(F)c(F)c(F)c(F)c4F)c4ccc([nH]4)c(-c4c(F)c(F)c(F)c(F)c4F)c4nc(c(-c5c(F)c(F)c(F)c(F)c5F)c5ccc2[nH]5)C=C4)C=C3)cc1
REMARK SMILES IDX 8 1 7 2 6 3 5 4 4 5 3 6 2 7 1 8 30 9 31 10 92 11 32 12 91 13
REMARK SMILES IDX 33 14 34 15 35 16 85 17 36 18 90 19 84 20 86 21 37 22 89 23
REMARK SMILES IDX 83 24 82 25 38 27 70 28 50 29 69 30 51 31 54 32 68 33 87 34
REMARK SMILES IDX 52 35 53 36 67 38 88 39 55 40 39 41 40 42 48 43 41 44 42 45
REMARK SMILES IDX 46 46 49 47 43 48 44 49 47 50 45 51 71 52 72 53 80 54 73 55
REMARK SMILES IDX 74 56 78 57 81 58 75 59 76 60 79 61 77 62 56 63 57 64 65 65
REMARK SMILES IDX 58 66 59 67 63 68 66 69 60 70 61 71 64 72 62 73 9 74 10 75
REMARK SMILES IDX 11 76 12 77 13 78 14 79 15 80 16 81 29 82 17 83 18 84 19 85
REMARK SMILES IDX 20 86 21 87 22 88 27 89 23 90 25 91 28 92 24 93 26 94
REMARK H PARENT 86 26 54 37
REMARK Flexibility Score: inf
ROOT
ATOM      1  C   UNL     1       1.950  -2.773  -1.558  1.00  0.00     0.188 C 
ENDROOT
BRANCH   1   2
ATOM      2  C   UNL     1       2.442  -2.309  -0.184  1.00  0.00     0.188 C 
BRANCH   2   3
ATOM      3  O   UNL     1       3.720  -1.662  -0.308  1.00  0.00    -0.376 OA
BRANCH   3   4
ATOM      4  C   UNL     1       4.461  -1.619   0.913  1.00  0.00     0.202 C 
BRANCH   4   5
ATOM      5  C   UNL     1       4.359  -0.269   1.625  1.00  0.00     0.261 C 
BRANCH   5   6
ATOM      6  O   UNL     1       2.987   0.149   1.721  1.00  0.00    -0.460 OA
BRANCH   6   7
ATOM      7  C   UNL     1       2.298   0.952   0.874  1.00  0.00     0.338 C 
ATOM      8  O   UNL     1       1.082   1.064   1.022  1.00  0.00    -0.246 OA
BRANCH   7   9
ATOM      9  C   UNL     1       2.954   1.815  -0.153  1.00  0.00     0.060 A 
ATOM     10  C   UNL     1       4.063   1.465  -0.929  1.00  0.00     0.016 A 
ATOM     11  C   UNL     1       2.358   3.067  -0.379  1.00  0.00     0.016 A 
ATOM     12  C   UNL     1       4.657   2.391  -1.793  1.00  0.00     0.010 A 
ATOM     13  C   UNL     1       2.908   3.972  -1.289  1.00  0.00     0.010 A 
ATOM     14  C   UNL     1       4.095   3.659  -1.962  1.00  0.00    -0.014 A 
BRANCH  14  15
ATOM     15  C   UNL     1       4.783   4.702  -2.756  1.00  0.00     0.031 A 
ATOM     16  C   UNL     1       5.395   5.870  -2.041  1.00  0.00     0.074 A 
ATOM     17  C   UNL     1       4.862   4.618  -4.095  1.00  0.00     0.049 A 
ATOM     18  N   UNL     1       5.905   6.971  -2.531  1.00  0.00    -0.248 NA
ATOM     19  C   UNL     1       5.446   5.780  -0.573  1.00  0.00     0.031 C 
ATOM     20  C   UNL     1       4.389   3.494  -4.895  1.00  0.00     0.029 A 
ATOM     21  N   UNL     1       5.351   5.508  -5.018  1.00  0.00    -0.354 N 
ATOM     22  C   UNL     1       6.330   7.705  -1.434  1.00  0.00     0.074 A 
ATOM     23  C   UNL     1       5.994   6.941  -0.251  1.00  0.00     0.031 C 
ATOM     24  C   UNL     1       4.573   3.775  -6.195  1.00  0.00     0.029 A 
ATOM     25  C   UNL     1       5.134   5.117  -6.315  1.00  0.00     0.049 A 
ATOM     26  H   UNL     1       5.811   6.343  -4.774  1.00  0.00     0.167 HD
ATOM     27  C   UNL     1       6.956   8.904  -1.415  1.00  0.00     0.037 A 
ATOM     28  C   UNL     1       5.325   5.783  -7.470  1.00  0.00     0.037 A 
ATOM     29  C   UNL     1       7.288   9.662  -2.589  1.00  0.00     0.049 A 
ATOM     30  C   UNL     1       5.920   7.162  -7.428  1.00  0.00     0.074 A 
ATOM     31  C   UNL     1       7.901  10.898  -2.680  1.00  0.00     0.029 A 
ATOM     32  N   UNL     1       7.027   9.245  -3.886  1.00  0.00    -0.354 N 
ATOM     33  N   UNL     1       6.298   7.863  -6.387  1.00  0.00    -0.248 NA
ATOM     34  C   UNL     1       6.120   7.841  -8.715  1.00  0.00     0.031 C 
ATOM     35  C   UNL     1       7.993  11.239  -4.036  1.00  0.00     0.029 A 
ATOM     36  C   UNL     1       7.457  10.204  -4.787  1.00  0.00     0.049 A 
ATOM     37  H   UNL     1       6.599   8.393  -4.130  1.00  0.00     0.167 HD
ATOM     38  C   UNL     1       6.807   9.050  -6.890  1.00  0.00     0.074 A 
ATOM     39  C   UNL     1       6.683   8.980  -8.332  1.00  0.00     0.031 C 
ATOM     40  C   UNL     1       7.338  10.100  -6.218  1.00  0.00     0.037 A 
BRANCH  27  41
ATOM     41  C   UNL     1       7.292   9.463  -0.067  1.00  0.00     0.064 A 
ATOM     42  C   UNL     1       8.365   8.960   0.683  1.00  0.00     0.173 A 
ATOM     43  C   UNL     1       6.506  10.476   0.498  1.00  0.00     0.173 A 
ATOM     44  F   UNL     1       9.127   7.970   0.192  1.00  0.00    -0.203 F 
ATOM     45  C   UNL     1       8.621   9.432   1.967  1.00  0.00     0.198 A 
ATOM     46  C   UNL     1       6.777  10.959   1.776  1.00  0.00     0.198 A 
ATOM     47  F   UNL     1       5.465  10.981  -0.178  1.00  0.00    -0.203 F 
ATOM     48  F   UNL     1       9.617   8.900   2.689  1.00  0.00    -0.200 F 
ATOM     49  C   UNL     1       7.827  10.431   2.512  1.00  0.00     0.200 A 
ATOM     50  F   UNL     1       6.007  11.921   2.304  1.00  0.00    -0.200 F 
ATOM     51  F   UNL     1       8.064  10.872   3.755  1.00  0.00    -0.200 F 
ENDBRANCH  27  41
BRANCH  28  52
ATOM     52  C   UNL     1       4.912   5.153  -8.748  1.00  0.00     0.064 A 
ATOM     53  C   UNL     1       5.857   4.667  -9.659  1.00  0.00     0.173 A 
ATOM     54  C   UNL     1       3.553   4.985  -9.061  1.00  0.00     0.173 A 
ATOM     55  F   UNL     1       7.165   4.817  -9.410  1.00  0.00    -0.203 F 
ATOM     56  C   UNL     1       5.460   4.036 -10.837  1.00  0.00     0.198 A 
ATOM     57  C   UNL     1       3.158   4.336 -10.228  1.00  0.00     0.198 A 
ATOM     58  F   UNL     1       2.610   5.425  -8.215  1.00  0.00    -0.203 F 
ATOM     59  F   UNL     1       6.383   3.592 -11.701  1.00  0.00    -0.200 F 
ATOM     60  C   UNL     1       4.111   3.864 -11.117  1.00  0.00     0.200 A 
ATOM     61  F   UNL     1       1.855   4.155 -10.482  1.00  0.00    -0.200 F 
ATOM     62  F   UNL     1       3.731   3.241 -12.240  1.00  0.00    -0.200 F 
ENDBRANCH  28  52
BRANCH  40  63
ATOM     63  C   UNL     1       7.865  11.237  -7.035  1.00  0.00     0.064 A 
ATOM     64  C   UNL     1       7.012  12.214  -7.562  1.00  0.00     0.173 A 
ATOM     65  C   UNL     1       9.245  11.378  -7.240  1.00  0.00     0.173 A 
ATOM     66  F   UNL     1       5.684  12.109  -7.402  1.00  0.00    -0.203 F 
ATOM     67  C   UNL     1       7.523  13.295  -8.275  1.00  0.00     0.198 A 
ATOM     68  C   UNL     1       9.754  12.467  -7.941  1.00  0.00     0.198 A 
ATOM     69  F   UNL     1      10.098  10.464  -6.752  1.00  0.00    -0.203 F 
ATOM     70  F   UNL     1       6.691  14.211  -8.790  1.00  0.00    -0.200 F 
ATOM     71  C   UNL     1       8.893  13.424  -8.457  1.00  0.00     0.200 A 
ATOM     72  F   UNL     1      11.077  12.592  -8.114  1.00  0.00    -0.200 F 
ATOM     73  F   UNL     1       9.384  14.469  -9.137  1.00  0.00    -0.200 F 
ENDBRANCH  40  63
ENDBRANCH  14  15
ENDBRANCH   7   9
ENDBRANCH   6   7
ENDBRANCH   5   6
ENDBRANCH   4   5
ENDBRANCH   3   4
ENDBRANCH   2   3
ENDBRANCH   1   2
BRANCH   1  74
ATOM     74  O   UNL     1       2.543  -4.013  -1.974  1.00  0.00    -0.376 OA
BRANCH  74  75
ATOM     75  C   UNL     1       3.940  -3.966  -2.261  1.00  0.00     0.202 C 
BRANCH  75  76
ATOM     76  C   UNL     1       4.254  -3.513  -3.684  1.00  0.00     0.261 C 
BRANCH  76  77
ATOM     77  O   UNL     1       3.707  -2.218  -3.975  1.00  0.00    -0.457 OA
BRANCH  77  78
ATOM     78  C   UNL     1       3.613  -1.959  -5.309  1.00  0.00     0.374 C 
ATOM     79  O   UNL     1       4.050  -2.700  -6.188  1.00  0.00    -0.242 OA
BRANCH  78  80
ATOM     80  C   UNL     1       2.960  -0.697  -5.573  1.00  0.00     0.211 A 
ATOM     81  C   UNL     1       2.901   0.013  -6.759  1.00  0.00     0.058 A 
ATOM     82  O   UNL     1       2.217  -0.047  -4.618  1.00  0.00    -0.450 OA
ATOM     83  C   UNL     1       2.076   1.133  -6.533  1.00  0.00     0.050 A 
ATOM     84  C   UNL     1       1.651   1.044  -5.223  1.00  0.00     0.142 A 
BRANCH  84  85
ATOM     85  C   UNL     1       0.685   1.864  -4.438  1.00  0.00     0.304 C 
BRANCH  85  86
ATOM     86  O   UNL     1      -0.550   1.139  -4.269  1.00  0.00    -0.484 OA
BRANCH  86  87
ATOM     87  C   UNL     1      -1.268   1.018  -5.434  1.00  0.00     0.140 A 
ATOM     88  C   UNL     1      -1.149  -0.198  -6.117  1.00  0.00     0.048 A 
ATOM     89  C   UNL     1      -2.145   2.008  -5.898  1.00  0.00     0.101 A 
ATOM     90  C   UNL     1      -1.840  -0.408  -7.306  1.00  0.00     0.005 A 
ATOM     91  C   UNL     1      -2.851   1.784  -7.090  1.00  0.00     0.063 A 
ATOM     92  Cl  UNL     1      -2.356   3.469  -4.990  1.00  0.00    -0.079 Cl
ATOM     93  C   UNL     1      -2.688   0.584  -7.795  1.00  0.00     0.022 A 
ATOM     94  Cl  UNL     1      -3.949   2.944  -7.754  1.00  0.00    -0.083 Cl
ENDBRANCH  86  87
ENDBRANCH  85  86
ENDBRANCH  84  85
ENDBRANCH  78  80
ENDBRANCH  77  78
ENDBRANCH  76  77
ENDBRANCH  75  76
ENDBRANCH  74  75
ENDBRANCH   1  74
TORSDOF 20
