REMARK SMILES C#CCN(CC(=O)OCCOCCOCCOC(=O)c1ccc(-c2c3nc(c(-c4c(F)c(F)c(F)c(F)c4F)c4ccc([nH]4)c(-c4c(F)c(F)c(F)c(F)c4F)c4nc(c(-c5c(F)c(F)c(F)c(F)c5F)c5ccc2[nH]5)C=C4)C=C3)cc1)C(=O)N1CC[N@@H+]2CCC[C@H]2C1
REMARK SMILES IDX 12 1 11 2 10 3 9 4 8 5 6 6 7 7 5 8 4 9 3 10 2 11 1 12 83 13
REMARK SMILES IDX 84 14 85 15 86 16 93 17 87 18 92 19 88 20 91 21 89 22 90 24
REMARK SMILES IDX 13 25 14 26 15 27 16 28 17 29 18 30 19 31 20 32 21 33 82 34
REMARK SMILES IDX 22 35 81 36 23 37 24 38 25 39 75 40 26 41 80 42 74 43 76 44
REMARK SMILES IDX 27 45 79 46 73 47 72 48 28 50 60 51 40 52 59 53 41 54 44 55
REMARK SMILES IDX 58 56 77 57 42 58 43 59 57 61 78 62 45 63 29 64 30 65 38 66
REMARK SMILES IDX 31 67 32 68 36 69 39 70 33 71 34 72 37 73 35 74 61 75 62 76
REMARK SMILES IDX 70 77 63 78 64 79 68 80 71 81 65 82 66 83 69 84 67 85 46 86
REMARK SMILES IDX 47 87 55 88 48 89 49 90 53 91 56 92 50 93 51 94 54 95 52 96
REMARK H PARENT 88 23 76 49 44 60
REMARK Flexibility Score: inf
ROOT
ATOM      1  C   UNL     1      -6.179   2.664   1.975  1.00  0.00     0.188 C 
ENDROOT
BRANCH   1   2
ATOM      2  O   UNL     1      -7.565   2.568   1.848  1.00  0.00    -0.376 OA
BRANCH   2   3
ATOM      3  C   UNL     1      -7.992   1.483   1.067  1.00  0.00     0.202 C 
BRANCH   3   4
ATOM      4  C   UNL     1      -7.185   1.020  -0.195  1.00  0.00     0.261 C 
BRANCH   4   5
ATOM      5  O   UNL     1      -5.707   0.985  -0.178  1.00  0.00    -0.462 OA
BRANCH   5   6
ATOM      6  C   UNL     1      -4.987   1.759  -1.038  1.00  0.00     0.325 C 
ATOM      7  O   UNL     1      -5.524   2.448  -1.904  1.00  0.00    -0.250 OA
BRANCH   6   8
ATOM      8  C   UNL     1      -3.395   1.721  -0.912  1.00  0.00     0.245 C 
BRANCH   8   9
ATOM      9  N   UNL     1      -2.516   1.205   0.208  1.00  0.00    -0.302 N 
BRANCH   9  10
ATOM     10  C   UNL     1      -1.799   0.026  -0.093  1.00  0.00     0.211 C 
BRANCH  10  11
ATOM     11  C   UNL     1      -0.279   0.026  -0.093  1.00  0.00    -0.085 C 
ATOM     12  C   UNL     1       1.024   0.026  -0.093  1.00  0.00     0.006 C 
ENDBRANCH  10  11
ENDBRANCH   9  10
BRANCH   9  13
ATOM     13  C   UNL     1      -2.041   1.678   1.411  1.00  0.00     0.321 C 
ATOM     14  O   UNL     1      -1.362   0.992   2.181  1.00  0.00    -0.248 OA
BRANCH  13  15
ATOM     15  N   UNL     1      -2.210   2.970   1.744  1.00  0.00    -0.313 N 
ATOM     16  C   UNL     1      -3.589   3.716   1.370  1.00  0.00     0.183 C 
ATOM     17  C   UNL     1      -0.910   3.608   2.687  1.00  0.00     0.186 C 
ATOM     18  C   UNL     1      -4.016   5.341   1.554  1.00  0.00     0.284 C 
ATOM     19  C   UNL     1      -0.987   5.464   2.849  1.00  0.00     0.204 C 
ATOM     20  N   UNL     1      -2.855   6.359   2.390  1.00  0.00    -0.330 N 
ATOM     21  C   UNL     1      -0.795   6.404   3.701  1.00  0.00     0.073 C 
ATOM     22  C   UNL     1      -3.315   7.611   2.002  1.00  0.00     0.262 C 
ATOM     23  H   UNL     1      -2.651   6.542   3.373  1.00  0.00     0.348 HD
ATOM     24  C   UNL     1      -2.629   7.513   3.252  1.00  0.00     0.068 C 
ENDBRANCH  13  15
ENDBRANCH   9  13
ENDBRANCH   8   9
ENDBRANCH   6   8
ENDBRANCH   5   6
ENDBRANCH   4   5
ENDBRANCH   3   4
ENDBRANCH   2   3
ENDBRANCH   1   2
BRANCH   1  25
ATOM     25  C   UNL     1      -5.383   1.417   2.486  1.00  0.00     0.188 C 
BRANCH  25  26
ATOM     26  O   UNL     1      -6.088   0.830   3.548  1.00  0.00    -0.376 OA
BRANCH  26  27
ATOM     27  C   UNL     1      -5.443   1.085   4.787  1.00  0.00     0.202 C 
BRANCH  27  28
ATOM     28  C   UNL     1      -5.199   2.575   5.168  1.00  0.00     0.261 C 
BRANCH  28  29
ATOM     29  O   UNL     1      -4.523   3.470   4.216  1.00  0.00    -0.460 OA
BRANCH  29  30
ATOM     30  C   UNL     1      -3.177   3.647   4.264  1.00  0.00     0.338 C 
ATOM     31  O   UNL     1      -2.477   3.110   5.112  1.00  0.00    -0.246 OA
BRANCH  30  32
ATOM     32  C   UNL     1      -2.626   4.850   3.382  1.00  0.00     0.060 A 
ATOM     33  C   UNL     1      -1.926   5.178   1.476  1.00  0.00     0.016 A 
ATOM     34  C   UNL     1      -2.380   6.151   4.792  1.00  0.00     0.016 A 
ATOM     35  C   UNL     1      -1.038   6.872   1.375  1.00  0.00     0.010 A 
ATOM     36  C   UNL     1      -1.410   7.832   4.618  1.00  0.00     0.010 A 
ATOM     37  C   UNL     1      -0.796   8.124   2.784  1.00  0.00    -0.014 A 
BRANCH  37  38
ATOM     38  C   UNL     1      -0.096   9.329   2.338  1.00  0.00     0.031 A 
ATOM     39  C   UNL     1       0.931   9.812   3.286  1.00  0.00     0.074 A 
ATOM     40  C   UNL     1      -0.477   9.921   1.179  1.00  0.00     0.049 A 
ATOM     41  N   UNL     1       1.475  10.984   3.352  1.00  0.00    -0.248 NA
ATOM     42  C   UNL     1       1.407   8.882   4.330  1.00  0.00     0.031 C 
ATOM     43  C   UNL     1      -1.361   9.397   0.124  1.00  0.00     0.029 A 
ATOM     44  N   UNL     1      -0.226  11.174   0.699  1.00  0.00    -0.354 N 
ATOM     45  C   UNL     1       2.333  10.908   4.434  1.00  0.00     0.074 A 
ATOM     46  C   UNL     1       2.109   9.670   5.115  1.00  0.00     0.031 C 
ATOM     47  C   UNL     1      -1.739  10.341  -0.734  1.00  0.00     0.029 A 
ATOM     48  C   UNL     1      -1.036  11.528  -0.366  1.00  0.00     0.049 A 
ATOM     49  H   UNL     1       0.463  11.768   1.074  1.00  0.00     0.167 HD
ATOM     50  C   UNL     1       3.315  11.771   4.736  1.00  0.00     0.037 A 
ATOM     51  C   UNL     1      -1.173  12.692  -1.009  1.00  0.00     0.037 A 
ATOM     52  C   UNL     1       3.481  12.957   3.957  1.00  0.00     0.049 A 
ATOM     53  C   UNL     1      -0.177  13.703  -0.573  1.00  0.00     0.074 A 
ATOM     54  C   UNL     1       4.374  13.986   4.117  1.00  0.00     0.029 A 
ATOM     55  N   UNL     1       2.688  13.258   2.845  1.00  0.00    -0.354 N 
ATOM     56  N   UNL     1       0.650  13.629   0.446  1.00  0.00    -0.248 NA
ATOM     57  C   UNL     1      -0.045  14.892  -1.399  1.00  0.00     0.031 C 
ATOM     58  C   UNL     1       4.059  14.952   3.156  1.00  0.00     0.029 A 
ATOM     59  C   UNL     1       3.036  14.485   2.334  1.00  0.00     0.049 A 
ATOM     60  H   UNL     1       1.983  12.675   2.481  1.00  0.00     0.167 HD
ATOM     61  C   UNL     1       1.455  14.736   0.362  1.00  0.00     0.074 A 
ATOM     62  C   UNL     1       1.004  15.462  -0.823  1.00  0.00     0.031 C 
ATOM     63  C   UNL     1       2.476  15.124   1.165  1.00  0.00     0.037 A 
BRANCH  50  64
ATOM     64  C   UNL     1       4.161  11.434   5.924  1.00  0.00     0.064 A 
ATOM     65  C   UNL     1       4.981  10.289   5.965  1.00  0.00     0.173 A 
ATOM     66  C   UNL     1       4.034  12.184   7.098  1.00  0.00     0.173 A 
ATOM     67  F   UNL     1       5.084   9.489   4.892  1.00  0.00    -0.203 F 
ATOM     68  C   UNL     1       5.607   9.893   7.146  1.00  0.00     0.198 A 
ATOM     69  C   UNL     1       4.693  11.808   8.265  1.00  0.00     0.198 A 
ATOM     70  F   UNL     1       3.224  13.253   7.130  1.00  0.00    -0.203 F 
ATOM     71  F   UNL     1       6.296   8.743   7.187  1.00  0.00    -0.200 F 
ATOM     72  C   UNL     1       5.469  10.658   8.292  1.00  0.00     0.200 A 
ATOM     73  F   UNL     1       4.546  12.541   9.377  1.00  0.00    -0.200 F 
ATOM     74  F   UNL     1       6.061  10.274   9.432  1.00  0.00    -0.200 F 
ENDBRANCH  50  64
BRANCH  51  75
ATOM     75  C   UNL     1      -2.106  12.825  -2.162  1.00  0.00     0.064 A 
ATOM     76  C   UNL     1      -1.625  12.868  -3.477  1.00  0.00     0.173 A 
ATOM     77  C   UNL     1      -3.502  12.794  -1.992  1.00  0.00     0.173 A 
ATOM     78  F   UNL     1      -0.304  12.832  -3.705  1.00  0.00    -0.203 F 
ATOM     79  C   UNL     1      -2.492  12.941  -4.569  1.00  0.00     0.198 A 
ATOM     80  C   UNL     1      -4.370  12.843  -3.086  1.00  0.00     0.198 A 
ATOM     81  F   UNL     1      -4.028  12.671  -0.764  1.00  0.00    -0.203 F 
ATOM     82  F   UNL     1      -1.995  13.012  -5.811  1.00  0.00    -0.200 F 
ATOM     83  C   UNL     1      -3.864  12.934  -4.373  1.00  0.00     0.200 A 
ATOM     84  F   UNL     1      -5.696  12.787  -2.895  1.00  0.00    -0.200 F 
ATOM     85  F   UNL     1      -4.695  13.004  -5.422  1.00  0.00    -0.200 F 
ENDBRANCH  51  75
BRANCH  63  86
ATOM     86  C   UNL     1       3.120  16.398   0.763  1.00  0.00     0.064 A 
ATOM     87  C   UNL     1       2.442  17.615   0.893  1.00  0.00     0.173 A 
ATOM     88  C   UNL     1       4.440  16.392   0.299  1.00  0.00     0.173 A 
ATOM     89  F   UNL     1       1.168  17.641   1.317  1.00  0.00    -0.203 F 
ATOM     90  C   UNL     1       3.061  18.797   0.528  1.00  0.00     0.198 A 
ATOM     91  C   UNL     1       5.074  17.583  -0.005  1.00  0.00     0.198 A 
ATOM     92  F   UNL     1       5.114  15.238   0.175  1.00  0.00    -0.203 F 
ATOM     93  F   UNL     1       2.377  19.947   0.579  1.00  0.00    -0.200 F 
ATOM     94  C   UNL     1       4.380  18.781   0.096  1.00  0.00     0.200 A 
ATOM     95  F   UNL     1       6.357  17.573  -0.390  1.00  0.00    -0.200 F 
ATOM     96  F   UNL     1       4.985  19.930  -0.232  1.00  0.00    -0.200 F 
ENDBRANCH  63  86
ENDBRANCH  37  38
ENDBRANCH  30  32
ENDBRANCH  29  30
ENDBRANCH  28  29
ENDBRANCH  27  28
ENDBRANCH  26  27
ENDBRANCH  25  26
ENDBRANCH   1  25
TORSDOF 22
