REMARK SMILES O=C(Cc1cc[nH]n1)Nc1nc(CC(=O)OCCOCCOCCOC(=O)c2ccc(-c3c4nc(c(-c5c(F)c(F)c(F)c(F)c5F)c5ccc([nH]5)c(-c5c(F)c(F)c(F)c(F)c5F)c5nc(c(-c6c(F)c(F)c(F)c(F)c6F)c6ccc3[nH]6)C=C5)C=C4)cc2)cs1
REMARK SMILES IDX 20 1 19 2 18 3 17 4 16 5 14 6 15 7 13 8 12 9 10 10 11 11
REMARK SMILES IDX 92 12 91 13 9 14 1 15 2 16 3 18 4 19 5 20 8 21 6 22 7 23
REMARK SMILES IDX 21 25 22 26 23 27 24 28 25 29 26 30 27 31 28 32 29 33 90 34
REMARK SMILES IDX 30 35 89 36 31 37 32 38 33 39 83 40 34 41 88 42 82 43 84 44
REMARK SMILES IDX 35 45 87 46 81 47 80 48 36 50 68 51 48 52 67 53 49 54 52 55
REMARK SMILES IDX 66 56 85 57 50 58 51 59 65 61 86 62 53 63 37 64 38 65 46 66
REMARK SMILES IDX 39 67 40 68 44 69 47 70 41 71 42 72 45 73 43 74 69 75 70 76
REMARK SMILES IDX 78 77 71 78 72 79 76 80 79 81 73 82 74 83 77 84 75 85 54 86
REMARK SMILES IDX 55 87 63 88 56 89 57 90 61 91 64 92 58 93 59 94 62 95 60 96
REMARK H PARENT 9 17 7 24 84 49 52 60
REMARK Flexibility Score: inf
ROOT
ATOM      1  C   UNL     1       1.064  -5.284  -6.075  1.00  0.00     0.188 C 
ENDROOT
BRANCH   1   2
ATOM      2  O   UNL     1       1.012  -4.957  -7.460  1.00  0.00    -0.376 OA
BRANCH   2   3
ATOM      3  C   UNL     1       1.507  -3.696  -7.892  1.00  0.00     0.202 C 
BRANCH   3   4
ATOM      4  C   UNL     1       0.795  -2.443  -7.360  1.00  0.00     0.261 C 
BRANCH   4   5
ATOM      5  O   UNL     1       0.747  -2.306  -5.917  1.00  0.00    -0.463 OA
BRANCH   5   6
ATOM      6  C   UNL     1      -0.488  -2.220  -5.362  1.00  0.00     0.311 C 
ATOM      7  O   UNL     1      -1.525  -2.256  -6.025  1.00  0.00    -0.252 OA
BRANCH   6   8
ATOM      8  C   UNL     1      -0.577  -2.087  -3.856  1.00  0.00     0.179 C 
BRANCH   8   9
ATOM      9  C   UNL     1       0.616  -2.262  -2.965  1.00  0.00     0.065 A 
ATOM     10  C   UNL     1       2.108  -1.483  -1.520  1.00  0.00     0.189 A 
ATOM     11  N   UNL     1       1.242  -1.135  -2.441  1.00  0.00    -0.224 NA
ATOM     12  S   UNL     1       2.378  -3.157  -1.339  1.00  0.00    -0.105 S 
ATOM     13  C   UNL     1       1.032  -3.442  -2.366  1.00  0.00     0.093 A 
BRANCH  10  14
ATOM     14  N   UNL     1       2.791  -0.709  -0.627  1.00  0.00    -0.302 N 
ATOM     15  O   UNL     1       1.225   0.997  -0.544  1.00  0.00    -0.274 OA
ATOM     16  C   UNL     1       2.305   0.508  -0.212  1.00  0.00     0.232 C 
ATOM     17  H   UNL     1       3.651  -1.030  -0.272  1.00  0.00     0.172 HD
BRANCH  16  18
ATOM     18  C   UNL     1       3.244   1.306   0.676  1.00  0.00     0.158 C 
BRANCH  18  19
ATOM     19  C   UNL     1       4.000   0.570   1.739  1.00  0.00     0.071 A 
ATOM     20  C   UNL     1       4.779   1.170   2.762  1.00  0.00     0.045 A 
ATOM     21  N   UNL     1       4.057  -0.770   1.810  1.00  0.00    -0.180 NA
ATOM     22  C   UNL     1       5.283   0.124   3.493  1.00  0.00     0.105 A 
ATOM     23  N   UNL     1       4.799  -1.008   2.910  1.00  0.00    -0.285 N 
ATOM     24  H   UNL     1       4.975  -1.912   3.258  1.00  0.00     0.189 HD
ENDBRANCH  18  19
ENDBRANCH  16  18
ENDBRANCH  10  14
ENDBRANCH   8   9
ENDBRANCH   6   8
ENDBRANCH   5   6
ENDBRANCH   4   5
ENDBRANCH   3   4
ENDBRANCH   2   3
ENDBRANCH   1   2
BRANCH   1  25
ATOM     25  C   UNL     1       2.194  -4.706  -5.212  1.00  0.00     0.188 C 
BRANCH  25  26
ATOM     26  O   UNL     1       3.357  -4.408  -5.955  1.00  0.00    -0.376 OA
BRANCH  26  27
ATOM     27  C   UNL     1       4.572  -4.914  -5.447  1.00  0.00     0.202 C 
BRANCH  27  28
ATOM     28  C   UNL     1       4.747  -6.401  -5.766  1.00  0.00     0.261 C 
BRANCH  28  29
ATOM     29  O   UNL     1       3.669  -7.253  -5.329  1.00  0.00    -0.460 OA
BRANCH  29  30
ATOM     30  C   UNL     1       3.537  -7.440  -4.001  1.00  0.00     0.338 C 
ATOM     31  O   UNL     1       4.236  -6.960  -3.114  1.00  0.00    -0.246 OA
BRANCH  30  32
ATOM     32  C   UNL     1       2.280  -8.174  -3.756  1.00  0.00     0.060 A 
ATOM     33  C   UNL     1       1.308  -7.607  -2.920  1.00  0.00     0.016 A 
ATOM     34  C   UNL     1       2.071  -9.432  -4.324  1.00  0.00     0.016 A 
ATOM     35  C   UNL     1       0.140  -8.312  -2.620  1.00  0.00     0.010 A 
ATOM     36  C   UNL     1       0.912 -10.146  -4.006  1.00  0.00     0.010 A 
ATOM     37  C   UNL     1      -0.043  -9.606  -3.124  1.00  0.00    -0.014 A 
BRANCH  37  38
ATOM     38  C   UNL     1      -1.109 -10.479  -2.572  1.00  0.00     0.031 A 
ATOM     39  C   UNL     1      -0.729 -11.498  -1.532  1.00  0.00     0.074 A 
ATOM     40  C   UNL     1      -2.389 -10.374  -2.970  1.00  0.00     0.049 A 
ATOM     41  N   UNL     1      -1.451 -12.435  -0.973  1.00  0.00    -0.248 NA
ATOM     42  C   UNL     1       0.665 -11.452  -1.062  1.00  0.00     0.031 C 
ATOM     43  C   UNL     1      -2.901  -9.394  -3.924  1.00  0.00     0.029 A 
ATOM     44  N   UNL     1      -3.491 -11.116  -2.622  1.00  0.00    -0.354 N 
ATOM     45  C   UNL     1      -0.597 -13.100  -0.102  1.00  0.00     0.074 A 
ATOM     46  C   UNL     1       0.704 -12.479  -0.228  1.00  0.00     0.031 C 
ATOM     47  C   UNL     1      -4.219  -9.601  -4.094  1.00  0.00     0.029 A 
ATOM     48  C   UNL     1      -4.632 -10.755  -3.295  1.00  0.00     0.049 A 
ATOM     49  H   UNL     1      -3.466 -11.839  -1.954  1.00  0.00     0.167 HD
ATOM     50  C   UNL     1      -0.873 -14.129   0.735  1.00  0.00     0.037 A 
ATOM     51  C   UNL     1      -5.860 -11.311  -3.286  1.00  0.00     0.037 A 
ATOM     52  C   UNL     1      -2.167 -14.747   0.857  1.00  0.00     0.049 A 
ATOM     53  C   UNL     1      -6.123 -12.514  -2.413  1.00  0.00     0.074 A 
ATOM     54  C   UNL     1      -2.550 -15.795   1.674  1.00  0.00     0.029 A 
ATOM     55  N   UNL     1      -3.290 -14.374   0.132  1.00  0.00    -0.354 N 
ATOM     56  N   UNL     1      -5.314 -13.138  -1.591  1.00  0.00    -0.248 NA
ATOM     57  C   UNL     1      -7.475 -13.089  -2.469  1.00  0.00     0.031 C 
ATOM     58  C   UNL     1      -3.890 -16.094   1.403  1.00  0.00     0.029 A 
ATOM     59  C   UNL     1      -4.361 -15.187   0.467  1.00  0.00     0.049 A 
ATOM     60  H   UNL     1      -3.321 -13.640  -0.524  1.00  0.00     0.167 HD
ATOM     61  C   UNL     1      -6.067 -14.148  -1.003  1.00  0.00     0.074 A 
ATOM     62  C   UNL     1      -7.400 -14.050  -1.560  1.00  0.00     0.031 C 
ATOM     63  C   UNL     1      -5.689 -15.068  -0.081  1.00  0.00     0.037 A 
BRANCH  50  64
ATOM     64  C   UNL     1       0.263 -14.674   1.553  1.00  0.00     0.064 A 
ATOM     65  C   UNL     1       0.850 -13.936   2.593  1.00  0.00     0.173 A 
ATOM     66  C   UNL     1       0.770 -15.958   1.296  1.00  0.00     0.173 A 
ATOM     67  F   UNL     1       0.416 -12.697   2.870  1.00  0.00    -0.203 F 
ATOM     68  C   UNL     1       1.924 -14.446   3.318  1.00  0.00     0.198 A 
ATOM     69  C   UNL     1       1.820 -16.479   2.046  1.00  0.00     0.198 A 
ATOM     70  F   UNL     1       0.245 -16.709   0.316  1.00  0.00    -0.203 F 
ATOM     71  F   UNL     1       2.509 -13.697   4.262  1.00  0.00    -0.200 F 
ATOM     72  C   UNL     1       2.404 -15.719   3.048  1.00  0.00     0.200 A 
ATOM     73  F   UNL     1       2.274 -17.714   1.793  1.00  0.00    -0.200 F 
ATOM     74  F   UNL     1       3.437 -16.209   3.747  1.00  0.00    -0.200 F 
ENDBRANCH  50  64
BRANCH  51  75
ATOM     75  C   UNL     1      -6.942 -10.743  -4.135  1.00  0.00     0.064 A 
ATOM     76  C   UNL     1      -8.059 -10.122  -3.560  1.00  0.00     0.173 A 
ATOM     77  C   UNL     1      -6.893 -10.830  -5.534  1.00  0.00     0.173 A 
ATOM     78  F   UNL     1      -8.168 -10.042  -2.225  1.00  0.00    -0.203 F 
ATOM     79  C   UNL     1      -9.094  -9.624  -4.350  1.00  0.00     0.198 A 
ATOM     80  C   UNL     1      -7.914 -10.305  -6.325  1.00  0.00     0.198 A 
ATOM     81  F   UNL     1      -5.850 -11.421  -6.135  1.00  0.00    -0.203 F 
ATOM     82  F   UNL     1     -10.174  -9.082  -3.772  1.00  0.00    -0.200 F 
ATOM     83  C   UNL     1      -9.017  -9.710  -5.732  1.00  0.00     0.200 A 
ATOM     84  F   UNL     1      -7.831 -10.381  -7.660  1.00  0.00    -0.200 F 
ATOM     85  F   UNL     1     -10.011  -9.229  -6.492  1.00  0.00    -0.200 F 
ENDBRANCH  51  75
BRANCH  63  86
ATOM     86  C   UNL     1      -6.744 -16.006   0.439  1.00  0.00     0.064 A 
ATOM     87  C   UNL     1      -7.294 -17.023  -0.355  1.00  0.00     0.173 A 
ATOM     88  C   UNL     1      -7.180 -15.907   1.770  1.00  0.00     0.173 A 
ATOM     89  F   UNL     1      -6.922 -17.156  -1.637  1.00  0.00    -0.203 F 
ATOM     90  C   UNL     1      -8.263 -17.885   0.155  1.00  0.00     0.198 A 
ATOM     91  C   UNL     1      -8.122 -16.792   2.287  1.00  0.00     0.198 A 
ATOM     92  F   UNL     1      -6.680 -14.959   2.577  1.00  0.00    -0.203 F 
ATOM     93  F   UNL     1      -8.813 -18.816  -0.637  1.00  0.00    -0.200 F 
ATOM     94  C   UNL     1      -8.670 -17.774   1.477  1.00  0.00     0.200 A 
ATOM     95  F   UNL     1      -8.500 -16.694   3.569  1.00  0.00    -0.200 F 
ATOM     96  F   UNL     1      -9.595 -18.610   1.967  1.00  0.00    -0.200 F 
ENDBRANCH  63  86
ENDBRANCH  37  38
ENDBRANCH  30  32
ENDBRANCH  29  30
ENDBRANCH  28  29
ENDBRANCH  27  28
ENDBRANCH  26  27
ENDBRANCH  25  26
ENDBRANCH   1  25
TORSDOF 21
