REMARK SMILES COc1ccc(CCc2nnc(NC(=O)[C@@H]3[C@@H](C(=O)OCCOCCOCCOC(=O)c4ccc(-c5c6nc(c(-c7c(F)c(F)c(F)c(F)c7F)c7ccc([nH]7)c(-c7c(F)c(F)c(F)c(F)c7F)c7nc(c(-c8c(F)c(F)c(F)c(F)c8F)c8ccc5[nH]8)C=C7)C=C6)cc4)C3(C)C)s2)cc1
REMARK SMILES IDX 22 1 21 2 20 3 18 4 19 5 17 6 16 7 95 8 96 9 97 10 14 11
REMARK SMILES IDX 13 12 15 14 12 15 9 16 10 17 98 18 11 19 8 20 7 21 6 22 3 23
REMARK SMILES IDX 4 24 100 25 5 26 99 27 2 28 1 29 23 30 24 31 25 32 26 33
REMARK SMILES IDX 27 34 28 35 29 36 30 37 31 38 32 39 33 40 94 41 34 42 93 43
REMARK SMILES IDX 35 44 36 45 37 46 87 47 38 48 92 49 86 50 88 51 39 52 91 53
REMARK SMILES IDX 85 54 84 55 40 57 72 58 52 59 71 60 53 61 56 62 70 63 89 64
REMARK SMILES IDX 54 65 55 66 69 68 90 69 57 70 41 71 42 72 50 73 43 74 44 75
REMARK SMILES IDX 48 76 51 77 45 78 46 79 49 80 47 81 73 82 74 83 82 84 75 85
REMARK SMILES IDX 76 86 80 87 83 88 77 89 78 90 81 91 79 92 58 93 59 94 67 95
REMARK SMILES IDX 60 96 61 97 65 98 68 99 62 100 63 101 66 102 64 103
REMARK H PARENT 13 13 88 56 56 67
REMARK Flexibility Score: inf
ROOT
ATOM      1  C   UNL     1      -0.985   3.772  -3.792  1.00  0.00     0.202 C 
ENDROOT
BRANCH   1   2
ATOM      2  C   UNL     1      -1.791   3.949  -5.085  1.00  0.00     0.261 C 
BRANCH   2   3
ATOM      3  O   UNL     1      -2.511   2.767  -5.480  1.00  0.00    -0.463 OA
BRANCH   3   4
ATOM      4  C   UNL     1      -2.259   2.345  -6.748  1.00  0.00     0.310 C 
ATOM      5  O   UNL     1      -1.544   2.902  -7.554  1.00  0.00    -0.252 OA
BRANCH   4   6
ATOM      6  C   UNL     1      -2.813   1.008  -7.090  1.00  0.00     0.118 C 
ATOM      7  C   UNL     1      -4.230   1.002  -7.636  1.00  0.00     0.100 C 
ATOM      8  C   UNL     1      -3.861   0.068  -6.513  1.00  0.00    -0.009 C 
ATOM      9  C   UNL     1      -4.638   0.327  -5.238  1.00  0.00     0.013 C 
ATOM     10  C   UNL     1      -3.666  -1.407  -6.784  1.00  0.00     0.013 C 
BRANCH   7  11
ATOM     11  C   UNL     1      -4.349   0.768  -9.096  1.00  0.00     0.230 C 
ATOM     12  N   UNL     1      -4.682   1.835  -9.901  1.00  0.00    -0.300 N 
ATOM     13  H   UNL     1      -4.854   1.659 -10.854  1.00  0.00     0.172 HD
ATOM     14  O   UNL     1      -4.193  -0.353  -9.570  1.00  0.00    -0.274 OA
BRANCH  12  15
ATOM     15  C   UNL     1      -4.788   3.126  -9.457  1.00  0.00     0.212 A 
ATOM     16  C   UNL     1      -5.606   5.311  -9.107  1.00  0.00     0.119 A 
ATOM     17  N   UNL     1      -4.860   4.899  -8.106  1.00  0.00    -0.142 NA
ATOM     18  S   UNL     1      -5.626   4.226 -10.455  1.00  0.00    -0.080 S 
ATOM     19  N   UNL     1      -4.395   3.631  -8.314  1.00  0.00    -0.120 NA
BRANCH  16  20
ATOM     20  C   UNL     1      -6.408   6.566  -9.064  1.00  0.00     0.074 C 
BRANCH  20  21
ATOM     21  C   UNL     1      -7.913   6.319  -8.892  1.00  0.00     0.043 C 
BRANCH  21  22
ATOM     22  C   UNL     1      -8.352   5.697  -7.582  1.00  0.00    -0.047 A 
ATOM     23  C   UNL     1      -9.308   4.524  -5.208  1.00  0.00     0.118 A 
ATOM     24  C   UNL     1      -8.655   3.744  -6.157  1.00  0.00     0.046 A 
ATOM     25  C   UNL     1      -9.445   5.895  -5.412  1.00  0.00     0.046 A 
ATOM     26  C   UNL     1      -8.198   4.323  -7.344  1.00  0.00     0.007 A 
ATOM     27  C   UNL     1      -8.967   6.479  -6.593  1.00  0.00     0.007 A 
BRANCH  23  28
ATOM     28  O   UNL     1      -9.736   3.888  -4.075  1.00  0.00    -0.497 OA
ATOM     29  C   UNL     1     -11.115   4.127  -3.799  1.00  0.00     0.278 C 
ENDBRANCH  23  28
ENDBRANCH  21  22
ENDBRANCH  20  21
ENDBRANCH  16  20
ENDBRANCH  12  15
ENDBRANCH   7  11
ENDBRANCH   4   6
ENDBRANCH   3   4
ENDBRANCH   2   3
ENDBRANCH   1   2
BRANCH   1  30
ATOM     30  O   UNL     1       0.021   2.761  -3.747  1.00  0.00    -0.376 OA
BRANCH  30  31
ATOM     31  C   UNL     1      -0.313   1.424  -4.104  1.00  0.00     0.188 C 
BRANCH  31  32
ATOM     32  C   UNL     1      -1.622   0.811  -3.581  1.00  0.00     0.188 C 
BRANCH  32  33
ATOM     33  O   UNL     1      -2.338   1.625  -2.687  1.00  0.00    -0.376 OA
BRANCH  33  34
ATOM     34  C   UNL     1      -2.296   1.373  -1.297  1.00  0.00     0.202 C 
BRANCH  34  35
ATOM     35  C   UNL     1      -1.052   0.828  -0.572  1.00  0.00     0.261 C 
BRANCH  35  36
ATOM     36  O   UNL     1      -0.143   0.017  -1.323  1.00  0.00    -0.460 OA
BRANCH  36  37
ATOM     37  C   UNL     1      -0.424  -1.303  -1.419  1.00  0.00     0.338 C 
ATOM     38  O   UNL     1      -1.383  -1.893  -0.961  1.00  0.00    -0.246 OA
BRANCH  37  39
ATOM     39  C   UNL     1       0.553  -1.882  -2.365  1.00  0.00     0.060 A 
ATOM     40  C   UNL     1       0.093  -2.432  -3.569  1.00  0.00     0.016 A 
ATOM     41  C   UNL     1       1.919  -1.850  -2.076  1.00  0.00     0.016 A 
ATOM     42  C   UNL     1       1.002  -2.961  -4.487  1.00  0.00     0.010 A 
ATOM     43  C   UNL     1       2.825  -2.401  -2.984  1.00  0.00     0.010 A 
ATOM     44  C   UNL     1       2.370  -2.975  -4.184  1.00  0.00    -0.014 A 
BRANCH  44  45
ATOM     45  C   UNL     1       3.318  -3.722  -5.042  1.00  0.00     0.031 A 
ATOM     46  C   UNL     1       3.688  -5.124  -4.654  1.00  0.00     0.074 A 
ATOM     47  C   UNL     1       3.863  -3.156  -6.132  1.00  0.00     0.049 A 
ATOM     48  N   UNL     1       4.564  -5.934  -5.191  1.00  0.00    -0.248 NA
ATOM     49  C   UNL     1       2.974  -5.685  -3.497  1.00  0.00     0.031 C 
ATOM     50  C   UNL     1       3.562  -1.815  -6.625  1.00  0.00     0.029 A 
ATOM     51  N   UNL     1       4.805  -3.638  -7.006  1.00  0.00    -0.354 N 
ATOM     52  C   UNL     1       4.506  -7.098  -4.438  1.00  0.00     0.074 A 
ATOM     53  C   UNL     1       3.535  -6.878  -3.388  1.00  0.00     0.031 C 
ATOM     54  C   UNL     1       4.330  -1.567  -7.700  1.00  0.00     0.029 A 
ATOM     55  C   UNL     1       5.198  -2.718  -7.946  1.00  0.00     0.049 A 
ATOM     56  H   UNL     1       5.164  -4.553  -6.963  1.00  0.00     0.167 HD
ATOM     57  C   UNL     1       5.197  -8.250  -4.612  1.00  0.00     0.037 A 
ATOM     58  C   UNL     1       6.172  -2.788  -8.874  1.00  0.00     0.037 A 
ATOM     59  C   UNL     1       6.178  -8.458  -5.645  1.00  0.00     0.049 A 
ATOM     60  C   UNL     1       6.990  -4.048  -8.999  1.00  0.00     0.074 A 
ATOM     61  C   UNL     1       6.919  -9.594  -5.917  1.00  0.00     0.029 A 
ATOM     62  N   UNL     1       6.567  -7.495  -6.566  1.00  0.00    -0.354 N 
ATOM     63  N   UNL     1       6.911  -5.159  -8.307  1.00  0.00    -0.248 NA
ATOM     64  C   UNL     1       8.033  -4.062 -10.035  1.00  0.00     0.031 C 
ATOM     65  C   UNL     1       7.796  -9.301  -6.968  1.00  0.00     0.029 A 
ATOM     66  C   UNL     1       7.563  -8.001  -7.387  1.00  0.00     0.049 A 
ATOM     67  H   UNL     1       6.192  -6.588  -6.627  1.00  0.00     0.167 HD
ATOM     68  C   UNL     1       7.878  -6.008  -8.831  1.00  0.00     0.074 A 
ATOM     69  C   UNL     1       8.522  -5.289  -9.911  1.00  0.00     0.031 C 
ATOM     70  C   UNL     1       8.203  -7.269  -8.451  1.00  0.00     0.037 A 
BRANCH  57  71
ATOM     71  C   UNL     1       4.933  -9.358  -3.636  1.00  0.00     0.064 A 
ATOM     72  C   UNL     1       3.717 -10.058  -3.626  1.00  0.00     0.173 A 
ATOM     73  C   UNL     1       5.908  -9.723  -2.695  1.00  0.00     0.173 A 
ATOM     74  F   UNL     1       2.746  -9.737  -4.494  1.00  0.00    -0.203 F 
ATOM     75  C   UNL     1       3.473 -11.057  -2.686  1.00  0.00     0.198 A 
ATOM     76  C   UNL     1       5.672 -10.743  -1.777  1.00  0.00     0.198 A 
ATOM     77  F   UNL     1       7.089  -9.088  -2.663  1.00  0.00    -0.203 F 
ATOM     78  F   UNL     1       2.281 -11.670  -2.657  1.00  0.00    -0.200 F 
ATOM     79  C   UNL     1       4.451 -11.401  -1.766  1.00  0.00     0.200 A 
ATOM     80  F   UNL     1       6.622 -11.082  -0.895  1.00  0.00    -0.200 F 
ATOM     81  F   UNL     1       4.214 -12.360  -0.861  1.00  0.00    -0.200 F 
ENDBRANCH  57  71
BRANCH  58  82
ATOM     82  C   UNL     1       6.445  -1.611  -9.739  1.00  0.00     0.064 A 
ATOM     83  C   UNL     1       6.139  -1.626 -11.105  1.00  0.00     0.173 A 
ATOM     84  C   UNL     1       7.013  -0.442  -9.209  1.00  0.00     0.173 A 
ATOM     85  F   UNL     1       5.624  -2.732 -11.663  1.00  0.00    -0.203 F 
ATOM     86  C   UNL     1       6.396  -0.519 -11.912  1.00  0.00     0.198 A 
ATOM     87  C   UNL     1       7.245   0.673 -10.011  1.00  0.00     0.198 A 
ATOM     88  F   UNL     1       7.331  -0.380  -7.907  1.00  0.00    -0.203 F 
ATOM     89  F   UNL     1       6.129  -0.573 -13.224  1.00  0.00    -0.200 F 
ATOM     90  C   UNL     1       6.941   0.632 -11.362  1.00  0.00     0.200 A 
ATOM     91  F   UNL     1       7.764   1.786  -9.474  1.00  0.00    -0.200 F 
ATOM     92  F   UNL     1       7.180   1.699 -12.137  1.00  0.00    -0.200 F 
ENDBRANCH  58  82
BRANCH  70  93
ATOM     93  C   UNL     1       9.296  -7.961  -9.215  1.00  0.00     0.064 A 
ATOM     94  C   UNL     1      10.642  -7.591  -9.068  1.00  0.00     0.173 A 
ATOM     95  C   UNL     1       9.000  -9.038 -10.064  1.00  0.00     0.173 A 
ATOM     96  F   UNL     1      10.976  -6.559  -8.280  1.00  0.00    -0.203 F 
ATOM     97  C   UNL     1      11.648  -8.263  -9.759  1.00  0.00     0.198 A 
ATOM     98  C   UNL     1      10.011  -9.726 -10.730  1.00  0.00     0.198 A 
ATOM     99  F   UNL     1       7.731  -9.437 -10.234  1.00  0.00    -0.203 F 
ATOM    100  F   UNL     1      12.922  -7.866  -9.636  1.00  0.00    -0.200 F 
ATOM    101  C   UNL     1      11.333  -9.334 -10.582  1.00  0.00     0.200 A 
ATOM    102  F   UNL     1       9.706 -10.769 -11.514  1.00  0.00    -0.200 F 
ATOM    103  F   UNL     1      12.303  -9.985 -11.238  1.00  0.00    -0.200 F 
ENDBRANCH  70  93
ENDBRANCH  44  45
ENDBRANCH  37  39
ENDBRANCH  36  37
ENDBRANCH  35  36
ENDBRANCH  34  35
ENDBRANCH  33  34
ENDBRANCH  32  33
ENDBRANCH  31  32
ENDBRANCH  30  31
ENDBRANCH   1  30
TORSDOF 23
