REMARK SMILES Cc1c(-c2nn(-c3ccccc3)cc2/C=N/O)nnn1-c1ccc(C(=O)OCCOCCOCCOC(=O)c2ccc(-c3c4nc(c(-c5c(F)c(F)c(F)c(F)c5F)c5ccc([nH]5)c(-c5c(F)c(F)c(F)c(F)c5F)c5nc(c(-c6c(F)c(F)c(F)c(F)c6F)c6ccc3[nH]6)C=C5)C=C4)cc2)cc1
REMARK SMILES IDX 31 1 30 2 29 3 28 4 27 5 25 6 26 7 24 8 21 9 22 10 103 11
REMARK SMILES IDX 23 12 102 13 20 14 1 15 2 16 3 17 18 18 19 19 4 20 5 21
REMARK SMILES IDX 14 22 6 23 13 24 15 25 16 26 17 27 7 29 8 30 12 31 9 32
REMARK SMILES IDX 11 33 10 34 32 35 33 36 34 37 35 38 36 39 37 40 38 41 39 42
REMARK SMILES IDX 40 43 101 44 41 45 100 46 42 47 43 48 44 49 94 50 45 51
REMARK SMILES IDX 99 52 93 53 95 54 46 55 98 56 92 57 91 58 47 60 79 61 59 62
REMARK SMILES IDX 78 63 60 64 63 65 77 66 96 67 61 68 62 69 76 71 97 72 64 73
REMARK SMILES IDX 48 74 49 75 57 76 50 77 51 78 55 79 58 80 52 81 53 82 56 83
REMARK SMILES IDX 54 84 80 85 81 86 89 87 82 88 83 89 87 90 90 91 84 92 85 93
REMARK SMILES IDX 88 94 86 95 65 96 66 97 74 98 67 99 68 100 72 101 75 102
REMARK SMILES IDX 69 103 70 104 73 105 71 106
REMARK H PARENT 17 28 95 59 63 70
REMARK Flexibility Score: inf
ROOT
ATOM      1  C   UNL     1      -1.725   7.102   3.278  1.00  0.00     0.188 C 
ENDROOT
BRANCH   1   2
ATOM      2  O   UNL     1      -1.934   8.291   2.533  1.00  0.00    -0.376 OA
BRANCH   2   3
ATOM      3  C   UNL     1      -0.893   8.611   1.610  1.00  0.00     0.202 C 
BRANCH   3   4
ATOM      4  C   UNL     1      -0.859   7.741   0.343  1.00  0.00     0.261 C 
BRANCH   4   5
ATOM      5  O   UNL     1      -0.757   6.327   0.582  1.00  0.00    -0.460 OA
BRANCH   5   6
ATOM      6  C   UNL     1       0.427   5.874   1.052  1.00  0.00     0.338 C 
ATOM      7  O   UNL     1       1.418   6.543   1.280  1.00  0.00    -0.246 OA
BRANCH   6   8
ATOM      8  C   UNL     1       0.295   4.436   1.398  1.00  0.00     0.060 A 
ATOM      9  C   UNL     1       0.204   1.717   2.049  1.00  0.00     0.067 A 
ATOM     10  C   UNL     1       0.868   2.612   2.896  1.00  0.00     0.029 A 
ATOM     11  C   UNL     1      -0.503   2.197   0.938  1.00  0.00     0.029 A 
ATOM     12  C   UNL     1       0.940   3.965   2.550  1.00  0.00     0.018 A 
ATOM     13  C   UNL     1      -0.466   3.558   0.618  1.00  0.00     0.018 A 
BRANCH   9  14
ATOM     14  N   UNL     1       0.313   0.326   2.295  1.00  0.00    -0.217 N 
ATOM     15  C   UNL     1       0.872  -0.563  -0.046  1.00  0.00     0.069 C 
ATOM     16  C   UNL     1       0.532  -0.698   1.390  1.00  0.00     0.071 A 
ATOM     17  C   UNL     1       0.547  -1.829   2.184  1.00  0.00     0.137 A 
ATOM     18  N   UNL     1       0.420  -1.490   3.496  1.00  0.00    -0.128 NA
ATOM     19  N   UNL     1       0.341  -0.164   3.561  1.00  0.00    -0.061 NA
BRANCH  17  20
ATOM     20  C   UNL     1       0.789  -3.200   1.741  1.00  0.00     0.124 A 
ATOM     21  N   UNL     1       2.014  -3.635   1.413  1.00  0.00    -0.165 NA
ATOM     22  C   UNL     1      -0.218  -4.148   1.446  1.00  0.00     0.044 A 
ATOM     23  N   UNL     1       1.799  -4.819   0.797  1.00  0.00    -0.240 N 
ATOM     24  C   UNL     1       0.465  -5.158   0.795  1.00  0.00     0.125 A 
BRANCH  22  25
ATOM     25  C   UNL     1      -1.637  -4.146   1.690  1.00  0.00     0.166 C 
ATOM     26  N   UNL     1      -2.195  -3.134   2.265  1.00  0.00    -0.097 NA
BRANCH  26  27
ATOM     27  O   UNL     1      -3.562  -3.388   2.425  1.00  0.00    -0.411 OA
ATOM     28  H   UNL     1      -4.114  -2.748   2.829  1.00  0.00     0.330 HD
ENDBRANCH  26  27
ENDBRANCH  22  25
BRANCH  23  29
ATOM     29  C   UNL     1       2.864  -5.548   0.213  1.00  0.00     0.065 A 
ATOM     30  C   UNL     1       4.149  -5.452   0.762  1.00  0.00     0.028 A 
ATOM     31  C   UNL     1       2.638  -6.360  -0.908  1.00  0.00     0.028 A 
ATOM     32  C   UNL     1       5.193  -6.201   0.216  1.00  0.00     0.002 A 
ATOM     33  C   UNL     1       3.700  -7.067  -1.476  1.00  0.00     0.002 A 
ATOM     34  C   UNL     1       4.971  -7.000  -0.906  1.00  0.00     0.000 A 
ENDBRANCH  23  29
ENDBRANCH  17  20
ENDBRANCH   9  14
ENDBRANCH   6   8
ENDBRANCH   5   6
ENDBRANCH   4   5
ENDBRANCH   3   4
ENDBRANCH   2   3
ENDBRANCH   1   2
BRANCH   1  35
ATOM     35  C   UNL     1      -2.664   5.925   2.942  1.00  0.00     0.188 C 
BRANCH  35  36
ATOM     36  O   UNL     1      -3.601   5.982   1.873  1.00  0.00    -0.376 OA
BRANCH  36  37
ATOM     37  C   UNL     1      -4.332   7.167   1.595  1.00  0.00     0.202 C 
BRANCH  37  38
ATOM     38  C   UNL     1      -5.264   7.745   2.657  1.00  0.00     0.261 C 
BRANCH  38  39
ATOM     39  O   UNL     1      -4.647   7.922   3.927  1.00  0.00    -0.460 OA
BRANCH  39  40
ATOM     40  C   UNL     1      -4.917   6.935   4.809  1.00  0.00     0.338 C 
ATOM     41  O   UNL     1      -5.554   5.917   4.602  1.00  0.00    -0.246 OA
BRANCH  40  42
ATOM     42  C   UNL     1      -4.345   7.269   6.123  1.00  0.00     0.060 A 
ATOM     43  C   UNL     1      -4.399   6.271   7.101  1.00  0.00     0.016 A 
ATOM     44  C   UNL     1      -3.969   8.582   6.439  1.00  0.00     0.016 A 
ATOM     45  C   UNL     1      -4.292   6.630   8.429  1.00  0.00     0.010 A 
ATOM     46  C   UNL     1      -3.862   8.943   7.769  1.00  0.00     0.010 A 
ATOM     47  C   UNL     1      -4.131   7.980   8.747  1.00  0.00    -0.014 A 
BRANCH  47  48
ATOM     48  C   UNL     1      -4.489   8.386  10.097  1.00  0.00     0.031 A 
ATOM     49  C   UNL     1      -3.467   8.284  11.160  1.00  0.00     0.074 A 
ATOM     50  C   UNL     1      -5.700   8.934  10.327  1.00  0.00     0.049 A 
ATOM     51  N   UNL     1      -3.584   7.737  12.327  1.00  0.00    -0.248 NA
ATOM     52  C   UNL     1      -2.146   8.867  10.893  1.00  0.00     0.031 C 
ATOM     53  C   UNL     1      -6.685   9.363   9.326  1.00  0.00     0.029 A 
ATOM     54  N   UNL     1      -6.256   9.337  11.506  1.00  0.00    -0.354 N 
ATOM     55  C   UNL     1      -2.412   8.045  13.009  1.00  0.00     0.074 A 
ATOM     56  C   UNL     1      -1.528   8.668  12.057  1.00  0.00     0.031 C 
ATOM     57  C   UNL     1      -7.603  10.153   9.920  1.00  0.00     0.029 A 
ATOM     58  C   UNL     1      -7.334  10.193  11.348  1.00  0.00     0.049 A 
ATOM     59  H   UNL     1      -5.922   9.047  12.385  1.00  0.00     0.167 HD
ATOM     60  C   UNL     1      -2.322   7.947  14.362  1.00  0.00     0.037 A 
ATOM     61  C   UNL     1      -7.912  10.956  12.304  1.00  0.00     0.037 A 
ATOM     62  C   UNL     1      -3.281   7.028  14.910  1.00  0.00     0.049 A 
ATOM     63  C   UNL     1      -7.531  10.409  13.628  1.00  0.00     0.074 A 
ATOM     64  C   UNL     1      -3.565   5.690  14.703  1.00  0.00     0.029 A 
ATOM     65  N   UNL     1      -4.332   7.509  15.648  1.00  0.00    -0.354 N 
ATOM     66  N   UNL     1      -7.973   9.290  14.129  1.00  0.00    -0.248 NA
ATOM     67  C   UNL     1      -6.349  10.960  14.276  1.00  0.00     0.031 C 
ATOM     68  C   UNL     1      -4.970   5.564  14.909  1.00  0.00     0.029 A 
ATOM     69  C   UNL     1      -5.449   6.834  15.229  1.00  0.00     0.049 A 
ATOM     70  H   UNL     1      -4.291   8.204  16.343  1.00  0.00     0.167 HD
ATOM     71  C   UNL     1      -6.913   8.794  14.871  1.00  0.00     0.074 A 
ATOM     72  C   UNL     1      -5.998   9.916  15.029  1.00  0.00     0.031 C 
ATOM     73  C   UNL     1      -6.739   7.452  15.045  1.00  0.00     0.037 A 
BRANCH  60  74
ATOM     74  C   UNL     1      -1.546   8.923  15.206  1.00  0.00     0.064 A 
ATOM     75  C   UNL     1      -1.296   8.634  16.561  1.00  0.00     0.173 A 
ATOM     76  C   UNL     1      -1.286  10.252  14.805  1.00  0.00     0.173 A 
ATOM     77  F   UNL     1      -1.550   7.415  17.057  1.00  0.00    -0.203 F 
ATOM     78  C   UNL     1      -0.864   9.617  17.456  1.00  0.00     0.198 A 
ATOM     79  C   UNL     1      -0.802  11.216  15.688  1.00  0.00     0.198 A 
ATOM     80  F   UNL     1      -1.591  10.693  13.577  1.00  0.00    -0.203 F 
ATOM     81  F   UNL     1      -0.751   9.326  18.759  1.00  0.00    -0.200 F 
ATOM     82  C   UNL     1      -0.618  10.906  17.019  1.00  0.00     0.200 A 
ATOM     83  F   UNL     1      -0.591  12.465  15.250  1.00  0.00    -0.200 F 
ATOM     84  F   UNL     1      -0.254  11.861  17.885  1.00  0.00    -0.200 F 
ENDBRANCH  60  74
BRANCH  61  85
ATOM     85  C   UNL     1      -8.566  12.274  12.139  1.00  0.00     0.064 A 
ATOM     86  C   UNL     1      -9.431  12.782  13.119  1.00  0.00     0.173 A 
ATOM     87  C   UNL     1      -8.175  13.169  11.123  1.00  0.00     0.173 A 
ATOM     88  F   UNL     1      -9.806  12.016  14.153  1.00  0.00    -0.203 F 
ATOM     89  C   UNL     1      -9.878  14.107  13.084  1.00  0.00     0.198 A 
ATOM     90  C   UNL     1      -8.636  14.484  11.078  1.00  0.00     0.198 A 
ATOM     91  F   UNL     1      -7.266  12.816  10.202  1.00  0.00    -0.203 F 
ATOM     92  F   UNL     1     -10.658  14.574  14.068  1.00  0.00    -0.200 F 
ATOM     93  C   UNL     1      -9.480  14.956  12.064  1.00  0.00     0.200 A 
ATOM     94  F   UNL     1      -8.214  15.303  10.104  1.00  0.00    -0.200 F 
ATOM     95  F   UNL     1      -9.874  16.237  12.054  1.00  0.00    -0.200 F 
ENDBRANCH  61  85
BRANCH  73  96
ATOM     96  C   UNL     1      -7.887   6.548  14.713  1.00  0.00     0.064 A 
ATOM     97  C   UNL     1      -8.407   6.402  13.416  1.00  0.00     0.173 A 
ATOM     98  C   UNL     1      -8.387   5.702  15.712  1.00  0.00     0.173 A 
ATOM     99  F   UNL     1      -7.902   7.101  12.390  1.00  0.00    -0.203 F 
ATOM    100  C   UNL     1      -9.422   5.487  13.147  1.00  0.00     0.198 A 
ATOM    101  C   UNL     1      -9.377   4.764  15.432  1.00  0.00     0.198 A 
ATOM    102  F   UNL     1      -7.881   5.755  16.954  1.00  0.00    -0.203 F 
ATOM    103  F   UNL     1      -9.915   5.376  11.904  1.00  0.00    -0.200 F 
ATOM    104  C   UNL     1      -9.903   4.666  14.154  1.00  0.00     0.200 A 
ATOM    105  F   UNL     1      -9.805   3.937  16.397  1.00  0.00    -0.200 F 
ATOM    106  F   UNL     1     -10.854   3.760  13.886  1.00  0.00    -0.200 F 
ENDBRANCH  73  96
ENDBRANCH  47  48
ENDBRANCH  40  42
ENDBRANCH  39  40
ENDBRANCH  38  39
ENDBRANCH  37  38
ENDBRANCH  36  37
ENDBRANCH  35  36
ENDBRANCH   1  35
TORSDOF 22
