REMARK SMILES O=C(OCCOCCOCCOC(=O)[C@H]1C[C@@H](O)CN1C(=O)CCc1ccc(Cl)cc1Cl)c1ccc(-c2c3nc(c(-c4c(F)c(F)c(F)c(F)c4F)c4ccc([nH]4)c(-c4c(F)c(F)c(F)c(F)c4F)c4nc(c(-c5c(F)c(F)c(F)c(F)c5F)c5ccc2[nH]5)C=C4)C=C3)cc1
REMARK SMILES IDX 8 1 7 2 6 3 5 4 4 5 3 6 2 7 1 8 33 9 34 10 95 11 35 12 94 13
REMARK SMILES IDX 36 14 37 15 38 16 88 17 39 18 93 19 87 20 89 21 40 22 92 23
REMARK SMILES IDX 86 24 85 25 41 27 73 28 53 29 72 30 54 31 57 32 71 33 90 34
REMARK SMILES IDX 55 35 56 36 70 38 91 39 58 40 42 41 43 42 51 43 44 44 45 45
REMARK SMILES IDX 49 46 52 47 46 48 47 49 50 50 48 51 74 52 75 53 83 54 76 55
REMARK SMILES IDX 77 56 81 57 84 58 78 59 79 60 82 61 80 62 59 63 60 64 68 65
REMARK SMILES IDX 61 66 62 67 66 68 69 69 63 70 64 71 67 72 65 73 9 74 10 75
REMARK SMILES IDX 11 76 12 77 13 78 14 79 15 80 16 81 20 82 17 83 19 84 21 85
REMARK SMILES IDX 22 86 23 87 24 88 25 89 26 90 31 91 27 92 30 93 32 94 28 95
REMARK SMILES IDX 29 96 18 97
REMARK H PARENT 89 26 57 37 18 98
REMARK Flexibility Score: inf
ROOT
ATOM      1  C   UNL     1       2.364   2.290   2.157  1.00  0.00     0.188 C 
ENDROOT
BRANCH   1   2
ATOM      2  C   UNL     1       2.883   1.741   0.827  1.00  0.00     0.188 C 
BRANCH   2   3
ATOM      3  O   UNL     1       4.242   1.299   0.875  1.00  0.00    -0.376 OA
BRANCH   3   4
ATOM      4  C   UNL     1       5.022   1.701  -0.257  1.00  0.00     0.202 C 
BRANCH   4   5
ATOM      5  C   UNL     1       4.734   0.947  -1.568  1.00  0.00     0.261 C 
BRANCH   5   6
ATOM      6  O   UNL     1       3.363   0.540  -1.707  1.00  0.00    -0.460 OA
BRANCH   6   7
ATOM      7  C   UNL     1       2.817  -0.679  -1.458  1.00  0.00     0.338 C 
ATOM      8  O   UNL     1       1.665  -0.887  -1.817  1.00  0.00    -0.246 OA
BRANCH   7   9
ATOM      9  C   UNL     1       3.525  -1.774  -0.718  1.00  0.00     0.060 A 
ATOM     10  C   UNL     1       4.650  -1.602   0.084  1.00  0.00     0.016 A 
ATOM     11  C   UNL     1       2.946  -3.057  -0.758  1.00  0.00     0.016 A 
ATOM     12  C   UNL     1       5.226  -2.654   0.776  1.00  0.00     0.010 A 
ATOM     13  C   UNL     1       3.484  -4.116  -0.016  1.00  0.00     0.010 A 
ATOM     14  C   UNL     1       4.651  -3.918   0.732  1.00  0.00    -0.014 A 
BRANCH  14  15
ATOM     15  C   UNL     1       5.417  -5.028   1.331  1.00  0.00     0.031 A 
ATOM     16  C   UNL     1       6.139  -5.949   0.397  1.00  0.00     0.074 A 
ATOM     17  C   UNL     1       5.609  -5.085   2.663  1.00  0.00     0.049 A 
ATOM     18  N   UNL     1       6.913  -6.964   0.668  1.00  0.00    -0.248 NA
ATOM     19  C   UNL     1       5.997  -5.667  -1.043  1.00  0.00     0.031 C 
ATOM     20  C   UNL     1       5.062  -4.136   3.630  1.00  0.00     0.029 A 
ATOM     21  N   UNL     1       6.336  -5.952   3.435  1.00  0.00    -0.354 N 
ATOM     22  C   UNL     1       7.344  -7.439  -0.562  1.00  0.00     0.074 A 
ATOM     23  C   UNL     1       6.721  -6.631  -1.584  1.00  0.00     0.031 C 
ATOM     24  C   UNL     1       5.454  -4.475   4.867  1.00  0.00     0.029 A 
ATOM     25  C   UNL     1       6.258  -5.685   4.782  1.00  0.00     0.049 A 
ATOM     26  H   UNL     1       6.864  -6.694   3.061  1.00  0.00     0.167 HD
ATOM     27  C   UNL     1       8.202  -8.453  -0.807  1.00  0.00     0.037 A 
ATOM     28  C   UNL     1       6.767  -6.364   5.825  1.00  0.00     0.037 A 
ATOM     29  C   UNL     1       8.804  -9.240   0.231  1.00  0.00     0.049 A 
ATOM     30  C   UNL     1       7.610  -7.572   5.520  1.00  0.00     0.074 A 
ATOM     31  C   UNL     1       9.632 -10.338   0.115  1.00  0.00     0.029 A 
ATOM     32  N   UNL     1       8.634  -9.000   1.590  1.00  0.00    -0.354 N 
ATOM     33  N   UNL     1       7.980  -8.048   4.354  1.00  0.00    -0.248 NA
ATOM     34  C   UNL     1       8.114  -8.334   6.667  1.00  0.00     0.031 C 
ATOM     35  C   UNL     1       9.923 -10.795   1.405  1.00  0.00     0.029 A 
ATOM     36  C   UNL     1       9.326  -9.946   2.325  1.00  0.00     0.049 A 
ATOM     37  H   UNL     1       8.100  -8.267   1.972  1.00  0.00     0.167 HD
ATOM     38  C   UNL     1       8.780  -9.146   4.624  1.00  0.00     0.074 A 
ATOM     39  C   UNL     1       8.864  -9.248   6.069  1.00  0.00     0.031 C 
ATOM     40  C   UNL     1       9.387 -10.001   3.764  1.00  0.00     0.037 A 
BRANCH  27  41
ATOM     41  C   UNL     1       8.475  -8.782  -2.244  1.00  0.00     0.064 A 
ATOM     42  C   UNL     1       9.234  -7.936  -3.067  1.00  0.00     0.173 A 
ATOM     43  C   UNL     1       7.936  -9.944  -2.814  1.00  0.00     0.173 A 
ATOM     44  F   UNL     1       9.741  -6.794  -2.579  1.00  0.00    -0.203 F 
ATOM     45  C   UNL     1       9.422  -8.230  -4.416  1.00  0.00     0.198 A 
ATOM     46  C   UNL     1       8.149 -10.249  -4.156  1.00  0.00     0.198 A 
ATOM     47  F   UNL     1       7.190 -10.777  -2.074  1.00  0.00    -0.203 F 
ATOM     48  F   UNL     1      10.098  -7.378  -5.198  1.00  0.00    -0.200 F 
ATOM     49  C   UNL     1       8.884  -9.388  -4.957  1.00  0.00     0.200 A 
ATOM     50  F   UNL     1       7.629 -11.368  -4.677  1.00  0.00    -0.200 F 
ATOM     51  F   UNL     1       9.061  -9.667  -6.256  1.00  0.00    -0.200 F 
ENDBRANCH  27  41
BRANCH  28  52
ATOM     52  C   UNL     1       6.471  -5.955   7.227  1.00  0.00     0.064 A 
ATOM     53  C   UNL     1       7.489  -5.559   8.106  1.00  0.00     0.173 A 
ATOM     54  C   UNL     1       5.163  -6.005   7.736  1.00  0.00     0.173 A 
ATOM     55  F   UNL     1       8.759  -5.505   7.680  1.00  0.00    -0.203 F 
ATOM     56  C   UNL     1       7.218  -5.272   9.445  1.00  0.00     0.198 A 
ATOM     57  C   UNL     1       4.888  -5.683   9.064  1.00  0.00     0.198 A 
ATOM     58  F   UNL     1       4.145  -6.371   6.943  1.00  0.00    -0.203 F 
ATOM     59  F   UNL     1       8.221  -4.964  10.278  1.00  0.00    -0.200 F 
ATOM     60  C   UNL     1       5.918  -5.333   9.922  1.00  0.00     0.200 A 
ATOM     61  F   UNL     1       3.626  -5.728   9.514  1.00  0.00    -0.200 F 
ATOM     62  F   UNL     1       5.660  -5.069  11.210  1.00  0.00    -0.200 F 
ENDBRANCH  28  52
BRANCH  40  63
ATOM     63  C   UNL     1      10.216 -11.090   4.374  1.00  0.00     0.064 A 
ATOM     64  C   UNL     1       9.630 -12.163   5.059  1.00  0.00     0.173 A 
ATOM     65  C   UNL     1      11.612 -11.074   4.237  1.00  0.00     0.173 A 
ATOM     66  F   UNL     1       8.300 -12.211   5.229  1.00  0.00    -0.203 F 
ATOM     67  C   UNL     1      10.416 -13.166   5.616  1.00  0.00     0.198 A 
ATOM     68  C   UNL     1      12.391 -12.098   4.762  1.00  0.00     0.198 A 
ATOM     69  F   UNL     1      12.217 -10.071   3.583  1.00  0.00    -0.203 F 
ATOM     70  F   UNL     1       9.841 -14.151   6.319  1.00  0.00    -0.200 F 
ATOM     71  C   UNL     1      11.794 -13.137   5.460  1.00  0.00     0.200 A 
ATOM     72  F   UNL     1      13.720 -12.079   4.594  1.00  0.00    -0.200 F 
ATOM     73  F   UNL     1      12.549 -14.110   5.989  1.00  0.00    -0.200 F 
ENDBRANCH  40  63
ENDBRANCH  14  15
ENDBRANCH   7   9
ENDBRANCH   6   7
ENDBRANCH   5   6
ENDBRANCH   4   5
ENDBRANCH   3   4
ENDBRANCH   2   3
ENDBRANCH   1   2
BRANCH   1  74
ATOM     74  O   UNL     1       3.060   3.368   2.769  1.00  0.00    -0.376 OA
BRANCH  74  75
ATOM     75  C   UNL     1       4.472   3.266   2.885  1.00  0.00     0.202 C 
BRANCH  75  76
ATOM     76  C   UNL     1       5.090   2.137   3.736  1.00  0.00     0.261 C 
BRANCH  76  77
ATOM     77  O   UNL     1       4.412   0.864   3.727  1.00  0.00    -0.462 OA
BRANCH  77  78
ATOM     78  C   UNL     1       3.582   0.681   4.787  1.00  0.00     0.329 C 
ATOM     79  O   UNL     1       3.415   1.532   5.660  1.00  0.00    -0.250 OA
BRANCH  78  80
ATOM     80  C   UNL     1       2.817  -0.668   4.776  1.00  0.00     0.197 C 
ATOM     81  C   UNL     1       2.073  -0.771   6.124  1.00  0.00     0.070 C 
ATOM     82  N   UNL     1       1.704  -0.761   3.811  1.00  0.00    -0.326 N 
ATOM     83  C   UNL     1       0.787   0.030   5.881  1.00  0.00     0.136 C 
ATOM     84  C   UNL     1       0.501  -0.213   4.406  1.00  0.00     0.152 C 
BRANCH  82  85
ATOM     85  C   UNL     1       1.573  -1.790   2.881  1.00  0.00     0.223 C 
ATOM     86  O   UNL     1       2.265  -2.803   2.928  1.00  0.00    -0.275 OA
BRANCH  85  87
ATOM     87  C   UNL     1       0.551  -1.593   1.754  1.00  0.00     0.105 C 
BRANCH  87  88
ATOM     88  C   UNL     1      -0.725  -2.458   1.779  1.00  0.00     0.047 C 
BRANCH  88  89
ATOM     89  C   UNL     1      -1.734  -2.056   2.835  1.00  0.00    -0.029 A 
ATOM     90  C   UNL     1      -1.917  -2.909   3.940  1.00  0.00     0.007 A 
ATOM     91  C   UNL     1      -2.365  -0.795   2.847  1.00  0.00     0.045 A 
ATOM     92  C   UNL     1      -2.576  -2.454   5.085  1.00  0.00     0.021 A 
ATOM     93  C   UNL     1      -3.001  -0.333   4.004  1.00  0.00     0.041 A 
ATOM     94  Cl  UNL     1      -2.291   0.284   1.500  1.00  0.00    -0.084 Cl
ATOM     95  C   UNL     1      -3.071  -1.153   5.127  1.00  0.00     0.042 A 
ATOM     96  Cl  UNL     1      -3.706  -0.531   6.599  1.00  0.00    -0.084 Cl
ENDBRANCH  88  89
ENDBRANCH  87  88
ENDBRANCH  85  87
ENDBRANCH  82  85
BRANCH  83  97
ATOM     97  O   UNL     1       0.874   1.419   6.152  1.00  0.00    -0.391 OA
ATOM     98  H   UNL     1       1.556   1.817   5.588  1.00  0.00     0.211 HD
ENDBRANCH  83  97
ENDBRANCH  78  80
ENDBRANCH  77  78
ENDBRANCH  76  77
ENDBRANCH  75  76
ENDBRANCH  74  75
ENDBRANCH   1  74
TORSDOF 22
