REMARK SMILES O=C(OCCOCCOCCOC(=O)[C@@H]1CCCCN1c1ccccc1[N+](=O)[O-])c1ccc(-c2c3nc(c(-c4c(F)c(F)c(F)c(F)c4F)c4ccc([nH]4)c(-c4c(F)c(F)c(F)c(F)c4F)c4nc(c(-c5c(F)c(F)c(F)c(F)c5F)c5ccc2[nH]5)C=C4)C=C3)cc1
REMARK SMILES IDX 7 1 6 2 5 3 4 4 3 5 2 6 1 7 30 8 31 9 92 10 32 11 91 12
REMARK SMILES IDX 33 13 34 14 35 15 85 16 36 17 90 18 84 19 86 20 37 21 89 22
REMARK SMILES IDX 83 23 82 24 38 26 70 27 50 28 69 29 51 30 54 31 68 32 87 33
REMARK SMILES IDX 52 34 53 35 67 37 88 38 55 39 39 40 40 41 48 42 41 43 42 44
REMARK SMILES IDX 46 45 49 46 43 47 44 48 47 49 45 50 71 51 72 52 80 53 73 54
REMARK SMILES IDX 74 55 78 56 81 57 75 58 76 59 79 60 77 61 56 62 57 63 65 64
REMARK SMILES IDX 58 65 59 66 63 67 66 68 60 69 61 70 64 71 62 72 8 73 9 74
REMARK SMILES IDX 10 75 11 76 12 77 13 78 14 79 15 80 16 81 20 82 17 83 19 84
REMARK SMILES IDX 18 85 21 86 22 87 26 88 23 89 25 90 24 91 27 92 28 93 29 94
REMARK H PARENT 86 25 54 36
REMARK Flexibility Score: inf
ROOT
ATOM      1  C   UNL     1       3.667  -0.725  -1.544  1.00  0.00     0.188 C 
ENDROOT
BRANCH   1   2
ATOM      2  O   UNL     1       5.012  -0.946  -1.111  1.00  0.00    -0.376 OA
BRANCH   2   3
ATOM      3  C   UNL     1       5.183  -1.950  -0.116  1.00  0.00     0.202 C 
BRANCH   3   4
ATOM      4  C   UNL     1       4.954  -1.440   1.311  1.00  0.00     0.261 C 
BRANCH   4   5
ATOM      5  O   UNL     1       3.648  -0.854   1.433  1.00  0.00    -0.460 OA
BRANCH   5   6
ATOM      6  C   UNL     1       3.487   0.368   1.992  1.00  0.00     0.338 C 
ATOM      7  O   UNL     1       2.769   0.524   2.975  1.00  0.00    -0.246 OA
BRANCH   6   8
ATOM      8  C   UNL     1       3.923   1.562   1.201  1.00  0.00     0.060 A 
ATOM      9  C   UNL     1       5.146   1.662   0.534  1.00  0.00     0.016 A 
ATOM     10  C   UNL     1       3.072   2.682   1.208  1.00  0.00     0.016 A 
ATOM     11  C   UNL     1       5.552   2.866  -0.039  1.00  0.00     0.010 A 
ATOM     12  C   UNL     1       3.462   3.886   0.610  1.00  0.00     0.010 A 
ATOM     13  C   UNL     1       4.738   3.997   0.043  1.00  0.00    -0.014 A 
BRANCH  13  14
ATOM     14  C   UNL     1       5.346   5.318  -0.235  1.00  0.00     0.031 A 
ATOM     15  C   UNL     1       5.860   6.115   0.928  1.00  0.00     0.074 A 
ATOM     16  C   UNL     1       5.574   5.739  -1.491  1.00  0.00     0.049 A 
ATOM     17  N   UNL     1       6.550   7.226   0.929  1.00  0.00    -0.248 NA
ATOM     18  C   UNL     1       5.608   5.560   2.269  1.00  0.00     0.031 C 
ATOM     19  C   UNL     1       5.239   4.991  -2.695  1.00  0.00     0.029 A 
ATOM     20  N   UNL     1       6.141   6.895  -1.962  1.00  0.00    -0.354 N 
ATOM     21  C   UNL     1       6.877   7.457   2.257  1.00  0.00     0.074 A 
ATOM     22  C   UNL     1       6.237   6.428   3.045  1.00  0.00     0.031 C 
ATOM     23  C   UNL     1       5.548   5.731  -3.773  1.00  0.00     0.029 A 
ATOM     24  C   UNL     1       6.094   7.007  -3.329  1.00  0.00     0.049 A 
ATOM     25  H   UNL     1       6.543   7.577  -1.376  1.00  0.00     0.167 HD
ATOM     26  C   UNL     1       7.681   8.416   2.768  1.00  0.00     0.037 A 
ATOM     27  C   UNL     1       6.434   8.037  -4.127  1.00  0.00     0.037 A 
ATOM     28  C   UNL     1       8.268   9.469   1.989  1.00  0.00     0.049 A 
ATOM     29  C   UNL     1       7.119   9.224  -3.511  1.00  0.00     0.074 A 
ATOM     30  C   UNL     1       9.067  10.516   2.408  1.00  0.00     0.029 A 
ATOM     31  N   UNL     1       8.091   9.618   0.620  1.00  0.00    -0.354 N 
ATOM     32  N   UNL     1       7.458   9.418  -2.260  1.00  0.00    -0.248 NA
ATOM     33  C   UNL     1       7.505  10.315  -4.415  1.00  0.00     0.031 C 
ATOM     34  C   UNL     1       9.333  11.328   1.298  1.00  0.00     0.029 A 
ATOM     35  C   UNL     1       8.735  10.763   0.182  1.00  0.00     0.049 A 
ATOM     36  H   UNL     1       7.582   9.001   0.046  1.00  0.00     0.167 HD
ATOM     37  C   UNL     1       8.148  10.620  -2.231  1.00  0.00     0.074 A 
ATOM     38  C   UNL     1       8.160  11.123  -3.591  1.00  0.00     0.031 C 
ATOM     39  C   UNL     1       8.740  11.237  -1.179  1.00  0.00     0.037 A 
BRANCH  26  40
ATOM     40  C   UNL     1       7.943   8.351   4.241  1.00  0.00     0.064 A 
ATOM     41  C   UNL     1       8.778   7.362   4.786  1.00  0.00     0.173 A 
ATOM     42  C   UNL     1       7.319   9.245   5.120  1.00  0.00     0.173 A 
ATOM     43  F   UNL     1       9.375   6.465   3.985  1.00  0.00    -0.203 F 
ATOM     44  C   UNL     1       8.954   7.253   6.163  1.00  0.00     0.198 A 
ATOM     45  C   UNL     1       7.514   9.145   6.496  1.00  0.00     0.198 A 
ATOM     46  F   UNL     1       6.503  10.198   4.648  1.00  0.00    -0.203 F 
ATOM     47  F   UNL     1       9.710   6.266   6.665  1.00  0.00    -0.200 F 
ATOM     48  C   UNL     1       8.323   8.145   7.016  1.00  0.00     0.200 A 
ATOM     49  F   UNL     1       6.901  10.005   7.321  1.00  0.00    -0.200 F 
ATOM     50  F   UNL     1       8.480   8.030   8.342  1.00  0.00    -0.200 F 
ENDBRANCH  26  40
BRANCH  27  51
ATOM     51  C   UNL     1       6.112   7.987  -5.576  1.00  0.00     0.064 A 
ATOM     52  C   UNL     1       7.107   7.870  -6.554  1.00  0.00     0.173 A 
ATOM     53  C   UNL     1       4.778   8.061  -6.009  1.00  0.00     0.173 A 
ATOM     54  F   UNL     1       8.397   7.812  -6.192  1.00  0.00    -0.203 F 
ATOM     55  C   UNL     1       6.783   7.844  -7.910  1.00  0.00     0.198 A 
ATOM     56  C   UNL     1       4.454   8.014  -7.363  1.00  0.00     0.198 A 
ATOM     57  F   UNL     1       3.786   8.172  -5.113  1.00  0.00    -0.203 F 
ATOM     58  F   UNL     1       7.756   7.764  -8.828  1.00  0.00    -0.200 F 
ATOM     59  C   UNL     1       5.457   7.912  -8.314  1.00  0.00     0.200 A 
ATOM     60  F   UNL     1       3.170   8.071  -7.746  1.00  0.00    -0.200 F 
ATOM     61  F   UNL     1       5.147   7.884  -9.617  1.00  0.00    -0.200 F 
ENDBRANCH  27  51
BRANCH  39  62
ATOM     62  C   UNL     1       9.498  12.496  -1.469  1.00  0.00     0.064 A 
ATOM     63  C   UNL     1       8.842  13.706  -1.732  1.00  0.00     0.173 A 
ATOM     64  C   UNL     1      10.900  12.494  -1.443  1.00  0.00     0.173 A 
ATOM     65  F   UNL     1       7.502  13.749  -1.785  1.00  0.00    -0.203 F 
ATOM     66  C   UNL     1       9.566  14.868  -1.978  1.00  0.00     0.198 A 
ATOM     67  C   UNL     1      11.620  13.663  -1.664  1.00  0.00     0.198 A 
ATOM     68  F   UNL     1      11.571  11.359  -1.193  1.00  0.00    -0.203 F 
ATOM     69  F   UNL     1       8.922  16.007  -2.268  1.00  0.00    -0.200 F 
ATOM     70  C   UNL     1      10.953  14.848  -1.936  1.00  0.00     0.200 A 
ATOM     71  F   UNL     1      12.959  13.643  -1.614  1.00  0.00    -0.200 F 
ATOM     72  F   UNL     1      11.648  15.970  -2.167  1.00  0.00    -0.200 F 
ENDBRANCH  39  62
ENDBRANCH  13  14
ENDBRANCH   6   8
ENDBRANCH   5   6
ENDBRANCH   4   5
ENDBRANCH   3   4
ENDBRANCH   2   3
ENDBRANCH   1   2
BRANCH   1  73
ATOM     73  C   UNL     1       2.982  -1.891  -2.266  1.00  0.00     0.188 C 
BRANCH  73  74
ATOM     74  O   UNL     1       3.743  -2.583  -3.247  1.00  0.00    -0.376 OA
BRANCH  74  75
ATOM     75  C   UNL     1       4.625  -1.823  -4.064  1.00  0.00     0.202 C 
BRANCH  75  76
ATOM     76  C   UNL     1       3.969  -0.927  -5.117  1.00  0.00     0.261 C 
BRANCH  76  77
ATOM     77  O   UNL     1       3.395   0.287  -4.591  1.00  0.00    -0.462 OA
BRANCH  77  78
ATOM     78  C   UNL     1       2.036   0.413  -4.669  1.00  0.00     0.328 C 
ATOM     79  O   UNL     1       1.281  -0.527  -4.899  1.00  0.00    -0.250 OA
BRANCH  78  80
ATOM     80  C   UNL     1       1.561   1.876  -4.502  1.00  0.00     0.192 C 
ATOM     81  C   UNL     1       2.720   2.884  -4.622  1.00  0.00     0.037 C 
ATOM     82  N   UNL     1       0.826   2.196  -3.244  1.00  0.00    -0.353 N 
ATOM     83  C   UNL     1       2.197   4.321  -4.574  1.00  0.00     0.005 C 
ATOM     84  C   UNL     1       0.278   3.554  -3.149  1.00  0.00     0.118 C 
ATOM     85  C   UNL     1       1.411   4.566  -3.290  1.00  0.00     0.022 C 
BRANCH  82  86
ATOM     86  C   UNL     1       0.178   1.240  -2.478  1.00  0.00     0.116 A 
ATOM     87  C   UNL     1       0.766   0.969  -1.229  1.00  0.00     0.033 A 
ATOM     88  C   UNL     1      -1.038   0.591  -2.748  1.00  0.00     0.292 A 
ATOM     89  C   UNL     1       0.224   0.057  -0.319  1.00  0.00     0.003 A 
ATOM     90  C   UNL     1      -1.587  -0.344  -1.843  1.00  0.00     0.088 A 
ATOM     91  C   UNL     1      -0.946  -0.617  -0.636  1.00  0.00     0.007 A 
BRANCH  88  92
ATOM     92  N   UNL     1      -1.868   0.946  -3.897  1.00  0.00     0.064 N 
ATOM     93  O   UNL     1      -3.090   1.035  -3.696  1.00  0.00    -0.258 OA
ATOM     94  O   UNL     1      -1.329   1.142  -4.994  1.00  0.00    -0.258 OA
ENDBRANCH  88  92
ENDBRANCH  82  86
ENDBRANCH  78  80
ENDBRANCH  77  78
ENDBRANCH  76  77
ENDBRANCH  75  76
ENDBRANCH  74  75
ENDBRANCH  73  74
ENDBRANCH   1  73
TORSDOF 19
