REMARK SMILES Cc1c(CC(=O)N[C@@H](CCO)C(=O)OCCOCCOCCOC(=O)c2ccc(-c3c4nc(c(-c5c(F)c(F)c(F)c(F)c5F)c5ccc([nH]5)c(-c5c(F)c(F)c(F)c(F)c5F)c5nc(c(-c6c(F)c(F)c(F)c(F)c6F)c6ccc3[nH]6)C=C5)C=C4)cc2)cc(-c2ccc(S(C)(=O)=O)cc2)n1-c1ccc(F)cc1
REMARK SMILES IDX 17 1 16 2 15 3 14 4 12 5 13 6 8 7 7 8 5 9 6 10 4 12 3 13
REMARK SMILES IDX 1 14 2 15 101 16 89 17 90 18 102 19 103 20 108 21 104 22
REMARK SMILES IDX 107 23 105 24 106 25 91 26 92 27 100 28 93 29 99 30 94 31
REMARK SMILES IDX 95 32 96 33 97 34 98 35 9 36 10 37 11 38 18 40 19 41 20 42
REMARK SMILES IDX 21 43 22 44 23 45 24 46 25 47 26 48 27 49 88 50 28 51 87 52
REMARK SMILES IDX 29 53 30 54 31 55 81 56 32 57 86 58 80 59 82 60 33 61 85 62
REMARK SMILES IDX 79 63 78 64 34 66 66 67 46 68 65 69 47 70 50 71 64 72 83 73
REMARK SMILES IDX 48 74 49 75 63 77 84 78 51 79 35 80 36 81 44 82 37 83 38 84
REMARK SMILES IDX 42 85 45 86 39 87 40 88 43 89 41 90 67 91 68 92 76 93 69 94
REMARK SMILES IDX 70 95 74 96 77 97 71 98 72 99 75 100 73 101 52 102 53 103
REMARK SMILES IDX 61 104 54 105 55 106 59 107 62 108 56 109 57 110 60 111
REMARK SMILES IDX 58 112
REMARK H PARENT 7 11 11 39 82 65 50 76
REMARK Flexibility Score: inf
ROOT
ATOM      1  O   UNL     1       1.004  -4.099  -7.424  1.00  0.00    -0.376 OA
ENDROOT
BRANCH   1   2
ATOM      2  C   UNL     1       2.416  -4.180  -7.590  1.00  0.00     0.202 C 
BRANCH   2   3
ATOM      3  C   UNL     1       3.405  -3.150  -7.033  1.00  0.00     0.261 C 
BRANCH   3   4
ATOM      4  O   UNL     1       3.146  -2.715  -5.697  1.00  0.00    -0.462 OA
BRANCH   4   5
ATOM      5  C   UNL     1       2.825  -1.393  -5.602  1.00  0.00     0.328 C 
ATOM      6  O   UNL     1       2.749  -0.615  -6.547  1.00  0.00    -0.250 OA
BRANCH   5   7
ATOM      7  C   UNL     1       2.547  -0.961  -4.163  1.00  0.00     0.194 C 
BRANCH   7   8
ATOM      8  N   UNL     1       2.434  -2.014  -3.147  1.00  0.00    -0.342 N 
ATOM      9  C   UNL     1       1.444  -2.220  -2.226  1.00  0.00     0.225 C 
ATOM     10  O   UNL     1       1.656  -3.037  -1.326  1.00  0.00    -0.275 OA
ATOM     11  H   UNL     1       3.175  -2.663  -3.126  1.00  0.00     0.164 HD
BRANCH   9  12
ATOM     12  C   UNL     1       0.089  -1.531  -2.364  1.00  0.00     0.137 C 
BRANCH  12  13
ATOM     13  C   UNL     1       0.153  -0.049  -2.189  1.00  0.00    -0.017 A 
ATOM     14  C   UNL     1       1.062   0.100   0.226  1.00  0.00     0.065 C 
ATOM     15  C   UNL     1       0.648   0.651  -1.101  1.00  0.00     0.024 A 
ATOM     16  N   UNL     1       0.671   2.003  -1.426  1.00  0.00    -0.314 N 
ATOM     17  C   UNL     1      -0.280   0.916  -3.136  1.00  0.00     0.033 A 
ATOM     18  C   UNL     1       0.119   2.165  -2.699  1.00  0.00     0.053 A 
BRANCH  16  19
ATOM     19  C   UNL     1       1.231   3.045  -0.636  1.00  0.00     0.046 A 
ATOM     20  C   UNL     1       0.536   4.253  -0.486  1.00  0.00     0.029 A 
ATOM     21  C   UNL     1       2.515   2.891  -0.096  1.00  0.00     0.029 A 
ATOM     22  C   UNL     1       1.136   5.314   0.189  1.00  0.00     0.041 A 
ATOM     23  C   UNL     1       3.111   3.961   0.570  1.00  0.00     0.041 A 
ATOM     24  C   UNL     1       2.419   5.161   0.703  1.00  0.00     0.123 A 
ATOM     25  F   UNL     1       3.005   6.193   1.323  1.00  0.00    -0.207 F 
ENDBRANCH  16  19
BRANCH  18  26
ATOM     26  C   UNL     1       0.125   3.409  -3.481  1.00  0.00    -0.001 A 
ATOM     27  C   UNL     1       1.327   4.098  -3.715  1.00  0.00     0.011 A 
ATOM     28  C   UNL     1      -1.066   3.913  -4.017  1.00  0.00     0.011 A 
ATOM     29  C   UNL     1       1.331   5.306  -4.415  1.00  0.00     0.021 A 
ATOM     30  C   UNL     1      -1.069   5.120  -4.723  1.00  0.00     0.021 A 
ATOM     31  C   UNL     1       0.128   5.820  -4.898  1.00  0.00     0.067 A 
BRANCH  31  32
ATOM     32  S   UNL     1       0.133   7.368  -5.770  1.00  0.00     0.175 S 
ATOM     33  C   UNL     1       0.604   8.554  -4.537  1.00  0.00     0.163 C 
ATOM     34  O   UNL     1       1.202   7.292  -6.758  1.00  0.00    -0.224 OA
ATOM     35  O   UNL     1      -1.226   7.660  -6.164  1.00  0.00    -0.224 OA
ENDBRANCH  31  32
ENDBRANCH  18  26
ENDBRANCH  12  13
ENDBRANCH   9  12
ENDBRANCH   7   8
BRANCH   7  36
ATOM     36  C   UNL     1       3.576   0.095  -3.736  1.00  0.00     0.065 C 
BRANCH  36  37
ATOM     37  C   UNL     1       4.989  -0.450  -3.540  1.00  0.00     0.159 C 
BRANCH  37  38
ATOM     38  O   UNL     1       5.502  -1.006  -4.740  1.00  0.00    -0.396 OA
ATOM     39  H   UNL     1       4.938  -1.743  -5.021  1.00  0.00     0.210 HD
ENDBRANCH  37  38
ENDBRANCH  36  37
ENDBRANCH   7  36
ENDBRANCH   5   7
ENDBRANCH   4   5
ENDBRANCH   3   4
ENDBRANCH   2   3
ENDBRANCH   1   2
BRANCH   1  40
ATOM     40  C   UNL     1       0.418  -3.647  -6.219  1.00  0.00     0.188 C 
BRANCH  40  41
ATOM     41  C   UNL     1       0.420  -4.537  -4.970  1.00  0.00     0.188 C 
BRANCH  41  42
ATOM     42  O   UNL     1       1.413  -5.527  -4.872  1.00  0.00    -0.376 OA
BRANCH  42  43
ATOM     43  C   UNL     1       1.194  -6.720  -5.624  1.00  0.00     0.202 C 
BRANCH  43  44
ATOM     44  C   UNL     1      -0.185  -7.457  -5.603  1.00  0.00     0.261 C 
BRANCH  44  45
ATOM     45  O   UNL     1      -1.288  -7.085  -6.525  1.00  0.00    -0.460 OA
BRANCH  45  46
ATOM     46  C   UNL     1      -2.555  -6.984  -5.977  1.00  0.00     0.338 C 
ATOM     47  O   UNL     1      -2.736  -6.729  -4.791  1.00  0.00    -0.246 OA
BRANCH  46  48
ATOM     48  C   UNL     1      -3.788  -7.215  -6.895  1.00  0.00     0.060 A 
ATOM     49  C   UNL     1      -4.622  -6.155  -7.239  1.00  0.00     0.016 A 
ATOM     50  C   UNL     1      -4.371  -8.480  -7.148  1.00  0.00     0.016 A 
ATOM     51  C   UNL     1      -5.923  -6.362  -7.864  1.00  0.00     0.010 A 
ATOM     52  C   UNL     1      -5.729  -8.687  -7.736  1.00  0.00     0.010 A 
ATOM     53  C   UNL     1      -6.576  -7.631  -8.132  1.00  0.00    -0.014 A 
BRANCH  53  54
ATOM     54  C   UNL     1      -8.241  -7.625  -8.371  1.00  0.00     0.031 A 
ATOM     55  C   UNL     1      -8.668  -6.608  -7.367  1.00  0.00     0.074 A 
ATOM     56  C   UNL     1      -9.349  -8.233  -9.018  1.00  0.00     0.049 A 
ATOM     57  N   UNL     1      -8.349  -6.767  -6.110  1.00  0.00    -0.248 NA
ATOM     58  C   UNL     1      -9.092  -5.254  -7.725  1.00  0.00     0.031 C 
ATOM     59  C   UNL     1      -9.356  -9.410  -9.911  1.00  0.00     0.029 A 
ATOM     60  N   UNL     1     -10.783  -7.950  -9.041  1.00  0.00    -0.354 N 
ATOM     61  C   UNL     1      -8.829  -5.659  -5.460  1.00  0.00     0.074 A 
ATOM     62  C   UNL     1      -9.040  -4.680  -6.517  1.00  0.00     0.031 C 
ATOM     63  C   UNL     1     -10.586  -9.649 -10.469  1.00  0.00     0.029 A 
ATOM     64  C   UNL     1     -11.603  -8.708  -9.990  1.00  0.00     0.049 A 
ATOM     65  H   UNL     1     -11.182  -7.277  -8.443  1.00  0.00     0.167 HD
ATOM     66  C   UNL     1      -9.613  -5.926  -4.376  1.00  0.00     0.037 A 
ATOM     67  C   UNL     1     -12.974  -8.664 -10.325  1.00  0.00     0.037 A 
ATOM     68  C   UNL     1     -11.007  -5.751  -4.663  1.00  0.00     0.049 A 
ATOM     69  C   UNL     1     -13.664  -8.073  -9.176  1.00  0.00     0.074 A 
ATOM     70  C   UNL     1     -11.702  -4.775  -5.352  1.00  0.00     0.029 A 
ATOM     71  N   UNL     1     -11.809  -6.871  -4.651  1.00  0.00    -0.354 N 
ATOM     72  N   UNL     1     -13.967  -8.791  -8.140  1.00  0.00    -0.248 NA
ATOM     73  C   UNL     1     -14.203  -6.717  -9.180  1.00  0.00     0.031 C 
ATOM     74  C   UNL     1     -12.592  -5.494  -6.174  1.00  0.00     0.029 A 
ATOM     75  C   UNL     1     -12.727  -6.781  -5.672  1.00  0.00     0.049 A 
ATOM     76  H   UNL     1     -11.737  -7.617  -4.013  1.00  0.00     0.167 HD
ATOM     77  C   UNL     1     -14.206  -7.857  -7.190  1.00  0.00     0.074 A 
ATOM     78  C   UNL     1     -14.625  -6.671  -7.914  1.00  0.00     0.031 C 
ATOM     79  C   UNL     1     -13.418  -7.969  -6.095  1.00  0.00     0.037 A 
BRANCH  66  80
ATOM     80  C   UNL     1      -9.030  -7.001  -3.503  1.00  0.00     0.064 A 
ATOM     81  C   UNL     1      -8.335  -6.624  -2.351  1.00  0.00     0.173 A 
ATOM     82  C   UNL     1      -8.937  -8.349  -3.909  1.00  0.00     0.173 A 
ATOM     83  F   UNL     1      -8.433  -5.368  -1.889  1.00  0.00    -0.203 F 
ATOM     84  C   UNL     1      -7.515  -7.531  -1.682  1.00  0.00     0.198 A 
ATOM     85  C   UNL     1      -8.065  -9.232  -3.282  1.00  0.00     0.198 A 
ATOM     86  F   UNL     1      -9.664  -8.802  -4.945  1.00  0.00    -0.203 F 
ATOM     87  F   UNL     1      -6.864  -7.151  -0.574  1.00  0.00    -0.200 F 
ATOM     88  C   UNL     1      -7.347  -8.819  -2.173  1.00  0.00     0.200 A 
ATOM     89  F   UNL     1      -7.907 -10.472  -3.765  1.00  0.00    -0.200 F 
ATOM     90  F   UNL     1      -6.500  -9.666  -1.571  1.00  0.00    -0.200 F 
ENDBRANCH  66  80
BRANCH  67  91
ATOM     91  C   UNL     1     -14.115  -9.148 -11.323  1.00  0.00     0.064 A 
ATOM     92  C   UNL     1     -15.493  -9.297 -10.892  1.00  0.00     0.173 A 
ATOM     93  C   UNL     1     -14.004  -9.063 -12.718  1.00  0.00     0.173 A 
ATOM     94  F   UNL     1     -15.817  -9.469  -9.604  1.00  0.00    -0.203 F 
ATOM     95  C   UNL     1     -16.616  -9.219 -11.741  1.00  0.00     0.198 A 
ATOM     96  C   UNL     1     -15.142  -9.028 -13.580  1.00  0.00     0.198 A 
ATOM     97  F   UNL     1     -12.797  -8.930 -13.282  1.00  0.00    -0.203 F 
ATOM     98  F   UNL     1     -17.858  -9.229 -11.227  1.00  0.00    -0.200 F 
ATOM     99  C   UNL     1     -16.440  -9.061 -13.091  1.00  0.00     0.200 A 
ATOM    100  F   UNL     1     -14.973  -8.891 -14.904  1.00  0.00    -0.200 F 
ATOM    101  F   UNL     1     -17.501  -8.918 -13.902  1.00  0.00    -0.200 F 
ENDBRANCH  67  91
BRANCH  79 102
ATOM    102  C   UNL     1     -13.207  -9.373  -5.551  1.00  0.00     0.064 A 
ATOM    103  C   UNL     1     -12.802 -10.525  -6.273  1.00  0.00     0.173 A 
ATOM    104  C   UNL     1     -13.531  -9.580  -4.204  1.00  0.00     0.173 A 
ATOM    105  F   UNL     1     -12.346 -10.459  -7.532  1.00  0.00    -0.203 F 
ATOM    106  C   UNL     1     -12.821 -11.799  -5.700  1.00  0.00     0.198 A 
ATOM    107  C   UNL     1     -13.488 -10.844  -3.618  1.00  0.00     0.198 A 
ATOM    108  F   UNL     1     -13.879  -8.537  -3.434  1.00  0.00    -0.203 F 
ATOM    109  F   UNL     1     -12.502 -12.874  -6.438  1.00  0.00    -0.200 F 
ATOM    110  C   UNL     1     -13.162 -11.957  -4.371  1.00  0.00     0.200 A 
ATOM    111  F   UNL     1     -13.765 -10.977  -2.314  1.00  0.00    -0.200 F 
ATOM    112  F   UNL     1     -13.154 -13.174  -3.810  1.00  0.00    -0.200 F 
ENDBRANCH  79 102
ENDBRANCH  53  54
ENDBRANCH  46  48
ENDBRANCH  45  46
ENDBRANCH  44  45
ENDBRANCH  43  44
ENDBRANCH  42  43
ENDBRANCH  41  42
ENDBRANCH  40  41
ENDBRANCH   1  40
TORSDOF 26
