REMARK SMILES CC(C)COc1ccc(CC(=O)OCCOCCOCCOC(=O)c2ccc(-c3c4nc(c(-c5c(F)c(F)c(F)c(F)c5F)c5ccc([nH]5)c(-c5c(F)c(F)c(F)c(F)c5F)c5nc(c(-c6c(F)c(F)c(F)c(F)c6F)c6ccc3[nH]6)C=C5)C=C4)cc2)cc1
REMARK SMILES IDX 17 1 16 2 15 3 14 4 13 5 11 6 12 7 10 8 9 9 6 10 7 11 89 12
REMARK SMILES IDX 8 13 88 14 5 15 4 16 2 17 1 18 3 19 18 20 19 21 20 22 21 23
REMARK SMILES IDX 22 24 23 25 24 26 25 27 26 28 87 29 27 30 86 31 28 32 29 33
REMARK SMILES IDX 30 34 80 35 31 36 85 37 79 38 81 39 32 40 84 41 78 42 77 43
REMARK SMILES IDX 33 45 65 46 45 47 64 48 46 49 49 50 63 51 82 52 47 53 48 54
REMARK SMILES IDX 62 56 83 57 50 58 34 59 35 60 43 61 36 62 37 63 41 64 44 65
REMARK SMILES IDX 38 66 39 67 42 68 40 69 66 70 67 71 75 72 68 73 69 74 73 75
REMARK SMILES IDX 76 76 70 77 71 78 74 79 72 80 51 81 52 82 60 83 53 84 54 85
REMARK SMILES IDX 58 86 61 87 55 88 56 89 59 90 57 91
REMARK H PARENT 81 44 49 55
REMARK Flexibility Score: inf
ROOT
ATOM      1  C   UNL     1      -2.131   4.399   5.413  1.00  0.00     0.188 C 
ENDROOT
BRANCH   1   2
ATOM      2  O   UNL     1      -1.472   5.231   6.367  1.00  0.00    -0.376 OA
BRANCH   2   3
ATOM      3  C   UNL     1      -0.296   5.923   5.973  1.00  0.00     0.202 C 
BRANCH   3   4
ATOM      4  C   UNL     1       0.968   5.066   5.897  1.00  0.00     0.261 C 
BRANCH   4   5
ATOM      5  O   UNL     1       0.798   3.884   5.094  1.00  0.00    -0.463 OA
BRANCH   5   6
ATOM      6  C   UNL     1       0.861   2.698   5.747  1.00  0.00     0.310 C 
ATOM      7  O   UNL     1       1.132   2.579   6.939  1.00  0.00    -0.252 OA
BRANCH   6   8
ATOM      8  C   UNL     1       0.589   1.483   4.891  1.00  0.00     0.158 C 
BRANCH   8   9
ATOM      9  C   UNL     1       0.076   1.633   3.473  1.00  0.00    -0.037 A 
ATOM     10  C   UNL     1      -0.735   1.577   0.787  1.00  0.00     0.119 A 
ATOM     11  C   UNL     1      -1.552   1.015   1.761  1.00  0.00     0.047 A 
ATOM     12  C   UNL     1       0.434   2.242   1.147  1.00  0.00     0.047 A 
ATOM     13  C   UNL     1      -1.144   1.038   3.099  1.00  0.00     0.008 A 
ATOM     14  C   UNL     1       0.853   2.248   2.480  1.00  0.00     0.008 A 
BRANCH  10  15
ATOM     15  O   UNL     1      -1.050   1.513  -0.541  1.00  0.00    -0.493 OA
BRANCH  15  16
ATOM     16  C   UNL     1      -0.905   0.190  -1.098  1.00  0.00     0.232 C 
BRANCH  16  17
ATOM     17  C   UNL     1       0.571  -0.161  -1.385  1.00  0.00     0.020 C 
ATOM     18  C   UNL     1       1.206  -0.947  -0.231  1.00  0.00     0.011 C 
ATOM     19  C   UNL     1       0.703  -0.993  -2.663  1.00  0.00     0.011 C 
ENDBRANCH  16  17
ENDBRANCH  15  16
ENDBRANCH  10  15
ENDBRANCH   8   9
ENDBRANCH   6   8
ENDBRANCH   5   6
ENDBRANCH   4   5
ENDBRANCH   3   4
ENDBRANCH   2   3
ENDBRANCH   1   2
BRANCH   1  20
ATOM     20  C   UNL     1      -1.900   4.617   3.911  1.00  0.00     0.188 C 
BRANCH  20  21
ATOM     21  O   UNL     1      -2.023   5.993   3.563  1.00  0.00    -0.376 OA
BRANCH  21  22
ATOM     22  C   UNL     1      -2.774   6.224   2.380  1.00  0.00     0.202 C 
BRANCH  22  23
ATOM     23  C   UNL     1      -4.208   6.586   2.769  1.00  0.00     0.261 C 
BRANCH  23  24
ATOM     24  O   UNL     1      -4.844   5.609   3.616  1.00  0.00    -0.460 OA
BRANCH  24  25
ATOM     25  C   UNL     1      -5.143   4.427   3.036  1.00  0.00     0.338 C 
ATOM     26  O   UNL     1      -4.951   4.106   1.878  1.00  0.00    -0.246 OA
BRANCH  25  27
ATOM     27  C   UNL     1      -5.652   3.499   4.069  1.00  0.00     0.060 A 
ATOM     28  C   UNL     1      -5.115   2.208   4.140  1.00  0.00     0.016 A 
ATOM     29  C   UNL     1      -6.708   3.873   4.903  1.00  0.00     0.016 A 
ATOM     30  C   UNL     1      -5.681   1.263   5.000  1.00  0.00     0.010 A 
ATOM     31  C   UNL     1      -7.279   2.925   5.757  1.00  0.00     0.010 A 
ATOM     32  C   UNL     1      -6.800   1.602   5.774  1.00  0.00    -0.014 A 
BRANCH  32  33
ATOM     33  C   UNL     1      -7.609   0.540   6.426  1.00  0.00     0.031 A 
ATOM     34  C   UNL     1      -8.864   0.073   5.736  1.00  0.00     0.074 A 
ATOM     35  C   UNL     1      -7.247  -0.010   7.598  1.00  0.00     0.049 A 
ATOM     36  N   UNL     1      -9.777  -0.774   6.142  1.00  0.00    -0.248 NA
ATOM     37  C   UNL     1      -9.127   0.646   4.406  1.00  0.00     0.031 C 
ATOM     38  C   UNL     1      -6.039   0.318   8.350  1.00  0.00     0.029 A 
ATOM     39  N   UNL     1      -7.877  -0.959   8.367  1.00  0.00    -0.354 N 
ATOM     40  C   UNL     1     -10.726  -0.820   5.128  1.00  0.00     0.074 A 
ATOM     41  C   UNL     1     -10.294   0.102   4.100  1.00  0.00     0.031 C 
ATOM     42  C   UNL     1      -6.019  -0.410   9.481  1.00  0.00     0.029 A 
ATOM     43  C   UNL     1      -7.230  -1.228   9.548  1.00  0.00     0.049 A 
ATOM     44  H   UNL     1      -8.712  -1.403   8.096  1.00  0.00     0.167 HD
ATOM     45  C   UNL     1     -11.853  -1.568   5.054  1.00  0.00     0.037 A 
ATOM     46  C   UNL     1      -7.590  -2.026  10.574  1.00  0.00     0.037 A 
ATOM     47  C   UNL     1     -12.282  -2.491   6.071  1.00  0.00     0.049 A 
ATOM     48  C   UNL     1      -8.880  -2.805  10.496  1.00  0.00     0.074 A 
ATOM     49  C   UNL     1     -13.405  -3.299   6.085  1.00  0.00     0.029 A 
ATOM     50  N   UNL     1     -11.605  -2.726   7.258  1.00  0.00    -0.354 N 
ATOM     51  N   UNL     1      -9.766  -2.852   9.530  1.00  0.00    -0.248 NA
ATOM     52  C   UNL     1      -9.217  -3.647  11.653  1.00  0.00     0.031 C 
ATOM     53  C   UNL     1     -13.431  -3.991   7.300  1.00  0.00     0.029 A 
ATOM     54  C   UNL     1     -12.295  -3.656   8.018  1.00  0.00     0.049 A 
ATOM     55  H   UNL     1     -10.759  -2.296   7.521  1.00  0.00     0.167 HD
ATOM     56  C   UNL     1     -10.740  -3.752   9.946  1.00  0.00     0.074 A 
ATOM     57  C   UNL     1     -10.334  -4.234  11.248  1.00  0.00     0.031 C 
ATOM     58  C   UNL     1     -11.868  -4.146   9.304  1.00  0.00     0.037 A 
BRANCH  45  59
ATOM     59  C   UNL     1     -12.717  -1.396   3.840  1.00  0.00     0.064 A 
ATOM     60  C   UNL     1     -12.321  -1.869   2.579  1.00  0.00     0.173 A 
ATOM     61  C   UNL     1     -13.969  -0.771   3.943  1.00  0.00     0.173 A 
ATOM     62  F   UNL     1     -11.127  -2.459   2.424  1.00  0.00    -0.203 F 
ATOM     63  C   UNL     1     -13.135  -1.697   1.462  1.00  0.00     0.198 A 
ATOM     64  C   UNL     1     -14.793  -0.628   2.830  1.00  0.00     0.198 A 
ATOM     65  F   UNL     1     -14.396  -0.303   5.125  1.00  0.00    -0.203 F 
ATOM     66  F   UNL     1     -12.715  -2.111   0.259  1.00  0.00    -0.200 F 
ATOM     67  C   UNL     1     -14.372  -1.083   1.590  1.00  0.00     0.200 A 
ATOM     68  F   UNL     1     -15.993  -0.045   2.957  1.00  0.00    -0.200 F 
ATOM     69  F   UNL     1     -15.157  -0.923   0.515  1.00  0.00    -0.200 F 
ENDBRANCH  45  59
BRANCH  46  70
ATOM     70  C   UNL     1      -6.723  -2.127  11.778  1.00  0.00     0.064 A 
ATOM     71  C   UNL     1      -6.050  -3.318  12.086  1.00  0.00     0.173 A 
ATOM     72  C   UNL     1      -6.578  -1.049  12.663  1.00  0.00     0.173 A 
ATOM     73  F   UNL     1      -6.183  -4.388  11.287  1.00  0.00    -0.203 F 
ATOM     74  C   UNL     1      -5.281  -3.433  13.243  1.00  0.00     0.198 A 
ATOM     75  C   UNL     1      -5.785  -1.156  13.804  1.00  0.00     0.198 A 
ATOM     76  F   UNL     1      -7.207   0.110  12.419  1.00  0.00    -0.203 F 
ATOM     77  F   UNL     1      -4.693  -4.600  13.540  1.00  0.00    -0.200 F 
ATOM     78  C   UNL     1      -5.145  -2.350  14.098  1.00  0.00     0.200 A 
ATOM     79  F   UNL     1      -5.651  -0.105  14.624  1.00  0.00    -0.200 F 
ATOM     80  F   UNL     1      -4.407  -2.462  15.211  1.00  0.00    -0.200 F 
ENDBRANCH  46  70
BRANCH  58  81
ATOM     81  C   UNL     1     -12.715  -5.194   9.967  1.00  0.00     0.064 A 
ATOM     82  C   UNL     1     -13.486  -4.916  11.105  1.00  0.00     0.173 A 
ATOM     83  C   UNL     1     -12.790  -6.487   9.424  1.00  0.00     0.173 A 
ATOM     84  F   UNL     1     -13.441  -3.700  11.669  1.00  0.00    -0.203 F 
ATOM     85  C   UNL     1     -14.278  -5.901  11.691  1.00  0.00     0.198 A 
ATOM     86  C   UNL     1     -13.607  -7.460   9.995  1.00  0.00     0.198 A 
ATOM     87  F   UNL     1     -12.081  -6.804   8.330  1.00  0.00    -0.203 F 
ATOM     88  F   UNL     1     -14.969  -5.626  12.806  1.00  0.00    -0.200 F 
ATOM     89  C   UNL     1     -14.343  -7.168  11.132  1.00  0.00     0.200 A 
ATOM     90  F   UNL     1     -13.680  -8.679   9.444  1.00  0.00    -0.200 F 
ATOM     91  F   UNL     1     -15.112  -8.112  11.694  1.00  0.00    -0.200 F 
ENDBRANCH  58  81
ENDBRANCH  32  33
ENDBRANCH  25  27
ENDBRANCH  24  25
ENDBRANCH  23  24
ENDBRANCH  22  23
ENDBRANCH  21  22
ENDBRANCH  20  21
ENDBRANCH   1  20
TORSDOF 21
