REMARK SMILES Cc1cccc(-c2ccc(Cl)c(C(=O)OCCOCCOCCOC(=O)c3ccc(-c4c5nc(c(-c6c(F)c(F)c(F)c(F)c6F)c6ccc([nH]6)c(-c6c(F)c(F)c(F)c(F)c6F)c6nc(c(-c7c(F)c(F)c(F)c(F)c7F)c7ccc4[nH]7)C=C6)C=C5)cc3)c2)c1
REMARK SMILES IDX 20 1 19 2 18 3 17 4 16 5 15 6 13 7 14 8 12 9 7 10 8 11 90 12
REMARK SMILES IDX 9 13 10 14 11 15 6 16 1 17 2 18 3 19 91 20 4 21 5 22 21 23
REMARK SMILES IDX 22 24 23 25 24 26 25 27 26 28 27 29 28 30 89 31 29 32 88 33
REMARK SMILES IDX 30 34 31 35 32 36 82 37 33 38 87 39 81 40 83 41 34 42 86 43
REMARK SMILES IDX 80 44 79 45 35 47 67 48 47 49 66 50 48 51 51 52 65 53 84 54
REMARK SMILES IDX 49 55 50 56 64 58 85 59 52 60 36 61 37 62 45 63 38 64 39 65
REMARK SMILES IDX 43 66 46 67 40 68 41 69 44 70 42 71 68 72 69 73 77 74 70 75
REMARK SMILES IDX 71 76 75 77 78 78 72 79 73 80 76 81 74 82 53 83 54 84 62 85
REMARK SMILES IDX 55 86 56 87 60 88 63 89 57 90 58 91 61 92 59 93
REMARK H PARENT 83 46 51 57
REMARK Flexibility Score: inf
ROOT
ATOM      1  C   UNL     1      -9.412   3.855   2.664  1.00  0.00     0.188 C 
ENDROOT
BRANCH   1   2
ATOM      2  C   UNL     1      -8.163   4.398   3.364  1.00  0.00     0.188 C 
BRANCH   2   3
ATOM      3  O   UNL     1      -7.557   5.687   3.091  1.00  0.00    -0.376 OA
BRANCH   3   4
ATOM      4  C   UNL     1      -7.772   6.494   1.912  1.00  0.00     0.202 C 
BRANCH   4   5
ATOM      5  C   UNL     1      -6.530   6.976   0.830  1.00  0.00     0.261 C 
BRANCH   5   6
ATOM      6  O   UNL     1      -5.618   6.062  -0.283  1.00  0.00    -0.460 OA
BRANCH   6   7
ATOM      7  C   UNL     1      -4.342   5.417  -0.291  1.00  0.00     0.339 C 
ATOM      8  O   UNL     1      -3.486   5.449   0.595  1.00  0.00    -0.246 OA
BRANCH   7   9
ATOM      9  C   UNL     1      -3.712   4.516  -1.285  1.00  0.00     0.079 A 
ATOM     10  C   UNL     1      -1.899   2.735  -1.355  1.00  0.00    -0.017 A 
ATOM     11  C   UNL     1      -1.496   3.297  -2.566  1.00  0.00     0.010 A 
ATOM     12  C   UNL     1      -3.007   3.361  -0.744  1.00  0.00     0.026 A 
ATOM     13  C   UNL     1      -2.150   4.424  -3.111  1.00  0.00     0.022 A 
ATOM     14  C   UNL     1      -3.236   5.046  -2.469  1.00  0.00     0.055 A 
ATOM     15  Cl  UNL     1      -3.816   6.543  -3.095  1.00  0.00    -0.083 Cl
BRANCH  10  16
ATOM     16  C   UNL     1      -1.195   1.552  -0.765  1.00  0.00    -0.018 A 
ATOM     17  C   UNL     1       2.359   0.199  -0.048  1.00  0.00     0.044 C 
ATOM     18  C   UNL     1       0.861   0.301  -0.163  1.00  0.00    -0.051 A 
ATOM     19  C   UNL     1       0.092  -0.833   0.112  1.00  0.00     0.003 A 
ATOM     20  C   UNL     1       0.213   1.481  -0.604  1.00  0.00     0.012 A 
ATOM     21  C   UNL     1      -1.294  -0.776   0.003  1.00  0.00     0.001 A 
ATOM     22  C   UNL     1      -1.926   0.403  -0.417  1.00  0.00     0.009 A 
ENDBRANCH  10  16
ENDBRANCH   7   9
ENDBRANCH   6   7
ENDBRANCH   5   6
ENDBRANCH   4   5
ENDBRANCH   3   4
ENDBRANCH   2   3
ENDBRANCH   1   2
BRANCH   1  23
ATOM     23  O   UNL     1      -9.339   4.113   1.277  1.00  0.00    -0.376 OA
BRANCH  23  24
ATOM     24  C   UNL     1     -10.408   3.594   0.501  1.00  0.00     0.202 C 
BRANCH  24  25
ATOM     25  C   UNL     1     -10.201   2.116   0.109  1.00  0.00     0.261 C 
BRANCH  25  26
ATOM     26  O   UNL     1      -8.878   1.911  -0.449  1.00  0.00    -0.460 OA
BRANCH  26  27
ATOM     27  C   UNL     1      -7.994   1.129   0.255  1.00  0.00     0.338 C 
ATOM     28  O   UNL     1      -8.261   0.041   0.743  1.00  0.00    -0.246 OA
BRANCH  27  29
ATOM     29  C   UNL     1      -6.743   1.911   0.564  1.00  0.00     0.060 A 
ATOM     30  C   UNL     1      -5.750   1.595   1.508  1.00  0.00     0.016 A 
ATOM     31  C   UNL     1      -6.770   3.202   0.177  1.00  0.00     0.016 A 
ATOM     32  C   UNL     1      -4.940   2.630   2.166  1.00  0.00     0.010 A 
ATOM     33  C   UNL     1      -6.195   4.106   1.066  1.00  0.00     0.010 A 
ATOM     34  C   UNL     1      -5.189   3.998   2.024  1.00  0.00    -0.014 A 
BRANCH  34  35
ATOM     35  C   UNL     1      -4.682   5.236   2.938  1.00  0.00     0.031 A 
ATOM     36  C   UNL     1      -3.866   6.675   2.658  1.00  0.00     0.074 A 
ATOM     37  C   UNL     1      -4.956   5.074   4.255  1.00  0.00     0.049 A 
ATOM     38  N   UNL     1      -3.072   7.247   3.554  1.00  0.00    -0.248 NA
ATOM     39  C   UNL     1      -3.755   7.551   1.431  1.00  0.00     0.031 C 
ATOM     40  C   UNL     1      -4.861   6.057   5.332  1.00  0.00     0.029 A 
ATOM     41  N   UNL     1      -5.266   3.878   4.925  1.00  0.00    -0.354 N 
ATOM     42  C   UNL     1      -2.647   8.479   3.042  1.00  0.00     0.074 A 
ATOM     43  C   UNL     1      -2.772   8.402   1.654  1.00  0.00     0.031 C 
ATOM     44  C   UNL     1      -4.760   5.402   6.498  1.00  0.00     0.029 A 
ATOM     45  C   UNL     1      -4.669   3.988   6.190  1.00  0.00     0.049 A 
ATOM     46  H   UNL     1      -5.792   3.121   4.578  1.00  0.00     0.167 HD
ATOM     47  C   UNL     1      -2.432   9.599   3.781  1.00  0.00     0.037 A 
ATOM     48  C   UNL     1      -3.698   3.119   6.583  1.00  0.00     0.037 A 
ATOM     49  C   UNL     1      -2.188   9.212   5.144  1.00  0.00     0.049 A 
ATOM     50  C   UNL     1      -2.415   3.810   6.980  1.00  0.00     0.074 A 
ATOM     51  C   UNL     1      -2.906   9.291   6.317  1.00  0.00     0.029 A 
ATOM     52  N   UNL     1      -1.153   8.314   5.361  1.00  0.00    -0.354 N 
ATOM     53  N   UNL     1      -2.200   5.089   6.826  1.00  0.00    -0.248 NA
ATOM     54  C   UNL     1      -1.260   3.126   7.552  1.00  0.00     0.031 C 
ATOM     55  C   UNL     1      -2.383   8.292   7.191  1.00  0.00     0.029 A 
ATOM     56  C   UNL     1      -1.306   7.678   6.572  1.00  0.00     0.049 A 
ATOM     57  H   UNL     1      -0.411   8.153   4.734  1.00  0.00     0.167 HD
ATOM     58  C   UNL     1      -0.907   5.385   7.154  1.00  0.00     0.074 A 
ATOM     59  C   UNL     1      -0.376   4.134   7.658  1.00  0.00     0.031 C 
ATOM     60  C   UNL     1      -0.369   6.619   6.927  1.00  0.00     0.037 A 
BRANCH  47  61
ATOM     61  C   UNL     1      -2.566  11.040   3.248  1.00  0.00     0.064 A 
ATOM     62  C   UNL     1      -2.218  12.133   4.069  1.00  0.00     0.173 A 
ATOM     63  C   UNL     1      -3.133  11.434   2.001  1.00  0.00     0.173 A 
ATOM     64  F   UNL     1      -1.720  11.935   5.296  1.00  0.00    -0.203 F 
ATOM     65  C   UNL     1      -2.400  13.473   3.673  1.00  0.00     0.198 A 
ATOM     66  C   UNL     1      -3.239  12.765   1.577  1.00  0.00     0.198 A 
ATOM     67  F   UNL     1      -3.701  10.570   1.152  1.00  0.00    -0.203 F 
ATOM     68  F   UNL     1      -2.116  14.464   4.529  1.00  0.00    -0.200 F 
ATOM     69  C   UNL     1      -2.888  13.789   2.420  1.00  0.00     0.200 A 
ATOM     70  F   UNL     1      -3.731  13.038   0.358  1.00  0.00    -0.200 F 
ATOM     71  F   UNL     1      -3.055  15.064   2.042  1.00  0.00    -0.200 F 
ENDBRANCH  47  61
BRANCH  48  72
ATOM     72  C   UNL     1      -3.865   1.751   6.002  1.00  0.00     0.064 A 
ATOM     73  C   UNL     1      -5.096   1.091   6.232  1.00  0.00     0.173 A 
ATOM     74  C   UNL     1      -3.059   1.240   4.978  1.00  0.00     0.173 A 
ATOM     75  F   UNL     1      -5.923   1.536   7.194  1.00  0.00    -0.203 F 
ATOM     76  C   UNL     1      -5.552   0.065   5.406  1.00  0.00     0.198 A 
ATOM     77  C   UNL     1      -3.506   0.182   4.170  1.00  0.00     0.198 A 
ATOM     78  F   UNL     1      -1.905   1.842   4.658  1.00  0.00    -0.203 F 
ATOM     79  F   UNL     1      -6.788  -0.428   5.571  1.00  0.00    -0.200 F 
ATOM     80  C   UNL     1      -4.762  -0.378   4.364  1.00  0.00     0.200 A 
ATOM     81  F   UNL     1      -2.781  -0.202   3.108  1.00  0.00    -0.200 F 
ATOM     82  F   UNL     1      -5.238  -1.287   3.500  1.00  0.00    -0.200 F 
ENDBRANCH  48  72
BRANCH  60  83
ATOM     83  C   UNL     1       1.104   6.949   6.970  1.00  0.00     0.064 A 
ATOM     84  C   UNL     1       2.123   6.037   6.652  1.00  0.00     0.173 A 
ATOM     85  C   UNL     1       1.519   8.291   7.154  1.00  0.00     0.173 A 
ATOM     86  F   UNL     1       1.849   4.762   6.343  1.00  0.00    -0.203 F 
ATOM     87  C   UNL     1       3.463   6.426   6.574  1.00  0.00     0.198 A 
ATOM     88  C   UNL     1       2.847   8.687   7.006  1.00  0.00     0.198 A 
ATOM     89  F   UNL     1       0.637   9.260   7.444  1.00  0.00    -0.203 F 
ATOM     90  F   UNL     1       4.404   5.509   6.308  1.00  0.00    -0.200 F 
ATOM     91  C   UNL     1       3.822   7.751   6.732  1.00  0.00     0.200 A 
ATOM     92  F   UNL     1       3.170   9.985   7.103  1.00  0.00    -0.200 F 
ATOM     93  F   UNL     1       5.100   8.127   6.598  1.00  0.00    -0.200 F 
ENDBRANCH  60  83
ENDBRANCH  34  35
ENDBRANCH  27  29
ENDBRANCH  26  27
ENDBRANCH  25  26
ENDBRANCH  24  25
ENDBRANCH  23  24
ENDBRANCH   1  23
TORSDOF 18
