REMARK SMILES O=C(OCCOCCOCCOC(=O)c1ccc(-c2c3nc(c(-c4c(F)c(F)c(F)c(F)c4F)c4ccc([nH]4)c(-c4c(F)c(F)c(F)c(F)c4F)c4nc(c(-c5c(F)c(F)c(F)c(F)c5F)c5ccc2[nH]5)C=C4)C=C3)cc1)C1=NN(c2ccc(S(=O)(=O)[O-])cc2)C(=O)/C1=C/Nc1ccccc1
REMARK SMILES IDX 7 1 6 2 5 3 4 4 3 5 2 6 1 7 78 8 79 9 93 10 80 11 91 12
REMARK SMILES IDX 94 13 92 14 81 15 82 16 90 17 83 18 89 19 84 20 85 21 86 22
REMARK SMILES IDX 87 23 88 24 95 25 96 27 97 28 101 29 98 30 100 31 99 32 8 33
REMARK SMILES IDX 9 34 10 35 11 36 12 37 13 38 14 39 15 40 16 41 77 42 17 43
REMARK SMILES IDX 76 44 18 45 19 46 20 47 70 48 21 49 75 50 69 51 71 52 22 53
REMARK SMILES IDX 74 54 68 55 67 56 23 58 55 59 35 60 54 61 36 62 39 63 53 64
REMARK SMILES IDX 72 65 37 66 38 67 52 69 73 70 40 71 24 72 25 73 33 74 26 75
REMARK SMILES IDX 27 76 31 77 34 78 28 79 29 80 32 81 30 82 56 83 57 84 65 85
REMARK SMILES IDX 58 86 59 87 63 88 66 89 60 90 61 91 64 92 62 93 41 94 42 95
REMARK SMILES IDX 50 96 43 97 44 98 48 99 51 100 45 101 46 102 49 103 47 104
REMARK H PARENT 95 26 71 57 39 68
REMARK Flexibility Score: inf
ROOT
ATOM      1  C   UNL     1       3.069   0.545   2.249  1.00  0.00     0.188 C 
ENDROOT
BRANCH   1   2
ATOM      2  O   UNL     1       4.119   1.480   2.072  1.00  0.00    -0.376 OA
BRANCH   2   3
ATOM      3  C   UNL     1       4.729   1.444   0.789  1.00  0.00     0.202 C 
BRANCH   3   4
ATOM      4  C   UNL     1       3.958   2.296  -0.204  1.00  0.00     0.261 C 
BRANCH   4   5
ATOM      5  O   UNL     1       2.558   1.922  -0.342  1.00  0.00    -0.458 OA
BRANCH   5   6
ATOM      6  C   UNL     1       2.080   0.678  -0.530  1.00  0.00     0.359 C 
ATOM      7  O   UNL     1       0.922   0.347  -0.331  1.00  0.00    -0.244 OA
BRANCH   6   8
ATOM      8  C   UNL     1       3.000  -0.310  -1.157  1.00  0.00     0.183 C 
ATOM      9  N   UNL     1       3.419   0.027  -2.338  1.00  0.00    -0.157 NA
ATOM     10  C   UNL     1       3.457  -1.652  -0.693  1.00  0.00     0.093 C 
ATOM     11  N   UNL     1       4.068  -1.036  -2.882  1.00  0.00    -0.196 N 
ATOM     12  C   UNL     1       4.232  -2.100  -1.983  1.00  0.00     0.282 C 
ATOM     13  C   UNL     1       3.439  -2.520   0.362  1.00  0.00     0.099 C 
ATOM     14  O   UNL     1       4.812  -3.158  -2.149  1.00  0.00    -0.267 OA
BRANCH  11  15
ATOM     15  C   UNL     1       4.143  -0.994  -4.307  1.00  0.00     0.069 A 
ATOM     16  C   UNL     1       3.668   0.180  -4.941  1.00  0.00     0.030 A 
ATOM     17  C   UNL     1       4.465  -2.086  -5.117  1.00  0.00     0.030 A 
ATOM     18  C   UNL     1       3.316   0.206  -6.282  1.00  0.00     0.021 A 
ATOM     19  C   UNL     1       4.164  -2.048  -6.496  1.00  0.00     0.021 A 
ATOM     20  C   UNL     1       3.507  -0.935  -7.038  1.00  0.00     0.054 A 
BRANCH  20  21
ATOM     21  S   UNL     1       2.798  -0.918  -8.654  1.00  0.00     0.124 S 
ATOM     22  O   UNL     1       1.415  -1.367  -8.526  1.00  0.00    -0.237 OA
ATOM     23  O   UNL     1       3.156   0.302  -9.305  1.00  0.00    -0.237 OA
ATOM     24  O   UNL     1       3.588  -2.053  -9.465  1.00  0.00    -0.744 OA
ENDBRANCH  20  21
ENDBRANCH  11  15
BRANCH  13  25
ATOM     25  N   UNL     1       2.961  -2.850   1.681  1.00  0.00    -0.361 N 
ATOM     26  H   UNL     1       2.088  -2.419   1.827  1.00  0.00     0.166 HD
BRANCH  25  27
ATOM     27  C   UNL     1       3.353  -3.655   2.949  1.00  0.00     0.038 A 
ATOM     28  C   UNL     1       2.330  -3.827   3.893  1.00  0.00     0.026 A 
ATOM     29  C   UNL     1       4.652  -3.918   3.514  1.00  0.00     0.026 A 
ATOM     30  C   UNL     1       2.597  -4.065   5.274  1.00  0.00     0.002 A 
ATOM     31  C   UNL     1       4.930  -4.111   4.891  1.00  0.00     0.002 A 
ATOM     32  C   UNL     1       3.891  -4.151   5.785  1.00  0.00     0.000 A 
ENDBRANCH  25  27
ENDBRANCH  13  25
ENDBRANCH   6   8
ENDBRANCH   5   6
ENDBRANCH   4   5
ENDBRANCH   3   4
ENDBRANCH   2   3
ENDBRANCH   1   2
BRANCH   1  33
ATOM     33  C   UNL     1       3.396  -0.326   3.431  1.00  0.00     0.188 C 
BRANCH  33  34
ATOM     34  O   UNL     1       4.289  -1.393   3.116  1.00  0.00    -0.376 OA
BRANCH  34  35
ATOM     35  C   UNL     1       5.568  -1.436   2.491  1.00  0.00     0.202 C 
BRANCH  35  36
ATOM     36  C   UNL     1       6.057  -2.600   1.302  1.00  0.00     0.261 C 
BRANCH  36  37
ATOM     37  O   UNL     1       5.711  -4.136   0.847  1.00  0.00    -0.460 OA
BRANCH  37  38
ATOM     38  C   UNL     1       4.819  -5.218   0.974  1.00  0.00     0.338 C 
ATOM     39  O   UNL     1       4.958  -6.096   1.825  1.00  0.00    -0.246 OA
BRANCH  38  40
ATOM     40  C   UNL     1       3.908  -5.595  -0.219  1.00  0.00     0.060 A 
ATOM     41  C   UNL     1       2.560  -5.179  -0.415  1.00  0.00     0.016 A 
ATOM     42  C   UNL     1       4.392  -6.520  -1.134  1.00  0.00     0.016 A 
ATOM     43  C   UNL     1       1.827  -5.459  -1.596  1.00  0.00     0.010 A 
ATOM     44  C   UNL     1       3.631  -6.882  -2.265  1.00  0.00     0.010 A 
ATOM     45  C   UNL     1       2.365  -6.323  -2.543  1.00  0.00    -0.014 A 
BRANCH  45  46
ATOM     46  C   UNL     1       1.623  -6.858  -3.727  1.00  0.00     0.031 A 
ATOM     47  C   UNL     1       1.058  -8.246  -3.627  1.00  0.00     0.074 A 
ATOM     48  C   UNL     1       1.624  -6.253  -4.931  1.00  0.00     0.049 A 
ATOM     49  N   UNL     1       0.782  -9.109  -4.571  1.00  0.00    -0.248 NA
ATOM     50  C   UNL     1       0.787  -8.725  -2.265  1.00  0.00     0.031 C 
ATOM     51  C   UNL     1       1.987  -4.867  -5.208  1.00  0.00     0.029 A 
ATOM     52  N   UNL     1       1.376  -6.787  -6.183  1.00  0.00    -0.354 N 
ATOM     53  C   UNL     1       0.340 -10.250  -3.917  1.00  0.00     0.074 A 
ATOM     54  C   UNL     1       0.399  -9.971  -2.496  1.00  0.00     0.031 C 
ATOM     55  C   UNL     1       2.052  -4.700  -6.543  1.00  0.00     0.029 A 
ATOM     56  C   UNL     1       1.821  -5.975  -7.203  1.00  0.00     0.049 A 
ATOM     57  H   UNL     1       0.931  -7.653  -6.329  1.00  0.00     0.167 HD
ATOM     58  C   UNL     1      -0.067 -11.426  -4.453  1.00  0.00     0.037 A 
ATOM     59  C   UNL     1       2.091  -6.249  -8.495  1.00  0.00     0.037 A 
ATOM     60  C   UNL     1      -0.123 -11.706  -5.865  1.00  0.00     0.049 A 
ATOM     61  C   UNL     1       1.765  -7.606  -9.057  1.00  0.00     0.074 A 
ATOM     62  C   UNL     1      -0.597 -12.839  -6.505  1.00  0.00     0.029 A 
ATOM     63  N   UNL     1       0.338 -10.856  -6.855  1.00  0.00    -0.354 N 
ATOM     64  N   UNL     1       1.303  -8.666  -8.449  1.00  0.00    -0.248 NA
ATOM     65  C   UNL     1       1.964  -7.784 -10.506  1.00  0.00     0.031 C 
ATOM     66  C   UNL     1      -0.346 -12.710  -7.875  1.00  0.00     0.029 A 
ATOM     67  C   UNL     1       0.210 -11.464  -8.095  1.00  0.00     0.049 A 
ATOM     68  H   UNL     1       0.701  -9.954  -6.702  1.00  0.00     0.167 HD
ATOM     69  C   UNL     1       1.095  -9.607  -9.447  1.00  0.00     0.074 A 
ATOM     70  C   UNL     1       1.482  -8.999 -10.698  1.00  0.00     0.031 C 
ATOM     71  C   UNL     1       0.603 -10.862  -9.337  1.00  0.00     0.037 A 
BRANCH  58  72
ATOM     72  C   UNL     1      -0.431 -12.528  -3.504  1.00  0.00     0.064 A 
ATOM     73  C   UNL     1      -1.566 -12.462  -2.684  1.00  0.00     0.173 A 
ATOM     74  C   UNL     1       0.362 -13.684  -3.438  1.00  0.00     0.173 A 
ATOM     75  F   UNL     1      -2.355 -11.377  -2.706  1.00  0.00    -0.203 F 
ATOM     76  C   UNL     1      -1.870 -13.494  -1.800  1.00  0.00     0.198 A 
ATOM     77  C   UNL     1       0.034 -14.730  -2.582  1.00  0.00     0.198 A 
ATOM     78  F   UNL     1       1.453 -13.804  -4.210  1.00  0.00    -0.203 F 
ATOM     79  F   UNL     1      -2.924 -13.383  -0.981  1.00  0.00    -0.200 F 
ATOM     80  C   UNL     1      -1.074 -14.629  -1.755  1.00  0.00     0.200 A 
ATOM     81  F   UNL     1       0.792 -15.835  -2.556  1.00  0.00    -0.200 F 
ATOM     82  F   UNL     1      -1.371 -15.624  -0.908  1.00  0.00    -0.200 F 
ENDBRANCH  58  72
BRANCH  59  83
ATOM     83  C   UNL     1       2.806  -5.300  -9.393  1.00  0.00     0.064 A 
ATOM     84  C   UNL     1       2.146  -4.692 -10.472  1.00  0.00     0.173 A 
ATOM     85  C   UNL     1       4.206  -5.202  -9.339  1.00  0.00     0.173 A 
ATOM     86  F   UNL     1       0.816  -4.807 -10.592  1.00  0.00    -0.203 F 
ATOM     87  C   UNL     1       2.865  -4.077 -11.496  1.00  0.00     0.198 A 
ATOM     88  C   UNL     1       4.920  -4.561 -10.351  1.00  0.00     0.198 A 
ATOM     89  F   UNL     1       4.883  -5.763  -8.327  1.00  0.00    -0.203 F 
ATOM     90  F   UNL     1       2.219  -3.544 -12.543  1.00  0.00    -0.200 F 
ATOM     91  C   UNL     1       4.251  -4.020 -11.440  1.00  0.00     0.200 A 
ATOM     92  F   UNL     1       6.254  -4.452 -10.267  1.00  0.00    -0.200 F 
ATOM     93  F   UNL     1       4.935  -3.379 -12.398  1.00  0.00    -0.200 F 
ENDBRANCH  59  83
BRANCH  71  94
ATOM     94  C   UNL     1       0.396 -11.620 -10.613  1.00  0.00     0.064 A 
ATOM     95  C   UNL     1       1.470 -12.077 -11.392  1.00  0.00     0.173 A 
ATOM     96  C   UNL     1      -0.904 -11.855 -11.083  1.00  0.00     0.173 A 
ATOM     97  F   UNL     1       2.734 -11.838 -11.007  1.00  0.00    -0.203 F 
ATOM     98  C   UNL     1       1.249 -12.712 -12.610  1.00  0.00     0.198 A 
ATOM     99  C   UNL     1      -1.122 -12.524 -12.283  1.00  0.00     0.198 A 
ATOM    100  F   UNL     1      -1.965 -11.423 -10.384  1.00  0.00    -0.203 F 
ATOM    101  F   UNL     1       2.290 -13.072 -13.374  1.00  0.00    -0.200 F 
ATOM    102  C   UNL     1      -0.046 -12.943 -13.050  1.00  0.00     0.200 A 
ATOM    103  F   UNL     1      -2.374 -12.748 -12.705  1.00  0.00    -0.200 F 
ATOM    104  F   UNL     1      -0.257 -13.553 -14.224  1.00  0.00    -0.200 F 
ENDBRANCH  71  94
ENDBRANCH  45  46
ENDBRANCH  38  40
ENDBRANCH  37  38
ENDBRANCH  36  37
ENDBRANCH  35  36
ENDBRANCH  34  35
ENDBRANCH  33  34
ENDBRANCH   1  33
TORSDOF 21
