REMARK SMILES CC(C)(C)C[N@H+]1[C@@H](C(=O)OCCOCCOCCOC(=O)c2ccc(-c3c4nc(c(-c5c(F)c(F)c(F)c(F)c5F)c5ccc([nH]5)c(-c5c(F)c(F)c(F)c(F)c5F)c5nc(c(-c6c(F)c(F)c(F)c(F)c6F)c6ccc3[nH]6)C=C5)C=C4)cc2)CC[C@H]2CCCC[C@@H]21
REMARK SMILES IDX 14 1 13 2 12 3 11 4 10 5 8 6 9 7 7 8 6 9 92 10 85 12 87 13
REMARK SMILES IDX 91 14 86 15 88 16 90 17 89 18 5 19 2 20 1 21 3 22 4 23 15 24
REMARK SMILES IDX 16 25 17 26 18 27 19 28 20 29 21 30 22 31 23 32 84 33 24 34
REMARK SMILES IDX 83 35 25 36 26 37 27 38 77 39 28 40 82 41 76 42 78 43 29 44
REMARK SMILES IDX 81 45 75 46 74 47 30 49 62 50 42 51 61 52 43 53 46 54 60 55
REMARK SMILES IDX 79 56 44 57 45 58 59 60 80 61 47 62 31 63 32 64 40 65 33 66
REMARK SMILES IDX 34 67 38 68 41 69 35 70 36 71 39 72 37 73 63 74 64 75 72 76
REMARK SMILES IDX 65 77 66 78 70 79 73 80 67 81 68 82 71 83 69 84 48 85 49 86
REMARK SMILES IDX 57 87 50 88 51 89 55 90 58 91 52 92 53 93 56 94 54 95
REMARK H PARENT 6 11 78 48 46 59
REMARK Flexibility Score: inf
ROOT
ATOM      1  C   UNL     1      -4.001   3.754   1.938  1.00  0.00     0.188 C 
ENDROOT
BRANCH   1   2
ATOM      2  O   UNL     1      -3.946   5.119   2.353  1.00  0.00    -0.376 OA
BRANCH   2   3
ATOM      3  C   UNL     1      -2.728   5.822   2.106  1.00  0.00     0.202 C 
BRANCH   3   4
ATOM      4  C   UNL     1      -1.509   5.285   2.861  1.00  0.00     0.261 C 
BRANCH   4   5
ATOM      5  O   UNL     1      -1.161   3.965   2.403  1.00  0.00    -0.459 OA
BRANCH   5   6
ATOM      6  C   UNL     1      -0.035   3.455   2.971  1.00  0.00     0.364 C 
ATOM      7  O   UNL     1       0.737   4.114   3.660  1.00  0.00    -0.245 OA
BRANCH   6   8
ATOM      8  C   UNL     1       0.094   1.938   2.748  1.00  0.00     0.295 C 
ATOM      9  N   UNL     1       1.393   1.528   2.198  1.00  0.00    -0.320 N 
ATOM     10  C   UNL     1       1.677   0.106   2.413  1.00  0.00     0.187 C 
ATOM     11  H   UNL     1       2.071   2.007   2.791  1.00  0.00     0.349 HD
ATOM     12  C   UNL     1      -1.054   1.211   2.040  1.00  0.00     0.078 C 
ATOM     13  C   UNL     1       0.395  -0.735   2.634  1.00  0.00     0.048 C 
ATOM     14  C   UNL     1       2.557  -0.138   3.652  1.00  0.00     0.065 C 
ATOM     15  C   UNL     1      -0.713  -0.262   1.717  1.00  0.00     0.016 C 
ATOM     16  C   UNL     1       0.744  -2.215   2.520  1.00  0.00     0.010 C 
ATOM     17  C   UNL     1       2.897  -1.633   3.780  1.00  0.00     0.006 C 
ATOM     18  C   UNL     1       1.689  -2.575   3.669  1.00  0.00     0.001 C 
BRANCH   9  19
ATOM     19  C   UNL     1       1.874   2.167   0.961  1.00  0.00     0.269 C 
BRANCH  19  20
ATOM     20  C   UNL     1       1.629   1.725  -0.540  1.00  0.00     0.011 C 
ATOM     21  C   UNL     1       2.118   0.302  -0.857  1.00  0.00     0.017 C 
ATOM     22  C   UNL     1       2.476   2.686  -1.421  1.00  0.00     0.017 C 
ATOM     23  C   UNL     1       0.182   1.886  -1.037  1.00  0.00     0.017 C 
ENDBRANCH  19  20
ENDBRANCH   9  19
ENDBRANCH   6   8
ENDBRANCH   5   6
ENDBRANCH   4   5
ENDBRANCH   3   4
ENDBRANCH   2   3
ENDBRANCH   1   2
BRANCH   1  24
ATOM     24  C   UNL     1      -3.550   3.457   0.504  1.00  0.00     0.188 C 
BRANCH  24  25
ATOM     25  O   UNL     1      -4.458   4.027  -0.437  1.00  0.00    -0.376 OA
BRANCH  25  26
ATOM     26  C   UNL     1      -4.574   3.236  -1.624  1.00  0.00     0.202 C 
BRANCH  26  27
ATOM     27  C   UNL     1      -5.863   2.408  -1.579  1.00  0.00     0.261 C 
BRANCH  27  28
ATOM     28  O   UNL     1      -5.921   1.495  -0.461  1.00  0.00    -0.460 OA
BRANCH  28  29
ATOM     29  C   UNL     1      -5.214   0.361  -0.602  1.00  0.00     0.338 C 
ATOM     30  O   UNL     1      -4.487   0.054  -1.545  1.00  0.00    -0.246 OA
BRANCH  29  31
ATOM     31  C   UNL     1      -5.320  -0.451   0.618  1.00  0.00     0.060 A 
ATOM     32  C   UNL     1      -4.257  -0.416   1.515  1.00  0.00     0.016 A 
ATOM     33  C   UNL     1      -6.367  -1.347   0.820  1.00  0.00     0.016 A 
ATOM     34  C   UNL     1      -4.187  -1.323   2.575  1.00  0.00     0.010 A 
ATOM     35  C   UNL     1      -6.314  -2.234   1.908  1.00  0.00     0.010 A 
ATOM     36  C   UNL     1      -5.201  -2.265   2.774  1.00  0.00    -0.014 A 
BRANCH  36  37
ATOM     37  C   UNL     1      -5.040  -3.363   3.776  1.00  0.00     0.031 A 
ATOM     38  C   UNL     1      -5.055  -4.795   3.304  1.00  0.00     0.074 A 
ATOM     39  C   UNL     1      -4.821  -3.129   5.086  1.00  0.00     0.049 A 
ATOM     40  N   UNL     1      -5.226  -5.899   3.987  1.00  0.00    -0.248 NA
ATOM     41  C   UNL     1      -4.853  -5.008   1.862  1.00  0.00     0.031 C 
ATOM     42  C   UNL     1      -4.642  -1.816   5.702  1.00  0.00     0.029 A 
ATOM     43  N   UNL     1      -4.705  -4.007   6.141  1.00  0.00    -0.354 N 
ATOM     44  C   UNL     1      -5.246  -6.924   3.050  1.00  0.00     0.074 A 
ATOM     45  C   UNL     1      -5.033  -6.317   1.754  1.00  0.00     0.031 C 
ATOM     46  C   UNL     1      -4.410  -1.974   7.016  1.00  0.00     0.029 A 
ATOM     47  C   UNL     1      -4.526  -3.389   7.356  1.00  0.00     0.049 A 
ATOM     48  H   UNL     1      -4.746  -4.985   6.035  1.00  0.00     0.167 HD
ATOM     49  C   UNL     1      -5.445  -8.249   3.253  1.00  0.00     0.037 A 
ATOM     50  C   UNL     1      -4.517  -3.894   8.606  1.00  0.00     0.037 A 
ATOM     51  C   UNL     1      -5.572  -8.864   4.548  1.00  0.00     0.049 A 
ATOM     52  C   UNL     1      -4.775  -5.363   8.819  1.00  0.00     0.074 A 
ATOM     53  C   UNL     1      -5.815 -10.191   4.858  1.00  0.00     0.029 A 
ATOM     54  N   UNL     1      -5.426  -8.193   5.752  1.00  0.00    -0.354 N 
ATOM     55  N   UNL     1      -4.960  -6.309   7.930  1.00  0.00    -0.248 NA
ATOM     56  C   UNL     1      -4.861  -5.828  10.212  1.00  0.00     0.031 C 
ATOM     57  C   UNL     1      -5.833 -10.320   6.252  1.00  0.00     0.029 A 
ATOM     58  C   UNL     1      -5.569  -9.079   6.807  1.00  0.00     0.049 A 
ATOM     59  H   UNL     1      -5.247  -7.229   5.843  1.00  0.00     0.167 HD
ATOM     60  C   UNL     1      -5.182  -7.474   8.653  1.00  0.00     0.074 A 
ATOM     61  C   UNL     1      -5.084  -7.125  10.054  1.00  0.00     0.031 C 
ATOM     62  C   UNL     1      -5.457  -8.720   8.195  1.00  0.00     0.037 A 
BRANCH  49  63
ATOM     63  C   UNL     1      -5.604  -9.117   2.041  1.00  0.00     0.064 A 
ATOM     64  C   UNL     1      -4.518  -9.494   1.242  1.00  0.00     0.173 A 
ATOM     65  C   UNL     1      -6.877  -9.596   1.692  1.00  0.00     0.173 A 
ATOM     66  F   UNL     1      -3.285  -9.046   1.524  1.00  0.00    -0.203 F 
ATOM     67  C   UNL     1      -4.703 -10.301   0.121  1.00  0.00     0.198 A 
ATOM     68  C   UNL     1      -7.055 -10.423   0.587  1.00  0.00     0.198 A 
ATOM     69  F   UNL     1      -7.949  -9.266   2.428  1.00  0.00    -0.203 F 
ATOM     70  F   UNL     1      -3.657 -10.614  -0.657  1.00  0.00    -0.200 F 
ATOM     71  C   UNL     1      -5.968 -10.769  -0.202  1.00  0.00     0.200 A 
ATOM     72  F   UNL     1      -8.277 -10.881   0.283  1.00  0.00    -0.200 F 
ATOM     73  F   UNL     1      -6.143 -11.547  -1.279  1.00  0.00    -0.200 F 
ENDBRANCH  49  63
BRANCH  50  74
ATOM     74  C   UNL     1      -4.328  -2.990   9.773  1.00  0.00     0.064 A 
ATOM     75  C   UNL     1      -3.177  -3.069  10.568  1.00  0.00     0.173 A 
ATOM     76  C   UNL     1      -5.299  -2.040  10.124  1.00  0.00     0.173 A 
ATOM     77  F   UNL     1      -2.236  -3.985  10.295  1.00  0.00    -0.203 F 
ATOM     78  C   UNL     1      -3.007  -2.236  11.673  1.00  0.00     0.198 A 
ATOM     79  C   UNL     1      -5.114  -1.187  11.210  1.00  0.00     0.198 A 
ATOM     80  F   UNL     1      -6.425  -1.933   9.404  1.00  0.00    -0.203 F 
ATOM     81  F   UNL     1      -1.916  -2.360  12.442  1.00  0.00    -0.200 F 
ATOM     82  C   UNL     1      -3.971  -1.289  11.987  1.00  0.00     0.200 A 
ATOM     83  F   UNL     1      -6.044  -0.268  11.503  1.00  0.00    -0.200 F 
ATOM     84  F   UNL     1      -3.803  -0.482  13.043  1.00  0.00    -0.200 F 
ENDBRANCH  50  74
BRANCH  62  85
ATOM     85  C   UNL     1      -5.645  -9.803   9.214  1.00  0.00     0.064 A 
ATOM     86  C   UNL     1      -6.831  -9.911   9.954  1.00  0.00     0.173 A 
ATOM     87  C   UNL     1      -4.649 -10.770   9.416  1.00  0.00     0.173 A 
ATOM     88  F   UNL     1      -7.805  -9.002   9.804  1.00  0.00    -0.203 F 
ATOM     89  C   UNL     1      -7.007 -10.942  10.873  1.00  0.00     0.198 A 
ATOM     90  C   UNL     1      -4.837 -11.810  10.322  1.00  0.00     0.198 A 
ATOM     91  F   UNL     1      -3.499 -10.710   8.728  1.00  0.00    -0.203 F 
ATOM     92  F   UNL     1      -8.135 -11.010  11.594  1.00  0.00    -0.200 F 
ATOM     93  C   UNL     1      -6.013 -11.894  11.052  1.00  0.00     0.200 A 
ATOM     94  F   UNL     1      -3.879 -12.733  10.489  1.00  0.00    -0.200 F 
ATOM     95  F   UNL     1      -6.187 -12.888  11.934  1.00  0.00    -0.200 F 
ENDBRANCH  62  85
ENDBRANCH  36  37
ENDBRANCH  29  31
ENDBRANCH  28  29
ENDBRANCH  27  28
ENDBRANCH  26  27
ENDBRANCH  25  26
ENDBRANCH  24  25
ENDBRANCH   1  24
TORSDOF 19
