REMARK SMILES C[NH+]1CCC(C(=O)N2C[C@@H](C(=O)OCCOCCOCCOC(=O)c3ccc(-c4c5nc(c(-c6c(F)c(F)c(F)c(F)c6F)c6ccc([nH]6)c(-c6c(F)c(F)c(F)c(F)c6F)c6nc(c(-c7c(F)c(F)c(F)c(F)c7F)c7ccc4[nH]7)C=C6)C=C5)cc3)[C@H](c3ccc4c(c3)OCO4)C2)CC1
REMARK SMILES IDX 17 1 16 2 15 3 14 4 13 5 11 6 12 7 10 8 8 9 9 10 98 11 88 12
REMARK SMILES IDX 6 13 7 14 5 15 1 16 2 17 3 18 100 19 4 21 99 22 89 23 90 24
REMARK SMILES IDX 94 25 91 26 93 27 92 28 95 29 97 30 96 31 18 32 19 33 20 34
REMARK SMILES IDX 21 35 22 36 23 37 24 38 25 39 26 40 87 41 27 42 86 43 28 44
REMARK SMILES IDX 29 45 30 46 80 47 31 48 85 49 79 50 81 51 32 52 84 53 78 54
REMARK SMILES IDX 77 55 33 57 65 58 45 59 64 60 46 61 49 62 63 63 82 64 47 65
REMARK SMILES IDX 48 66 62 68 83 69 50 70 34 71 35 72 43 73 36 74 37 75 41 76
REMARK SMILES IDX 44 77 38 78 39 79 42 80 40 81 66 82 67 83 75 84 68 85 69 86
REMARK SMILES IDX 73 87 76 88 70 89 71 90 74 91 72 92 51 93 52 94 60 95 53 96
REMARK SMILES IDX 54 97 58 98 61 99 55 100 56 101 59 102 57 103
REMARK H PARENT 2 20 81 56 49 67
REMARK Flexibility Score: inf
ROOT
ATOM      1  C   UNL     1       1.619  -2.983   5.122  1.00  0.00     0.188 C 
ENDROOT
BRANCH   1   2
ATOM      2  O   UNL     1       2.008  -3.573   6.355  1.00  0.00    -0.376 OA
BRANCH   2   3
ATOM      3  C   UNL     1       2.384  -2.750   7.452  1.00  0.00     0.202 C 
BRANCH   3   4
ATOM      4  C   UNL     1       3.427  -1.645   7.248  1.00  0.00     0.261 C 
BRANCH   4   5
ATOM      5  O   UNL     1       3.192  -0.814   6.105  1.00  0.00    -0.463 OA
BRANCH   5   6
ATOM      6  C   UNL     1       4.075  -0.905   5.072  1.00  0.00     0.311 C 
ATOM      7  O   UNL     1       5.047  -1.645   5.028  1.00  0.00    -0.252 OA
BRANCH   6   8
ATOM      8  C   UNL     1       3.677   0.044   3.971  1.00  0.00     0.128 C 
ATOM      9  N   UNL     1       3.641   0.376   1.680  1.00  0.00    -0.341 N 
ATOM     10  C   UNL     1       3.476  -0.676   2.656  1.00  0.00     0.135 C 
ATOM     11  C   UNL     1       4.651   1.316   2.159  1.00  0.00     0.128 C 
ATOM     12  C   UNL     1       4.767   1.105   3.688  1.00  0.00     0.055 C 
BRANCH   9  13
ATOM     13  C   UNL     1       3.412   0.234   0.326  1.00  0.00     0.226 C 
ATOM     14  O   UNL     1       4.323   0.387  -0.491  1.00  0.00    -0.275 OA
BRANCH  13  15
ATOM     15  C   UNL     1       1.962   0.118  -0.166  1.00  0.00     0.090 C 
ATOM     16  C   UNL     1      -2.342   0.025  -0.163  1.00  0.00     0.332 C 
ATOM     17  N   UNL     1      -0.926   0.025   0.209  1.00  0.00    -0.337 N 
ATOM     18  C   UNL     1      -0.288   1.282  -0.200  1.00  0.00     0.262 C 
ATOM     19  C   UNL     1      -0.227  -1.119  -0.390  1.00  0.00     0.262 C 
ATOM     20  H   UNL     1      -0.865  -0.060   1.224  1.00  0.00     0.347 HD
ATOM     21  C   UNL     1       1.153   1.333   0.306  1.00  0.00     0.075 C 
ATOM     22  C   UNL     1       1.216  -1.178   0.129  1.00  0.00     0.075 C 
ENDBRANCH  13  15
ENDBRANCH   9  13
BRANCH  12  23
ATOM     23  C   UNL     1       4.526   2.265   4.652  1.00  0.00    -0.038 A 
ATOM     24  C   UNL     1       3.975   3.505   4.263  1.00  0.00     0.008 A 
ATOM     25  C   UNL     1       4.672   1.996   6.031  1.00  0.00     0.054 A 
ATOM     26  C   UNL     1       3.461   4.397   5.216  1.00  0.00     0.051 A 
ATOM     27  C   UNL     1       4.070   2.840   6.933  1.00  0.00     0.166 A 
ATOM     28  C   UNL     1       3.465   4.004   6.535  1.00  0.00     0.165 A 
ATOM     29  O   UNL     1       3.905   2.593   8.261  1.00  0.00    -0.454 OA
ATOM     30  O   UNL     1       2.850   4.638   7.570  1.00  0.00    -0.454 OA
ATOM     31  C   UNL     1       2.932   3.609   8.580  1.00  0.00     0.468 C 
ENDBRANCH  12  23
ENDBRANCH   6   8
ENDBRANCH   5   6
ENDBRANCH   4   5
ENDBRANCH   3   4
ENDBRANCH   2   3
ENDBRANCH   1   2
BRANCH   1  32
ATOM     32  C   UNL     1       0.625  -1.799   5.094  1.00  0.00     0.188 C 
BRANCH  32  33
ATOM     33  O   UNL     1       0.219  -1.359   6.365  1.00  0.00    -0.376 OA
BRANCH  33  34
ATOM     34  C   UNL     1      -1.017  -1.805   6.892  1.00  0.00     0.202 C 
BRANCH  34  35
ATOM     35  C   UNL     1      -1.675  -3.161   6.553  1.00  0.00     0.261 C 
BRANCH  35  36
ATOM     36  O   UNL     1      -1.150  -3.922   5.458  1.00  0.00    -0.460 OA
BRANCH  36  37
ATOM     37  C   UNL     1      -1.819  -3.856   4.287  1.00  0.00     0.338 C 
ATOM     38  O   UNL     1      -2.809  -3.178   4.035  1.00  0.00    -0.246 OA
BRANCH  37  39
ATOM     39  C   UNL     1      -1.067  -4.605   3.264  1.00  0.00     0.060 A 
ATOM     40  C   UNL     1      -0.404  -3.889   2.261  1.00  0.00     0.016 A 
ATOM     41  C   UNL     1      -1.030  -6.001   3.269  1.00  0.00     0.016 A 
ATOM     42  C   UNL     1       0.284  -4.565   1.252  1.00  0.00     0.010 A 
ATOM     43  C   UNL     1      -0.363  -6.677   2.238  1.00  0.00     0.010 A 
ATOM     44  C   UNL     1       0.275  -5.963   1.208  1.00  0.00    -0.014 A 
BRANCH  44  45
ATOM     45  C   UNL     1       0.753  -6.656  -0.018  1.00  0.00     0.031 A 
ATOM     46  C   UNL     1      -0.271  -7.111  -1.024  1.00  0.00     0.074 A 
ATOM     47  C   UNL     1       2.063  -6.840  -0.266  1.00  0.00     0.049 A 
ATOM     48  N   UNL     1      -0.112  -7.811  -2.118  1.00  0.00    -0.248 NA
ATOM     49  C   UNL     1      -1.664  -6.716  -0.761  1.00  0.00     0.031 C 
ATOM     50  C   UNL     1       3.160  -6.372   0.577  1.00  0.00     0.029 A 
ATOM     51  N   UNL     1       2.690  -7.483  -1.307  1.00  0.00    -0.354 N 
ATOM     52  C   UNL     1      -1.385  -7.968  -2.653  1.00  0.00     0.074 A 
ATOM     53  C   UNL     1      -2.306  -7.294  -1.765  1.00  0.00     0.031 C 
ATOM     54  C   UNL     1       4.327  -6.759   0.030  1.00  0.00     0.029 A 
ATOM     55  C   UNL     1       4.057  -7.543  -1.175  1.00  0.00     0.049 A 
ATOM     56  H   UNL     1       2.206  -7.864  -2.075  1.00  0.00     0.167 HD
ATOM     57  C   UNL     1      -1.751  -8.621  -3.780  1.00  0.00     0.037 A 
ATOM     58  C   UNL     1       4.976  -8.189  -1.921  1.00  0.00     0.037 A 
ATOM     59  C   UNL     1      -0.832  -9.271  -4.677  1.00  0.00     0.049 A 
ATOM     60  C   UNL     1       4.527  -8.982  -3.127  1.00  0.00     0.074 A 
ATOM     61  C   UNL     1      -1.108  -9.935  -5.859  1.00  0.00     0.029 A 
ATOM     62  N   UNL     1       0.539  -9.344  -4.487  1.00  0.00    -0.354 N 
ATOM     63  N   UNL     1       3.325  -9.120  -3.632  1.00  0.00    -0.248 NA
ATOM     64  C   UNL     1       5.568  -9.713  -3.867  1.00  0.00     0.031 C 
ATOM     65  C   UNL     1       0.087 -10.467  -6.351  1.00  0.00     0.029 A 
ATOM     66  C   UNL     1       1.118 -10.071  -5.514  1.00  0.00     0.049 A 
ATOM     67  H   UNL     1       1.029  -8.939  -3.735  1.00  0.00     0.167 HD
ATOM     68  C   UNL     1       3.473  -9.909  -4.767  1.00  0.00     0.074 A 
ATOM     69  C   UNL     1       4.882 -10.214  -4.883  1.00  0.00     0.031 C 
ATOM     70  C   UNL     1       2.527 -10.341  -5.637  1.00  0.00     0.037 A 
BRANCH  57  71
ATOM     71  C   UNL     1      -3.215  -8.714  -4.095  1.00  0.00     0.064 A 
ATOM     72  C   UNL     1      -3.952  -7.610  -4.545  1.00  0.00     0.173 A 
ATOM     73  C   UNL     1      -3.871  -9.952  -4.007  1.00  0.00     0.173 A 
ATOM     74  F   UNL     1      -3.376  -6.402  -4.630  1.00  0.00    -0.203 F 
ATOM     75  C   UNL     1      -5.297  -7.740  -4.885  1.00  0.00     0.198 A 
ATOM     76  C   UNL     1      -5.206 -10.084  -4.376  1.00  0.00     0.198 A 
ATOM     77  F   UNL     1      -3.209 -11.039  -3.583  1.00  0.00    -0.203 F 
ATOM     78  F   UNL     1      -5.993  -6.665  -5.280  1.00  0.00    -0.200 F 
ATOM     79  C   UNL     1      -5.919  -8.978  -4.811  1.00  0.00     0.200 A 
ATOM     80  F   UNL     1      -5.800 -11.284  -4.318  1.00  0.00    -0.200 F 
ATOM     81  F   UNL     1      -7.207  -9.104  -5.157  1.00  0.00    -0.200 F 
ENDBRANCH  57  71
BRANCH  58  82
ATOM     82  C   UNL     1       6.418  -8.166  -1.542  1.00  0.00     0.064 A 
ATOM     83  C   UNL     1       7.382  -7.595  -2.387  1.00  0.00     0.173 A 
ATOM     84  C   UNL     1       6.871  -8.788  -0.369  1.00  0.00     0.173 A 
ATOM     85  F   UNL     1       7.006  -7.019  -3.538  1.00  0.00    -0.203 F 
ATOM     86  C   UNL     1       8.742  -7.681  -2.092  1.00  0.00     0.198 A 
ATOM     87  C   UNL     1       8.229  -8.841  -0.057  1.00  0.00     0.198 A 
ATOM     88  F   UNL     1       5.996  -9.360   0.471  1.00  0.00    -0.203 F 
ATOM     89  F   UNL     1       9.644  -7.199  -2.958  1.00  0.00    -0.200 F 
ATOM     90  C   UNL     1       9.164  -8.301  -0.926  1.00  0.00     0.200 A 
ATOM     91  F   UNL     1       8.631  -9.435   1.075  1.00  0.00    -0.200 F 
ATOM     92  F   UNL     1      10.472  -8.397  -0.651  1.00  0.00    -0.200 F 
ENDBRANCH  58  82
BRANCH  70  93
ATOM     93  C   UNL     1       2.985 -11.126  -6.835  1.00  0.00     0.064 A 
ATOM     94  C   UNL     1       3.482 -12.432  -6.726  1.00  0.00     0.173 A 
ATOM     95  C   UNL     1       2.878 -10.572  -8.122  1.00  0.00     0.173 A 
ATOM     96  F   UNL     1       3.615 -13.005  -5.520  1.00  0.00    -0.203 F 
ATOM     97  C   UNL     1       3.885 -13.143  -7.854  1.00  0.00     0.198 A 
ATOM     98  C   UNL     1       3.247 -11.298  -9.251  1.00  0.00     0.198 A 
ATOM     99  F   UNL     1       2.397  -9.330  -8.286  1.00  0.00    -0.203 F 
ATOM    100  F   UNL     1       4.407 -14.370  -7.720  1.00  0.00    -0.200 F 
ATOM    101  C   UNL     1       3.759 -12.579  -9.115  1.00  0.00     0.200 A 
ATOM    102  F   UNL     1       3.105 -10.758 -10.469  1.00  0.00    -0.200 F 
ATOM    103  F   UNL     1       4.137 -13.268 -10.200  1.00  0.00    -0.200 F 
ENDBRANCH  70  93
ENDBRANCH  44  45
ENDBRANCH  37  39
ENDBRANCH  36  37
ENDBRANCH  35  36
ENDBRANCH  34  35
ENDBRANCH  33  34
ENDBRANCH  32  33
ENDBRANCH   1  32
TORSDOF 20
