REMARK SMILES NS(=O)(=O)c1ccc(-n2nc(C(=O)NCCCC(=O)OCCOCCOCCOC(=O)c3ccc(-c4c5nc(c(-c6c(F)c(F)c(F)c(F)c6F)c6ccc([nH]6)c(-c6c(F)c(F)c(F)c(F)c6F)c6nc(c(-c7c(F)c(F)c(F)c(F)c7F)c7ccc4[nH]7)C=C6)C=C5)cc3)cc2-c2ccccc2)cc1
REMARK SMILES IDX 22 1 21 2 20 3 18 4 19 5 17 6 16 7 15 8 14 9 12 10 13 11
REMARK SMILES IDX 11 13 9 14 10 15 96 16 95 17 8 18 5 19 6 20 104 21 7 22
REMARK SMILES IDX 103 23 2 24 3 25 4 26 1 27 97 30 98 31 102 32 99 33 101 34
REMARK SMILES IDX 100 35 23 36 24 37 25 38 26 39 27 40 28 41 29 42 30 43 31 44
REMARK SMILES IDX 32 45 33 46 94 47 34 48 93 49 35 50 36 51 37 52 87 53 38 54
REMARK SMILES IDX 92 55 86 56 88 57 39 58 91 59 85 60 84 61 40 63 72 64 52 65
REMARK SMILES IDX 71 66 53 67 56 68 70 69 89 70 54 71 55 72 69 74 90 75 57 76
REMARK SMILES IDX 41 77 42 78 50 79 43 80 44 81 48 82 51 83 45 84 46 85 49 86
REMARK SMILES IDX 47 87 73 88 74 89 82 90 75 91 76 92 80 93 83 94 77 95 78 96
REMARK SMILES IDX 81 97 79 98 58 99 59 100 67 101 60 102 61 103 65 104 68 105
REMARK SMILES IDX 62 106 63 107 66 108 64 109
REMARK H PARENT 14 12 1 28 1 29 88 62 56 73
REMARK Flexibility Score: inf
ROOT
ATOM      1  C   UNL     1       2.421 -15.126   4.478  1.00  0.00     0.202 C 
ENDROOT
BRANCH   1   2
ATOM      2  C   UNL     1       1.769 -14.397   5.660  1.00  0.00     0.261 C 
BRANCH   2   3
ATOM      3  O   UNL     1       2.417 -13.152   5.981  1.00  0.00    -0.463 OA
BRANCH   3   4
ATOM      4  C   UNL     1       3.001 -13.043   7.197  1.00  0.00     0.305 C 
ATOM      5  O   UNL     1       2.931 -13.889   8.081  1.00  0.00    -0.252 OA
BRANCH   4   6
ATOM      6  C   UNL     1       3.818 -11.772   7.371  1.00  0.00     0.124 C 
BRANCH   6   7
ATOM      7  C   UNL     1       3.985 -10.809   6.195  1.00  0.00     0.033 C 
BRANCH   7   8
ATOM      8  C   UNL     1       2.699 -10.253   5.596  1.00  0.00     0.117 C 
BRANCH   8   9
ATOM      9  N   UNL     1       2.077  -9.272   6.454  1.00  0.00    -0.351 N 
ATOM     10  C   UNL     1       1.764  -7.940   6.313  1.00  0.00     0.271 C 
ATOM     11  O   UNL     1       1.208  -7.441   7.297  1.00  0.00    -0.267 OA
ATOM     12  H   UNL     1       1.820  -9.636   7.332  1.00  0.00     0.163 HD
BRANCH  10  13
ATOM     13  C   UNL     1       2.027  -7.156   5.082  1.00  0.00     0.151 A 
ATOM     14  N   UNL     1       1.862  -5.438   3.791  1.00  0.00    -0.232 N 
ATOM     15  N   UNL     1       1.726  -5.838   5.072  1.00  0.00    -0.162 NA
ATOM     16  C   UNL     1       2.490  -6.394   3.016  1.00  0.00     0.075 A 
ATOM     17  C   UNL     1       2.570  -7.510   3.822  1.00  0.00     0.065 A 
BRANCH  14  18
ATOM     18  C   UNL     1       1.388  -4.170   3.374  1.00  0.00     0.065 A 
ATOM     19  C   UNL     1       0.690  -1.653   2.437  1.00  0.00     0.082 A 
ATOM     20  C   UNL     1       0.420  -2.775   1.651  1.00  0.00     0.024 A 
ATOM     21  C   UNL     1       1.256  -1.784   3.712  1.00  0.00     0.024 A 
ATOM     22  C   UNL     1       0.781  -4.035   2.116  1.00  0.00     0.030 A 
ATOM     23  C   UNL     1       1.578  -3.054   4.197  1.00  0.00     0.030 A 
BRANCH  19  24
ATOM     24  S   UNL     1       0.362  -0.050   1.775  1.00  0.00     0.238 S 
ATOM     25  O   UNL     1       1.086   0.940   2.523  1.00  0.00    -0.207 OA
ATOM     26  O   UNL     1      -1.058   0.051   1.496  1.00  0.00    -0.207 OA
BRANCH  24  27
ATOM     27  N   UNL     1       1.125  -0.117   0.275  1.00  0.00    -0.225 NA
ATOM     28  H   UNL     1       1.001   0.772  -0.209  1.00  0.00     0.137 HD
ATOM     29  H   UNL     1       0.715  -0.867  -0.281  1.00  0.00     0.137 HD
ENDBRANCH  24  27
ENDBRANCH  19  24
ENDBRANCH  14  18
BRANCH  16  30
ATOM     30  C   UNL     1       3.014  -6.202   1.667  1.00  0.00     0.000 A 
ATOM     31  C   UNL     1       3.937  -5.181   1.400  1.00  0.00     0.010 A 
ATOM     32  C   UNL     1       2.603  -7.042   0.627  1.00  0.00     0.010 A 
ATOM     33  C   UNL     1       4.417  -4.984   0.105  1.00  0.00     0.001 A 
ATOM     34  C   UNL     1       3.082  -6.843  -0.668  1.00  0.00     0.001 A 
ATOM     35  C   UNL     1       3.985  -5.813  -0.929  1.00  0.00     0.000 A 
ENDBRANCH  16  30
ENDBRANCH  10  13
ENDBRANCH   8   9
ENDBRANCH   7   8
ENDBRANCH   6   7
ENDBRANCH   4   6
ENDBRANCH   3   4
ENDBRANCH   2   3
ENDBRANCH   1   2
BRANCH   1  36
ATOM     36  O   UNL     1       3.829 -15.322   4.583  1.00  0.00    -0.376 OA
BRANCH  36  37
ATOM     37  C   UNL     1       4.637 -14.145   4.502  1.00  0.00     0.188 C 
BRANCH  37  38
ATOM     38  C   UNL     1       4.307 -13.239   3.315  1.00  0.00     0.188 C 
BRANCH  38  39
ATOM     39  O   UNL     1       3.082 -12.527   3.367  1.00  0.00    -0.376 OA
BRANCH  39  40
ATOM     40  C   UNL     1       2.303 -12.285   2.187  1.00  0.00     0.202 C 
BRANCH  40  41
ATOM     41  C   UNL     1       2.648 -12.686   0.734  1.00  0.00     0.261 C 
BRANCH  41  42
ATOM     42  O   UNL     1       3.944 -13.181   0.495  1.00  0.00    -0.460 OA
BRANCH  42  43
ATOM     43  C   UNL     1       4.950 -12.310   0.707  1.00  0.00     0.338 C 
ATOM     44  O   UNL     1       4.865 -11.107   0.862  1.00  0.00    -0.246 OA
BRANCH  43  45
ATOM     45  C   UNL     1       6.182 -13.118   0.780  1.00  0.00     0.060 A 
ATOM     46  C   UNL     1       7.383 -12.425   0.716  1.00  0.00     0.016 A 
ATOM     47  C   UNL     1       6.121 -14.527   0.692  1.00  0.00     0.016 A 
ATOM     48  C   UNL     1       8.442 -13.084   0.149  1.00  0.00     0.010 A 
ATOM     49  C   UNL     1       7.183 -15.193   0.157  1.00  0.00     0.010 A 
ATOM     50  C   UNL     1       8.233 -14.402  -0.273  1.00  0.00    -0.014 A 
BRANCH  50  51
ATOM     51  C   UNL     1       8.990 -14.850  -1.410  1.00  0.00     0.031 A 
ATOM     52  C   UNL     1      10.324 -15.341  -1.076  1.00  0.00     0.074 A 
ATOM     53  C   UNL     1       8.461 -14.798  -2.647  1.00  0.00     0.049 A 
ATOM     54  N   UNL     1      11.441 -14.733  -1.286  1.00  0.00    -0.248 NA
ATOM     55  C   UNL     1      10.416 -16.546  -0.246  1.00  0.00     0.031 C 
ATOM     56  C   UNL     1       7.081 -14.530  -3.069  1.00  0.00     0.029 A 
ATOM     57  N   UNL     1       9.094 -15.050  -3.819  1.00  0.00    -0.354 N 
ATOM     58  C   UNL     1      12.411 -15.567  -0.758  1.00  0.00     0.074 A 
ATOM     59  C   UNL     1      11.720 -16.560   0.027  1.00  0.00     0.031 C 
ATOM     60  C   UNL     1       6.945 -14.850  -4.377  1.00  0.00     0.029 A 
ATOM     61  C   UNL     1       8.247 -15.216  -4.903  1.00  0.00     0.049 A 
ATOM     62  H   UNL     1      10.073 -15.109  -3.894  1.00  0.00     0.167 HD
ATOM     63  C   UNL     1      13.692 -15.514  -1.201  1.00  0.00     0.037 A 
ATOM     64  C   UNL     1       8.625 -15.732  -6.098  1.00  0.00     0.037 A 
ATOM     65  C   UNL     1      13.950 -14.311  -1.949  1.00  0.00     0.049 A 
ATOM     66  C   UNL     1      10.101 -15.541  -6.202  1.00  0.00     0.074 A 
ATOM     67  C   UNL     1      13.953 -12.966  -1.635  1.00  0.00     0.029 A 
ATOM     68  N   UNL     1      13.875 -14.375  -3.321  1.00  0.00    -0.354 N 
ATOM     69  N   UNL     1      10.660 -14.364  -6.308  1.00  0.00    -0.248 NA
ATOM     70  C   UNL     1      10.967 -16.589  -5.673  1.00  0.00     0.031 C 
ATOM     71  C   UNL     1      13.415 -12.311  -2.781  1.00  0.00     0.029 A 
ATOM     72  C   UNL     1      13.155 -13.285  -3.746  1.00  0.00     0.049 A 
ATOM     73  H   UNL     1      14.265 -15.074  -3.894  1.00  0.00     0.167 HD
ATOM     74  C   UNL     1      11.786 -14.421  -5.495  1.00  0.00     0.074 A 
ATOM     75  C   UNL     1      11.961 -15.838  -5.186  1.00  0.00     0.031 C 
ATOM     76  C   UNL     1      12.289 -13.297  -4.902  1.00  0.00     0.037 A 
BRANCH  63  77
ATOM     77  C   UNL     1      14.593 -16.709  -1.244  1.00  0.00     0.064 A 
ATOM     78  C   UNL     1      15.971 -16.524  -1.441  1.00  0.00     0.173 A 
ATOM     79  C   UNL     1      14.120 -18.034  -1.372  1.00  0.00     0.173 A 
ATOM     80  F   UNL     1      16.512 -15.299  -1.365  1.00  0.00    -0.203 F 
ATOM     81  C   UNL     1      16.804 -17.584  -1.802  1.00  0.00     0.198 A 
ATOM     82  C   UNL     1      14.964 -19.097  -1.670  1.00  0.00     0.198 A 
ATOM     83  F   UNL     1      12.815 -18.331  -1.328  1.00  0.00    -0.203 F 
ATOM     84  F   UNL     1      18.089 -17.347  -2.098  1.00  0.00    -0.200 F 
ATOM     85  C   UNL     1      16.300 -18.868  -1.917  1.00  0.00     0.200 A 
ATOM     86  F   UNL     1      14.451 -20.329  -1.794  1.00  0.00    -0.200 F 
ATOM     87  F   UNL     1      17.086 -19.875  -2.317  1.00  0.00    -0.200 F 
ENDBRANCH  63  77
BRANCH  64  88
ATOM     88  C   UNL     1       7.849 -16.690  -6.922  1.00  0.00     0.064 A 
ATOM     89  C   UNL     1       8.192 -16.957  -8.255  1.00  0.00     0.173 A 
ATOM     90  C   UNL     1       6.893 -17.551  -6.341  1.00  0.00     0.173 A 
ATOM     91  F   UNL     1       9.132 -16.223  -8.868  1.00  0.00    -0.203 F 
ATOM     92  C   UNL     1       7.616 -18.021  -8.962  1.00  0.00     0.198 A 
ATOM     93  C   UNL     1       6.314 -18.604  -7.048  1.00  0.00     0.198 A 
ATOM     94  F   UNL     1       6.563 -17.444  -5.046  1.00  0.00    -0.203 F 
ATOM     95  F   UNL     1       8.003 -18.276 -10.220  1.00  0.00    -0.200 F 
ATOM     96  C   UNL     1       6.682 -18.846  -8.356  1.00  0.00     0.200 A 
ATOM     97  F   UNL     1       5.439 -19.413  -6.433  1.00  0.00    -0.200 F 
ATOM     98  F   UNL     1       6.167 -19.892  -9.015  1.00  0.00    -0.200 F 
ENDBRANCH  64  88
BRANCH  76  99
ATOM     99  C   UNL     1      11.694 -11.979  -5.317  1.00  0.00     0.064 A 
ATOM    100  C   UNL     1      10.364 -11.615  -5.038  1.00  0.00     0.173 A 
ATOM    101  C   UNL     1      12.523 -11.000  -5.875  1.00  0.00     0.173 A 
ATOM    102  F   UNL     1       9.544 -12.455  -4.397  1.00  0.00    -0.203 F 
ATOM    103  C   UNL     1       9.873 -10.350  -5.357  1.00  0.00     0.198 A 
ATOM    104  C   UNL     1      12.041  -9.724  -6.160  1.00  0.00     0.198 A 
ATOM    105  F   UNL     1      13.819 -11.266  -6.096  1.00  0.00    -0.203 F 
ATOM    106  F   UNL     1       8.596 -10.037  -5.090  1.00  0.00    -0.200 F 
ATOM    107  C   UNL     1      10.714  -9.404  -5.914  1.00  0.00     0.200 A 
ATOM    108  F   UNL     1      12.872  -8.792  -6.647  1.00  0.00    -0.200 F 
ATOM    109  F   UNL     1      10.256  -8.173  -6.184  1.00  0.00    -0.200 F 
ENDBRANCH  76  99
ENDBRANCH  50  51
ENDBRANCH  43  45
ENDBRANCH  42  43
ENDBRANCH  41  42
ENDBRANCH  40  41
ENDBRANCH  39  40
ENDBRANCH  38  39
ENDBRANCH  37  38
ENDBRANCH  36  37
ENDBRANCH   1  36
TORSDOF 25
