REMARK SMILES CC(C)(C)C(=O)NCC(=O)Nc1cc(Cl)ccc1C(=O)OCCOCCOCCOC(=O)c1ccc(-c2c3nc(c(-c4c(F)c(F)c(F)c(F)c4F)c4ccc([nH]4)c(-c4c(F)c(F)c(F)c(F)c4F)c4nc(c(-c5c(F)c(F)c(F)c(F)c5F)c5ccc2[nH]5)C=C4)C=C3)cc1
REMARK SMILES IDX 25 1 24 2 23 3 22 4 21 5 19 6 20 7 18 8 12 9 13 10 14 11
REMARK SMILES IDX 17 12 15 13 16 14 11 15 9 16 10 17 8 19 7 20 5 21 6 22 2 24
REMARK SMILES IDX 1 25 3 26 4 27 26 28 27 29 28 30 29 31 30 32 31 33 32 34
REMARK SMILES IDX 33 35 34 36 95 37 35 38 94 39 36 40 37 41 38 42 88 43 39 44
REMARK SMILES IDX 93 45 87 46 89 47 40 48 92 49 86 50 85 51 41 53 73 54 53 55
REMARK SMILES IDX 72 56 54 57 57 58 71 59 90 60 55 61 56 62 70 64 91 65 58 66
REMARK SMILES IDX 42 67 43 68 51 69 44 70 45 71 49 72 52 73 46 74 47 75 50 76
REMARK SMILES IDX 48 77 74 78 75 79 83 80 76 81 77 82 81 83 84 84 78 85 79 86
REMARK SMILES IDX 82 87 80 88 59 89 60 90 68 91 61 92 62 93 66 94 69 95 63 96
REMARK SMILES IDX 64 97 67 98 65 99
REMARK H PARENT 11 18 7 23 89 52 57 63
REMARK Flexibility Score: inf
ROOT
ATOM      1  C   UNL     1      -5.284   0.757  -1.299  1.00  0.00     0.188 C 
ENDROOT
BRANCH   1   2
ATOM      2  O   UNL     1      -6.641   1.175  -1.234  1.00  0.00    -0.376 OA
BRANCH   2   3
ATOM      3  C   UNL     1      -6.974   2.555  -1.253  1.00  0.00     0.202 C 
BRANCH   3   4
ATOM      4  C   UNL     1      -6.454   3.452  -0.121  1.00  0.00     0.261 C 
BRANCH   4   5
ATOM      5  O   UNL     1      -5.055   3.300   0.192  1.00  0.00    -0.460 OA
BRANCH   5   6
ATOM      6  C   UNL     1      -4.807   2.627   1.340  1.00  0.00     0.340 C 
ATOM      7  O   UNL     1      -5.655   2.205   2.113  1.00  0.00    -0.246 OA
BRANCH   6   8
ATOM      8  C   UNL     1      -3.360   2.343   1.566  1.00  0.00     0.083 A 
ATOM      9  C   UNL     1      -2.265   3.122   1.129  1.00  0.00     0.057 A 
ATOM     10  C   UNL     1      -1.024   2.874   1.722  1.00  0.00     0.047 A 
ATOM     11  C   UNL     1      -0.815   1.757   2.537  1.00  0.00     0.043 A 
ATOM     12  C   UNL     1      -3.124   1.186   2.340  1.00  0.00     0.019 A 
ATOM     13  Cl  UNL     1       0.725   1.478   3.246  1.00  0.00    -0.084 Cl
ATOM     14  C   UNL     1      -1.848   0.872   2.792  1.00  0.00     0.021 A 
BRANCH   9  15
ATOM     15  N   UNL     1      -2.430   4.158   0.192  1.00  0.00    -0.324 N 
ATOM     16  C   UNL     1      -1.621   4.748  -0.741  1.00  0.00     0.243 C 
ATOM     17  O   UNL     1      -2.110   5.738  -1.310  1.00  0.00    -0.273 OA
ATOM     18  H   UNL     1      -3.334   4.547   0.211  1.00  0.00     0.170 HD
BRANCH  16  19
ATOM     19  C   UNL     1      -0.333   4.133  -1.355  1.00  0.00     0.216 C 
BRANCH  19  20
ATOM     20  N   UNL     1       0.731   3.581  -0.543  1.00  0.00    -0.347 N 
ATOM     21  C   UNL     1       1.302   2.359  -0.415  1.00  0.00     0.225 C 
ATOM     22  O   UNL     1       2.266   2.324   0.359  1.00  0.00    -0.275 OA
ATOM     23  H   UNL     1       1.133   4.250   0.056  1.00  0.00     0.164 HD
BRANCH  21  24
ATOM     24  C   UNL     1       0.882   1.104  -1.201  1.00  0.00     0.041 C 
ATOM     25  C   UNL     1       1.500  -0.133  -0.502  1.00  0.00     0.021 C 
ATOM     26  C   UNL     1       1.462   1.198  -2.617  1.00  0.00     0.021 C 
ATOM     27  C   UNL     1      -0.621   0.840  -1.261  1.00  0.00     0.021 C 
ENDBRANCH  21  24
ENDBRANCH  19  20
ENDBRANCH  16  19
ENDBRANCH   9  15
ENDBRANCH   6   8
ENDBRANCH   5   6
ENDBRANCH   4   5
ENDBRANCH   3   4
ENDBRANCH   2   3
ENDBRANCH   1   2
BRANCH   1  28
ATOM     28  C   UNL     1      -4.218   1.583  -2.046  1.00  0.00     0.188 C 
BRANCH  28  29
ATOM     29  O   UNL     1      -4.728   2.633  -2.842  1.00  0.00    -0.376 OA
BRANCH  29  30
ATOM     30  C   UNL     1      -4.583   2.486  -4.247  1.00  0.00     0.202 C 
BRANCH  30  31
ATOM     31  C   UNL     1      -5.416   1.369  -4.894  1.00  0.00     0.261 C 
BRANCH  31  32
ATOM     32  O   UNL     1      -5.235   0.049  -4.346  1.00  0.00    -0.460 OA
BRANCH  32  33
ATOM     33  C   UNL     1      -4.060  -0.562  -4.587  1.00  0.00     0.338 C 
ATOM     34  O   UNL     1      -3.099  -0.098  -5.195  1.00  0.00    -0.246 OA
BRANCH  33  35
ATOM     35  C   UNL     1      -4.021  -1.826  -3.828  1.00  0.00     0.060 A 
ATOM     36  C   UNL     1      -3.034  -1.987  -2.851  1.00  0.00     0.016 A 
ATOM     37  C   UNL     1      -4.931  -2.855  -4.077  1.00  0.00     0.016 A 
ATOM     38  C   UNL     1      -2.927  -3.182  -2.139  1.00  0.00     0.010 A 
ATOM     39  C   UNL     1      -4.816  -4.062  -3.373  1.00  0.00     0.010 A 
ATOM     40  C   UNL     1      -3.797  -4.242  -2.420  1.00  0.00    -0.014 A 
BRANCH  40  41
ATOM     41  C   UNL     1      -3.537  -5.580  -1.826  1.00  0.00     0.031 A 
ATOM     42  C   UNL     1      -2.840  -6.622  -2.659  1.00  0.00     0.074 A 
ATOM     43  C   UNL     1      -3.871  -5.854  -0.552  1.00  0.00     0.049 A 
ATOM     44  N   UNL     1      -2.527  -7.857  -2.359  1.00  0.00    -0.248 NA
ATOM     45  C   UNL     1      -2.439  -6.213  -4.015  1.00  0.00     0.031 C 
ATOM     46  C   UNL     1      -4.511  -4.922   0.373  1.00  0.00     0.029 A 
ATOM     47  N   UNL     1      -3.719  -7.005   0.181  1.00  0.00    -0.354 N 
ATOM     48  C   UNL     1      -1.898  -8.372  -3.486  1.00  0.00     0.074 A 
ATOM     49  C   UNL     1      -1.901  -7.327  -4.487  1.00  0.00     0.031 C 
ATOM     50  C   UNL     1      -4.705  -5.541   1.551  1.00  0.00     0.029 A 
ATOM     51  C   UNL     1      -4.231  -6.920   1.453  1.00  0.00     0.049 A 
ATOM     52  H   UNL     1      -3.284  -7.815  -0.171  1.00  0.00     0.167 HD
ATOM     53  C   UNL     1      -1.356  -9.600  -3.667  1.00  0.00     0.037 A 
ATOM     54  C   UNL     1      -4.323  -7.857   2.419  1.00  0.00     0.037 A 
ATOM     55  C   UNL     1      -1.353 -10.642  -2.673  1.00  0.00     0.049 A 
ATOM     56  C   UNL     1      -3.776  -9.240   2.165  1.00  0.00     0.074 A 
ATOM     57  C   UNL     1      -0.827 -11.920  -2.763  1.00  0.00     0.029 A 
ATOM     58  N   UNL     1      -1.906 -10.527  -1.407  1.00  0.00    -0.354 N 
ATOM     59  N   UNL     1      -3.167  -9.711   1.104  1.00  0.00    -0.248 NA
ATOM     60  C   UNL     1      -3.923 -10.219   3.252  1.00  0.00     0.031 C 
ATOM     61  C   UNL     1      -1.105 -12.594  -1.569  1.00  0.00     0.029 A 
ATOM     62  C   UNL     1      -1.752 -11.717  -0.713  1.00  0.00     0.049 A 
ATOM     63  H   UNL     1      -2.344  -9.720  -1.053  1.00  0.00     0.167 HD
ATOM     64  C   UNL     1      -2.829 -11.025   1.408  1.00  0.00     0.074 A 
ATOM     65  C   UNL     1      -3.285 -11.271   2.759  1.00  0.00     0.031 C 
ATOM     66  C   UNL     1      -2.197 -11.945   0.637  1.00  0.00     0.037 A 
BRANCH  53  67
ATOM     67  C   UNL     1      -0.736  -9.895  -5.001  1.00  0.00     0.064 A 
ATOM     68  C   UNL     1       0.478  -9.312  -5.395  1.00  0.00     0.173 A 
ATOM     69  C   UNL     1      -1.341 -10.807  -5.880  1.00  0.00     0.173 A 
ATOM     70  F   UNL     1       1.089  -8.421  -4.599  1.00  0.00    -0.203 F 
ATOM     71  C   UNL     1       1.051  -9.615  -6.628  1.00  0.00     0.198 A 
ATOM     72  C   UNL     1      -0.750 -11.130  -7.098  1.00  0.00     0.198 A 
ATOM     73  F   UNL     1      -2.501 -11.395  -5.550  1.00  0.00    -0.203 F 
ATOM     74  F   UNL     1       2.189  -9.013  -7.001  1.00  0.00    -0.200 F 
ATOM     75  C   UNL     1       0.442 -10.530  -7.474  1.00  0.00     0.200 A 
ATOM     76  F   UNL     1      -1.334 -12.023  -7.909  1.00  0.00    -0.200 F 
ATOM     77  F   UNL     1       1.001 -10.828  -8.654  1.00  0.00    -0.200 F 
ENDBRANCH  53  67
BRANCH  54  78
ATOM     78  C   UNL     1      -4.972  -7.534   3.719  1.00  0.00     0.064 A 
ATOM     79  C   UNL     1      -4.235  -7.514   4.912  1.00  0.00     0.173 A 
ATOM     80  C   UNL     1      -6.350  -7.289   3.801  1.00  0.00     0.173 A 
ATOM     81  F   UNL     1      -2.919  -7.770   4.890  1.00  0.00    -0.203 F 
ATOM     82  C   UNL     1      -4.856  -7.289   6.139  1.00  0.00     0.198 A 
ATOM     83  C   UNL     1      -6.965  -7.033   5.025  1.00  0.00     0.198 A 
ATOM     84  F   UNL     1      -7.103  -7.302   2.692  1.00  0.00    -0.203 F 
ATOM     85  F   UNL     1      -4.138  -7.337   7.269  1.00  0.00    -0.200 F 
ATOM     86  C   UNL     1      -6.220  -7.045   6.194  1.00  0.00     0.200 A 
ATOM     87  F   UNL     1      -8.282  -6.788   5.073  1.00  0.00    -0.200 F 
ATOM     88  F   UNL     1      -6.818  -6.834   7.375  1.00  0.00    -0.200 F 
ENDBRANCH  54  78
BRANCH  66  89
ATOM     89  C   UNL     1      -1.914 -13.286   1.256  1.00  0.00     0.064 A 
ATOM     90  C   UNL     1      -2.937 -14.204   1.538  1.00  0.00     0.173 A 
ATOM     91  C   UNL     1      -0.595 -13.664   1.551  1.00  0.00     0.173 A 
ATOM     92  F   UNL     1      -4.216 -13.887   1.286  1.00  0.00    -0.203 F 
ATOM     93  C   UNL     1      -2.653 -15.433   2.127  1.00  0.00     0.198 A 
ATOM     94  C   UNL     1      -0.312 -14.908   2.109  1.00  0.00     0.198 A 
ATOM     95  F   UNL     1       0.423 -12.829   1.292  1.00  0.00    -0.203 F 
ATOM     96  F   UNL     1      -3.653 -16.268   2.443  1.00  0.00    -0.200 F 
ATOM     97  C   UNL     1      -1.342 -15.787   2.407  1.00  0.00     0.200 A 
ATOM     98  F   UNL     1       0.958 -15.254   2.363  1.00  0.00    -0.200 F 
ATOM     99  F   UNL     1      -1.071 -16.971   2.973  1.00  0.00    -0.200 F 
ENDBRANCH  66  89
ENDBRANCH  40  41
ENDBRANCH  33  35
ENDBRANCH  32  33
ENDBRANCH  31  32
ENDBRANCH  30  31
ENDBRANCH  29  30
ENDBRANCH  28  29
ENDBRANCH   1  28
TORSDOF 21
