REMARK SMILES Cc1ccc(OCC(=O)NNC(=O)[C@H]2CCCC[C@@H]2C(=O)OCCOCCOCCOC(=O)c2ccc(-c3c4nc(c(-c5c(F)c(F)c(F)c(F)c5F)c5ccc([nH]5)c(-c5c(F)c(F)c(F)c(F)c5F)c5nc(c(-c6c(F)c(F)c(F)c(F)c6F)c6ccc3[nH]6)C=C5)C=C4)cc2)cc1
REMARK SMILES IDX 25 1 24 2 23 3 22 4 20 5 21 6 19 7 14 8 15 9 16 10 18 11
REMARK SMILES IDX 17 12 12 13 11 14 13 16 10 17 8 18 9 19 7 21 6 22 5 23 1 24
REMARK SMILES IDX 2 25 3 26 98 27 4 28 97 29 26 30 27 31 28 32 29 33 30 34
REMARK SMILES IDX 31 35 32 36 33 37 34 38 35 39 96 40 36 41 95 42 37 43 38 44
REMARK SMILES IDX 39 45 89 46 40 47 94 48 88 49 90 50 41 51 93 52 87 53 86 54
REMARK SMILES IDX 42 56 74 57 54 58 73 59 55 60 58 61 72 62 91 63 56 64 57 65
REMARK SMILES IDX 71 67 92 68 59 69 43 70 44 71 52 72 45 73 46 74 50 75 53 76
REMARK SMILES IDX 47 77 48 78 51 79 49 80 75 81 76 82 84 83 77 84 78 85 82 86
REMARK SMILES IDX 85 87 79 88 80 89 83 90 81 91 60 92 61 93 69 94 62 95 63 96
REMARK SMILES IDX 67 97 70 98 64 99 65 100 68 101 66 102
REMARK H PARENT 11 15 10 20 90 55 58 66
REMARK Flexibility Score: inf
ROOT
ATOM      1  O   UNL     1      -7.503   4.316   3.184  1.00  0.00    -0.376 OA
ENDROOT
BRANCH   1   2
ATOM      2  C   UNL     1      -8.069   5.227   4.106  1.00  0.00     0.202 C 
BRANCH   2   3
ATOM      3  C   UNL     1      -7.789   4.886   5.609  1.00  0.00     0.261 C 
BRANCH   3   4
ATOM      4  O   UNL     1      -6.661   3.983   5.968  1.00  0.00    -0.463 OA
BRANCH   4   5
ATOM      5  C   UNL     1      -5.506   4.388   6.552  1.00  0.00     0.309 C 
ATOM      6  O   UNL     1      -5.279   5.586   6.721  1.00  0.00    -0.252 OA
BRANCH   5   7
ATOM      7  C   UNL     1      -4.337   3.253   6.924  1.00  0.00     0.111 C 
ATOM      8  C   UNL     1      -3.856   1.803   6.374  1.00  0.00     0.094 C 
ATOM      9  C   UNL     1      -3.999   0.537   7.302  1.00  0.00     0.014 C 
ATOM     10  C   UNL     1      -4.243   0.769   8.777  1.00  0.00     0.001 C 
ATOM     11  C   UNL     1      -4.111   3.344   8.428  1.00  0.00     0.016 C 
ATOM     12  C   UNL     1      -4.608   2.167   9.243  1.00  0.00     0.001 C 
BRANCH   8  13
ATOM     13  C   UNL     1      -2.316   1.766   6.245  1.00  0.00     0.242 C 
ATOM     14  N   UNL     1      -1.719   0.932   5.325  1.00  0.00    -0.267 N 
ATOM     15  H   UNL     1      -1.118   0.228   5.660  1.00  0.00     0.191 HD
ATOM     16  O   UNL     1      -1.609   2.177   7.170  1.00  0.00    -0.273 OA
BRANCH  14  17
ATOM     17  N   UNL     1      -1.915   1.024   3.945  1.00  0.00    -0.265 N 
ATOM     18  C   UNL     1      -0.854   1.172   3.066  1.00  0.00     0.276 C 
ATOM     19  O   UNL     1      -1.057   1.258   1.853  1.00  0.00    -0.269 OA
ATOM     20  H   UNL     1      -2.831   0.982   3.587  1.00  0.00     0.191 HD
BRANCH  18  21
ATOM     21  C   UNL     1       0.586   1.153   3.627  1.00  0.00     0.331 C 
BRANCH  21  22
ATOM     22  O   UNL     1       0.814   1.801   4.868  1.00  0.00    -0.484 OA
BRANCH  22  23
ATOM     23  C   UNL     1       0.749   3.169   4.893  1.00  0.00     0.120 A 
ATOM     24  C   UNL     1       0.623   7.449   5.410  1.00  0.00     0.044 C 
ATOM     25  C   UNL     1       0.644   5.961   5.227  1.00  0.00    -0.051 A 
ATOM     26  C   UNL     1       0.805   5.123   6.334  1.00  0.00     0.007 A 
ATOM     27  C   UNL     1       0.529   5.389   3.956  1.00  0.00     0.007 A 
ATOM     28  C   UNL     1       0.860   3.738   6.164  1.00  0.00     0.047 A 
ATOM     29  C   UNL     1       0.579   4.001   3.789  1.00  0.00     0.047 A 
ENDBRANCH  22  23
ENDBRANCH  21  22
ENDBRANCH  18  21
ENDBRANCH  14  17
ENDBRANCH   8  13
ENDBRANCH   5   7
ENDBRANCH   4   5
ENDBRANCH   3   4
ENDBRANCH   2   3
ENDBRANCH   1   2
BRANCH   1  30
ATOM     30  C   UNL     1      -7.645   4.601   1.792  1.00  0.00     0.188 C 
BRANCH  30  31
ATOM     31  C   UNL     1      -6.824   5.783   1.266  1.00  0.00     0.188 C 
BRANCH  31  32
ATOM     32  O   UNL     1      -6.133   6.412   2.330  1.00  0.00    -0.376 OA
BRANCH  32  33
ATOM     33  C   UNL     1      -5.575   7.681   2.036  1.00  0.00     0.202 C 
BRANCH  33  34
ATOM     34  C   UNL     1      -4.333   7.580   1.147  1.00  0.00     0.261 C 
BRANCH  34  35
ATOM     35  O   UNL     1      -3.437   6.595   1.709  1.00  0.00    -0.460 OA
BRANCH  35  36
ATOM     36  C   UNL     1      -3.243   5.477   0.954  1.00  0.00     0.338 C 
ATOM     37  O   UNL     1      -3.087   5.472  -0.260  1.00  0.00    -0.246 OA
BRANCH  36  38
ATOM     38  C   UNL     1      -3.579   4.257   1.760  1.00  0.00     0.060 A 
ATOM     39  C   UNL     1      -4.015   3.090   1.144  1.00  0.00     0.016 A 
ATOM     40  C   UNL     1      -3.785   4.337   3.116  1.00  0.00     0.016 A 
ATOM     41  C   UNL     1      -4.855   2.163   1.843  1.00  0.00     0.010 A 
ATOM     42  C   UNL     1      -4.707   3.444   3.717  1.00  0.00     0.010 A 
ATOM     43  C   UNL     1      -5.390   2.381   3.130  1.00  0.00    -0.014 A 
BRANCH  43  44
ATOM     44  C   UNL     1      -6.784   1.772   3.668  1.00  0.00     0.031 A 
ATOM     45  C   UNL     1      -7.490   1.745   5.084  1.00  0.00     0.074 A 
ATOM     46  C   UNL     1      -7.649   1.316   2.735  1.00  0.00     0.049 A 
ATOM     47  N   UNL     1      -8.724   2.034   5.452  1.00  0.00    -0.248 NA
ATOM     48  C   UNL     1      -6.808   1.205   6.242  1.00  0.00     0.031 C 
ATOM     49  C   UNL     1      -9.052   0.940   2.881  1.00  0.00     0.029 A 
ATOM     50  N   UNL     1      -7.348   0.904   1.439  1.00  0.00    -0.354 N 
ATOM     51  C   UNL     1      -8.871   1.885   6.849  1.00  0.00     0.074 A 
ATOM     52  C   UNL     1      -7.551   1.499   7.311  1.00  0.00     0.031 C 
ATOM     53  C   UNL     1      -9.353   0.046   1.931  1.00  0.00     0.029 A 
ATOM     54  C   UNL     1      -8.137  -0.230   1.196  1.00  0.00     0.049 A 
ATOM     55  H   UNL     1      -6.710   1.324   0.818  1.00  0.00     0.167 HD
ATOM     56  C   UNL     1      -9.916   1.255   7.480  1.00  0.00     0.037 A 
ATOM     57  C   UNL     1      -7.498  -1.428   1.079  1.00  0.00     0.037 A 
ATOM     58  C   UNL     1     -10.357   0.091   6.740  1.00  0.00     0.049 A 
ATOM     59  C   UNL     1      -7.762  -2.350   2.252  1.00  0.00     0.074 A 
ATOM     60  C   UNL     1     -11.420  -0.198   5.912  1.00  0.00     0.029 A 
ATOM     61  N   UNL     1      -9.502  -0.999   6.677  1.00  0.00    -0.354 N 
ATOM     62  N   UNL     1      -8.469  -2.036   3.306  1.00  0.00    -0.248 NA
ATOM     63  C   UNL     1      -7.176  -3.685   2.357  1.00  0.00     0.031 C 
ATOM     64  C   UNL     1     -11.120  -1.421   5.243  1.00  0.00     0.029 A 
ATOM     65  C   UNL     1      -9.907  -1.896   5.712  1.00  0.00     0.049 A 
ATOM     66  H   UNL     1      -8.709  -1.117   7.248  1.00  0.00     0.167 HD
ATOM     67  C   UNL     1      -8.431  -3.068   4.201  1.00  0.00     0.074 A 
ATOM     68  C   UNL     1      -7.584  -4.068   3.577  1.00  0.00     0.031 C 
ATOM     69  C   UNL     1      -9.080  -3.048   5.399  1.00  0.00     0.037 A 
BRANCH  56  70
ATOM     70  C   UNL     1     -10.349   1.562   8.921  1.00  0.00     0.064 A 
ATOM     71  C   UNL     1     -11.588   1.089   9.414  1.00  0.00     0.173 A 
ATOM     72  C   UNL     1      -9.636   2.382   9.827  1.00  0.00     0.173 A 
ATOM     73  F   UNL     1     -12.385   0.327   8.651  1.00  0.00    -0.203 F 
ATOM     74  C   UNL     1     -12.074   1.412  10.693  1.00  0.00     0.198 A 
ATOM     75  C   UNL     1     -10.113   2.684  11.117  1.00  0.00     0.198 A 
ATOM     76  F   UNL     1      -8.457   2.925   9.491  1.00  0.00    -0.203 F 
ATOM     77  F   UNL     1     -13.275   0.963  11.086  1.00  0.00    -0.200 F 
ATOM     78  C   UNL     1     -11.336   2.207  11.546  1.00  0.00     0.200 A 
ATOM     79  F   UNL     1      -9.381   3.452  11.939  1.00  0.00    -0.200 F 
ATOM     80  F   UNL     1     -11.804   2.523  12.763  1.00  0.00    -0.200 F 
ENDBRANCH  56  70
BRANCH  57  81
ATOM     81  C   UNL     1      -6.223  -1.302   0.296  1.00  0.00     0.064 A 
ATOM     82  C   UNL     1      -6.293  -0.632  -0.952  1.00  0.00     0.173 A 
ATOM     83  C   UNL     1      -4.950  -1.462   0.855  1.00  0.00     0.173 A 
ATOM     84  F   UNL     1      -7.486  -0.432  -1.539  1.00  0.00    -0.203 F 
ATOM     85  C   UNL     1      -5.180  -0.017  -1.518  1.00  0.00     0.198 A 
ATOM     86  C   UNL     1      -3.822  -0.893   0.249  1.00  0.00     0.198 A 
ATOM     87  F   UNL     1      -4.796  -2.052   2.049  1.00  0.00    -0.203 F 
ATOM     88  F   UNL     1      -5.331   0.775  -2.590  1.00  0.00    -0.200 F 
ATOM     89  C   UNL     1      -3.945  -0.134  -0.908  1.00  0.00     0.200 A 
ATOM     90  F   UNL     1      -2.631  -0.989   0.856  1.00  0.00    -0.200 F 
ATOM     91  F   UNL     1      -2.896   0.546  -1.392  1.00  0.00    -0.200 F 
ENDBRANCH  57  81
BRANCH  69  92
ATOM     92  C   UNL     1      -9.021  -4.203   6.344  1.00  0.00     0.064 A 
ATOM     93  C   UNL     1      -9.368  -5.500   5.938  1.00  0.00     0.173 A 
ATOM     94  C   UNL     1      -8.729  -4.019   7.707  1.00  0.00     0.173 A 
ATOM     95  F   UNL     1      -9.686  -5.750   4.659  1.00  0.00    -0.203 F 
ATOM     96  C   UNL     1      -9.400  -6.561   6.841  1.00  0.00     0.198 A 
ATOM     97  C   UNL     1      -8.806  -5.072   8.618  1.00  0.00     0.198 A 
ATOM     98  F   UNL     1      -8.350  -2.817   8.172  1.00  0.00    -0.203 F 
ATOM     99  F   UNL     1      -9.695  -7.794   6.408  1.00  0.00    -0.200 F 
ATOM    100  C   UNL     1      -9.136  -6.343   8.183  1.00  0.00     0.200 A 
ATOM    101  F   UNL     1      -8.560  -4.848   9.916  1.00  0.00    -0.200 F 
ATOM    102  F   UNL     1      -9.196  -7.359   9.055  1.00  0.00    -0.200 F 
ENDBRANCH  69  92
ENDBRANCH  43  44
ENDBRANCH  36  38
ENDBRANCH  35  36
ENDBRANCH  34  35
ENDBRANCH  33  34
ENDBRANCH  32  33
ENDBRANCH  31  32
ENDBRANCH  30  31
ENDBRANCH   1  30
TORSDOF 22
