REMARK SMILES COc1cc(C)c(S(=O)(=O)Nc2cc(C(=O)OCCOCCOCCOC(=O)c3ccc(-c4c5nc(c(-c6c(F)c(F)c(F)c(F)c6F)c6ccc([nH]6)c(-c6c(F)c(F)c(F)c(F)c6F)c6nc(c(-c7c(F)c(F)c(F)c(F)c7F)c7ccc4[nH]7)C=C6)C=C5)cc3)ccc2F)cc1OC
REMARK SMILES IDX 21 1 20 2 19 3 18 4 17 5 15 6 16 7 14 8 12 9 13 10 94 11
REMARK SMILES IDX 93 12 95 13 92 14 11 15 8 17 9 18 10 19 7 20 3 21 4 22 97 23
REMARK SMILES IDX 5 24 96 25 6 26 2 27 1 28 98 29 99 30 22 31 23 32 24 33
REMARK SMILES IDX 25 34 26 35 27 36 28 37 29 38 30 39 91 40 31 41 90 42 32 43
REMARK SMILES IDX 33 44 34 45 84 46 35 47 89 48 83 49 85 50 36 51 88 52 82 53
REMARK SMILES IDX 81 54 37 56 69 57 49 58 68 59 50 60 53 61 67 62 86 63 51 64
REMARK SMILES IDX 52 65 66 67 87 68 54 69 38 70 39 71 47 72 40 73 41 74 45 75
REMARK SMILES IDX 48 76 42 77 43 78 46 79 44 80 70 81 71 82 79 83 72 84 73 85
REMARK SMILES IDX 77 86 80 87 74 88 75 89 78 90 76 91 55 92 56 93 64 94 57 95
REMARK SMILES IDX 58 96 62 97 65 98 59 99 60 100 63 101 61 102
REMARK H PARENT 11 16 85 55 53 66
REMARK Flexibility Score: inf
ROOT
ATOM      1  C   UNL     1       7.094   4.363  -0.058  1.00  0.00     0.188 C 
ENDROOT
BRANCH   1   2
ATOM      2  O   UNL     1       5.660   4.298  -0.061  1.00  0.00    -0.376 OA
BRANCH   2   3
ATOM      3  C   UNL     1       4.705   4.881   0.864  1.00  0.00     0.202 C 
BRANCH   3   4
ATOM      4  C   UNL     1       3.897   4.383   2.363  1.00  0.00     0.261 C 
BRANCH   4   5
ATOM      5  O   UNL     1       4.167   3.110   3.579  1.00  0.00    -0.460 OA
BRANCH   5   6
ATOM      6  C   UNL     1       4.495   1.676   3.686  1.00  0.00     0.338 C 
ATOM      7  O   UNL     1       4.231   0.749   2.908  1.00  0.00    -0.246 OA
BRANCH   6   8
ATOM      8  C   UNL     1       5.210   1.075   4.813  1.00  0.00     0.062 A 
ATOM      9  C   UNL     1       4.422  -0.138   6.634  1.00  0.00     0.085 A 
ATOM     10  C   UNL     1       4.445   1.061   5.949  1.00  0.00     0.045 A 
ATOM     11  C   UNL     1       5.489  -1.056   6.546  1.00  0.00     0.147 A 
ATOM     12  C   UNL     1       6.362  -0.999   5.476  1.00  0.00     0.042 A 
ATOM     13  F   UNL     1       5.498  -2.147   7.327  1.00  0.00    -0.205 F 
ATOM     14  C   UNL     1       6.127   0.002   4.540  1.00  0.00     0.019 A 
BRANCH   9  15
ATOM     15  N   UNL     1       3.197  -0.636   7.154  1.00  0.00    -0.277 N 
ATOM     16  H   UNL     1       3.250  -1.246   7.924  1.00  0.00     0.180 HD
BRANCH  15  17
ATOM     17  S   UNL     1       1.663  -0.273   6.566  1.00  0.00     0.262 S 
ATOM     18  O   UNL     1       1.521   1.170   6.656  1.00  0.00    -0.201 OA
ATOM     19  O   UNL     1       0.780  -1.129   7.330  1.00  0.00    -0.201 OA
BRANCH  17  20
ATOM     20  C   UNL     1       1.354  -0.670   4.810  1.00  0.00     0.094 A 
ATOM     21  C   UNL     1       0.859  -0.379   1.945  1.00  0.00     0.161 A 
ATOM     22  C   UNL     1       1.986  -1.065   2.441  1.00  0.00     0.055 A 
ATOM     23  C   UNL     1      -0.174  -0.153   2.931  1.00  0.00     0.162 A 
ATOM     24  C   UNL     1       2.167  -1.318   3.871  1.00  0.00    -0.027 A 
ATOM     25  C   UNL     1       0.140  -0.180   4.319  1.00  0.00     0.073 A 
ATOM     26  C   UNL     1       3.150  -2.358   4.305  1.00  0.00     0.046 C 
BRANCH  21  27
ATOM     27  O   UNL     1       0.916   0.064   0.362  1.00  0.00    -0.493 OA
ATOM     28  C   UNL     1      -0.422  -0.004  -1.304  1.00  0.00     0.278 C 
ENDBRANCH  21  27
BRANCH  23  29
ATOM     29  O   UNL     1      -1.449   0.297   2.743  1.00  0.00    -0.493 OA
ATOM     30  C   UNL     1      -2.510  -0.588   2.404  1.00  0.00     0.278 C 
ENDBRANCH  23  29
ENDBRANCH  17  20
ENDBRANCH  15  17
ENDBRANCH   9  15
ENDBRANCH   6   8
ENDBRANCH   5   6
ENDBRANCH   4   5
ENDBRANCH   3   4
ENDBRANCH   2   3
ENDBRANCH   1   2
BRANCH   1  31
ATOM     31  C   UNL     1       7.818   5.386   0.788  1.00  0.00     0.188 C 
BRANCH  31  32
ATOM     32  O   UNL     1       6.991   5.653   1.887  1.00  0.00    -0.376 OA
BRANCH  32  33
ATOM     33  C   UNL     1       7.241   6.782   2.673  1.00  0.00     0.202 C 
BRANCH  33  34
ATOM     34  C   UNL     1       8.639   6.768   3.295  1.00  0.00     0.261 C 
BRANCH  34  35
ATOM     35  O   UNL     1       8.805   5.656   4.223  1.00  0.00    -0.460 OA
BRANCH  35  36
ATOM     36  C   UNL     1       9.448   4.509   3.795  1.00  0.00     0.338 C 
ATOM     37  O   UNL     1      10.597   4.474   3.396  1.00  0.00    -0.246 OA
BRANCH  36  38
ATOM     38  C   UNL     1       8.468   3.361   3.698  1.00  0.00     0.060 A 
ATOM     39  C   UNL     1       8.530   2.281   2.793  1.00  0.00     0.016 A 
ATOM     40  C   UNL     1       7.234   3.685   4.101  1.00  0.00     0.016 A 
ATOM     41  C   UNL     1       7.343   1.800   2.062  1.00  0.00     0.010 A 
ATOM     42  C   UNL     1       6.296   3.493   3.094  1.00  0.00     0.010 A 
ATOM     43  C   UNL     1       6.130   2.490   2.064  1.00  0.00    -0.014 A 
BRANCH  43  44
ATOM     44  C   UNL     1       4.659   2.147   1.079  1.00  0.00     0.031 A 
ATOM     45  C   UNL     1       2.860   2.284   1.450  1.00  0.00     0.074 A 
ATOM     46  C   UNL     1       4.899   1.762  -0.196  1.00  0.00     0.049 A 
ATOM     47  N   UNL     1       1.887   2.738   0.662  1.00  0.00    -0.248 NA
ATOM     48  C   UNL     1       2.145   2.185   2.805  1.00  0.00     0.031 C 
ATOM     49  C   UNL     1       3.975   1.809  -1.314  1.00  0.00     0.029 A 
ATOM     50  N   UNL     1       6.083   1.314  -0.798  1.00  0.00    -0.354 N 
ATOM     51  C   UNL     1       0.640   2.840   1.395  1.00  0.00     0.074 A 
ATOM     52  C   UNL     1       1.049   2.932   2.747  1.00  0.00     0.031 C 
ATOM     53  C   UNL     1       4.468   1.091  -2.334  1.00  0.00     0.029 A 
ATOM     54  C   UNL     1       5.689   0.494  -1.880  1.00  0.00     0.049 A 
ATOM     55  H   UNL     1       7.004   1.528  -0.523  1.00  0.00     0.167 HD
ATOM     56  C   UNL     1      -0.612   2.270   1.163  1.00  0.00     0.037 A 
ATOM     57  C   UNL     1       6.044  -0.815  -1.930  1.00  0.00     0.037 A 
ATOM     58  C   UNL     1      -0.589   1.231   0.104  1.00  0.00     0.049 A 
ATOM     59  C   UNL     1       4.878  -1.784  -1.753  1.00  0.00     0.074 A 
ATOM     60  C   UNL     1       0.600   1.702  -1.234  1.00  0.00     0.029 A 
ATOM     61  N   UNL     1      -0.615  -0.747   0.255  1.00  0.00    -0.354 N 
ATOM     62  N   UNL     1       3.703  -1.504  -1.248  1.00  0.00    -0.248 NA
ATOM     63  C   UNL     1       4.991  -3.196  -2.108  1.00  0.00     0.031 C 
ATOM     64  C   UNL     1       1.536   0.057  -1.827  1.00  0.00     0.029 A 
ATOM     65  C   UNL     1       0.891  -1.371  -0.861  1.00  0.00     0.049 A 
ATOM     66  H   UNL     1      -1.244  -1.298   0.774  1.00  0.00     0.167 HD
ATOM     67  C   UNL     1       2.897  -2.638  -1.247  1.00  0.00     0.074 A 
ATOM     68  C   UNL     1       3.794  -3.680  -1.729  1.00  0.00     0.031 C 
ATOM     69  C   UNL     1       1.551  -2.666  -0.913  1.00  0.00     0.037 A 
BRANCH  56  70
ATOM     70  C   UNL     1      -1.912   2.737   1.820  1.00  0.00     0.064 A 
ATOM     71  C   UNL     1      -3.013   2.903   0.961  1.00  0.00     0.173 A 
ATOM     72  C   UNL     1      -2.206   2.882   3.201  1.00  0.00     0.173 A 
ATOM     73  F   UNL     1      -2.846   2.850  -0.370  1.00  0.00    -0.203 F 
ATOM     74  C   UNL     1      -4.313   3.097   1.438  1.00  0.00     0.198 A 
ATOM     75  C   UNL     1      -3.507   3.091   3.674  1.00  0.00     0.198 A 
ATOM     76  F   UNL     1      -1.300   2.688   4.165  1.00  0.00    -0.203 F 
ATOM     77  F   UNL     1      -5.332   3.174   0.572  1.00  0.00    -0.200 F 
ATOM     78  C   UNL     1      -4.563   3.170   2.794  1.00  0.00     0.200 A 
ATOM     79  F   UNL     1      -3.735   3.145   4.996  1.00  0.00    -0.200 F 
ATOM     80  F   UNL     1      -5.817   3.284   3.252  1.00  0.00    -0.200 F 
ENDBRANCH  56  70
BRANCH  57  81
ATOM     81  C   UNL     1       7.446  -0.963  -1.421  1.00  0.00     0.064 A 
ATOM     82  C   UNL     1       8.433  -0.136  -2.024  1.00  0.00     0.173 A 
ATOM     83  C   UNL     1       7.697  -1.420  -0.126  1.00  0.00     0.173 A 
ATOM     84  F   UNL     1       8.254   0.321  -3.276  1.00  0.00    -0.203 F 
ATOM     85  C   UNL     1       9.479   0.402  -1.279  1.00  0.00     0.198 A 
ATOM     86  C   UNL     1       8.794  -0.935   0.593  1.00  0.00     0.198 A 
ATOM     87  F   UNL     1       6.800  -2.189   0.507  1.00  0.00    -0.203 F 
ATOM     88  F   UNL     1      10.237   1.381  -1.794  1.00  0.00    -0.200 F 
ATOM     89  C   UNL     1       9.640   0.022   0.039  1.00  0.00     0.200 A 
ATOM     90  F   UNL     1       8.919  -1.243   1.893  1.00  0.00    -0.200 F 
ATOM     91  F   UNL     1      10.540   0.652   0.808  1.00  0.00    -0.200 F 
ENDBRANCH  57  81
BRANCH  69  92
ATOM     92  C   UNL     1       0.697  -3.873  -0.896  1.00  0.00     0.064 A 
ATOM     93  C   UNL     1       0.677  -4.808  -1.938  1.00  0.00     0.173 A 
ATOM     94  C   UNL     1      -0.287  -4.001   0.099  1.00  0.00     0.173 A 
ATOM     95  F   UNL     1       1.511  -4.697  -2.983  1.00  0.00    -0.203 F 
ATOM     96  C   UNL     1      -0.250  -5.846  -1.955  1.00  0.00     0.198 A 
ATOM     97  C   UNL     1      -1.269  -4.980   0.029  1.00  0.00     0.198 A 
ATOM     98  F   UNL     1      -0.335  -3.153   1.137  1.00  0.00    -0.203 F 
ATOM     99  F   UNL     1      -0.205  -6.760  -2.934  1.00  0.00    -0.200 F 
ATOM    100  C   UNL     1      -1.238  -5.917  -0.987  1.00  0.00     0.200 A 
ATOM    101  F   UNL     1      -2.258  -4.990   0.933  1.00  0.00    -0.200 F 
ATOM    102  F   UNL     1      -2.170  -6.877  -1.042  1.00  0.00    -0.200 F 
ENDBRANCH  69  92
ENDBRANCH  43  44
ENDBRANCH  36  38
ENDBRANCH  35  36
ENDBRANCH  34  35
ENDBRANCH  33  34
ENDBRANCH  32  33
ENDBRANCH  31  32
ENDBRANCH   1  31
TORSDOF 22
