REMARK SMILES Cc1ccccc1/[NH+]=C1\S[C@@H](CC(=O)Nc2ccc(C(=O)OCCOCCOCCOC(=O)c3ccc(-c4c5nc(c(-c6c(F)c(F)c(F)c(F)c6F)c6ccc([nH]6)c(-c6c(F)c(F)c(F)c(F)c6F)c6nc(c(-c7c(F)c(F)c(F)c(F)c7F)c7ccc4[nH]7)C=C6)C=C5)cc3)cc2)C(=O)N1C
REMARK SMILES IDX 26 1 25 2 24 3 23 4 22 5 20 6 21 7 19 8 16 9 17 10 98 11
REMARK SMILES IDX 18 12 97 13 15 14 13 15 14 16 12 18 11 19 8 20 9 21 10 23
REMARK SMILES IDX 101 24 99 25 102 26 100 27 7 28 1 29 2 30 3 31 4 32 6 33
REMARK SMILES IDX 5 34 27 35 28 36 29 37 30 38 31 39 32 40 33 41 34 42 35 43
REMARK SMILES IDX 96 44 36 45 95 46 37 47 38 48 39 49 89 50 40 51 94 52 88 53
REMARK SMILES IDX 90 54 41 55 93 56 87 57 86 58 42 60 74 61 54 62 73 63 55 64
REMARK SMILES IDX 58 65 72 66 91 67 56 68 57 69 71 71 92 72 59 73 43 74 44 75
REMARK SMILES IDX 52 76 45 77 46 78 50 79 53 80 47 81 48 82 51 83 49 84 75 85
REMARK SMILES IDX 76 86 84 87 77 88 78 89 82 90 85 91 79 92 80 93 83 94 81 95
REMARK SMILES IDX 60 96 61 97 69 98 62 99 63 100 67 101 70 102 64 103 65 104
REMARK SMILES IDX 68 105 66 106
REMARK H PARENT 15 17 8 22 90 59 58 70
REMARK Flexibility Score: inf
ROOT
ATOM      1  C   UNL     1       3.550   9.427  -4.390  1.00  0.00     0.188 C 
ENDROOT
BRANCH   1   2
ATOM      2  O   UNL     1       3.074   8.153  -3.955  1.00  0.00    -0.376 OA
BRANCH   2   3
ATOM      3  C   UNL     1       1.743   7.823  -3.578  1.00  0.00     0.202 C 
BRANCH   3   4
ATOM      4  C   UNL     1       1.457   6.987  -2.125  1.00  0.00     0.261 C 
BRANCH   4   5
ATOM      5  O   UNL     1       2.551   6.102  -1.390  1.00  0.00    -0.460 OA
BRANCH   5   6
ATOM      6  C   UNL     1       3.067   4.856  -1.183  1.00  0.00     0.338 C 
ATOM      7  O   UNL     1       2.505   3.796  -1.403  1.00  0.00    -0.246 OA
BRANCH   6   8
ATOM      8  C   UNL     1       4.484   4.816  -0.605  1.00  0.00     0.060 A 
ATOM      9  C   UNL     1       6.784   4.140   0.858  1.00  0.00     0.041 A 
ATOM     10  C   UNL     1       5.878   5.059   1.379  1.00  0.00     0.027 A 
ATOM     11  C   UNL     1       6.718   3.798  -0.488  1.00  0.00     0.027 A 
ATOM     12  C   UNL     1       4.720   5.378   0.652  1.00  0.00     0.018 A 
ATOM     13  C   UNL     1       5.546   4.098  -1.209  1.00  0.00     0.018 A 
BRANCH   9  14
ATOM     14  N   UNL     1       7.495   3.349   1.781  1.00  0.00    -0.326 N 
ATOM     15  C   UNL     1       7.075   2.086   2.161  1.00  0.00     0.226 C 
ATOM     16  O   UNL     1       7.467   1.608   3.229  1.00  0.00    -0.275 OA
ATOM     17  H   UNL     1       8.325   3.708   2.171  1.00  0.00     0.169 HD
BRANCH  15  18
ATOM     18  C   UNL     1       6.130   1.294   1.277  1.00  0.00     0.128 C 
BRANCH  18  19
ATOM     19  C   UNL     1       4.665   1.314   1.686  1.00  0.00     0.183 C 
ATOM     20  N   UNL     1       1.017   1.528   0.848  1.00  0.00    -0.234 N 
ATOM     21  C   UNL     1       2.282   1.726   0.890  1.00  0.00     0.319 C 
ATOM     22  H   UNL     1       0.510   2.286   1.220  1.00  0.00     0.313 HD
ATOM     23  S   UNL     1       3.629   0.846   0.265  1.00  0.00    -0.022 SA
ATOM     24  N   UNL     1       2.764   2.779   1.626  1.00  0.00    -0.193 N 
ATOM     25  C   UNL     1       4.012   2.592   2.192  1.00  0.00     0.324 C 
ATOM     26  C   UNL     1       1.923   3.915   1.959  1.00  0.00     0.301 C 
ATOM     27  O   UNL     1       4.462   3.268   3.112  1.00  0.00    -0.245 OA
BRANCH  20  28
ATOM     28  C   UNL     1       0.177   0.501   0.404  1.00  0.00     0.128 A 
ATOM     29  C   UNL     1       1.752  -1.551   0.246  1.00  0.00     0.049 C 
ATOM     30  C   UNL     1       0.414  -0.879   0.245  1.00  0.00    -0.004 A 
ATOM     31  C   UNL     1      -0.683  -1.756   0.070  1.00  0.00     0.008 A 
ATOM     32  C   UNL     1      -1.997  -1.302   0.068  1.00  0.00     0.001 A 
ATOM     33  C   UNL     1      -1.169   0.930   0.351  1.00  0.00     0.052 A 
ATOM     34  C   UNL     1      -2.243   0.052   0.197  1.00  0.00     0.004 A 
ENDBRANCH  20  28
ENDBRANCH  18  19
ENDBRANCH  15  18
ENDBRANCH   9  14
ENDBRANCH   6   8
ENDBRANCH   5   6
ENDBRANCH   4   5
ENDBRANCH   3   4
ENDBRANCH   2   3
ENDBRANCH   1   2
BRANCH   1  35
ATOM     35  C   UNL     1       3.340  10.625  -3.464  1.00  0.00     0.188 C 
BRANCH  35  36
ATOM     36  O   UNL     1       2.916  10.172  -2.190  1.00  0.00    -0.376 OA
BRANCH  36  37
ATOM     37  C   UNL     1       2.703  11.199  -1.232  1.00  0.00     0.202 C 
BRANCH  37  38
ATOM     38  C   UNL     1       4.005  11.762  -0.627  1.00  0.00     0.261 C 
BRANCH  38  39
ATOM     39  O   UNL     1       4.838  10.682  -0.145  1.00  0.00    -0.460 OA
BRANCH  39  40
ATOM     40  C   UNL     1       6.017  10.440  -0.824  1.00  0.00     0.338 C 
ATOM     41  O   UNL     1       6.777  11.277  -1.210  1.00  0.00    -0.246 OA
BRANCH  40  42
ATOM     42  C   UNL     1       6.052   8.985  -1.245  1.00  0.00     0.060 A 
ATOM     43  C   UNL     1       6.878   8.461  -2.249  1.00  0.00     0.016 A 
ATOM     44  C   UNL     1       4.969   8.237  -0.945  1.00  0.00     0.016 A 
ATOM     45  C   UNL     1       6.491   7.294  -3.043  1.00  0.00     0.010 A 
ATOM     46  C   UNL     1       4.561   7.362  -1.957  1.00  0.00     0.010 A 
ATOM     47  C   UNL     1       5.216   6.728  -3.010  1.00  0.00    -0.014 A 
BRANCH  47  48
ATOM     48  C   UNL     1       4.505   5.863  -4.175  1.00  0.00     0.031 A 
ATOM     49  C   UNL     1       3.537   4.593  -4.226  1.00  0.00     0.074 A 
ATOM     50  C   UNL     1       4.788   6.212  -5.453  1.00  0.00     0.049 A 
ATOM     51  N   UNL     1       3.837   3.427  -4.782  1.00  0.00    -0.248 NA
ATOM     52  C   UNL     1       2.101   4.576  -3.891  1.00  0.00     0.031 C 
ATOM     53  C   UNL     1       4.253   5.633  -6.689  1.00  0.00     0.029 A 
ATOM     54  N   UNL     1       5.800   7.068  -5.894  1.00  0.00    -0.354 N 
ATOM     55  C   UNL     1       2.672   2.633  -4.829  1.00  0.00     0.074 A 
ATOM     56  C   UNL     1       1.670   3.337  -4.113  1.00  0.00     0.031 C 
ATOM     57  C   UNL     1       5.142   5.848  -7.670  1.00  0.00     0.029 A 
ATOM     58  C   UNL     1       6.289   6.517  -7.086  1.00  0.00     0.049 A 
ATOM     59  H   UNL     1       6.109   7.893  -5.456  1.00  0.00     0.167 HD
ATOM     60  C   UNL     1       2.396   1.567  -5.639  1.00  0.00     0.037 A 
ATOM     61  C   UNL     1       7.598   6.173  -7.215  1.00  0.00     0.037 A 
ATOM     62  C   UNL     1       3.265   1.536  -6.774  1.00  0.00     0.049 A 
ATOM     63  C   UNL     1       7.814   4.731  -7.597  1.00  0.00     0.074 A 
ATOM     64  C   UNL     1       3.100   1.979  -8.073  1.00  0.00     0.029 A 
ATOM     65  N   UNL     1       4.608   1.308  -6.579  1.00  0.00    -0.354 N 
ATOM     66  N   UNL     1       6.888   3.815  -7.567  1.00  0.00    -0.248 NA
ATOM     67  C   UNL     1       9.114   4.196  -7.988  1.00  0.00     0.031 C 
ATOM     68  C   UNL     1       4.383   2.088  -8.651  1.00  0.00     0.029 A 
ATOM     69  C   UNL     1       5.301   1.641  -7.719  1.00  0.00     0.049 A 
ATOM     70  H   UNL     1       5.011   0.961  -5.751  1.00  0.00     0.167 HD
ATOM     71  C   UNL     1       7.452   2.593  -7.843  1.00  0.00     0.074 A 
ATOM     72  C   UNL     1       8.836   2.890  -8.136  1.00  0.00     0.031 C 
ATOM     73  C   UNL     1       6.728   1.439  -7.776  1.00  0.00     0.037 A 
BRANCH  60  74
ATOM     74  C   UNL     1       1.105   0.766  -5.518  1.00  0.00     0.064 A 
ATOM     75  C   UNL     1       0.251   0.459  -6.597  1.00  0.00     0.173 A 
ATOM     76  C   UNL     1       0.687   0.273  -4.262  1.00  0.00     0.173 A 
ATOM     77  F   UNL     1       0.555   0.818  -7.850  1.00  0.00    -0.203 F 
ATOM     78  C   UNL     1      -0.972  -0.207  -6.416  1.00  0.00     0.198 A 
ATOM     79  C   UNL     1      -0.544  -0.370  -4.082  1.00  0.00     0.198 A 
ATOM     80  F   UNL     1       1.469   0.433  -3.185  1.00  0.00    -0.203 F 
ATOM     81  F   UNL     1      -1.766  -0.448  -7.471  1.00  0.00    -0.200 F 
ATOM     82  C   UNL     1      -1.382  -0.595  -5.156  1.00  0.00     0.200 A 
ATOM     83  F   UNL     1      -0.930  -0.757  -2.860  1.00  0.00    -0.200 F 
ATOM     84  F   UNL     1      -2.576  -1.179  -4.977  1.00  0.00    -0.200 F 
ENDBRANCH  60  74
BRANCH  61  85
ATOM     85  C   UNL     1       8.534   7.010  -6.410  1.00  0.00     0.064 A 
ATOM     86  C   UNL     1       8.505   8.410  -6.600  1.00  0.00     0.173 A 
ATOM     87  C   UNL     1       9.204   6.534  -5.277  1.00  0.00     0.173 A 
ATOM     88  F   UNL     1       7.860   8.929  -7.658  1.00  0.00    -0.203 F 
ATOM     89  C   UNL     1       9.027   9.290  -5.655  1.00  0.00     0.198 A 
ATOM     90  C   UNL     1       9.747   7.422  -4.338  1.00  0.00     0.198 A 
ATOM     91  F   UNL     1       9.207   5.225  -4.990  1.00  0.00    -0.203 F 
ATOM     92  F   UNL     1       8.859  10.611  -5.809  1.00  0.00    -0.200 F 
ATOM     93  C   UNL     1       9.637   8.795  -4.518  1.00  0.00     0.200 A 
ATOM     94  F   UNL     1      10.256   6.950  -3.191  1.00  0.00    -0.200 F 
ATOM     95  F   UNL     1      10.040   9.636  -3.554  1.00  0.00    -0.200 F 
ENDBRANCH  61  85
BRANCH  73  96
ATOM     96  C   UNL     1       7.229   0.014  -7.812  1.00  0.00     0.064 A 
ATOM     97  C   UNL     1       8.520  -0.374  -7.428  1.00  0.00     0.173 A 
ATOM     98  C   UNL     1       6.333  -1.054  -8.094  1.00  0.00     0.173 A 
ATOM     99  F   UNL     1       9.426   0.523  -7.022  1.00  0.00    -0.203 F 
ATOM    100  C   UNL     1       8.904  -1.718  -7.387  1.00  0.00     0.198 A 
ATOM    101  C   UNL     1       6.702  -2.393  -7.988  1.00  0.00     0.198 A 
ATOM    102  F   UNL     1       5.059  -0.833  -8.452  1.00  0.00    -0.203 F 
ATOM    103  F   UNL     1      10.164  -2.034  -7.058  1.00  0.00    -0.200 F 
ATOM    104  C   UNL     1       7.995  -2.725  -7.653  1.00  0.00     0.200 A 
ATOM    105  F   UNL     1       5.790  -3.353  -8.196  1.00  0.00    -0.200 F 
ATOM    106  F   UNL     1       8.359  -4.011  -7.566  1.00  0.00    -0.200 F 
ENDBRANCH  73  96
ENDBRANCH  47  48
ENDBRANCH  40  42
ENDBRANCH  39  40
ENDBRANCH  38  39
ENDBRANCH  37  38
ENDBRANCH  36  37
ENDBRANCH  35  36
ENDBRANCH   1  35
TORSDOF 21
