REMARK SMILES CC(C)(C)OC(=O)N1CCC(c2c(C(=O)OCCOCCOCCOC(=O)c3ccc(-c4c5nc(c(-c6c(F)c(F)c(F)c(F)c6F)c6ccc([nH]6)c(-c6c(F)c(F)c(F)c(F)c6F)c6nc(c(-c7c(F)c(F)c(F)c(F)c7F)c7ccc4[nH]7)C=C6)C=C5)cc3)cnn2-c2ccccc2)CC1
REMARK SMILES IDX 20 1 19 2 18 3 17 4 16 5 14 6 15 7 13 8 12 9 93 10 91 11
REMARK SMILES IDX 92 12 11 13 6 14 7 15 8 16 9 17 101 18 10 19 100 20 5 21
REMARK SMILES IDX 2 22 1 23 3 24 4 25 94 26 95 27 99 28 96 29 98 30 97 31
REMARK SMILES IDX 21 32 22 33 23 34 24 35 25 36 26 37 27 38 28 39 29 40 90 41
REMARK SMILES IDX 30 42 89 43 31 44 32 45 33 46 83 47 34 48 88 49 82 50 84 51
REMARK SMILES IDX 35 52 87 53 81 54 80 55 36 57 68 58 48 59 67 60 49 61 52 62
REMARK SMILES IDX 66 63 85 64 50 65 51 66 65 68 86 69 53 70 37 71 38 72 46 73
REMARK SMILES IDX 39 74 40 75 44 76 47 77 41 78 42 79 45 80 43 81 69 82 70 83
REMARK SMILES IDX 78 84 71 85 72 86 76 87 79 88 73 89 74 90 77 91 75 92 54 93
REMARK SMILES IDX 55 94 63 95 56 96 57 97 61 98 64 99 58 100 59 101 62 102
REMARK SMILES IDX 60 103
REMARK H PARENT 84 56 52 67
REMARK Flexibility Score: inf
ROOT
ATOM      1  C   UNL     1      -1.225   5.463   8.200  1.00  0.00     0.188 C 
ENDROOT
BRANCH   1   2
ATOM      2  O   UNL     1      -1.920   5.527   9.429  1.00  0.00    -0.376 OA
BRANCH   2   3
ATOM      3  C   UNL     1      -1.333   4.778  10.485  1.00  0.00     0.202 C 
BRANCH   3   4
ATOM      4  C   UNL     1       0.037   5.257  11.003  1.00  0.00     0.261 C 
BRANCH   4   5
ATOM      5  O   UNL     1       1.047   5.589  10.029  1.00  0.00    -0.460 OA
BRANCH   5   6
ATOM      6  C   UNL     1       1.718   4.599   9.372  1.00  0.00     0.341 C 
ATOM      7  O   UNL     1       1.501   3.405   9.529  1.00  0.00    -0.246 OA
BRANCH   6   8
ATOM      8  C   UNL     1       2.646   5.147   8.383  1.00  0.00     0.102 A 
ATOM      9  C   UNL     1       3.020   4.634   7.126  1.00  0.00     0.062 A 
ATOM     10  N   UNL     1       3.909   5.580   6.607  1.00  0.00    -0.237 N 
ATOM     11  C   UNL     1       3.299   6.393   8.470  1.00  0.00     0.151 A 
ATOM     12  N   UNL     1       4.104   6.625   7.442  1.00  0.00    -0.175 NA
BRANCH   9  13
ATOM     13  C   UNL     1       2.491   3.369   6.437  1.00  0.00     0.043 C 
ATOM     14  C   UNL     1       0.682   2.179   2.998  1.00  0.00     0.410 C 
ATOM     15  O   UNL     1      -0.213   2.970   2.775  1.00  0.00    -0.224 OA
ATOM     16  N   UNL     1       1.178   1.952   4.273  1.00  0.00    -0.308 N 
ATOM     17  C   UNL     1       0.394   2.405   5.394  1.00  0.00     0.124 C 
ATOM     18  C   UNL     1       2.547   1.565   4.593  1.00  0.00     0.124 C 
ATOM     19  C   UNL     1       1.041   3.631   6.000  1.00  0.00     0.032 C 
ATOM     20  C   UNL     1       3.272   2.758   5.254  1.00  0.00     0.032 C 
BRANCH  14  21
ATOM     21  O   UNL     1       1.243   1.360   2.067  1.00  0.00    -0.444 OA
BRANCH  21  22
ATOM     22  C   UNL     1       0.689   1.324   0.721  1.00  0.00     0.106 C 
ATOM     23  C   UNL     1       1.278   0.057   0.083  1.00  0.00     0.056 C 
ATOM     24  C   UNL     1       1.155   2.551  -0.067  1.00  0.00     0.056 C 
ATOM     25  C   UNL     1      -0.845   1.185   0.685  1.00  0.00     0.056 C 
ENDBRANCH  21  22
ENDBRANCH  14  21
ENDBRANCH   9  13
BRANCH  10  26
ATOM     26  C   UNL     1       4.742   5.489   5.478  1.00  0.00     0.065 A 
ATOM     27  C   UNL     1       6.087   5.167   5.681  1.00  0.00     0.028 A 
ATOM     28  C   UNL     1       4.228   5.683   4.193  1.00  0.00     0.028 A 
ATOM     29  C   UNL     1       6.903   4.928   4.579  1.00  0.00     0.002 A 
ATOM     30  C   UNL     1       5.053   5.434   3.095  1.00  0.00     0.002 A 
ATOM     31  C   UNL     1       6.380   5.038   3.289  1.00  0.00     0.000 A 
ENDBRANCH  10  26
ENDBRANCH   6   8
ENDBRANCH   5   6
ENDBRANCH   4   5
ENDBRANCH   3   4
ENDBRANCH   2   3
ENDBRANCH   1   2
BRANCH   1  32
ATOM     32  C   UNL     1      -0.557   6.780   7.758  1.00  0.00     0.188 C 
BRANCH  32  33
ATOM     33  O   UNL     1      -0.857   8.018   8.393  1.00  0.00    -0.376 OA
BRANCH  33  34
ATOM     34  C   UNL     1      -2.107   8.232   9.027  1.00  0.00     0.202 C 
BRANCH  34  35
ATOM     35  C   UNL     1      -3.379   8.163   8.186  1.00  0.00     0.261 C 
BRANCH  35  36
ATOM     36  O   UNL     1      -3.388   7.133   7.211  1.00  0.00    -0.460 OA
BRANCH  36  37
ATOM     37  C   UNL     1      -2.908   7.501   6.003  1.00  0.00     0.338 C 
ATOM     38  O   UNL     1      -2.388   8.561   5.701  1.00  0.00    -0.246 OA
BRANCH  37  39
ATOM     39  C   UNL     1      -3.198   6.431   5.038  1.00  0.00     0.060 A 
ATOM     40  C   UNL     1      -2.715   6.608   3.739  1.00  0.00     0.016 A 
ATOM     41  C   UNL     1      -4.172   5.471   5.345  1.00  0.00     0.016 A 
ATOM     42  C   UNL     1      -3.410   6.024   2.705  1.00  0.00     0.010 A 
ATOM     43  C   UNL     1      -4.876   4.903   4.313  1.00  0.00     0.010 A 
ATOM     44  C   UNL     1      -4.554   5.285   3.014  1.00  0.00    -0.014 A 
BRANCH  44  45
ATOM     45  C   UNL     1      -5.473   4.981   1.943  1.00  0.00     0.031 A 
ATOM     46  C   UNL     1      -5.148   3.763   1.178  1.00  0.00     0.074 A 
ATOM     47  C   UNL     1      -6.599   5.698   1.766  1.00  0.00     0.049 A 
ATOM     48  N   UNL     1      -4.782   3.674  -0.056  1.00  0.00    -0.248 NA
ATOM     49  C   UNL     1      -5.107   2.495   1.920  1.00  0.00     0.031 C 
ATOM     50  C   UNL     1      -7.197   6.708   2.646  1.00  0.00     0.029 A 
ATOM     51  N   UNL     1      -7.511   5.587   0.769  1.00  0.00    -0.354 N 
ATOM     52  C   UNL     1      -4.613   2.316  -0.296  1.00  0.00     0.074 A 
ATOM     53  C   UNL     1      -4.651   1.662   0.986  1.00  0.00     0.031 C 
ATOM     54  C   UNL     1      -8.473   6.936   2.254  1.00  0.00     0.029 A 
ATOM     55  C   UNL     1      -8.728   6.194   1.032  1.00  0.00     0.049 A 
ATOM     56  H   UNL     1      -7.324   5.112  -0.073  1.00  0.00     0.167 HD
ATOM     57  C   UNL     1      -4.689   1.800  -1.551  1.00  0.00     0.037 A 
ATOM     58  C   UNL     1      -9.871   5.982   0.332  1.00  0.00     0.037 A 
ATOM     59  C   UNL     1      -4.546   2.821  -2.555  1.00  0.00     0.049 A 
ATOM     60  C   UNL     1      -9.486   5.395  -0.982  1.00  0.00     0.074 A 
ATOM     61  C   UNL     1      -3.549   3.724  -2.876  1.00  0.00     0.029 A 
ATOM     62  N   UNL     1      -5.680   3.292  -3.172  1.00  0.00    -0.354 N 
ATOM     63  N   UNL     1      -8.832   6.048  -1.905  1.00  0.00    -0.248 NA
ATOM     64  C   UNL     1      -9.399   3.942  -1.068  1.00  0.00     0.031 C 
ATOM     65  C   UNL     1      -4.236   4.924  -3.225  1.00  0.00     0.029 A 
ATOM     66  C   UNL     1      -5.604   4.662  -3.147  1.00  0.00     0.049 A 
ATOM     67  H   UNL     1      -6.406   2.751  -3.558  1.00  0.00     0.167 HD
ATOM     68  C   UNL     1      -7.935   5.127  -2.428  1.00  0.00     0.074 A 
ATOM     69  C   UNL     1      -8.372   3.831  -1.915  1.00  0.00     0.031 C 
ATOM     70  C   UNL     1      -6.753   5.520  -2.987  1.00  0.00     0.037 A 
BRANCH  57  71
ATOM     71  C   UNL     1      -5.233   0.431  -1.855  1.00  0.00     0.064 A 
ATOM     72  C   UNL     1      -5.075  -0.102  -3.147  1.00  0.00     0.173 A 
ATOM     73  C   UNL     1      -6.138  -0.257  -1.015  1.00  0.00     0.173 A 
ATOM     74  F   UNL     1      -4.264   0.492  -4.035  1.00  0.00    -0.203 F 
ATOM     75  C   UNL     1      -5.812  -1.206  -3.581  1.00  0.00     0.198 A 
ATOM     76  C   UNL     1      -6.823  -1.395  -1.431  1.00  0.00     0.198 A 
ATOM     77  F   UNL     1      -6.484   0.204   0.193  1.00  0.00    -0.203 F 
ATOM     78  F   UNL     1      -5.720  -1.605  -4.857  1.00  0.00    -0.200 F 
ATOM     79  C   UNL     1      -6.685  -1.851  -2.724  1.00  0.00     0.200 A 
ATOM     80  F   UNL     1      -7.677  -1.993  -0.589  1.00  0.00    -0.200 F 
ATOM     81  F   UNL     1      -7.430  -2.877  -3.154  1.00  0.00    -0.200 F 
ENDBRANCH  57  71
BRANCH  58  82
ATOM     82  C   UNL     1     -11.239   5.865   0.891  1.00  0.00     0.064 A 
ATOM     83  C   UNL     1     -12.375   5.989   0.076  1.00  0.00     0.173 A 
ATOM     84  C   UNL     1     -11.454   5.366   2.192  1.00  0.00     0.173 A 
ATOM     85  F   UNL     1     -12.250   6.399  -1.194  1.00  0.00    -0.203 F 
ATOM     86  C   UNL     1     -13.649   5.632   0.535  1.00  0.00     0.198 A 
ATOM     87  C   UNL     1     -12.724   5.017   2.651  1.00  0.00     0.198 A 
ATOM     88  F   UNL     1     -10.424   5.118   3.013  1.00  0.00    -0.203 F 
ATOM     89  F   UNL     1     -14.704   5.715  -0.286  1.00  0.00    -0.200 F 
ATOM     90  C   UNL     1     -13.821   5.141   1.820  1.00  0.00     0.200 A 
ATOM     91  F   UNL     1     -12.868   4.503   3.881  1.00  0.00    -0.200 F 
ATOM     92  F   UNL     1     -15.031   4.748   2.242  1.00  0.00    -0.200 F 
ENDBRANCH  58  82
BRANCH  70  93
ATOM     93  C   UNL     1      -6.536   6.988  -3.217  1.00  0.00     0.064 A 
ATOM     94  C   UNL     1      -6.447   7.934  -2.181  1.00  0.00     0.173 A 
ATOM     95  C   UNL     1      -6.240   7.423  -4.515  1.00  0.00     0.173 A 
ATOM     96  F   UNL     1      -6.615   7.572  -0.903  1.00  0.00    -0.203 F 
ATOM     97  C   UNL     1      -6.114   9.262  -2.441  1.00  0.00     0.198 A 
ATOM     98  C   UNL     1      -5.874   8.742  -4.768  1.00  0.00     0.198 A 
ATOM     99  F   UNL     1      -6.252   6.550  -5.534  1.00  0.00    -0.203 F 
ATOM    100  F   UNL     1      -6.039  10.147  -1.435  1.00  0.00    -0.200 F 
ATOM    101  C   UNL     1      -5.820   9.663  -3.733  1.00  0.00     0.200 A 
ATOM    102  F   UNL     1      -5.543   9.114  -6.012  1.00  0.00    -0.200 F 
ATOM    103  F   UNL     1      -5.455  10.929  -3.979  1.00  0.00    -0.200 F 
ENDBRANCH  70  93
ENDBRANCH  44  45
ENDBRANCH  37  39
ENDBRANCH  36  37
ENDBRANCH  35  36
ENDBRANCH  34  35
ENDBRANCH  33  34
ENDBRANCH  32  33
ENDBRANCH   1  32
TORSDOF 21
