REMARK SMILES Cc1cc(F)ccc1OC1(C(=O)OCCOCCOCCOC(=O)c2ccc(-c3c4nc(c(-c5c(F)c(F)c(F)c(F)c5F)c5ccc([nH]5)c(-c5c(F)c(F)c(F)c(F)c5F)c5nc(c(-c6c(F)c(F)c(F)c(F)c6F)c6ccc3[nH]6)C=C5)C=C4)cc2)CCN(C(=O)[C@H]2CCOC2)CC1
REMARK SMILES IDX 17 1 16 2 15 3 14 4 13 5 11 6 12 7 10 8 88 9 99 10 89 11
REMARK SMILES IDX 98 12 90 13 91 14 92 15 9 16 8 17 1 18 2 19 3 20 4 21 7 22
REMARK SMILES IDX 5 23 6 24 93 25 94 26 97 27 95 28 96 29 18 30 19 31 20 32
REMARK SMILES IDX 21 33 22 34 23 35 24 36 25 37 26 38 87 39 27 40 86 41 28 42
REMARK SMILES IDX 29 43 30 44 80 45 31 46 85 47 79 48 81 49 32 50 84 51 78 52
REMARK SMILES IDX 77 53 33 55 65 56 45 57 64 58 46 59 49 60 63 61 82 62 47 63
REMARK SMILES IDX 48 64 62 66 83 67 50 68 34 69 35 70 43 71 36 72 37 73 41 74
REMARK SMILES IDX 44 75 38 76 39 77 42 78 40 79 66 80 67 81 75 82 68 83 69 84
REMARK SMILES IDX 73 85 76 86 70 87 71 88 74 89 72 90 51 91 52 92 60 93 53 94
REMARK SMILES IDX 54 95 58 96 61 97 55 98 56 99 59 100 57 101
REMARK H PARENT 81 54 49 65
REMARK Flexibility Score: inf
ROOT
ATOM      1  C   UNL     1       9.893  10.150   0.813  1.00  0.00     0.188 C 
ENDROOT
BRANCH   1   2
ATOM      2  O   UNL     1      10.560  10.064   2.064  1.00  0.00    -0.376 OA
BRANCH   2   3
ATOM      3  C   UNL     1      11.294   8.863   2.277  1.00  0.00     0.202 C 
BRANCH   3   4
ATOM      4  C   UNL     1      10.475   7.554   2.293  1.00  0.00     0.261 C 
BRANCH   4   5
ATOM      5  O   UNL     1       9.617   7.328   1.145  1.00  0.00    -0.460 OA
BRANCH   5   6
ATOM      6  C   UNL     1       8.272   7.510   1.296  1.00  0.00     0.350 C 
ATOM      7  O   UNL     1       7.754   7.755   2.384  1.00  0.00    -0.247 OA
BRANCH   6   8
ATOM      8  C   UNL     1       7.433   7.420  -0.049  1.00  0.00     0.209 C 
ATOM      9  C   UNL     1       8.315   7.215  -1.280  1.00  0.00     0.082 C 
ATOM     10  C   UNL     1       6.455   6.298   0.297  1.00  0.00     0.082 C 
ATOM     11  C   UNL     1       8.011   6.037  -2.195  1.00  0.00     0.124 C 
ATOM     12  C   UNL     1       5.943   5.467  -0.851  1.00  0.00     0.124 C 
ATOM     13  N   UNL     1       6.961   5.093  -1.827  1.00  0.00    -0.342 N 
ATOM     14  C   UNL     1       6.827   4.017  -2.710  1.00  0.00     0.228 C 
ATOM     15  O   UNL     1       7.615   3.870  -3.648  1.00  0.00    -0.274 OA
BRANCH   8  16
ATOM     16  O   UNL     1       6.846   8.747  -0.041  1.00  0.00    -0.475 OA
BRANCH  16  17
ATOM     17  C   UNL     1       5.904   9.443  -0.722  1.00  0.00     0.124 A 
ATOM     18  C   UNL     1       5.382   8.103  -2.885  1.00  0.00     0.048 C 
ATOM     19  C   UNL     1       5.195   9.212  -1.910  1.00  0.00    -0.006 A 
ATOM     20  C   UNL     1       4.224  10.154  -2.344  1.00  0.00     0.046 A 
ATOM     21  C   UNL     1       3.994  11.329  -1.653  1.00  0.00     0.123 A 
ATOM     22  C   UNL     1       5.654  10.670  -0.061  1.00  0.00     0.050 A 
ATOM     23  F   UNL     1       3.083  12.200  -2.105  1.00  0.00    -0.207 F 
ATOM     24  C   UNL     1       4.720  11.608  -0.516  1.00  0.00     0.043 A 
ENDBRANCH  16  17
ENDBRANCH   8  16
BRANCH  14  25
ATOM     25  C   UNL     1       5.658   3.064  -2.537  1.00  0.00     0.107 C 
ATOM     26  C   UNL     1       4.428   3.536  -3.284  1.00  0.00     0.044 C 
ATOM     27  C   UNL     1       5.937   1.722  -3.191  1.00  0.00     0.173 C 
ATOM     28  C   UNL     1       3.723   2.251  -3.666  1.00  0.00     0.161 C 
ATOM     29  O   UNL     1       4.674   1.186  -3.601  1.00  0.00    -0.381 OA
ENDBRANCH  14  25
ENDBRANCH   6   8
ENDBRANCH   5   6
ENDBRANCH   4   5
ENDBRANCH   3   4
ENDBRANCH   2   3
ENDBRANCH   1   2
BRANCH   1  30
ATOM     30  C   UNL     1      10.735   9.778  -0.408  1.00  0.00     0.188 C 
BRANCH  30  31
ATOM     31  O   UNL     1      11.489   8.569  -0.428  1.00  0.00    -0.376 OA
BRANCH  31  32
ATOM     32  C   UNL     1      12.351   8.368  -1.561  1.00  0.00     0.202 C 
BRANCH  32  33
ATOM     33  C   UNL     1      13.444   9.430  -1.840  1.00  0.00     0.261 C 
BRANCH  33  34
ATOM     34  O   UNL     1      12.960  10.768  -1.900  1.00  0.00    -0.460 OA
BRANCH  34  35
ATOM     35  C   UNL     1      11.951  10.941  -2.762  1.00  0.00     0.338 C 
ATOM     36  O   UNL     1      11.653  10.230  -3.723  1.00  0.00    -0.246 OA
BRANCH  35  37
ATOM     37  C   UNL     1      11.118  12.053  -2.313  1.00  0.00     0.060 A 
ATOM     38  C   UNL     1       9.768  12.027  -2.709  1.00  0.00     0.016 A 
ATOM     39  C   UNL     1      11.777  13.201  -1.892  1.00  0.00     0.016 A 
ATOM     40  C   UNL     1       9.226  13.190  -3.162  1.00  0.00     0.010 A 
ATOM     41  C   UNL     1      11.260  14.357  -2.377  1.00  0.00     0.010 A 
ATOM     42  C   UNL     1      10.097  14.262  -3.161  1.00  0.00    -0.014 A 
BRANCH  42  43
ATOM     43  C   UNL     1      10.052  15.235  -4.215  1.00  0.00     0.031 A 
ATOM     44  C   UNL     1       9.405  16.484  -3.860  1.00  0.00     0.074 A 
ATOM     45  C   UNL     1      10.840  14.933  -5.272  1.00  0.00     0.049 A 
ATOM     46  N   UNL     1       9.040  17.384  -4.690  1.00  0.00    -0.248 NA
ATOM     47  C   UNL     1       9.016  16.774  -2.479  1.00  0.00     0.031 C 
ATOM     48  C   UNL     1      11.457  15.805  -6.258  1.00  0.00     0.029 A 
ATOM     49  N   UNL     1      11.118  13.631  -5.746  1.00  0.00    -0.354 N 
ATOM     50  C   UNL     1       8.813  18.513  -3.934  1.00  0.00     0.074 A 
ATOM     51  C   UNL     1       8.600  18.033  -2.595  1.00  0.00     0.031 C 
ATOM     52  C   UNL     1      11.772  15.073  -7.345  1.00  0.00     0.029 A 
ATOM     53  C   UNL     1      11.201  13.746  -7.147  1.00  0.00     0.049 A 
ATOM     54  H   UNL     1      11.230  12.813  -5.209  1.00  0.00     0.167 HD
ATOM     55  C   UNL     1       9.113  19.711  -4.511  1.00  0.00     0.037 A 
ATOM     56  C   UNL     1      10.198  13.228  -7.918  1.00  0.00     0.037 A 
ATOM     57  C   UNL     1       9.443  19.489  -5.928  1.00  0.00     0.049 A 
ATOM     58  C   UNL     1       9.421  14.325  -8.613  1.00  0.00     0.074 A 
ATOM     59  C   UNL     1      10.655  19.372  -6.592  1.00  0.00     0.029 A 
ATOM     60  N   UNL     1       8.487  18.903  -6.761  1.00  0.00    -0.354 N 
ATOM     61  N   UNL     1       9.201  15.511  -8.108  1.00  0.00    -0.248 NA
ATOM     62  C   UNL     1       8.911  14.176  -9.969  1.00  0.00     0.031 C 
ATOM     63  C   UNL     1      10.430  18.639  -7.790  1.00  0.00     0.029 A 
ATOM     64  C   UNL     1       9.085  18.311  -7.858  1.00  0.00     0.049 A 
ATOM     65  H   UNL     1       7.517  18.911  -6.589  1.00  0.00     0.167 HD
ATOM     66  C   UNL     1       8.591  16.294  -9.056  1.00  0.00     0.074 A 
ATOM     67  C   UNL     1       8.428  15.408 -10.198  1.00  0.00     0.031 C 
ATOM     68  C   UNL     1       8.292  17.616  -8.864  1.00  0.00     0.037 A 
BRANCH  55  69
ATOM     69  C   UNL     1       9.479  20.961  -3.735  1.00  0.00     0.064 A 
ATOM     70  C   UNL     1      10.246  21.973  -4.353  1.00  0.00     0.173 A 
ATOM     71  C   UNL     1       9.187  21.209  -2.377  1.00  0.00     0.173 A 
ATOM     72  F   UNL     1      10.533  21.930  -5.661  1.00  0.00    -0.203 F 
ATOM     73  C   UNL     1      10.750  23.075  -3.655  1.00  0.00     0.198 A 
ATOM     74  C   UNL     1       9.718  22.293  -1.669  1.00  0.00     0.198 A 
ATOM     75  F   UNL     1       8.335  20.454  -1.682  1.00  0.00    -0.203 F 
ATOM     76  F   UNL     1      11.485  23.989  -4.302  1.00  0.00    -0.200 F 
ATOM     77  C   UNL     1      10.507  23.223  -2.306  1.00  0.00     0.200 A 
ATOM     78  F   UNL     1       9.447  22.427  -0.362  1.00  0.00    -0.200 F 
ATOM     79  F   UNL     1      11.005  24.267  -1.632  1.00  0.00    -0.200 F 
ENDBRANCH  55  69
BRANCH  56  80
ATOM     80  C   UNL     1       9.608  11.972  -7.364  1.00  0.00     0.064 A 
ATOM     81  C   UNL     1      10.432  10.831  -7.251  1.00  0.00     0.173 A 
ATOM     82  C   UNL     1       8.410  11.966  -6.641  1.00  0.00     0.173 A 
ATOM     83  F   UNL     1      11.585  10.770  -7.936  1.00  0.00    -0.203 F 
ATOM     84  C   UNL     1      10.127   9.790  -6.372  1.00  0.00     0.198 A 
ATOM     85  C   UNL     1       8.110  10.923  -5.757  1.00  0.00     0.198 A 
ATOM     86  F   UNL     1       7.570  13.008  -6.706  1.00  0.00    -0.203 F 
ATOM     87  F   UNL     1      10.975   8.761  -6.229  1.00  0.00    -0.200 F 
ATOM     88  C   UNL     1       8.982   9.856  -5.597  1.00  0.00     0.200 A 
ATOM     89  F   UNL     1       7.013  10.995  -4.987  1.00  0.00    -0.200 F 
ATOM     90  F   UNL     1       8.738   8.924  -4.662  1.00  0.00    -0.200 F 
ENDBRANCH  56  80
BRANCH  68  91
ATOM     91  C   UNL     1       7.327  18.424  -9.707  1.00  0.00     0.064 A 
ATOM     92  C   UNL     1       6.334  17.857 -10.524  1.00  0.00     0.173 A 
ATOM     93  C   UNL     1       7.287  19.839  -9.614  1.00  0.00     0.173 A 
ATOM     94  F   UNL     1       6.127  16.535 -10.565  1.00  0.00    -0.203 F 
ATOM     95  C   UNL     1       5.465  18.639 -11.287  1.00  0.00     0.198 A 
ATOM     96  C   UNL     1       6.361  20.612 -10.310  1.00  0.00     0.198 A 
ATOM     97  F   UNL     1       8.121  20.525  -8.820  1.00  0.00    -0.203 F 
ATOM     98  F   UNL     1       4.597  18.042 -12.116  1.00  0.00    -0.200 F 
ATOM     99  C   UNL     1       5.474  20.014 -11.177  1.00  0.00     0.200 A 
ATOM    100  F   UNL     1       6.328  21.939 -10.121  1.00  0.00    -0.200 F 
ATOM    101  F   UNL     1       4.612  20.758 -11.881  1.00  0.00    -0.200 F 
ENDBRANCH  68  91
ENDBRANCH  42  43
ENDBRANCH  35  37
ENDBRANCH  34  35
ENDBRANCH  33  34
ENDBRANCH  32  33
ENDBRANCH  31  32
ENDBRANCH  30  31
ENDBRANCH   1  30
TORSDOF 20
