REMARK SMILES O=C(C[N@@H+]1CCC[C@H]1C(=O)OCCOCCOCCOC(=O)c1ccc(-c2c3nc(c(-c4c(F)c(F)c(F)c(F)c4F)c4ccc([nH]4)c(-c4c(F)c(F)c(F)c(F)c4F)c4nc(c(-c5c(F)c(F)c(F)c(F)c5F)c5ccc2[nH]5)C=C4)C=C3)cc1)Nc1ccc(F)c(F)c1F
REMARK SMILES IDX 15 1 14 2 13 3 12 4 11 5 9 6 10 7 8 8 4 9 5 10 6 12 7 13
REMARK SMILES IDX 3 14 2 15 1 16 86 17 87 19 88 20 94 21 89 22 92 23 95 24
REMARK SMILES IDX 90 25 93 26 91 27 16 28 17 29 18 30 19 31 20 32 21 33 22 34
REMARK SMILES IDX 23 35 24 36 85 37 25 38 84 39 26 40 27 41 28 42 78 43 29 44
REMARK SMILES IDX 83 45 77 46 79 47 30 48 82 49 76 50 75 51 31 53 63 54 43 55
REMARK SMILES IDX 62 56 44 57 47 58 61 59 80 60 45 61 46 62 60 64 81 65 48 66
REMARK SMILES IDX 32 67 33 68 41 69 34 70 35 71 39 72 42 73 36 74 37 75 40 76
REMARK SMILES IDX 38 77 64 78 65 79 73 80 66 81 67 82 71 83 74 84 68 85 69 86
REMARK SMILES IDX 72 87 70 88 49 89 50 90 58 91 51 92 52 93 56 94 59 95 53 96
REMARK SMILES IDX 54 97 57 98 55 99
REMARK H PARENT 4 11 86 18 79 52 47 63
REMARK Flexibility Score: inf
ROOT
ATOM      1  C   UNL     1       5.696   4.656   3.668  1.00  0.00     0.188 C 
ENDROOT
BRANCH   1   2
ATOM      2  O   UNL     1       6.993   4.924   3.176  1.00  0.00    -0.376 OA
BRANCH   2   3
ATOM      3  C   UNL     1       7.153   5.666   1.986  1.00  0.00     0.202 C 
BRANCH   3   4
ATOM      4  C   UNL     1       6.535   5.159   0.681  1.00  0.00     0.261 C 
BRANCH   4   5
ATOM      5  O   UNL     1       5.251   4.532   0.788  1.00  0.00    -0.459 OA
BRANCH   5   6
ATOM      6  C   UNL     1       5.251   3.165   0.729  1.00  0.00     0.365 C 
ATOM      7  O   UNL     1       6.260   2.473   0.712  1.00  0.00    -0.245 OA
BRANCH   6   8
ATOM      8  C   UNL     1       3.802   2.648   0.604  1.00  0.00     0.295 C 
ATOM      9  N   UNL     1       3.800   1.154   0.431  1.00  0.00    -0.315 N 
ATOM     10  C   UNL     1       3.515   0.650   1.783  1.00  0.00     0.263 C 
ATOM     11  H   UNL     1       4.666   0.715   0.117  1.00  0.00     0.349 HD
ATOM     12  C   UNL     1       2.439   1.557   2.316  1.00  0.00     0.068 C 
ATOM     13  C   UNL     1       2.908   2.914   1.828  1.00  0.00     0.083 C 
BRANCH   9  14
ATOM     14  C   UNL     1       2.843   0.817  -0.656  1.00  0.00     0.364 C 
BRANCH  14  15
ATOM     15  C   UNL     1       2.010  -0.430  -0.418  1.00  0.00     0.279 C 
ATOM     16  O   UNL     1       0.787  -0.352  -0.314  1.00  0.00    -0.268 OA
ATOM     17  N   UNL     1       2.762  -1.577  -0.229  1.00  0.00    -0.319 N 
ATOM     18  H   UNL     1       3.738  -1.534  -0.349  1.00  0.00     0.170 HD
BRANCH  17  19
ATOM     19  C   UNL     1       2.172  -2.804   0.129  1.00  0.00     0.080 A 
ATOM     20  C   UNL     1       2.791  -3.555   1.135  1.00  0.00     0.032 A 
ATOM     21  C   UNL     1       0.979  -3.265  -0.446  1.00  0.00     0.185 A 
ATOM     22  C   UNL     1       2.178  -4.718   1.608  1.00  0.00     0.045 A 
ATOM     23  C   UNL     1       0.387  -4.433   0.011  1.00  0.00     0.196 A 
ATOM     24  F   UNL     1       0.436  -2.632  -1.498  1.00  0.00    -0.201 F 
ATOM     25  C   UNL     1       0.978  -5.146   1.044  1.00  0.00     0.162 A 
ATOM     26  F   UNL     1      -0.745  -4.879  -0.553  1.00  0.00    -0.200 F 
ATOM     27  F   UNL     1       0.403  -6.265   1.504  1.00  0.00    -0.204 F 
ENDBRANCH  17  19
ENDBRANCH  14  15
ENDBRANCH   9  14
ENDBRANCH   6   8
ENDBRANCH   5   6
ENDBRANCH   4   5
ENDBRANCH   3   4
ENDBRANCH   2   3
ENDBRANCH   1   2
BRANCH   1  28
ATOM     28  C   UNL     1       4.524   5.653   3.500  1.00  0.00     0.188 C 
BRANCH  28  29
ATOM     29  O   UNL     1       4.734   7.045   3.409  1.00  0.00    -0.376 OA
BRANCH  29  30
ATOM     30  C   UNL     1       5.500   7.733   4.378  1.00  0.00     0.202 C 
BRANCH  30  31
ATOM     31  C   UNL     1       5.288   7.486   5.875  1.00  0.00     0.261 C 
BRANCH  31  32
ATOM     32  O   UNL     1       5.361   6.112   6.288  1.00  0.00    -0.460 OA
BRANCH  32  33
ATOM     33  C   UNL     1       4.223   5.587   6.785  1.00  0.00     0.338 C 
ATOM     34  O   UNL     1       3.129   6.154   6.900  1.00  0.00    -0.246 OA
BRANCH  33  35
ATOM     35  C   UNL     1       4.386   4.152   7.060  1.00  0.00     0.060 A 
ATOM     36  C   UNL     1       3.498   3.245   6.462  1.00  0.00     0.016 A 
ATOM     37  C   UNL     1       5.355   3.701   7.960  1.00  0.00     0.016 A 
ATOM     38  C   UNL     1       3.546   1.891   6.800  1.00  0.00     0.010 A 
ATOM     39  C   UNL     1       5.392   2.347   8.307  1.00  0.00     0.010 A 
ATOM     40  C   UNL     1       4.466   1.441   7.757  1.00  0.00    -0.014 A 
BRANCH  40  41
ATOM     41  C   UNL     1       4.352   0.071   8.318  1.00  0.00     0.031 A 
ATOM     42  C   UNL     1       3.628  -0.118   9.623  1.00  0.00     0.074 A 
ATOM     43  C   UNL     1       4.881  -0.992   7.688  1.00  0.00     0.049 A 
ATOM     44  N   UNL     1       3.464  -1.203  10.338  1.00  0.00    -0.248 NA
ATOM     45  C   UNL     1       3.008   1.084  10.201  1.00  0.00     0.031 C 
ATOM     46  C   UNL     1       5.572  -0.956   6.402  1.00  0.00     0.029 A 
ATOM     47  N   UNL     1       4.928  -2.313   8.062  1.00  0.00    -0.354 N 
ATOM     48  C   UNL     1       2.729  -0.814  11.450  1.00  0.00     0.074 A 
ATOM     49  C   UNL     1       2.505   0.612  11.331  1.00  0.00     0.031 C 
ATOM     50  C   UNL     1       5.988  -2.198   6.098  1.00  0.00     0.029 A 
ATOM     51  C   UNL     1       5.621  -3.108   7.184  1.00  0.00     0.049 A 
ATOM     52  H   UNL     1       4.505  -2.657   8.882  1.00  0.00     0.167 HD
ATOM     53  C   UNL     1       2.276  -1.573  12.477  1.00  0.00     0.037 A 
ATOM     54  C   UNL     1       5.942  -4.415   7.261  1.00  0.00     0.037 A 
ATOM     55  C   UNL     1       2.508  -2.988  12.606  1.00  0.00     0.049 A 
ATOM     56  C   UNL     1       5.504  -5.224   8.456  1.00  0.00     0.074 A 
ATOM     57  C   UNL     1       2.080  -3.846  13.604  1.00  0.00     0.029 A 
ATOM     58  N   UNL     1       3.245  -3.752  11.713  1.00  0.00    -0.354 N 
ATOM     59  N   UNL     1       4.790  -4.856   9.492  1.00  0.00    -0.248 NA
ATOM     60  C   UNL     1       5.920  -6.635   8.490  1.00  0.00     0.031 C 
ATOM     61  C   UNL     1       2.602  -5.117  13.343  1.00  0.00     0.029 A 
ATOM     62  C   UNL     1       3.307  -5.065  12.152  1.00  0.00     0.049 A 
ATOM     63  H   UNL     1       3.662  -3.411  10.889  1.00  0.00     0.167 HD
ATOM     64  C   UNL     1       4.645  -5.990  10.282  1.00  0.00     0.074 A 
ATOM     65  C   UNL     1       5.339  -7.064   9.602  1.00  0.00     0.031 C 
ATOM     66  C   UNL     1       3.993  -6.130  11.463  1.00  0.00     0.037 A 
BRANCH  53  67
ATOM     67  C   UNL     1       1.512  -0.873  13.562  1.00  0.00     0.064 A 
ATOM     68  C   UNL     1       0.223  -0.362  13.346  1.00  0.00     0.173 A 
ATOM     69  C   UNL     1       2.075  -0.713  14.838  1.00  0.00     0.173 A 
ATOM     70  F   UNL     1      -0.355  -0.475  12.140  1.00  0.00    -0.203 F 
ATOM     71  C   UNL     1      -0.459   0.315  14.354  1.00  0.00     0.198 A 
ATOM     72  C   UNL     1       1.378  -0.063  15.853  1.00  0.00     0.198 A 
ATOM     73  F   UNL     1       3.302  -1.187  15.099  1.00  0.00    -0.203 F 
ATOM     74  F   UNL     1      -1.663   0.847  14.107  1.00  0.00    -0.200 F 
ATOM     75  C   UNL     1       0.117   0.460  15.608  1.00  0.00     0.200 A 
ATOM     76  F   UNL     1       1.931   0.065  17.067  1.00  0.00    -0.200 F 
ATOM     77  F   UNL     1      -0.538   1.114  16.577  1.00  0.00    -0.200 F 
ENDBRANCH  53  67
BRANCH  54  78
ATOM     78  C   UNL     1       6.728  -5.049   6.171  1.00  0.00     0.064 A 
ATOM     79  C   UNL     1       6.139  -5.991   5.316  1.00  0.00     0.173 A 
ATOM     80  C   UNL     1       8.080  -4.739   5.970  1.00  0.00     0.173 A 
ATOM     81  F   UNL     1       4.854  -6.336   5.482  1.00  0.00    -0.203 F 
ATOM     82  C   UNL     1       6.878  -6.608   4.308  1.00  0.00     0.198 A 
ATOM     83  C   UNL     1       8.811  -5.336   4.945  1.00  0.00     0.198 A 
ATOM     84  F   UNL     1       8.689  -3.845   6.763  1.00  0.00    -0.203 F 
ATOM     85  F   UNL     1       6.300  -7.530   3.527  1.00  0.00    -0.200 F 
ATOM     86  C   UNL     1       8.211  -6.275   4.119  1.00  0.00     0.200 A 
ATOM     87  F   UNL     1      10.095  -5.003   4.757  1.00  0.00    -0.200 F 
ATOM     88  F   UNL     1       8.917  -6.862   3.144  1.00  0.00    -0.200 F 
ENDBRANCH  54  78
BRANCH  66  89
ATOM     89  C   UNL     1       3.955  -7.500  12.081  1.00  0.00     0.064 A 
ATOM     90  C   UNL     1       5.091  -8.082  12.662  1.00  0.00     0.173 A 
ATOM     91  C   UNL     1       2.751  -8.220  12.133  1.00  0.00     0.173 A 
ATOM     92  F   UNL     1       6.270  -7.442  12.627  1.00  0.00    -0.203 F 
ATOM     93  C   UNL     1       5.028  -9.343  13.251  1.00  0.00     0.198 A 
ATOM     94  C   UNL     1       2.685  -9.467  12.749  1.00  0.00     0.198 A 
ATOM     95  F   UNL     1       1.633  -7.707  11.598  1.00  0.00    -0.203 F 
ATOM     96  F   UNL     1       6.136  -9.898  13.760  1.00  0.00    -0.200 F 
ATOM     97  C   UNL     1       3.824 -10.030  13.302  1.00  0.00     0.200 A 
ATOM     98  F   UNL     1       1.517 -10.122  12.810  1.00  0.00    -0.200 F 
ATOM     99  F   UNL     1       3.764 -11.239  13.877  1.00  0.00    -0.200 F 
ENDBRANCH  66  89
ENDBRANCH  40  41
ENDBRANCH  33  35
ENDBRANCH  32  33
ENDBRANCH  31  32
ENDBRANCH  30  31
ENDBRANCH  29  30
ENDBRANCH  28  29
ENDBRANCH   1  28
TORSDOF 20
