REMARK SMILES CC/C=C/C/C=C/C/C=C/C/C=C/CC/C=C/COCC(=O)OCCOCCOCCOC(=O)c1ccc(-c2c3nc(c(-c4c(F)c(F)c(F)c(F)c4F)c4ccc([nH]4)c(-c4c(F)c(F)c(F)c(F)c4F)c4nc(c(-c5c(F)c(F)c(F)c(F)c5F)c5ccc2[nH]5)C=C4)C=C3)cc1
REMARK SMILES IDX 21 1 22 2 20 3 19 4 18 5 17 6 16 7 15 8 14 9 13 10 12 11
REMARK SMILES IDX 11 12 10 13 9 14 8 15 7 16 6 17 5 18 4 19 3 20 2 21 1 22
REMARK SMILES IDX 23 23 24 24 25 25 26 26 27 27 28 28 29 29 30 30 31 31 32 32
REMARK SMILES IDX 33 33 34 34 35 35 36 36 97 37 37 38 96 39 38 40 39 41 40 42
REMARK SMILES IDX 90 43 41 44 95 45 89 46 91 47 42 48 94 49 88 50 87 51 43 53
REMARK SMILES IDX 75 54 55 55 74 56 56 57 59 58 73 59 92 60 57 61 58 62 72 64
REMARK SMILES IDX 93 65 60 66 44 67 45 68 53 69 46 70 47 71 51 72 54 73 48 74
REMARK SMILES IDX 49 75 52 76 50 77 76 78 77 79 85 80 78 81 79 82 83 83 86 84
REMARK SMILES IDX 80 85 81 86 84 87 82 88 61 89 62 90 70 91 63 92 64 93 68 94
REMARK SMILES IDX 71 95 65 96 66 97 69 98 67 99
REMARK H PARENT 91 52 59 63
REMARK Flexibility Score: inf
ROOT
ATOM      1  C   UNL     1     -10.717  11.297   5.960  1.00  0.00     0.332 C 
ATOM      2  O   UNL     1     -10.994  10.316   5.276  1.00  0.00    -0.250 OA
ENDROOT
BRANCH   1   3
ATOM      3  C   UNL     1     -11.053  11.361   7.456  1.00  0.00     0.283 C 
BRANCH   3   4
ATOM      4  O   UNL     1     -10.375  12.172   8.396  1.00  0.00    -0.366 OA
BRANCH   4   5
ATOM      5  C   UNL     1      -8.997  11.876   8.610  1.00  0.00     0.188 C 
BRANCH   5   6
ATOM      6  C   UNL     1      -8.768  10.413   8.860  1.00  0.00    -0.003 C 
ATOM      7  C   UNL     1      -7.974   9.652   8.091  1.00  0.00    -0.029 C 
BRANCH   7   8
ATOM      8  C   UNL     1      -7.827   8.165   8.206  1.00  0.00     0.031 C 
BRANCH   8   9
ATOM      9  C   UNL     1      -8.142   7.378   6.904  1.00  0.00     0.031 C 
BRANCH   9  10
ATOM     10  C   UNL     1      -7.272   7.679   5.699  1.00  0.00    -0.031 C 
ATOM     11  C   UNL     1      -6.369   6.882   5.094  1.00  0.00    -0.027 C 
BRANCH  11  12
ATOM     12  C   UNL     1      -5.497   7.260   3.921  1.00  0.00     0.054 C 
BRANCH  12  13
ATOM     13  C   UNL     1      -4.018   7.156   4.229  1.00  0.00    -0.027 C 
ATOM     14  C   UNL     1      -3.152   6.342   3.592  1.00  0.00    -0.027 C 
BRANCH  14  15
ATOM     15  C   UNL     1      -1.654   6.346   3.781  1.00  0.00     0.054 C 
BRANCH  15  16
ATOM     16  C   UNL     1      -1.104   5.000   4.171  1.00  0.00    -0.027 C 
ATOM     17  C   UNL     1      -0.221   4.296   3.437  1.00  0.00    -0.027 C 
BRANCH  17  18
ATOM     18  C   UNL     1       0.393   2.987   3.859  1.00  0.00     0.054 C 
BRANCH  18  19
ATOM     19  C   UNL     1      -0.003   1.865   2.941  1.00  0.00    -0.027 C 
ATOM     20  C   UNL     1       0.862   1.073   2.284  1.00  0.00    -0.031 C 
BRANCH  20  21
ATOM     21  C   UNL     1       0.446  -0.070   1.400  1.00  0.00     0.023 C 
ATOM     22  C   UNL     1       0.949   0.107  -0.024  1.00  0.00     0.008 C 
ENDBRANCH  20  21
ENDBRANCH  18  19
ENDBRANCH  17  18
ENDBRANCH  15  16
ENDBRANCH  14  15
ENDBRANCH  12  13
ENDBRANCH  11  12
ENDBRANCH   9  10
ENDBRANCH   8   9
ENDBRANCH   7   8
ENDBRANCH   5   6
ENDBRANCH   4   5
ENDBRANCH   3   4
ENDBRANCH   1   3
BRANCH   1  23
ATOM     23  O   UNL     1     -10.185  12.456   5.476  1.00  0.00    -0.462 OA
BRANCH  23  24
ATOM     24  C   UNL     1     -10.154  12.570   4.037  1.00  0.00     0.261 C 
BRANCH  24  25
ATOM     25  C   UNL     1      -8.757  12.701   3.417  1.00  0.00     0.202 C 
BRANCH  25  26
ATOM     26  O   UNL     1      -7.916  11.558   3.529  1.00  0.00    -0.376 OA
BRANCH  26  27
ATOM     27  C   UNL     1      -7.383  11.317   4.819  1.00  0.00     0.188 C 
BRANCH  27  28
ATOM     28  C   UNL     1      -6.360  12.319   5.327  1.00  0.00     0.188 C 
BRANCH  28  29
ATOM     29  O   UNL     1      -6.899  13.610   5.539  1.00  0.00    -0.376 OA
BRANCH  29  30
ATOM     30  C   UNL     1      -5.994  14.617   6.003  1.00  0.00     0.202 C 
BRANCH  30  31
ATOM     31  C   UNL     1      -4.479  14.412   5.791  1.00  0.00     0.261 C 
BRANCH  31  32
ATOM     32  O   UNL     1      -3.944  13.189   6.351  1.00  0.00    -0.460 OA
BRANCH  32  33
ATOM     33  C   UNL     1      -4.080  13.005   7.686  1.00  0.00     0.338 C 
ATOM     34  O   UNL     1      -4.459  13.845   8.487  1.00  0.00    -0.246 OA
BRANCH  33  35
ATOM     35  C   UNL     1      -3.861  11.568   8.032  1.00  0.00     0.060 A 
ATOM     36  C   UNL     1      -4.491  11.066   9.178  1.00  0.00     0.016 A 
ATOM     37  C   UNL     1      -3.079  10.701   7.254  1.00  0.00     0.016 A 
ATOM     38  C   UNL     1      -4.312   9.729   9.562  1.00  0.00     0.010 A 
ATOM     39  C   UNL     1      -2.891   9.363   7.648  1.00  0.00     0.010 A 
ATOM     40  C   UNL     1      -3.489   8.868   8.819  1.00  0.00    -0.014 A 
BRANCH  40  41
ATOM     41  C   UNL     1      -3.183   7.507   9.355  1.00  0.00     0.031 A 
ATOM     42  C   UNL     1      -2.096   7.339  10.362  1.00  0.00     0.074 A 
ATOM     43  C   UNL     1      -3.886   6.412   9.015  1.00  0.00     0.049 A 
ATOM     44  N   UNL     1      -1.771   6.274  11.048  1.00  0.00    -0.248 NA
ATOM     45  C   UNL     1      -1.251   8.512  10.608  1.00  0.00     0.031 C 
ATOM     46  C   UNL     1      -4.920   6.410   8.010  1.00  0.00     0.029 A 
ATOM     47  N   UNL     1      -3.876   5.115   9.478  1.00  0.00    -0.354 N 
ATOM     48  C   UNL     1      -0.683   6.644  11.813  1.00  0.00     0.074 A 
ATOM     49  C   UNL     1      -0.390   8.028  11.490  1.00  0.00     0.031 C 
ATOM     50  C   UNL     1      -5.524   5.213   7.993  1.00  0.00     0.029 A 
ATOM     51  C   UNL     1      -4.859   4.325   8.926  1.00  0.00     0.049 A 
ATOM     52  H   UNL     1      -3.227   4.784  10.141  1.00  0.00     0.167 HD
ATOM     53  C   UNL     1       0.015   5.894  12.697  1.00  0.00     0.037 A 
ATOM     54  C   UNL     1      -5.204   3.037   9.120  1.00  0.00     0.037 A 
ATOM     55  C   UNL     1      -0.231   4.504  12.984  1.00  0.00     0.049 A 
ATOM     56  C   UNL     1      -4.411   2.225  10.098  1.00  0.00     0.074 A 
ATOM     57  C   UNL     1       0.444   3.676  13.864  1.00  0.00     0.029 A 
ATOM     58  N   UNL     1      -1.211   3.726  12.382  1.00  0.00    -0.354 N 
ATOM     59  N   UNL     1      -3.418   2.605  10.860  1.00  0.00    -0.248 NA
ATOM     60  C   UNL     1      -4.771   0.807  10.234  1.00  0.00     0.031 C 
ATOM     61  C   UNL     1      -0.094   2.388  13.761  1.00  0.00     0.029 A 
ATOM     62  C   UNL     1      -1.142   2.422  12.857  1.00  0.00     0.049 A 
ATOM     63  H   UNL     1      -1.860   4.051  11.717  1.00  0.00     0.167 HD
ATOM     64  C   UNL     1      -3.034   1.480  11.569  1.00  0.00     0.074 A 
ATOM     65  C   UNL     1      -3.927   0.409  11.174  1.00  0.00     0.031 C 
ATOM     66  C   UNL     1      -2.019   1.351  12.457  1.00  0.00     0.037 A 
BRANCH  53  67
ATOM     67  C   UNL     1       1.159   6.579  13.375  1.00  0.00     0.064 A 
ATOM     68  C   UNL     1       0.948   7.564  14.352  1.00  0.00     0.173 A 
ATOM     69  C   UNL     1       2.478   6.277  13.011  1.00  0.00     0.173 A 
ATOM     70  F   UNL     1      -0.300   7.905  14.708  1.00  0.00    -0.203 F 
ATOM     71  C   UNL     1       2.020   8.247  14.916  1.00  0.00     0.198 A 
ATOM     72  C   UNL     1       3.548   6.944  13.598  1.00  0.00     0.198 A 
ATOM     73  F   UNL     1       2.726   5.350  12.075  1.00  0.00    -0.203 F 
ATOM     74  F   UNL     1       1.795   9.230  15.799  1.00  0.00    -0.200 F 
ATOM     75  C   UNL     1       3.318   7.935  14.541  1.00  0.00     0.200 A 
ATOM     76  F   UNL     1       4.802   6.641  13.237  1.00  0.00    -0.200 F 
ATOM     77  F   UNL     1       4.349   8.602  15.077  1.00  0.00    -0.200 F 
ENDBRANCH  53  67
BRANCH  54  78
ATOM     78  C   UNL     1      -6.340   2.422   8.371  1.00  0.00     0.064 A 
ATOM     79  C   UNL     1      -7.501   1.998   9.035  1.00  0.00     0.173 A 
ATOM     80  C   UNL     1      -6.276   2.215   6.985  1.00  0.00     0.173 A 
ATOM     81  F   UNL     1      -7.605   2.147  10.364  1.00  0.00    -0.203 F 
ATOM     82  C   UNL     1      -8.540   1.371   8.347  1.00  0.00     0.198 A 
ATOM     83  C   UNL     1      -7.330   1.618   6.293  1.00  0.00     0.198 A 
ATOM     84  F   UNL     1      -5.191   2.599   6.298  1.00  0.00    -0.203 F 
ATOM     85  F   UNL     1      -9.612   0.926   9.017  1.00  0.00    -0.200 F 
ATOM     86  C   UNL     1      -8.456   1.187   6.975  1.00  0.00     0.200 A 
ATOM     87  F   UNL     1      -7.248   1.454   4.965  1.00  0.00    -0.200 F 
ATOM     88  F   UNL     1      -9.454   0.584   6.315  1.00  0.00    -0.200 F 
ENDBRANCH  54  78
BRANCH  66  89
ATOM     89  C   UNL     1      -1.836  -0.002  13.078  1.00  0.00     0.064 A 
ATOM     90  C   UNL     1      -1.365  -1.097  12.337  1.00  0.00     0.173 A 
ATOM     91  C   UNL     1      -2.147  -0.209  14.430  1.00  0.00     0.173 A 
ATOM     92  F   UNL     1      -1.078  -0.958  11.034  1.00  0.00    -0.203 F 
ATOM     93  C   UNL     1      -1.244  -2.356  12.919  1.00  0.00     0.198 A 
ATOM     94  C   UNL     1      -1.995  -1.462  15.017  1.00  0.00     0.198 A 
ATOM     95  F   UNL     1      -2.603   0.804  15.182  1.00  0.00    -0.203 F 
ATOM     96  F   UNL     1      -0.852  -3.401  12.177  1.00  0.00    -0.200 F 
ATOM     97  C   UNL     1      -1.554  -2.536  14.259  1.00  0.00     0.200 A 
ATOM     98  F   UNL     1      -2.287  -1.632  16.313  1.00  0.00    -0.200 F 
ATOM     99  F   UNL     1      -1.440  -3.749  14.817  1.00  0.00    -0.200 F 
ENDBRANCH  66  89
ENDBRANCH  40  41
ENDBRANCH  33  35
ENDBRANCH  32  33
ENDBRANCH  31  32
ENDBRANCH  30  31
ENDBRANCH  29  30
ENDBRANCH  28  29
ENDBRANCH  27  28
ENDBRANCH  26  27
ENDBRANCH  25  26
ENDBRANCH  24  25
ENDBRANCH  23  24
ENDBRANCH   1  23
TORSDOF 30
