REMARK SMILES O=C(OCCOCCOCCOC(=O)c1cccc(Nc2ccnc3ccc(Cl)cc23)c1)c1ccc(-c2c3nc(c(-c4c(F)c(F)c(F)c(F)c4F)c4ccc([nH]4)c(-c4c(F)c(F)c(F)c(F)c4F)c4nc(c(-c5c(F)c(F)c(F)c(F)c5F)c5ccc2[nH]5)C=C4)C=C3)cc1
REMARK SMILES IDX 7 1 6 2 5 3 4 4 3 5 2 6 1 7 33 8 34 9 95 10 35 11 94 12
REMARK SMILES IDX 36 13 37 14 38 15 88 16 39 17 93 18 87 19 89 20 40 21 92 22
REMARK SMILES IDX 86 23 85 24 41 26 73 27 53 28 72 29 54 30 57 31 71 32 90 33
REMARK SMILES IDX 55 34 56 35 70 37 91 38 58 39 42 40 43 41 51 42 44 43 45 44
REMARK SMILES IDX 49 45 52 46 46 47 47 48 50 49 48 50 74 51 75 52 83 53 76 54
REMARK SMILES IDX 77 55 81 56 84 57 78 58 79 59 82 60 80 61 59 62 60 63 68 64
REMARK SMILES IDX 61 65 62 66 66 67 69 68 63 69 64 70 67 71 65 72 8 73 9 74
REMARK SMILES IDX 10 75 11 76 12 77 13 78 14 79 15 80 16 81 32 82 17 83 19 84
REMARK SMILES IDX 18 85 20 86 21 88 22 89 31 90 23 91 25 92 30 93 24 94 26 95
REMARK SMILES IDX 28 96 27 97 29 98
REMARK H PARENT 89 25 57 36 20 87
REMARK Flexibility Score: inf
ROOT
ATOM      1  C   UNL     1       2.490   0.506  -2.327  1.00  0.00     0.188 C 
ENDROOT
BRANCH   1   2
ATOM      2  O   UNL     1       3.760   0.697  -1.690  1.00  0.00    -0.376 OA
BRANCH   2   3
ATOM      3  C   UNL     1       4.602  -0.461  -1.767  1.00  0.00     0.202 C 
BRANCH   3   4
ATOM      4  C   UNL     1       4.383  -1.468  -0.627  1.00  0.00     0.261 C 
BRANCH   4   5
ATOM      5  O   UNL     1       3.011  -1.513  -0.200  1.00  0.00    -0.460 OA
BRANCH   5   6
ATOM      6  C   UNL     1       2.406  -0.791   0.775  1.00  0.00     0.338 C 
ATOM      7  O   UNL     1       1.200  -0.951   0.960  1.00  0.00    -0.246 OA
BRANCH   6   8
ATOM      8  C   UNL     1       3.124   0.151   1.693  1.00  0.00     0.060 A 
ATOM      9  C   UNL     1       4.321   0.806   1.408  1.00  0.00     0.016 A 
ATOM     10  C   UNL     1       2.513   0.418   2.933  1.00  0.00     0.016 A 
ATOM     11  C   UNL     1       4.973   1.569   2.373  1.00  0.00     0.010 A 
ATOM     12  C   UNL     1       3.127   1.242   3.884  1.00  0.00     0.010 A 
ATOM     13  C   UNL     1       4.395   1.770   3.626  1.00  0.00    -0.014 A 
BRANCH  13  14
ATOM     14  C   UNL     1       5.214   2.410   4.679  1.00  0.00     0.031 A 
ATOM     15  C   UNL     1       5.817   1.541   5.746  1.00  0.00     0.074 A 
ATOM     16  C   UNL     1       5.536   3.712   4.580  1.00  0.00     0.049 A 
ATOM     17  N   UNL     1       6.647   1.858   6.706  1.00  0.00    -0.248 NA
ATOM     18  C   UNL     1       5.455   0.114   5.715  1.00  0.00     0.031 C 
ATOM     19  C   UNL     1       5.077   4.613   3.522  1.00  0.00     0.029 A 
ATOM     20  N   UNL     1       6.364   4.490   5.346  1.00  0.00    -0.354 N 
ATOM     21  C   UNL     1       6.893   0.678   7.396  1.00  0.00     0.074 A 
ATOM     22  C   UNL     1       6.115  -0.360   6.760  1.00  0.00     0.031 C 
ATOM     23  C   UNL     1       5.671   5.808   3.678  1.00  0.00     0.029 A 
ATOM     24  C   UNL     1       6.508   5.771   4.873  1.00  0.00     0.049 A 
ATOM     25  H   UNL     1       6.813   4.161   6.159  1.00  0.00     0.167 HD
ATOM     26  C   UNL     1       7.702   0.479   8.463  1.00  0.00     0.037 A 
ATOM     27  C   UNL     1       7.236   6.795   5.358  1.00  0.00     0.037 A 
ATOM     28  C   UNL     1       8.473   1.520   9.085  1.00  0.00     0.049 A 
ATOM     29  C   UNL     1       8.062   6.565   6.595  1.00  0.00     0.074 A 
ATOM     30  C   UNL     1       9.286   1.449  10.201  1.00  0.00     0.029 A 
ATOM     31  N   UNL     1       8.520   2.832   8.633  1.00  0.00    -0.354 N 
ATOM     32  N   UNL     1       8.263   5.453   7.261  1.00  0.00    -0.248 NA
ATOM     33  C   UNL     1       8.755   7.733   7.152  1.00  0.00     0.031 C 
ATOM     34  C   UNL     1       9.797   2.729  10.446  1.00  0.00     0.029 A 
ATOM     35  C   UNL     1       9.335   3.586   9.458  1.00  0.00     0.049 A 
ATOM     36  H   UNL     1       8.045   3.175   7.842  1.00  0.00     0.167 HD
ATOM     37  C   UNL     1       9.120   5.780   8.301  1.00  0.00     0.074 A 
ATOM     38  C   UNL     1       9.415   7.193   8.167  1.00  0.00     0.031 C 
ATOM     39  C   UNL     1       9.617   4.989   9.284  1.00  0.00     0.037 A 
BRANCH  26  40
ATOM     40  C   UNL     1       7.734  -0.903   9.044  1.00  0.00     0.064 A 
ATOM     41  C   UNL     1       8.385  -1.964   8.398  1.00  0.00     0.173 A 
ATOM     42  C   UNL     1       7.070  -1.175  10.250  1.00  0.00     0.173 A 
ATOM     43  F   UNL     1       9.010  -1.761   7.229  1.00  0.00    -0.203 F 
ATOM     44  C   UNL     1       8.344  -3.255   8.922  1.00  0.00     0.198 A 
ATOM     45  C   UNL     1       7.051  -2.462  10.783  1.00  0.00     0.198 A 
ATOM     46  F   UNL     1       6.427  -0.196  10.903  1.00  0.00    -0.203 F 
ATOM     47  F   UNL     1       8.922  -4.265   8.258  1.00  0.00    -0.200 F 
ATOM     48  C   UNL     1       7.679  -3.502  10.114  1.00  0.00     0.200 A 
ATOM     49  F   UNL     1       6.409  -2.698  11.935  1.00  0.00    -0.200 F 
ATOM     50  F   UNL     1       7.629  -4.746  10.611  1.00  0.00    -0.200 F 
ENDBRANCH  26  40
BRANCH  27  51
ATOM     51  C   UNL     1       7.204   8.123   4.689  1.00  0.00     0.064 A 
ATOM     52  C   UNL     1       8.339   8.655   4.063  1.00  0.00     0.173 A 
ATOM     53  C   UNL     1       6.034   8.896   4.674  1.00  0.00     0.173 A 
ATOM     54  F   UNL     1       9.492   7.970   4.073  1.00  0.00    -0.203 F 
ATOM     55  C   UNL     1       8.305   9.910   3.456  1.00  0.00     0.198 A 
ATOM     56  C   UNL     1       5.990  10.136   4.039  1.00  0.00     0.198 A 
ATOM     57  F   UNL     1       4.928   8.440   5.275  1.00  0.00    -0.203 F 
ATOM     58  F   UNL     1       9.416  10.414   2.902  1.00  0.00    -0.200 F 
ATOM     59  C   UNL     1       7.129  10.646   3.437  1.00  0.00     0.200 A 
ATOM     60  F   UNL     1       4.847  10.834   4.014  1.00  0.00    -0.200 F 
ATOM     61  F   UNL     1       7.096  11.848   2.847  1.00  0.00    -0.200 F 
ENDBRANCH  27  51
BRANCH  39  62
ATOM     62  C   UNL     1      10.550   5.630  10.265  1.00  0.00     0.064 A 
ATOM     63  C   UNL     1      10.082   6.496  11.263  1.00  0.00     0.173 A 
ATOM     64  C   UNL     1      11.922   5.339  10.230  1.00  0.00     0.173 A 
ATOM     65  F   UNL     1       8.780   6.814  11.324  1.00  0.00    -0.203 F 
ATOM     66  C   UNL     1      10.960   7.067  12.179  1.00  0.00     0.198 A 
ATOM     67  C   UNL     1      12.792   5.891  11.164  1.00  0.00     0.198 A 
ATOM     68  F   UNL     1      12.414   4.510   9.297  1.00  0.00    -0.203 F 
ATOM     69  F   UNL     1      10.499   7.926  13.099  1.00  0.00    -0.200 F 
ATOM     70  C   UNL     1      12.312   6.759  12.134  1.00  0.00     0.200 A 
ATOM     71  F   UNL     1      14.096   5.585  11.126  1.00  0.00    -0.200 F 
ATOM     72  F   UNL     1      13.154   7.306  13.021  1.00  0.00    -0.200 F 
ENDBRANCH  39  62
ENDBRANCH  13  14
ENDBRANCH   6   8
ENDBRANCH   5   6
ENDBRANCH   4   5
ENDBRANCH   3   4
ENDBRANCH   2   3
ENDBRANCH   1   2
BRANCH   1  73
ATOM     73  C   UNL     1       2.104   1.682  -3.232  1.00  0.00     0.188 C 
BRANCH  73  74
ATOM     74  O   UNL     1       2.976   1.903  -4.341  1.00  0.00    -0.376 OA
BRANCH  74  75
ATOM     75  C   UNL     1       4.253   2.481  -4.056  1.00  0.00     0.202 C 
BRANCH  75  76
ATOM     76  C   UNL     1       4.231   3.954  -3.628  1.00  0.00     0.261 C 
BRANCH  76  77
ATOM     77  O   UNL     1       3.648   4.103  -2.322  1.00  0.00    -0.460 OA
BRANCH  77  78
ATOM     78  C   UNL     1       3.081   5.305  -2.062  1.00  0.00     0.338 C 
ATOM     79  O   UNL     1       3.165   6.306  -2.763  1.00  0.00    -0.246 OA
BRANCH  78  80
ATOM     80  C   UNL     1       2.311   5.258  -0.788  1.00  0.00     0.062 A 
ATOM     81  C   UNL     1       2.060   4.043  -0.131  1.00  0.00     0.016 A 
ATOM     82  C   UNL     1       1.830   6.461  -0.238  1.00  0.00     0.041 A 
ATOM     83  C   UNL     1       1.312   4.019   1.039  1.00  0.00     0.003 A 
ATOM     84  C   UNL     1       1.126   6.451   0.971  1.00  0.00     0.039 A 
ATOM     85  C   UNL     1       0.856   5.215   1.583  1.00  0.00     0.026 A 
BRANCH  84  86
ATOM     86  N   UNL     1       0.832   7.648   1.657  1.00  0.00    -0.355 N 
ATOM     87  H   UNL     1       0.486   8.399   1.123  1.00  0.00     0.167 HD
BRANCH  86  88
ATOM     88  C   UNL     1       0.992   7.860   3.050  1.00  0.00     0.050 A 
ATOM     89  C   UNL     1       2.063   7.237   3.703  1.00  0.00     0.047 A 
ATOM     90  C   UNL     1       0.057   8.584   3.827  1.00  0.00     0.025 A 
ATOM     91  C   UNL     1       2.170   7.329   5.071  1.00  0.00     0.114 A 
ATOM     92  C   UNL     1       0.269   8.613   5.229  1.00  0.00     0.072 A 
ATOM     93  C   UNL     1      -1.085   9.235   3.302  1.00  0.00     0.033 A 
ATOM     94  N   UNL     1       1.296   8.004   5.835  1.00  0.00    -0.256 NA
ATOM     95  C   UNL     1      -0.635   9.279   6.040  1.00  0.00     0.030 A 
ATOM     96  C   UNL     1      -1.977   9.896   4.146  1.00  0.00     0.041 A 
ATOM     97  C   UNL     1      -1.756   9.921   5.516  1.00  0.00     0.023 A 
ATOM     98  Cl  UNL     1      -3.364  10.675   3.494  1.00  0.00    -0.084 Cl
ENDBRANCH  86  88
ENDBRANCH  84  86
ENDBRANCH  78  80
ENDBRANCH  77  78
ENDBRANCH  76  77
ENDBRANCH  75  76
ENDBRANCH  74  75
ENDBRANCH  73  74
ENDBRANCH   1  73
TORSDOF 19
