REMARK SMILES CCCCCCNC(=O)Oc1cccc(-c2ccc([C@@H](C)C(=O)OCCOCCOCCOC(=O)c3ccc(-c4c5nc(c(-c6c(F)c(F)c(F)c(F)c6F)c6ccc([nH]6)c(-c6c(F)c(F)c(F)c(F)c6F)c6nc(c(-c7c(F)c(F)c(F)c(F)c7F)c7ccc4[nH]7)C=C6)C=C5)cc3)cc2C(F)(F)F)c1
REMARK SMILES IDX 25 1 24 2 22 3 23 4 20 5 21 6 19 7 16 8 17 9 100 10 18 11
REMARK SMILES IDX 99 12 15 13 11 14 12 15 105 16 13 17 14 18 10 19 8 20 7 21
REMARK SMILES IDX 9 23 6 24 5 25 4 26 3 27 2 28 1 29 101 30 102 31 103 32
REMARK SMILES IDX 104 33 26 34 27 35 28 36 29 37 30 38 31 39 32 40 33 41 34 42
REMARK SMILES IDX 35 43 36 44 37 45 98 46 38 47 97 48 39 49 40 50 41 51 91 52
REMARK SMILES IDX 42 53 96 54 90 55 92 56 43 57 95 58 89 59 88 60 44 62 76 63
REMARK SMILES IDX 56 64 75 65 57 66 60 67 74 68 93 69 58 70 59 71 73 73 94 74
REMARK SMILES IDX 61 75 45 76 46 77 54 78 47 79 48 80 52 81 55 82 49 83 50 84
REMARK SMILES IDX 53 85 51 86 77 87 78 88 86 89 79 90 80 91 84 92 87 93 81 94
REMARK SMILES IDX 82 95 85 96 83 97 62 98 63 99 71 100 64 101 65 102 69 103
REMARK SMILES IDX 72 104 66 105 67 106 70 107 68 108
REMARK H PARENT 7 22 92 61 60 72
REMARK Flexibility Score: inf
ROOT
ATOM      1  C   UNL     1      -2.799 -13.041   9.684  1.00  0.00     0.261 C 
ENDROOT
BRANCH   1   2
ATOM      2  O   UNL     1      -3.675 -12.027   9.142  1.00  0.00    -0.463 OA
BRANCH   2   3
ATOM      3  C   UNL     1      -4.397 -11.315  10.043  1.00  0.00     0.313 C 
ATOM      4  O   UNL     1      -4.363 -11.525  11.254  1.00  0.00    -0.252 OA
BRANCH   3   5
ATOM      5  C   UNL     1      -5.286 -10.209   9.476  1.00  0.00     0.126 C 
ATOM      6  C   UNL     1      -6.744 -10.550   9.786  1.00  0.00     0.025 C 
BRANCH   5   7
ATOM      7  C   UNL     1      -5.150  -9.725   8.033  1.00  0.00    -0.033 A 
ATOM      8  C   UNL     1      -5.015  -8.655   5.365  1.00  0.00    -0.006 A 
ATOM      9  C   UNL     1      -5.172 -10.036   5.618  1.00  0.00     0.009 A 
ATOM     10  C   UNL     1      -4.940  -7.794   6.479  1.00  0.00     0.064 A 
ATOM     11  C   UNL     1      -5.260 -10.560   6.921  1.00  0.00     0.005 A 
ATOM     12  C   UNL     1      -4.987  -8.346   7.787  1.00  0.00     0.018 A 
BRANCH   8  13
ATOM     13  C   UNL     1      -5.035  -8.167   3.966  1.00  0.00    -0.014 A 
ATOM     14  C   UNL     1      -4.115  -6.878   2.122  1.00  0.00     0.133 A 
ATOM     15  C   UNL     1      -5.264  -7.088   1.361  1.00  0.00     0.047 A 
ATOM     16  C   UNL     1      -3.980  -7.421   3.406  1.00  0.00     0.056 A 
ATOM     17  C   UNL     1      -6.295  -7.860   1.885  1.00  0.00     0.004 A 
ATOM     18  C   UNL     1      -6.183  -8.385   3.176  1.00  0.00     0.009 A 
BRANCH  14  19
ATOM     19  O   UNL     1      -3.199  -5.941   1.604  1.00  0.00    -0.410 OA
BRANCH  19  20
ATOM     20  C   UNL     1      -1.849  -6.251   1.541  1.00  0.00     0.412 C 
ATOM     21  N   UNL     1      -1.082  -5.211   1.082  1.00  0.00    -0.321 N 
ATOM     22  H   UNL     1      -0.110  -5.363   1.057  1.00  0.00     0.167 HD
ATOM     23  O   UNL     1      -1.349  -7.329   1.830  1.00  0.00    -0.224 OA
BRANCH  21  24
ATOM     24  C   UNL     1      -1.545  -3.912   0.630  1.00  0.00     0.119 C 
BRANCH  24  25
ATOM     25  C   UNL     1      -0.945  -2.759   1.438  1.00  0.00     0.021 C 
BRANCH  25  26
ATOM     26  C   UNL     1       0.582  -2.631   1.359  1.00  0.00     0.002 C 
BRANCH  26  27
ATOM     27  C   UNL     1       1.160  -2.416  -0.044  1.00  0.00    -0.000 C 
BRANCH  27  28
ATOM     28  C   UNL     1       0.686  -1.152  -0.768  1.00  0.00    -0.003 C 
ATOM     29  C   UNL     1       1.092   0.135  -0.066  1.00  0.00     0.004 C 
ENDBRANCH  27  28
ENDBRANCH  26  27
ENDBRANCH  25  26
ENDBRANCH  24  25
ENDBRANCH  21  24
ENDBRANCH  19  20
ENDBRANCH  14  19
ENDBRANCH   8  13
BRANCH  10  30
ATOM     30  C   UNL     1      -4.812  -6.287   6.362  1.00  0.00     0.417 C 
ATOM     31  F   UNL     1      -5.380  -5.638   7.423  1.00  0.00    -0.166 F 
ATOM     32  F   UNL     1      -3.510  -5.885   6.359  1.00  0.00    -0.166 F 
ATOM     33  F   UNL     1      -5.386  -5.728   5.264  1.00  0.00    -0.166 F 
ENDBRANCH  10  30
ENDBRANCH   5   7
ENDBRANCH   3   5
ENDBRANCH   2   3
ENDBRANCH   1   2
BRANCH   1  34
ATOM     34  C   UNL     1      -1.312 -12.841   9.371  1.00  0.00     0.202 C 
BRANCH  34  35
ATOM     35  O   UNL     1      -0.720 -11.622   9.798  1.00  0.00    -0.376 OA
BRANCH  35  36
ATOM     36  C   UNL     1      -1.167 -10.391   9.241  1.00  0.00     0.188 C 
BRANCH  36  37
ATOM     37  C   UNL     1      -1.704 -10.345   7.803  1.00  0.00     0.188 C 
BRANCH  37  38
ATOM     38  O   UNL     1      -1.234 -11.389   6.972  1.00  0.00    -0.376 OA
BRANCH  38  39
ATOM     39  C   UNL     1      -0.705 -10.975   5.724  1.00  0.00     0.202 C 
BRANCH  39  40
ATOM     40  C   UNL     1       0.751 -10.523   5.877  1.00  0.00     0.261 C 
BRANCH  40  41
ATOM     41  O   UNL     1       0.934  -9.421   6.790  1.00  0.00    -0.460 OA
BRANCH  41  42
ATOM     42  C   UNL     1       0.410  -8.239   6.394  1.00  0.00     0.338 C 
ATOM     43  O   UNL     1      -0.147  -7.999   5.340  1.00  0.00    -0.246 OA
BRANCH  42  44
ATOM     44  C   UNL     1       0.419  -7.303   7.539  1.00  0.00     0.060 A 
ATOM     45  C   UNL     1      -0.788  -6.691   7.896  1.00  0.00     0.016 A 
ATOM     46  C   UNL     1       1.596  -6.988   8.217  1.00  0.00     0.016 A 
ATOM     47  C   UNL     1      -0.814  -5.710   8.886  1.00  0.00     0.010 A 
ATOM     48  C   UNL     1       1.574  -5.994   9.203  1.00  0.00     0.010 A 
ATOM     49  C   UNL     1       0.378  -5.317   9.508  1.00  0.00    -0.014 A 
BRANCH  49  50
ATOM     50  C   UNL     1       0.403  -4.058  10.295  1.00  0.00     0.031 A 
ATOM     51  C   UNL     1       0.886  -2.803   9.616  1.00  0.00     0.074 A 
ATOM     52  C   UNL     1      -0.035  -4.008  11.566  1.00  0.00     0.049 A 
ATOM     53  N   UNL     1       1.021  -1.593  10.097  1.00  0.00    -0.248 NA
ATOM     54  C   UNL     1       1.272  -2.932   8.200  1.00  0.00     0.031 C 
ATOM     55  C   UNL     1      -0.565  -5.138  12.325  1.00  0.00     0.029 A 
ATOM     56  N   UNL     1      -0.097  -2.953  12.444  1.00  0.00    -0.354 N 
ATOM     57  C   UNL     1       1.516  -0.825   9.050  1.00  0.00     0.074 A 
ATOM     58  C   UNL     1       1.684  -1.706   7.916  1.00  0.00     0.031 C 
ATOM     59  C   UNL     1      -0.885  -4.718  13.563  1.00  0.00     0.029 A 
ATOM     60  C   UNL     1      -0.559  -3.298  13.691  1.00  0.00     0.049 A 
ATOM     61  H   UNL     1       0.165  -2.035  12.202  1.00  0.00     0.167 HD
ATOM     62  C   UNL     1       1.796   0.499   9.032  1.00  0.00     0.037 A 
ATOM     63  C   UNL     1      -0.681  -2.555  14.809  1.00  0.00     0.037 A 
ATOM     64  C   UNL     1       1.609   1.385  10.150  1.00  0.00     0.049 A 
ATOM     65  C   UNL     1      -0.309  -1.092  14.774  1.00  0.00     0.074 A 
ATOM     66  C   UNL     1       1.830   2.750  10.213  1.00  0.00     0.029 A 
ATOM     67  N   UNL     1       1.161   0.993  11.401  1.00  0.00    -0.354 N 
ATOM     68  N   UNL     1       0.120  -0.366  13.770  1.00  0.00    -0.248 NA
ATOM     69  C   UNL     1      -0.445  -0.342  16.033  1.00  0.00     0.031 C 
ATOM     70  C   UNL     1       1.567   3.175  11.519  1.00  0.00     0.029 A 
ATOM     71  C   UNL     1       1.127   2.085  12.252  1.00  0.00     0.049 A 
ATOM     72  H   UNL     1       0.905   0.075  11.648  1.00  0.00     0.167 HD
ATOM     73  C   UNL     1       0.274   0.923  14.266  1.00  0.00     0.074 A 
ATOM     74  C   UNL     1      -0.127   0.887  15.655  1.00  0.00     0.031 C 
ATOM     75  C   UNL     1       0.712   2.038  13.630  1.00  0.00     0.037 A 
BRANCH  62  76
ATOM     76  C   UNL     1       2.357   1.078   7.767  1.00  0.00     0.064 A 
ATOM     77  C   UNL     1       1.564   1.270   6.627  1.00  0.00     0.173 A 
ATOM     78  C   UNL     1       3.694   1.502   7.719  1.00  0.00     0.173 A 
ATOM     79  F   UNL     1       0.285   0.866   6.618  1.00  0.00    -0.203 F 
ATOM     80  C   UNL     1       2.092   1.856   5.480  1.00  0.00     0.198 A 
ATOM     81  C   UNL     1       4.210   2.113   6.580  1.00  0.00     0.198 A 
ATOM     82  F   UNL     1       4.493   1.341   8.784  1.00  0.00    -0.203 F 
ATOM     83  F   UNL     1       1.326   2.000   4.389  1.00  0.00    -0.200 F 
ATOM     84  C   UNL     1       3.411   2.287   5.461  1.00  0.00     0.200 A 
ATOM     85  F   UNL     1       5.481   2.539   6.568  1.00  0.00    -0.200 F 
ATOM     86  F   UNL     1       3.912   2.866   4.362  1.00  0.00    -0.200 F 
ENDBRANCH  62  76
BRANCH  63  87
ATOM     87  C   UNL     1      -1.150  -3.175  16.079  1.00  0.00     0.064 A 
ATOM     88  C   UNL     1      -2.364  -2.793  16.670  1.00  0.00     0.173 A 
ATOM     89  C   UNL     1      -0.359  -4.109  16.763  1.00  0.00     0.173 A 
ATOM     90  F   UNL     1      -3.142  -1.880  16.071  1.00  0.00    -0.203 F 
ATOM     91  C   UNL     1      -2.749  -3.296  17.912  1.00  0.00     0.198 A 
ATOM     92  C   UNL     1      -0.761  -4.635  17.989  1.00  0.00     0.198 A 
ATOM     93  F   UNL     1       0.815  -4.503  16.247  1.00  0.00    -0.203 F 
ATOM     94  F   UNL     1      -3.879  -2.859  18.486  1.00  0.00    -0.200 F 
ATOM     95  C   UNL     1      -1.950  -4.218  18.569  1.00  0.00     0.200 A 
ATOM     96  F   UNL     1       0.011  -5.531  18.617  1.00  0.00    -0.200 F 
ATOM     97  F   UNL     1      -2.315  -4.691  19.768  1.00  0.00    -0.200 F 
ENDBRANCH  63  87
BRANCH  75  98
ATOM     98  C   UNL     1       0.746   3.318  14.416  1.00  0.00     0.064 A 
ATOM     99  C   UNL     1       1.681   3.530  15.440  1.00  0.00     0.173 A 
ATOM    100  C   UNL     1      -0.144   4.360  14.114  1.00  0.00     0.173 A 
ATOM    101  F   UNL     1       2.546   2.562  15.775  1.00  0.00    -0.203 F 
ATOM    102  C   UNL     1       1.703   4.727  16.152  1.00  0.00     0.198 A 
ATOM    103  C   UNL     1      -0.098   5.567  14.806  1.00  0.00     0.198 A 
ATOM    104  F   UNL     1      -1.052   4.214  13.137  1.00  0.00    -0.203 F 
ATOM    105  F   UNL     1       2.570   4.887  17.161  1.00  0.00    -0.200 F 
ATOM    106  C   UNL     1       0.819   5.746  15.831  1.00  0.00     0.200 A 
ATOM    107  F   UNL     1      -0.941   6.557  14.483  1.00  0.00    -0.200 F 
ATOM    108  F   UNL     1       0.846   6.899  16.514  1.00  0.00    -0.200 F 
ENDBRANCH  75  98
ENDBRANCH  49  50
ENDBRANCH  42  44
ENDBRANCH  41  42
ENDBRANCH  40  41
ENDBRANCH  39  40
ENDBRANCH  38  39
ENDBRANCH  37  38
ENDBRANCH  36  37
ENDBRANCH  35  36
ENDBRANCH  34  35
ENDBRANCH   1  34
TORSDOF 27
