REMARK SMILES CCC[NH2+][C@]1(C(=O)OCCOCCOCCOC(=O)c2ccc(-c3c4nc(c(-c5c(F)c(F)c(F)c(F)c5F)c5ccc([nH]5)c(-c5c(F)c(F)c(F)c(F)c5F)c5nc(c(-c6c(F)c(F)c(F)c(F)c6F)c6ccc3[nH]6)C=C5)C=C4)cc2)CC[C@@H](Sc2nnc(C)n2C)C1
REMARK SMILES IDX 12 1 11 2 10 3 9 4 8 5 6 6 7 7 5 8 83 9 94 10 84 11 85 12
REMARK SMILES IDX 4 13 3 16 2 17 1 18 86 19 87 20 88 21 92 22 89 23 90 24
REMARK SMILES IDX 93 25 91 26 13 27 14 28 15 29 16 30 17 31 18 32 19 33 20 34
REMARK SMILES IDX 21 35 82 36 22 37 81 38 23 39 24 40 25 41 75 42 26 43 80 44
REMARK SMILES IDX 74 45 76 46 27 47 79 48 73 49 72 50 28 52 60 53 40 54 59 55
REMARK SMILES IDX 41 56 44 57 58 58 77 59 42 60 43 61 57 63 78 64 45 65 29 66
REMARK SMILES IDX 30 67 38 68 31 69 32 70 36 71 39 72 33 73 34 74 37 75 35 76
REMARK SMILES IDX 61 77 62 78 70 79 63 80 64 81 68 82 71 83 65 84 66 85 69 86
REMARK SMILES IDX 67 87 46 88 47 89 55 90 48 91 49 92 53 93 56 94 50 95 51 96
REMARK SMILES IDX 54 97 52 98
REMARK H PARENT 4 14 4 15 76 51 44 62
REMARK Flexibility Score: inf
ROOT
ATOM      1  C   UNL     1      -0.917   0.354   1.906  1.00  0.00     0.188 C 
ENDROOT
BRANCH   1   2
ATOM      2  O   UNL     1      -0.520   0.312   0.537  1.00  0.00    -0.376 OA
BRANCH   2   3
ATOM      3  C   UNL     1      -0.834  -0.834  -0.240  1.00  0.00     0.202 C 
BRANCH   3   4
ATOM      4  C   UNL     1       0.176  -1.977  -0.124  1.00  0.00     0.261 C 
BRANCH   4   5
ATOM      5  O   UNL     1       0.109  -2.706   1.118  1.00  0.00    -0.459 OA
BRANCH   5   6
ATOM      6  C   UNL     1       1.030  -2.374   2.062  1.00  0.00     0.368 C 
ATOM      7  O   UNL     1       1.740  -1.373   2.006  1.00  0.00    -0.245 OA
BRANCH   6   8
ATOM      8  C   UNL     1       1.113  -3.406   3.213  1.00  0.00     0.195 C 
ATOM      9  C   UNL     1       0.863  -4.839   2.711  1.00  0.00     0.082 C 
ATOM     10  C   UNL     1       2.605  -3.459   3.655  1.00  0.00     0.096 C 
ATOM     11  C   UNL     1       1.686  -5.727   3.631  1.00  0.00     0.022 C 
ATOM     12  C   UNL     1       2.958  -4.928   3.905  1.00  0.00     0.062 C 
BRANCH   8  13
ATOM     13  N   UNL     1       0.380  -2.969   4.427  1.00  0.00    -0.332 N 
ATOM     14  H   UNL     1       0.963  -3.207   5.229  1.00  0.00     0.347 HD
ATOM     15  H   UNL     1       0.208  -1.978   4.262  1.00  0.00     0.347 HD
BRANCH  13  16
ATOM     16  C   UNL     1      -0.945  -3.510   4.691  1.00  0.00     0.261 C 
BRANCH  16  17
ATOM     17  C   UNL     1      -1.347  -3.325   6.163  1.00  0.00     0.058 C 
ATOM     18  C   UNL     1      -1.459  -1.885   6.623  1.00  0.00     0.010 C 
ENDBRANCH  16  17
ENDBRANCH  13  16
ENDBRANCH   8  13
BRANCH  12  19
ATOM     19  S   UNL     1       4.447  -5.417   2.954  1.00  0.00    -0.082 SA
BRANCH  19  20
ATOM     20  C   UNL     1       3.867  -5.498   1.331  1.00  0.00     0.191 A 
ATOM     21  N   UNL     1       3.205  -6.512   0.825  1.00  0.00    -0.123 NA
ATOM     22  N   UNL     1       4.018  -4.527   0.381  1.00  0.00    -0.309 N 
ATOM     23  N   UNL     1       2.894  -6.205  -0.475  1.00  0.00    -0.135 NA
ATOM     24  C   UNL     1       3.388  -5.015  -0.744  1.00  0.00     0.130 A 
ATOM     25  C   UNL     1       4.655  -3.240   0.480  1.00  0.00     0.154 C 
ATOM     26  C   UNL     1       3.298  -4.308  -2.042  1.00  0.00     0.090 C 
ENDBRANCH  19  20
ENDBRANCH  12  19
ENDBRANCH   6   8
ENDBRANCH   5   6
ENDBRANCH   4   5
ENDBRANCH   3   4
ENDBRANCH   2   3
ENDBRANCH   1   2
BRANCH   1  27
ATOM     27  C   UNL     1      -1.980  -0.630   2.406  1.00  0.00     0.188 C 
BRANCH  27  28
ATOM     28  O   UNL     1      -3.223  -0.453   1.731  1.00  0.00    -0.376 OA
BRANCH  28  29
ATOM     29  C   UNL     1      -4.316  -0.176   2.605  1.00  0.00     0.202 C 
BRANCH  29  30
ATOM     30  C   UNL     1      -4.438   1.328   2.857  1.00  0.00     0.261 C 
BRANCH  30  31
ATOM     31  O   UNL     1      -3.299   1.876   3.549  1.00  0.00    -0.460 OA
BRANCH  31  32
ATOM     32  C   UNL     1      -3.245   1.635   4.876  1.00  0.00     0.338 C 
ATOM     33  O   UNL     1      -4.038   1.005   5.549  1.00  0.00    -0.246 OA
BRANCH  32  34
ATOM     34  C   UNL     1      -1.984   2.192   5.392  1.00  0.00     0.060 A 
ATOM     35  C   UNL     1      -0.866   1.363   5.502  1.00  0.00     0.016 A 
ATOM     36  C   UNL     1      -1.926   3.514   5.824  1.00  0.00     0.016 A 
ATOM     37  C   UNL     1       0.305   1.832   6.094  1.00  0.00     0.010 A 
ATOM     38  C   UNL     1      -0.739   3.997   6.382  1.00  0.00     0.010 A 
ATOM     39  C   UNL     1       0.379   3.155   6.540  1.00  0.00    -0.014 A 
BRANCH  39  40
ATOM     40  C   UNL     1       1.593   3.667   7.224  1.00  0.00     0.031 A 
ATOM     41  C   UNL     1       1.518   4.040   8.675  1.00  0.00     0.074 A 
ATOM     42  C   UNL     1       2.750   3.821   6.553  1.00  0.00     0.049 A 
ATOM     43  N   UNL     1       2.345   4.754   9.394  1.00  0.00    -0.248 NA
ATOM     44  C   UNL     1       0.349   3.540   9.416  1.00  0.00     0.031 C 
ATOM     45  C   UNL     1       2.993   3.408   5.173  1.00  0.00     0.029 A 
ATOM     46  N   UNL     1       3.935   4.396   6.946  1.00  0.00    -0.354 N 
ATOM     47  C   UNL     1       1.776   4.830  10.657  1.00  0.00     0.074 A 
ATOM     48  C   UNL     1       0.539   4.079  10.612  1.00  0.00     0.031 C 
ATOM     49  C   UNL     1       4.242   3.757   4.826  1.00  0.00     0.029 A 
ATOM     50  C   UNL     1       4.854   4.492   5.929  1.00  0.00     0.049 A 
ATOM     51  H   UNL     1       4.108   4.707   7.864  1.00  0.00     0.167 HD
ATOM     52  C   UNL     1       2.243   5.480  11.749  1.00  0.00     0.037 A 
ATOM     53  C   UNL     1       6.022   5.159   5.870  1.00  0.00     0.037 A 
ATOM     54  C   UNL     1       3.490   6.196  11.792  1.00  0.00     0.049 A 
ATOM     55  C   UNL     1       6.471   5.966   7.059  1.00  0.00     0.074 A 
ATOM     56  C   UNL     1       4.061   6.876  12.854  1.00  0.00     0.029 A 
ATOM     57  N   UNL     1       4.363   6.320  10.722  1.00  0.00    -0.354 N 
ATOM     58  N   UNL     1       5.903   6.097   8.233  1.00  0.00    -0.248 NA
ATOM     59  C   UNL     1       7.708   6.746   6.902  1.00  0.00     0.031 C 
ATOM     60  C   UNL     1       5.260   7.448  12.413  1.00  0.00     0.029 A 
ATOM     61  C   UNL     1       5.454   7.091  11.088  1.00  0.00     0.049 A 
ATOM     62  H   UNL     1       4.227   5.919   9.833  1.00  0.00     0.167 HD
ATOM     63  C   UNL     1       6.711   6.966   8.954  1.00  0.00     0.074 A 
ATOM     64  C   UNL     1       7.821   7.318   8.093  1.00  0.00     0.031 C 
ATOM     65  C   UNL     1       6.545   7.437  10.214  1.00  0.00     0.037 A 
BRANCH  52  66
ATOM     66  C   UNL     1       1.379   5.491  12.974  1.00  0.00     0.064 A 
ATOM     67  C   UNL     1       1.241   4.364  13.796  1.00  0.00     0.173 A 
ATOM     68  C   UNL     1       0.710   6.666  13.348  1.00  0.00     0.173 A 
ATOM     69  F   UNL     1       1.848   3.213  13.471  1.00  0.00    -0.203 F 
ATOM     70  C   UNL     1       0.448   4.409  14.940  1.00  0.00     0.198 A 
ATOM     71  C   UNL     1      -0.063   6.714  14.505  1.00  0.00     0.198 A 
ATOM     72  F   UNL     1       0.812   7.772  12.595  1.00  0.00    -0.203 F 
ATOM     73  F   UNL     1       0.299   3.311  15.693  1.00  0.00    -0.200 F 
ATOM     74  C   UNL     1      -0.197   5.585  15.297  1.00  0.00     0.200 A 
ATOM     75  F   UNL     1      -0.678   7.853  14.851  1.00  0.00    -0.200 F 
ATOM     76  F   UNL     1      -0.955   5.627  16.402  1.00  0.00    -0.200 F 
ENDBRANCH  52  66
BRANCH  53  77
ATOM     77  C   UNL     1       6.807   5.165   4.609  1.00  0.00     0.064 A 
ATOM     78  C   UNL     1       8.050   4.523   4.527  1.00  0.00     0.173 A 
ATOM     79  C   UNL     1       6.333   5.819   3.461  1.00  0.00     0.173 A 
ATOM     80  F   UNL     1       8.560   3.913   5.607  1.00  0.00    -0.203 F 
ATOM     81  C   UNL     1       8.790   4.539   3.346  1.00  0.00     0.198 A 
ATOM     82  C   UNL     1       7.060   5.809   2.273  1.00  0.00     0.198 A 
ATOM     83  F   UNL     1       5.153   6.456   3.490  1.00  0.00    -0.203 F 
ATOM     84  F   UNL     1       9.993   3.950   3.305  1.00  0.00    -0.200 F 
ATOM     85  C   UNL     1       8.291   5.173   2.219  1.00  0.00     0.200 A 
ATOM     86  F   UNL     1       6.569   6.415   1.184  1.00  0.00    -0.200 F 
ATOM     87  F   UNL     1       8.999   5.180   1.081  1.00  0.00    -0.200 F 
ENDBRANCH  53  77
BRANCH  65  88
ATOM     88  C   UNL     1       7.588   8.376  10.740  1.00  0.00     0.064 A 
ATOM     89  C   UNL     1       7.641   9.713  10.322  1.00  0.00     0.173 A 
ATOM     90  C   UNL     1       8.510   7.949  11.706  1.00  0.00     0.173 A 
ATOM     91  F   UNL     1       6.790  10.162   9.386  1.00  0.00    -0.203 F 
ATOM     92  C   UNL     1       8.590  10.587  10.845  1.00  0.00     0.198 A 
ATOM     93  C   UNL     1       9.442   8.832  12.244  1.00  0.00     0.198 A 
ATOM     94  F   UNL     1       8.496   6.680  12.140  1.00  0.00    -0.203 F 
ATOM     95  F   UNL     1       8.645  11.853  10.408  1.00  0.00    -0.200 F 
ATOM     96  C   UNL     1       9.484  10.149  11.810  1.00  0.00     0.200 A 
ATOM     97  F   UNL     1      10.299   8.409  13.184  1.00  0.00    -0.200 F 
ATOM     98  F   UNL     1      10.390  10.994  12.319  1.00  0.00    -0.200 F 
ENDBRANCH  65  88
ENDBRANCH  39  40
ENDBRANCH  32  34
ENDBRANCH  31  32
ENDBRANCH  30  31
ENDBRANCH  29  30
ENDBRANCH  28  29
ENDBRANCH  27  28
ENDBRANCH   1  27
TORSDOF 22
