REMARK SMILES O=C(OCCOCCOCCOC(=O)[C@@H]1CN(C(=O)[C@H]2CC=CCC2)c2ccccc2O1)c1ccc(-c2c3nc(c(-c4c(F)c(F)c(F)c(F)c4F)c4ccc([nH]4)c(-c4c(F)c(F)c(F)c(F)c4F)c4nc(c(-c5c(F)c(F)c(F)c(F)c5F)c5ccc2[nH]5)C=C4)C=C3)cc1
REMARK SMILES IDX 7 1 6 2 5 3 4 4 3 5 2 6 1 7 33 8 34 9 95 10 35 11 94 12
REMARK SMILES IDX 36 13 37 14 38 15 88 16 39 17 93 18 87 19 89 20 40 21 92 22
REMARK SMILES IDX 86 23 85 24 41 26 73 27 53 28 72 29 54 30 57 31 71 32 90 33
REMARK SMILES IDX 55 34 56 35 70 37 91 38 58 39 42 40 43 41 51 42 44 43 45 44
REMARK SMILES IDX 49 45 52 46 46 47 47 48 50 49 48 50 74 51 75 52 83 53 76 54
REMARK SMILES IDX 77 55 81 56 84 57 78 58 79 59 82 60 80 61 59 62 60 63 68 64
REMARK SMILES IDX 61 65 62 66 66 67 69 68 63 69 64 70 67 71 65 72 8 73 9 74
REMARK SMILES IDX 10 75 11 76 12 77 13 78 14 79 15 80 16 81 32 82 17 83 31 84
REMARK SMILES IDX 26 85 30 86 27 87 29 88 28 89 18 90 19 91 20 92 21 93 25 94
REMARK SMILES IDX 22 95 24 96 23 97
REMARK H PARENT 89 25 57 36
REMARK Flexibility Score: inf
ROOT
ATOM      1  C   UNL     1       2.401  -1.309  -0.740  1.00  0.00     0.188 C 
ENDROOT
BRANCH   1   2
ATOM      2  O   UNL     1       3.705  -0.755  -0.913  1.00  0.00    -0.376 OA
BRANCH   2   3
ATOM      3  C   UNL     1       4.677  -1.096   0.073  1.00  0.00     0.202 C 
BRANCH   3   4
ATOM      4  C   UNL     1       4.560  -0.362   1.414  1.00  0.00     0.261 C 
BRANCH   4   5
ATOM      5  O   UNL     1       3.279   0.209   1.732  1.00  0.00    -0.460 OA
BRANCH   5   6
ATOM      6  C   UNL     1       2.597   1.257   1.220  1.00  0.00     0.338 C 
ATOM      7  O   UNL     1       1.485   1.496   1.693  1.00  0.00    -0.246 OA
BRANCH   6   8
ATOM      8  C   UNL     1       3.064   2.134   0.099  1.00  0.00     0.060 A 
ATOM      9  C   UNL     1       4.271   2.011  -0.589  1.00  0.00     0.016 A 
ATOM     10  C   UNL     1       2.195   3.175  -0.293  1.00  0.00     0.016 A 
ATOM     11  C   UNL     1       4.593   2.849  -1.650  1.00  0.00     0.010 A 
ATOM     12  C   UNL     1       2.541   4.073  -1.305  1.00  0.00     0.010 A 
ATOM     13  C   UNL     1       3.759   3.918  -1.967  1.00  0.00    -0.014 A 
BRANCH  13  14
ATOM     14  C   UNL     1       4.348   5.012  -2.756  1.00  0.00     0.031 A 
ATOM     15  C   UNL     1       5.174   6.011  -2.003  1.00  0.00     0.074 A 
ATOM     16  C   UNL     1       4.255   5.025  -4.093  1.00  0.00     0.049 A 
ATOM     17  N   UNL     1       5.822   7.055  -2.439  1.00  0.00    -0.248 NA
ATOM     18  C   UNL     1       5.286   5.795  -0.549  1.00  0.00     0.031 C 
ATOM     19  C   UNL     1       3.550   4.025  -4.887  1.00  0.00     0.029 A 
ATOM     20  N   UNL     1       4.803   5.871  -5.018  1.00  0.00    -0.354 N 
ATOM     21  C   UNL     1       6.360   7.653  -1.307  1.00  0.00     0.074 A 
ATOM     22  C   UNL     1       6.017   6.830  -0.174  1.00  0.00     0.031 C 
ATOM     23  C   UNL     1       3.775   4.269  -6.189  1.00  0.00     0.029 A 
ATOM     24  C   UNL     1       4.578   5.482  -6.316  1.00  0.00     0.049 A 
ATOM     25  H   UNL     1       5.311   6.679  -4.777  1.00  0.00     0.167 HD
ATOM     26  C   UNL     1       7.031   8.825  -1.229  1.00  0.00     0.037 A 
ATOM     27  C   UNL     1       4.979   6.062  -7.464  1.00  0.00     0.037 A 
ATOM     28  C   UNL     1       7.322   9.628  -2.384  1.00  0.00     0.049 A 
ATOM     29  C   UNL     1       5.739   7.363  -7.359  1.00  0.00     0.074 A 
ATOM     30  C   UNL     1       7.900  10.879  -2.449  1.00  0.00     0.029 A 
ATOM     31  N   UNL     1       7.038   9.242  -3.690  1.00  0.00    -0.354 N 
ATOM     32  N   UNL     1       6.167   7.986  -6.284  1.00  0.00    -0.248 NA
ATOM     33  C   UNL     1       6.032   8.067  -8.613  1.00  0.00     0.031 C 
ATOM     34  C   UNL     1       7.912  11.276  -3.790  1.00  0.00     0.029 A 
ATOM     35  C   UNL     1       7.415  10.239  -4.569  1.00  0.00     0.049 A 
ATOM     36  H   UNL     1       6.629   8.385  -3.949  1.00  0.00     0.167 HD
ATOM     37  C   UNL     1       6.764   9.157  -6.726  1.00  0.00     0.074 A 
ATOM     38  C   UNL     1       6.680   9.138  -8.175  1.00  0.00     0.031 C 
ATOM     39  C   UNL     1       7.312  10.169  -6.007  1.00  0.00     0.037 A 
BRANCH  26  40
ATOM     40  C   UNL     1       7.327   9.342   0.149  1.00  0.00     0.064 A 
ATOM     41  C   UNL     1       8.245   8.721   1.010  1.00  0.00     0.173 A 
ATOM     42  C   UNL     1       6.595  10.430   0.651  1.00  0.00     0.173 A 
ATOM     43  F   UNL     1       8.943   7.653   0.596  1.00  0.00    -0.203 F 
ATOM     44  C   UNL     1       8.380   9.137   2.334  1.00  0.00     0.198 A 
ATOM     45  C   UNL     1       6.759  10.866   1.962  1.00  0.00     0.198 A 
ATOM     46  F   UNL     1       5.694  11.055  -0.123  1.00  0.00    -0.203 F 
ATOM     47  F   UNL     1       9.194   8.470   3.164  1.00  0.00    -0.200 F 
ATOM     48  C   UNL     1       7.638  10.209   2.808  1.00  0.00     0.200 A 
ATOM     49  F   UNL     1       6.043  11.905   2.416  1.00  0.00    -0.200 F 
ATOM     50  F   UNL     1       7.754  10.594   4.087  1.00  0.00    -0.200 F 
ENDBRANCH  26  40
BRANCH  27  51
ATOM     51  C   UNL     1       4.654   5.441  -8.778  1.00  0.00     0.064 A 
ATOM     52  C   UNL     1       5.667   4.990  -9.638  1.00  0.00     0.173 A 
ATOM     53  C   UNL     1       3.327   5.259  -9.198  1.00  0.00     0.173 A 
ATOM     54  F   UNL     1       6.955   5.159  -9.303  1.00  0.00    -0.203 F 
ATOM     55  C   UNL     1       5.365   4.386 -10.859  1.00  0.00     0.198 A 
ATOM     56  C   UNL     1       3.026   4.620 -10.400  1.00  0.00     0.198 A 
ATOM     57  F   UNL     1       2.313   5.679  -8.427  1.00  0.00    -0.203 F 
ATOM     58  F   UNL     1       6.355   4.002 -11.677  1.00  0.00    -0.200 F 
ATOM     59  C   UNL     1       4.045   4.190 -11.233  1.00  0.00     0.200 A 
ATOM     60  F   UNL     1       1.747   4.418 -10.746  1.00  0.00    -0.200 F 
ATOM     61  F   UNL     1       3.755   3.594 -12.398  1.00  0.00    -0.200 F 
ENDBRANCH  27  51
BRANCH  39  62
ATOM     62  C   UNL     1       7.878  11.330  -6.771  1.00  0.00     0.064 A 
ATOM     63  C   UNL     1       7.049  12.277  -7.387  1.00  0.00     0.173 A 
ATOM     64  C   UNL     1       9.263  11.552  -6.785  1.00  0.00     0.173 A 
ATOM     65  F   UNL     1       5.719  12.103  -7.403  1.00  0.00    -0.203 F 
ATOM     66  C   UNL     1       7.589  13.402  -8.001  1.00  0.00     0.198 A 
ATOM     67  C   UNL     1       9.796  12.693  -7.373  1.00  0.00     0.198 A 
ATOM     68  F   UNL     1      10.094  10.678  -6.197  1.00  0.00    -0.203 F 
ATOM     69  F   UNL     1       6.782  14.284  -8.609  1.00  0.00    -0.200 F 
ATOM     70  C   UNL     1       8.960  13.616  -7.983  1.00  0.00     0.200 A 
ATOM     71  F   UNL     1      11.119  12.908  -7.336  1.00  0.00    -0.200 F 
ATOM     72  F   UNL     1       9.475  14.713  -8.553  1.00  0.00    -0.200 F 
ENDBRANCH  39  62
ENDBRANCH  13  14
ENDBRANCH   6   8
ENDBRANCH   5   6
ENDBRANCH   4   5
ENDBRANCH   3   4
ENDBRANCH   2   3
ENDBRANCH   1   2
BRANCH   1  73
ATOM     73  C   UNL     1       2.273  -2.801  -1.046  1.00  0.00     0.188 C 
BRANCH  73  74
ATOM     74  O   UNL     1       3.520  -3.463  -0.922  1.00  0.00    -0.376 OA
BRANCH  74  75
ATOM     75  C   UNL     1       4.012  -4.062  -2.104  1.00  0.00     0.202 C 
BRANCH  75  76
ATOM     76  C   UNL     1       4.675  -3.218  -3.218  1.00  0.00     0.261 C 
BRANCH  76  77
ATOM     77  O   UNL     1       4.497  -1.799  -3.333  1.00  0.00    -0.460 OA
BRANCH  77  78
ATOM     78  C   UNL     1       3.337  -1.362  -3.867  1.00  0.00     0.349 C 
ATOM     79  O   UNL     1       2.300  -2.024  -3.890  1.00  0.00    -0.248 OA
BRANCH  78  80
ATOM     80  C   UNL     1       3.413   0.017  -4.514  1.00  0.00     0.302 C 
ATOM     81  C   UNL     1       2.929  -0.123  -5.963  1.00  0.00     0.183 C 
ATOM     82  O   UNL     1       4.623   0.749  -4.380  1.00  0.00    -0.475 OA
ATOM     83  N   UNL     1       3.999  -0.590  -6.856  1.00  0.00    -0.304 N 
ATOM     84  C   UNL     1       5.332   0.984  -5.532  1.00  0.00     0.144 A 
ATOM     85  C   UNL     1       5.109   0.326  -6.757  1.00  0.00     0.086 A 
ATOM     86  C   UNL     1       6.338   1.948  -5.412  1.00  0.00     0.049 A 
ATOM     87  C   UNL     1       5.922   0.665  -7.848  1.00  0.00     0.030 A 
ATOM     88  C   UNL     1       7.117   2.292  -6.512  1.00  0.00     0.004 A 
ATOM     89  C   UNL     1       6.913   1.647  -7.727  1.00  0.00     0.002 A 
BRANCH  83  90
ATOM     90  C   UNL     1       4.031  -1.690  -7.708  1.00  0.00     0.230 C 
ATOM     91  O   UNL     1       5.011  -1.889  -8.448  1.00  0.00    -0.274 OA
BRANCH  90  92
ATOM     92  C   UNL     1       2.930  -2.780  -7.840  1.00  0.00     0.083 C 
ATOM     93  C   UNL     1       1.987  -3.179  -6.712  1.00  0.00     0.040 C 
ATOM     94  C   UNL     1       2.144  -2.647  -9.148  1.00  0.00     0.018 C 
ATOM     95  C   UNL     1       0.674  -2.443  -6.718  1.00  0.00    -0.030 C 
ATOM     96  C   UNL     1       1.041  -1.597  -9.042  1.00  0.00     0.028 C 
ATOM     97  C   UNL     1       0.269  -1.696  -7.758  1.00  0.00    -0.031 C 
ENDBRANCH  90  92
ENDBRANCH  83  90
ENDBRANCH  78  80
ENDBRANCH  77  78
ENDBRANCH  76  77
ENDBRANCH  75  76
ENDBRANCH  74  75
ENDBRANCH  73  74
ENDBRANCH   1  73
TORSDOF 19
