REMARK SMILES C=Cc1cc(Cl)cc2c1O[C@H](C(F)(F)F)C(C(=O)OCCOCCOCCOC(=O)c1ccc(-c3c4nc(c(-c5c(F)c(F)c(F)c(F)c5F)c5ccc([nH]5)c(-c5c(F)c(F)c(F)c(F)c5F)c5nc(c(-c6c(F)c(F)c(F)c(F)c6F)c6ccc3[nH]6)C=C5)C=C4)cc1)=C2
REMARK SMILES IDX 24 1 23 2 22 3 21 4 20 5 19 6 17 7 18 8 16 9 3 10 4 11 9 12
REMARK SMILES IDX 5 13 8 14 10 15 6 16 7 17 94 18 11 19 2 20 1 21 12 22 13 23
REMARK SMILES IDX 14 24 15 25 25 26 26 27 27 28 28 29 29 30 30 31 31 32 32 33
REMARK SMILES IDX 93 34 33 35 92 36 34 37 35 38 36 39 86 40 37 41 91 42 85 43
REMARK SMILES IDX 87 44 38 45 90 46 84 47 83 48 39 50 71 51 51 52 70 53 52 54
REMARK SMILES IDX 55 55 69 56 88 57 53 58 54 59 68 61 89 62 56 63 40 64 41 65
REMARK SMILES IDX 49 66 42 67 43 68 47 69 50 70 44 71 45 72 48 73 46 74 72 75
REMARK SMILES IDX 73 76 81 77 74 78 75 79 79 80 82 81 76 82 77 83 80 84 78 85
REMARK SMILES IDX 57 86 58 87 66 88 59 89 60 90 64 91 67 92 61 93 62 94 65 95
REMARK SMILES IDX 63 96
REMARK H PARENT 87 49 55 60
REMARK Flexibility Score: inf
ROOT
ATOM      1  C   UNL     1      -4.163  -5.833   2.088  1.00  0.00     0.188 C 
ENDROOT
BRANCH   1   2
ATOM      2  C   UNL     1      -5.503  -6.108   1.375  1.00  0.00     0.188 C 
BRANCH   2   3
ATOM      3  O   UNL     1      -5.998  -7.422   1.247  1.00  0.00    -0.376 OA
BRANCH   3   4
ATOM      4  C   UNL     1      -5.297  -8.406   0.507  1.00  0.00     0.202 C 
BRANCH   4   5
ATOM      5  C   UNL     1      -4.428  -8.093  -0.718  1.00  0.00     0.261 C 
BRANCH   5   6
ATOM      6  O   UNL     1      -3.650  -6.895  -0.639  1.00  0.00    -0.460 OA
BRANCH   6   7
ATOM      7  C   UNL     1      -3.991  -5.932  -1.530  1.00  0.00     0.338 C 
ATOM      8  O   UNL     1      -4.869  -5.995  -2.374  1.00  0.00    -0.246 OA
BRANCH   7   9
ATOM      9  C   UNL     1      -3.248  -4.694  -1.230  1.00  0.00     0.087 C 
ATOM     10  C   UNL     1      -1.185  -1.083  -0.711  1.00  0.00     0.018 A 
ATOM     11  C   UNL     1      -1.914   0.116  -0.765  1.00  0.00     0.032 A 
ATOM     12  C   UNL     1      -1.880  -2.307  -0.816  1.00  0.00     0.135 A 
ATOM     13  C   UNL     1      -3.302   0.095  -0.883  1.00  0.00     0.042 A 
ATOM     14  C   UNL     1      -3.272  -2.316  -0.976  1.00  0.00     0.019 A 
ATOM     15  O   UNL     1      -1.141  -3.459  -0.749  1.00  0.00    -0.475 OA
ATOM     16  Cl  UNL     1      -4.179   1.573  -0.940  1.00  0.00    -0.084 Cl
ATOM     17  C   UNL     1      -3.985  -1.113  -0.986  1.00  0.00     0.032 A 
ATOM     18  C   UNL     1      -3.972  -3.568  -1.198  1.00  0.00     0.027 C 
ATOM     19  C   UNL     1      -1.768  -4.747  -0.982  1.00  0.00     0.316 C 
BRANCH  10  20
ATOM     20  C   UNL     1       0.289  -1.063  -0.650  1.00  0.00     0.004 C 
ATOM     21  C   UNL     1       1.023  -0.138  -0.018  1.00  0.00     0.009 C 
ENDBRANCH  10  20
BRANCH  19  22
ATOM     22  C   UNL     1      -1.011  -5.449  -2.118  1.00  0.00     0.430 C 
ATOM     23  F   UNL     1       0.325  -5.444  -1.896  1.00  0.00    -0.167 F 
ATOM     24  F   UNL     1      -1.380  -6.745  -2.242  1.00  0.00    -0.167 F 
ATOM     25  F   UNL     1      -1.229  -4.850  -3.311  1.00  0.00    -0.167 F 
ENDBRANCH  19  22
ENDBRANCH   7   9
ENDBRANCH   6   7
ENDBRANCH   5   6
ENDBRANCH   4   5
ENDBRANCH   3   4
ENDBRANCH   2   3
ENDBRANCH   1   2
BRANCH   1  26
ATOM     26  O   UNL     1      -3.365  -6.895   2.562  1.00  0.00    -0.376 OA
BRANCH  26  27
ATOM     27  C   UNL     1      -3.867  -7.772   3.558  1.00  0.00     0.202 C 
BRANCH  27  28
ATOM     28  C   UNL     1      -4.754  -7.305   4.722  1.00  0.00     0.261 C 
BRANCH  28  29
ATOM     29  O   UNL     1      -5.794  -6.381   4.383  1.00  0.00    -0.460 OA
BRANCH  29  30
ATOM     30  C   UNL     1      -5.650  -5.132   4.905  1.00  0.00     0.338 C 
ATOM     31  O   UNL     1      -4.755  -4.721   5.607  1.00  0.00    -0.246 OA
BRANCH  30  32
ATOM     32  C   UNL     1      -6.676  -4.256   4.301  1.00  0.00     0.060 A 
ATOM     33  C   UNL     1      -8.033  -4.529   4.468  1.00  0.00     0.016 A 
ATOM     34  C   UNL     1      -6.256  -3.146   3.554  1.00  0.00     0.016 A 
ATOM     35  C   UNL     1      -8.976  -3.668   3.902  1.00  0.00     0.010 A 
ATOM     36  C   UNL     1      -7.200  -2.298   2.974  1.00  0.00     0.010 A 
ATOM     37  C   UNL     1      -8.567  -2.541   3.165  1.00  0.00    -0.014 A 
BRANCH  37  38
ATOM     38  C   UNL     1      -9.570  -1.526   2.762  1.00  0.00     0.031 A 
ATOM     39  C   UNL     1     -10.101  -1.436   1.366  1.00  0.00     0.074 A 
ATOM     40  C   UNL     1     -10.002  -0.668   3.705  1.00  0.00     0.049 A 
ATOM     41  N   UNL     1     -11.055  -0.669   0.900  1.00  0.00    -0.248 NA
ATOM     42  C   UNL     1      -9.482  -2.309   0.360  1.00  0.00     0.031 C 
ATOM     43  C   UNL     1      -9.523  -0.640   5.088  1.00  0.00     0.029 A 
ATOM     44  N   UNL     1     -10.941   0.329   3.654  1.00  0.00    -0.354 N 
ATOM     45  C   UNL     1     -11.176  -0.985  -0.445  1.00  0.00     0.074 A 
ATOM     46  C   UNL     1     -10.158  -1.975  -0.734  1.00  0.00     0.031 C 
ATOM     47  C   UNL     1     -10.196   0.302   5.764  1.00  0.00     0.029 A 
ATOM     48  C   UNL     1     -11.134   0.959   4.858  1.00  0.00     0.049 A 
ATOM     49  H   UNL     1     -11.429   0.570   2.834  1.00  0.00     0.167 HD
ATOM     50  C   UNL     1     -12.071  -0.504  -1.343  1.00  0.00     0.037 A 
ATOM     51  C   UNL     1     -11.982   1.947   5.201  1.00  0.00     0.037 A 
ATOM     52  C   UNL     1     -13.067   0.498  -1.047  1.00  0.00     0.049 A 
ATOM     53  C   UNL     1     -12.931   2.492   4.173  1.00  0.00     0.074 A 
ATOM     54  C   UNL     1     -14.042   1.016  -1.884  1.00  0.00     0.029 A 
ATOM     55  N   UNL     1     -13.208   1.146   0.172  1.00  0.00    -0.354 N 
ATOM     56  N   UNL     1     -13.098   2.126   2.926  1.00  0.00    -0.248 NA
ATOM     57  C   UNL     1     -13.818   3.582   4.603  1.00  0.00     0.031 C 
ATOM     58  C   UNL     1     -14.732   2.016  -1.191  1.00  0.00     0.029 A 
ATOM     59  C   UNL     1     -14.230   2.082   0.098  1.00  0.00     0.049 A 
ATOM     60  H   UNL     1     -12.662   0.969   0.972  1.00  0.00     0.167 HD
ATOM     61  C   UNL     1     -14.120   2.922   2.428  1.00  0.00     0.074 A 
ATOM     62  C   UNL     1     -14.548   3.779   3.513  1.00  0.00     0.031 C 
ATOM     63  C   UNL     1     -14.651   2.937   1.181  1.00  0.00     0.037 A 
BRANCH  50  64
ATOM     64  C   UNL     1     -12.036  -1.061  -2.738  1.00  0.00     0.064 A 
ATOM     65  C   UNL     1     -12.457  -2.372  -3.009  1.00  0.00     0.173 A 
ATOM     66  C   UNL     1     -11.674  -0.251  -3.826  1.00  0.00     0.173 A 
ATOM     67  F   UNL     1     -12.813  -3.187  -2.006  1.00  0.00    -0.203 F 
ATOM     68  C   UNL     1     -12.502  -2.855  -4.315  1.00  0.00     0.198 A 
ATOM     69  C   UNL     1     -11.748  -0.729  -5.132  1.00  0.00     0.198 A 
ATOM     70  F   UNL     1     -11.278   1.015  -3.625  1.00  0.00    -0.203 F 
ATOM     71  F   UNL     1     -12.882  -4.120  -4.546  1.00  0.00    -0.200 F 
ATOM     72  C   UNL     1     -12.158  -2.031  -5.375  1.00  0.00     0.200 A 
ATOM     73  F   UNL     1     -11.434   0.075  -6.157  1.00  0.00    -0.200 F 
ATOM     74  F   UNL     1     -12.222  -2.491  -6.632  1.00  0.00    -0.200 F 
ENDBRANCH  50  64
BRANCH  51  75
ATOM     75  C   UNL     1     -11.994   2.438   6.602  1.00  0.00     0.064 A 
ATOM     76  C   UNL     1     -13.075   2.161   7.449  1.00  0.00     0.173 A 
ATOM     77  C   UNL     1     -10.910   3.152   7.133  1.00  0.00     0.173 A 
ATOM     78  F   UNL     1     -14.140   1.494   6.981  1.00  0.00    -0.203 F 
ATOM     79  C   UNL     1     -13.074   2.586   8.776  1.00  0.00     0.198 A 
ATOM     80  C   UNL     1     -10.898   3.551   8.467  1.00  0.00     0.198 A 
ATOM     81  F   UNL     1      -9.849   3.434   6.363  1.00  0.00    -0.203 F 
ATOM     82  F   UNL     1     -14.132   2.333   9.558  1.00  0.00    -0.200 F 
ATOM     83  C   UNL     1     -11.982   3.272   9.286  1.00  0.00     0.200 A 
ATOM     84  F   UNL     1      -9.833   4.197   8.962  1.00  0.00    -0.200 F 
ATOM     85  F   UNL     1     -11.974   3.664  10.567  1.00  0.00    -0.200 F 
ENDBRANCH  51  75
BRANCH  63  86
ATOM     86  C   UNL     1     -15.768   3.906   0.913  1.00  0.00     0.064 A 
ATOM     87  C   UNL     1     -15.538   5.287   0.831  1.00  0.00     0.173 A 
ATOM     88  C   UNL     1     -17.071   3.443   0.673  1.00  0.00     0.173 A 
ATOM     89  F   UNL     1     -14.314   5.783   1.067  1.00  0.00    -0.203 F 
ATOM     90  C   UNL     1     -16.574   6.170   0.533  1.00  0.00     0.198 A 
ATOM     91  C   UNL     1     -18.098   4.325   0.345  1.00  0.00     0.198 A 
ATOM     92  F   UNL     1     -17.346   2.131   0.734  1.00  0.00    -0.203 F 
ATOM     93  F   UNL     1     -16.338   7.489   0.498  1.00  0.00    -0.200 F 
ATOM     94  C   UNL     1     -17.850   5.688   0.281  1.00  0.00     0.200 A 
ATOM     95  F   UNL     1     -19.326   3.856   0.086  1.00  0.00    -0.200 F 
ATOM     96  F   UNL     1     -18.841   6.537  -0.022  1.00  0.00    -0.200 F 
ENDBRANCH  63  86
ENDBRANCH  37  38
ENDBRANCH  30  32
ENDBRANCH  29  30
ENDBRANCH  28  29
ENDBRANCH  27  28
ENDBRANCH  26  27
ENDBRANCH   1  26
TORSDOF 19
