REMARK SMILES [NH3+][C@@]1(C(=O)OCCOCCOCCOC(=O)c2ccc(-c3c4nc(c(-c5c(F)c(F)c(F)c(F)c5F)c5ccc([nH]5)c(-c5c(F)c(F)c(F)c(F)c5F)c5nc(c(-c6c(F)c(F)c(F)c(F)c6F)c6ccc3[nH]6)C=C5)C=C4)cc2)CC[N@@H+](Cc2ccc(OCC(=O)N3CCCCC3)cc2)C1
REMARK SMILES IDX 8 1 7 2 6 3 5 4 3 5 4 6 2 7 80 8 100 9 81 10 82 11 1 13
REMARK SMILES IDX 83 17 84 18 85 19 99 20 86 21 98 22 87 23 88 24 89 25 90 26
REMARK SMILES IDX 91 27 92 28 93 29 97 30 94 31 96 32 95 33 9 34 10 35 11 36
REMARK SMILES IDX 12 37 13 38 14 39 15 40 16 41 17 42 18 43 79 44 19 45 78 46
REMARK SMILES IDX 20 47 21 48 22 49 72 50 23 51 77 52 71 53 73 54 24 55 76 56
REMARK SMILES IDX 70 57 69 58 25 60 57 61 37 62 56 63 38 64 41 65 55 66 74 67
REMARK SMILES IDX 39 68 40 69 54 71 75 72 42 73 26 74 27 75 35 76 28 77 29 78
REMARK SMILES IDX 33 79 36 80 30 81 31 82 34 83 32 84 58 85 59 86 67 87 60 88
REMARK SMILES IDX 61 89 65 90 68 91 62 92 63 93 66 94 64 95 43 96 44 97 52 98
REMARK SMILES IDX 45 99 46 100 50 101 53 102 47 103 48 104 51 105 49 106
REMARK H PARENT 82 12 1 14 1 15 1 16 73 59 41 70
REMARK Flexibility Score: inf
ROOT
ATOM      1  O   UNL     1       2.880  -0.491  -2.687  1.00  0.00    -0.376 OA
ENDROOT
BRANCH   1   2
ATOM      2  C   UNL     1       1.910  -0.267  -3.683  1.00  0.00     0.202 C 
BRANCH   2   3
ATOM      3  C   UNL     1       0.696  -1.186  -3.560  1.00  0.00     0.261 C 
BRANCH   3   4
ATOM      4  O   UNL     1      -0.309  -0.492  -2.823  1.00  0.00    -0.458 OA
BRANCH   4   5
ATOM      5  C   UNL     1      -0.066  -0.439  -1.498  1.00  0.00     0.374 C 
ATOM      6  O   UNL     1       0.569  -1.286  -0.872  1.00  0.00    -0.244 OA
BRANCH   5   7
ATOM      7  C   UNL     1      -0.624   0.853  -0.851  1.00  0.00     0.246 C 
ATOM      8  C   UNL     1      -2.130   0.944  -1.093  1.00  0.00     0.148 C 
ATOM      9  C   UNL     1      -0.129   2.172  -1.502  1.00  0.00     0.344 C 
ATOM     10  C   UNL     1      -2.274   1.697  -2.434  1.00  0.00     0.270 C 
ATOM     11  N   UNL     1      -1.014   2.374  -2.625  1.00  0.00    -0.325 N 
ATOM     12  H   UNL     1      -0.742   2.663  -3.564  1.00  0.00     0.348 HD
BRANCH   7  13
ATOM     13  N   UNL     1      -0.278   0.768   0.600  1.00  0.00    -0.338 N 
ATOM     14  H   UNL     1      -0.623  -0.113   0.981  1.00  0.00     0.345 HD
ATOM     15  H   UNL     1      -0.709   1.546   1.099  1.00  0.00     0.345 HD
ATOM     16  H   UNL     1       0.735   0.812   0.711  1.00  0.00     0.345 HD
ENDBRANCH   7  13
BRANCH  11  17
ATOM     17  C   UNL     1      -0.688   3.204  -3.770  1.00  0.00     0.299 C 
BRANCH  17  18
ATOM     18  C   UNL     1       0.071   2.506  -4.901  1.00  0.00     0.006 A 
ATOM     19  C   UNL     1       1.326   2.975  -5.308  1.00  0.00     0.013 A 
ATOM     20  C   UNL     1      -0.402   1.351  -5.550  1.00  0.00     0.013 A 
ATOM     21  C   UNL     1       2.151   2.192  -6.139  1.00  0.00     0.047 A 
ATOM     22  C   UNL     1       0.445   0.547  -6.364  1.00  0.00     0.047 A 
ATOM     23  C   UNL     1       1.776   0.901  -6.534  1.00  0.00     0.120 A 
BRANCH  23  24
ATOM     24  O   UNL     1       2.829   0.085  -6.863  1.00  0.00    -0.484 OA
BRANCH  24  25
ATOM     25  C   UNL     1       2.770  -1.330  -6.994  1.00  0.00     0.329 C 
BRANCH  25  26
ATOM     26  C   UNL     1       2.317  -2.522  -6.031  1.00  0.00     0.260 C 
ATOM     27  O   UNL     1       1.199  -3.013  -6.253  1.00  0.00    -0.271 OA
ATOM     28  N   UNL     1       3.137  -3.092  -5.037  1.00  0.00    -0.340 N 
ATOM     29  C   UNL     1       2.785  -4.432  -4.540  1.00  0.00     0.119 C 
ATOM     30  C   UNL     1       4.422  -2.598  -4.526  1.00  0.00     0.119 C 
ATOM     31  C   UNL     1       2.796  -4.531  -3.017  1.00  0.00     0.022 C 
ATOM     32  C   UNL     1       4.646  -2.831  -3.006  1.00  0.00     0.022 C 
ATOM     33  C   UNL     1       4.163  -4.168  -2.458  1.00  0.00     0.004 C 
ENDBRANCH  25  26
ENDBRANCH  24  25
ENDBRANCH  23  24
ENDBRANCH  17  18
ENDBRANCH  11  17
ENDBRANCH   5   7
ENDBRANCH   4   5
ENDBRANCH   3   4
ENDBRANCH   2   3
ENDBRANCH   1   2
BRANCH   1  34
ATOM     34  C   UNL     1       3.061   0.564  -1.784  1.00  0.00     0.188 C 
BRANCH  34  35
ATOM     35  C   UNL     1       3.753   1.822  -2.304  1.00  0.00     0.188 C 
BRANCH  35  36
ATOM     36  O   UNL     1       3.920   2.047  -3.690  1.00  0.00    -0.376 OA
BRANCH  36  37
ATOM     37  C   UNL     1       5.064   1.425  -4.287  1.00  0.00     0.202 C 
BRANCH  37  38
ATOM     38  C   UNL     1       6.426   2.065  -3.957  1.00  0.00     0.261 C 
BRANCH  38  39
ATOM     39  O   UNL     1       6.913   1.591  -2.684  1.00  0.00    -0.460 OA
BRANCH  39  40
ATOM     40  C   UNL     1       6.829   2.464  -1.651  1.00  0.00     0.338 C 
ATOM     41  O   UNL     1       6.583   3.660  -1.707  1.00  0.00    -0.246 OA
BRANCH  40  42
ATOM     42  C   UNL     1       6.729   1.675  -0.402  1.00  0.00     0.060 A 
ATOM     43  C   UNL     1       5.668   1.958   0.479  1.00  0.00     0.016 A 
ATOM     44  C   UNL     1       7.626   0.645  -0.124  1.00  0.00     0.016 A 
ATOM     45  C   UNL     1       5.532   1.248   1.665  1.00  0.00     0.010 A 
ATOM     46  C   UNL     1       7.521  -0.034   1.088  1.00  0.00     0.010 A 
ATOM     47  C   UNL     1       6.508   0.308   2.004  1.00  0.00    -0.014 A 
BRANCH  47  48
ATOM     48  C   UNL     1       6.677  -0.048   3.427  1.00  0.00     0.031 A 
ATOM     49  C   UNL     1       7.640   0.788   4.225  1.00  0.00     0.074 A 
ATOM     50  C   UNL     1       5.991  -1.053   3.992  1.00  0.00     0.049 A 
ATOM     51  N   UNL     1       8.045   0.649   5.459  1.00  0.00    -0.248 NA
ATOM     52  C   UNL     1       8.237   1.939   3.523  1.00  0.00     0.031 C 
ATOM     53  C   UNL     1       4.991  -1.880   3.321  1.00  0.00     0.029 A 
ATOM     54  N   UNL     1       6.048  -1.552   5.267  1.00  0.00    -0.354 N 
ATOM     55  C   UNL     1       8.949   1.682   5.672  1.00  0.00     0.074 A 
ATOM     56  C   UNL     1       9.063   2.420   4.437  1.00  0.00     0.031 C 
ATOM     57  C   UNL     1       4.542  -2.804   4.189  1.00  0.00     0.029 A 
ATOM     58  C   UNL     1       5.248  -2.649   5.460  1.00  0.00     0.049 A 
ATOM     59  H   UNL     1       6.608  -1.161   5.975  1.00  0.00     0.167 HD
ATOM     60  C   UNL     1       9.621   1.990   6.805  1.00  0.00     0.037 A 
ATOM     61  C   UNL     1       5.131  -3.445   6.540  1.00  0.00     0.037 A 
ATOM     62  C   UNL     1       9.502   1.239   8.024  1.00  0.00     0.049 A 
ATOM     63  C   UNL     1       5.947  -3.127   7.769  1.00  0.00     0.074 A 
ATOM     64  C   UNL     1      10.131   1.453   9.236  1.00  0.00     0.029 A 
ATOM     65  N   UNL     1       8.699   0.118   8.178  1.00  0.00    -0.354 N 
ATOM     66  N   UNL     1       6.796  -2.147   7.973  1.00  0.00    -0.248 NA
ATOM     67  C   UNL     1       5.782  -4.024   8.920  1.00  0.00     0.031 C 
ATOM     68  C   UNL     1       9.751   0.427  10.107  1.00  0.00     0.029 A 
ATOM     69  C   UNL     1       8.833  -0.386   9.460  1.00  0.00     0.049 A 
ATOM     70  H   UNL     1       8.119  -0.263   7.479  1.00  0.00     0.167 HD
ATOM     71  C   UNL     1       7.238  -2.287   9.282  1.00  0.00     0.074 A 
ATOM     72  C   UNL     1       6.551  -3.440   9.828  1.00  0.00     0.031 C 
ATOM     73  C   UNL     1       8.129  -1.534   9.976  1.00  0.00     0.037 A 
BRANCH  60  74
ATOM     74  C   UNL     1      10.565   3.156   6.756  1.00  0.00     0.064 A 
ATOM     75  C   UNL     1      10.107   4.477   6.626  1.00  0.00     0.173 A 
ATOM     76  C   UNL     1      11.950   2.950   6.844  1.00  0.00     0.173 A 
ATOM     77  F   UNL     1       8.794   4.729   6.512  1.00  0.00    -0.203 F 
ATOM     78  C   UNL     1      11.001   5.543   6.560  1.00  0.00     0.198 A 
ATOM     79  C   UNL     1      12.839   4.022   6.812  1.00  0.00     0.198 A 
ATOM     80  F   UNL     1      12.443   1.708   6.961  1.00  0.00    -0.203 F 
ATOM     81  F   UNL     1      10.542   6.790   6.378  1.00  0.00    -0.200 F 
ATOM     82  C   UNL     1      12.365   5.316   6.662  1.00  0.00     0.200 A 
ATOM     83  F   UNL     1      14.156   3.800   6.920  1.00  0.00    -0.200 F 
ATOM     84  F   UNL     1      13.223   6.343   6.605  1.00  0.00    -0.200 F 
ENDBRANCH  60  74
BRANCH  61  85
ATOM     85  C   UNL     1       4.217  -4.618   6.507  1.00  0.00     0.064 A 
ATOM     86  C   UNL     1       3.074  -4.668   7.317  1.00  0.00     0.173 A 
ATOM     87  C   UNL     1       4.476  -5.721   5.680  1.00  0.00     0.173 A 
ATOM     88  F   UNL     1       2.796  -3.650   8.145  1.00  0.00    -0.203 F 
ATOM     89  C   UNL     1       2.238  -5.783   7.317  1.00  0.00     0.198 A 
ATOM     90  C   UNL     1       3.622  -6.822   5.657  1.00  0.00     0.198 A 
ATOM     91  F   UNL     1       5.558  -5.728   4.887  1.00  0.00    -0.203 F 
ATOM     92  F   UNL     1       1.182  -5.825   8.140  1.00  0.00    -0.200 F 
ATOM     93  C   UNL     1       2.509  -6.857   6.482  1.00  0.00     0.200 A 
ATOM     94  F   UNL     1       3.882  -7.852   4.839  1.00  0.00    -0.200 F 
ATOM     95  F   UNL     1       1.704  -7.927   6.481  1.00  0.00    -0.200 F 
ENDBRANCH  61  85
BRANCH  73  96
ATOM     96  C   UNL     1       8.371  -1.906  11.411  1.00  0.00     0.064 A 
ATOM     97  C   UNL     1       9.051  -3.080  11.768  1.00  0.00     0.173 A 
ATOM     98  C   UNL     1       7.940  -1.057  12.443  1.00  0.00     0.173 A 
ATOM     99  F   UNL     1       9.475  -3.930  10.821  1.00  0.00    -0.203 F 
ATOM    100  C   UNL     1       9.253  -3.410  13.106  1.00  0.00     0.198 A 
ATOM    101  C   UNL     1       8.179  -1.371  13.777  1.00  0.00     0.198 A 
ATOM    102  F   UNL     1       7.298   0.085  12.156  1.00  0.00    -0.203 F 
ATOM    103  F   UNL     1       9.848  -4.567  13.425  1.00  0.00    -0.200 F 
ATOM    104  C   UNL     1       8.823  -2.553  14.108  1.00  0.00     0.200 A 
ATOM    105  F   UNL     1       7.781  -0.531  14.743  1.00  0.00    -0.200 F 
ATOM    106  F   UNL     1       9.023  -2.870  15.394  1.00  0.00    -0.200 F 
ENDBRANCH  73  96
ENDBRANCH  47  48
ENDBRANCH  40  42
ENDBRANCH  39  40
ENDBRANCH  38  39
ENDBRANCH  37  38
ENDBRANCH  36  37
ENDBRANCH  35  36
ENDBRANCH  34  35
ENDBRANCH   1  34
TORSDOF 23
