REMARK SMILES [H]/N=C1\C=CC2=NC(C(=O)OCCOCCOCCOC(=O)c3ccc(-c4c5nc(c(-c6c(F)c(F)c(F)c(F)c6F)c6ccc([nH]6)c(-c6c(F)c(F)c(F)c(F)c6F)c6nc(c(-c7c(F)c(F)c(F)c(F)c7F)c7ccc4[nH]7)C=C6)C=C5)cc3)=C[C@@H]2C1
REMARK SMILES IDX 16 1 15 2 14 3 13 4 12 5 11 6 9 7 10 8 8 9 2 10 3 11 1 12
REMARK SMILES IDX 4 13 88 14 5 15 87 16 6 17 86 18 7 19 17 20 18 21 19 22
REMARK SMILES IDX 20 23 21 24 22 25 23 26 24 27 85 28 25 29 84 30 26 31 27 32
REMARK SMILES IDX 28 33 78 34 29 35 83 36 77 37 79 38 30 39 82 40 76 41 75 42
REMARK SMILES IDX 31 44 63 45 43 46 62 47 44 48 47 49 61 50 80 51 45 52 46 53
REMARK SMILES IDX 60 55 81 56 48 57 32 58 33 59 41 60 34 61 35 62 39 63 42 64
REMARK SMILES IDX 36 65 37 66 40 67 38 68 64 69 65 70 73 71 66 72 67 73 71 74
REMARK SMILES IDX 74 75 68 76 69 77 72 78 70 79 49 80 50 81 58 82 51 83 52 84
REMARK SMILES IDX 56 85 59 86 53 87 54 88 57 89 55 90
REMARK H PARENT 79 43 47 54
REMARK Flexibility Score: inf
ROOT
ATOM      1  C   UNL     1      -4.358   5.711  -1.372  1.00  0.00     0.188 C 
ENDROOT
BRANCH   1   2
ATOM      2  C   UNL     1      -4.241   6.401  -2.748  1.00  0.00     0.188 C 
BRANCH   2   3
ATOM      3  O   UNL     1      -5.467   6.794  -3.343  1.00  0.00    -0.376 OA
BRANCH   3   4
ATOM      4  C   UNL     1      -5.862   6.005  -4.466  1.00  0.00     0.202 C 
BRANCH   4   5
ATOM      5  C   UNL     1      -6.267   4.552  -4.152  1.00  0.00     0.261 C 
BRANCH   5   6
ATOM      6  O   UNL     1      -5.273   3.819  -3.413  1.00  0.00    -0.459 OA
BRANCH   6   7
ATOM      7  C   UNL     1      -4.329   3.183  -4.143  1.00  0.00     0.356 C 
ATOM      8  O   UNL     1      -4.316   3.085  -5.361  1.00  0.00    -0.244 OA
BRANCH   7   9
ATOM      9  C   UNL     1      -3.216   2.716  -3.263  1.00  0.00     0.145 C 
ATOM     10  N   UNL     1       0.621   0.243   0.250  1.00  0.00    -0.305 NA
ATOM     11  C   UNL     1       0.051   1.105  -0.524  1.00  0.00     0.032 C 
ATOM     12  H   UNL     1       1.601   0.156   0.252  1.00  0.00     0.187 HD
ATOM     13  C   UNL     1       0.832   2.006  -1.416  1.00  0.00     0.025 C 
ATOM     14  C   UNL     1      -1.468   1.231  -0.519  1.00  0.00     0.069 C 
ATOM     15  C   UNL     1       0.227   2.690  -2.394  1.00  0.00     0.026 C 
ATOM     16  C   UNL     1      -1.916   1.323  -1.962  1.00  0.00     0.069 C 
ATOM     17  C   UNL     1      -1.209   2.479  -2.635  1.00  0.00     0.049 C 
ATOM     18  C   UNL     1      -3.303   1.730  -2.355  1.00  0.00     0.019 C 
ATOM     19  N   UNL     1      -1.937   3.215  -3.414  1.00  0.00    -0.245 NA
ENDBRANCH   7   9
ENDBRANCH   6   7
ENDBRANCH   5   6
ENDBRANCH   4   5
ENDBRANCH   3   4
ENDBRANCH   2   3
ENDBRANCH   1   2
BRANCH   1  20
ATOM     20  O   UNL     1      -5.607   5.364  -0.780  1.00  0.00    -0.376 OA
BRANCH  20  21
ATOM     21  C   UNL     1      -6.777   6.148  -0.959  1.00  0.00     0.202 C 
BRANCH  21  22
ATOM     22  C   UNL     1      -6.823   7.580  -0.439  1.00  0.00     0.261 C 
BRANCH  22  23
ATOM     23  O   UNL     1      -5.665   8.332  -0.757  1.00  0.00    -0.460 OA
BRANCH  23  24
ATOM     24  C   UNL     1      -4.725   8.290   0.201  1.00  0.00     0.338 C 
ATOM     25  O   UNL     1      -4.745   7.632   1.240  1.00  0.00    -0.246 OA
BRANCH  24  26
ATOM     26  C   UNL     1      -3.647   9.220  -0.128  1.00  0.00     0.060 A 
ATOM     27  C   UNL     1      -2.520   9.178   0.697  1.00  0.00     0.016 A 
ATOM     28  C   UNL     1      -3.873  10.271  -1.029  1.00  0.00     0.016 A 
ATOM     29  C   UNL     1      -1.754  10.312   0.809  1.00  0.00     0.010 A 
ATOM     30  C   UNL     1      -3.108  11.409  -0.912  1.00  0.00     0.010 A 
ATOM     31  C   UNL     1      -2.134  11.444   0.084  1.00  0.00    -0.014 A 
BRANCH  31  32
ATOM     32  C   UNL     1      -1.555  12.703   0.498  1.00  0.00     0.031 A 
ATOM     33  C   UNL     1      -0.183  12.967   0.027  1.00  0.00     0.074 A 
ATOM     34  C   UNL     1      -2.272  13.590   1.212  1.00  0.00     0.049 A 
ATOM     35  N   UNL     1       0.870  13.226   0.730  1.00  0.00    -0.248 NA
ATOM     36  C   UNL     1       0.054  12.869  -1.421  1.00  0.00     0.031 C 
ATOM     37  C   UNL     1      -3.714  13.583   1.481  1.00  0.00     0.029 A 
ATOM     38  N   UNL     1      -1.860  14.766   1.754  1.00  0.00    -0.354 N 
ATOM     39  C   UNL     1       1.875  13.488  -0.193  1.00  0.00     0.074 A 
ATOM     40  C   UNL     1       1.355  13.143  -1.492  1.00  0.00     0.031 C 
ATOM     41  C   UNL     1      -4.081  14.802   1.933  1.00  0.00     0.029 A 
ATOM     42  C   UNL     1      -2.893  15.624   2.090  1.00  0.00     0.049 A 
ATOM     43  H   UNL     1      -0.911  14.987   1.896  1.00  0.00     0.167 HD
ATOM     44  C   UNL     1       2.993  14.182   0.144  1.00  0.00     0.037 A 
ATOM     45  C   UNL     1      -2.767  16.944   2.368  1.00  0.00     0.037 A 
ATOM     46  C   UNL     1       3.271  14.127   1.552  1.00  0.00     0.049 A 
ATOM     47  C   UNL     1      -1.342  17.204   2.698  1.00  0.00     0.074 A 
ATOM     48  C   UNL     1       3.475  13.094   2.449  1.00  0.00     0.029 A 
ATOM     49  N   UNL     1       3.047  15.236   2.328  1.00  0.00    -0.354 N 
ATOM     50  N   UNL     1      -0.747  16.803   3.787  1.00  0.00    -0.248 NA
ATOM     51  C   UNL     1      -0.454  17.580   1.606  1.00  0.00     0.031 C 
ATOM     52  C   UNL     1       2.867  13.527   3.664  1.00  0.00     0.029 A 
ATOM     53  C   UNL     1       2.356  14.803   3.433  1.00  0.00     0.049 A 
ATOM     54  H   UNL     1       3.328  16.160   2.132  1.00  0.00     0.167 HD
ATOM     55  C   UNL     1       0.544  16.488   3.391  1.00  0.00     0.074 A 
ATOM     56  C   UNL     1       0.694  17.080   2.067  1.00  0.00     0.031 C 
ATOM     57  C   UNL     1       1.279  15.542   4.045  1.00  0.00     0.037 A 
BRANCH  44  58
ATOM     58  C   UNL     1       3.638  15.156  -0.798  1.00  0.00     0.064 A 
ATOM     59  C   UNL     1       4.939  15.623  -0.550  1.00  0.00     0.173 A 
ATOM     60  C   UNL     1       2.916  15.844  -1.801  1.00  0.00     0.173 A 
ATOM     61  F   UNL     1       5.685  15.075   0.420  1.00  0.00    -0.203 F 
ATOM     62  C   UNL     1       5.469  16.714  -1.243  1.00  0.00     0.198 A 
ATOM     63  C   UNL     1       3.468  16.891  -2.530  1.00  0.00     0.198 A 
ATOM     64  F   UNL     1       1.620  15.595  -2.034  1.00  0.00    -0.203 F 
ATOM     65  F   UNL     1       6.674  17.192  -0.906  1.00  0.00    -0.200 F 
ATOM     66  C   UNL     1       4.737  17.343  -2.236  1.00  0.00     0.200 A 
ATOM     67  F   UNL     1       2.732  17.502  -3.469  1.00  0.00    -0.200 F 
ATOM     68  F   UNL     1       5.230  18.413  -2.872  1.00  0.00    -0.200 F 
ENDBRANCH  44  58
BRANCH  45  69
ATOM     69  C   UNL     1      -3.718  18.036   2.051  1.00  0.00     0.064 A 
ATOM     70  C   UNL     1      -3.568  19.305   2.633  1.00  0.00     0.173 A 
ATOM     71  C   UNL     1      -4.627  17.944   0.978  1.00  0.00     0.173 A 
ATOM     72  F   UNL     1      -2.689  19.491   3.628  1.00  0.00    -0.203 F 
ATOM     73  C   UNL     1      -4.265  20.418   2.154  1.00  0.00     0.198 A 
ATOM     74  C   UNL     1      -5.335  19.052   0.512  1.00  0.00     0.198 A 
ATOM     75  F   UNL     1      -4.779  16.803   0.292  1.00  0.00    -0.203 F 
ATOM     76  F   UNL     1      -4.042  21.626   2.689  1.00  0.00    -0.200 F 
ATOM     77  C   UNL     1      -5.143  20.292   1.090  1.00  0.00     0.200 A 
ATOM     78  F   UNL     1      -6.156  18.921  -0.540  1.00  0.00    -0.200 F 
ATOM     79  F   UNL     1      -5.767  21.368   0.593  1.00  0.00    -0.200 F 
ENDBRANCH  45  69
BRANCH  57  80
ATOM     80  C   UNL     1       0.762  15.037   5.362  1.00  0.00     0.064 A 
ATOM     81  C   UNL     1      -0.468  14.372   5.511  1.00  0.00     0.173 A 
ATOM     82  C   UNL     1       1.596  15.106   6.486  1.00  0.00     0.173 A 
ATOM     83  F   UNL     1      -1.269  14.162   4.458  1.00  0.00    -0.203 F 
ATOM     84  C   UNL     1      -0.868  13.858   6.743  1.00  0.00     0.198 A 
ATOM     85  C   UNL     1       1.211  14.557   7.707  1.00  0.00     0.198 A 
ATOM     86  F   UNL     1       2.811  15.671   6.389  1.00  0.00    -0.203 F 
ATOM     87  F   UNL     1      -2.055  13.246   6.863  1.00  0.00    -0.200 F 
ATOM     88  C   UNL     1      -0.025  13.946   7.838  1.00  0.00     0.200 A 
ATOM     89  F   UNL     1       2.051  14.597   8.751  1.00  0.00    -0.200 F 
ATOM     90  F   UNL     1      -0.393  13.418   9.014  1.00  0.00    -0.200 F 
ENDBRANCH  57  80
ENDBRANCH  31  32
ENDBRANCH  24  26
ENDBRANCH  23  24
ENDBRANCH  22  23
ENDBRANCH  21  22
ENDBRANCH  20  21
ENDBRANCH   1  20
TORSDOF 17
