REMARK SMILES O=C(CCc1cn(-c2ccc(Br)cc2)nc1-c1ccccc1)OCCOCCOCCOC(=O)c1ccc(-c2c3nc(c(-c4c(F)c(F)c(F)c(F)c4F)c4ccc([nH]4)c(-c4c(F)c(F)c(F)c(F)c4F)c4nc(c(-c5c(F)c(F)c(F)c(F)c5F)c5ccc2[nH]5)C=C4)C=C3)cc1
REMARK SMILES IDX 27 1 26 2 25 3 24 4 23 5 2 6 1 7 3 8 4 9 5 10 6 11 16 12
REMARK SMILES IDX 7 13 15 14 17 15 18 16 22 17 19 18 21 19 20 20 8 21 9 22
REMARK SMILES IDX 14 23 10 24 13 25 11 26 12 27 28 28 29 29 30 30 31 31 32 32
REMARK SMILES IDX 33 33 34 34 35 35 36 36 97 37 37 38 96 39 38 40 39 41 40 42
REMARK SMILES IDX 90 43 41 44 95 45 89 46 91 47 42 48 94 49 88 50 87 51 43 53
REMARK SMILES IDX 75 54 55 55 74 56 56 57 59 58 73 59 92 60 57 61 58 62 72 64
REMARK SMILES IDX 93 65 60 66 44 67 45 68 53 69 46 70 47 71 51 72 54 73 48 74
REMARK SMILES IDX 49 75 52 76 50 77 76 78 77 79 85 80 78 81 79 82 83 83 86 84
REMARK SMILES IDX 80 85 81 86 84 87 82 88 61 89 62 90 70 91 63 92 64 93 68 94
REMARK SMILES IDX 71 95 65 96 66 97 69 98 67 99
REMARK H PARENT 91 52 59 63
REMARK Flexibility Score: inf
ROOT
ATOM      1  C   UNL     1       2.164   1.803  -1.597  1.00  0.00     0.188 C 
ENDROOT
BRANCH   1   2
ATOM      2  O   UNL     1       3.492   1.983  -1.120  1.00  0.00    -0.376 OA
BRANCH   2   3
ATOM      3  C   UNL     1       4.316   0.836  -0.956  1.00  0.00     0.202 C 
BRANCH   3   4
ATOM      4  C   UNL     1       3.653  -0.483  -0.568  1.00  0.00     0.261 C 
BRANCH   4   5
ATOM      5  O   UNL     1       2.490  -0.412   0.281  1.00  0.00    -0.463 OA
BRANCH   5   6
ATOM      6  C   UNL     1       2.388  -0.057   1.572  1.00  0.00     0.306 C 
ATOM      7  O   UNL     1       1.316  -0.211   2.157  1.00  0.00    -0.252 OA
BRANCH   6   8
ATOM      8  C   UNL     1       3.561   0.545   2.288  1.00  0.00     0.127 C 
BRANCH   8   9
ATOM      9  C   UNL     1       4.339  -0.466   3.126  1.00  0.00     0.051 C 
BRANCH   9  10
ATOM     10  C   UNL     1       5.252  -1.317   2.307  1.00  0.00    -0.001 A 
ATOM     11  C   UNL     1       6.458  -0.950   1.740  1.00  0.00     0.119 A 
ATOM     12  C   UNL     1       5.051  -2.659   1.870  1.00  0.00     0.096 A 
ATOM     13  N   UNL     1       6.808  -1.955   0.865  1.00  0.00    -0.240 N 
ATOM     14  N   UNL     1       5.970  -3.014   0.963  1.00  0.00    -0.168 NA
BRANCH  12  15
ATOM     15  C   UNL     1       3.963  -3.549   2.246  1.00  0.00     0.002 A 
ATOM     16  C   UNL     1       4.114  -4.389   3.354  1.00  0.00     0.010 A 
ATOM     17  C   UNL     1       2.741  -3.520   1.567  1.00  0.00     0.010 A 
ATOM     18  C   UNL     1       3.040  -5.162   3.798  1.00  0.00     0.001 A 
ATOM     19  C   UNL     1       1.662  -4.277   2.024  1.00  0.00     0.001 A 
ATOM     20  C   UNL     1       1.811  -5.094   3.143  1.00  0.00     0.000 A 
ENDBRANCH  12  15
BRANCH  13  21
ATOM     21  C   UNL     1       7.805  -1.893  -0.145  1.00  0.00     0.065 A 
ATOM     22  C   UNL     1       8.883  -1.004  -0.042  1.00  0.00     0.029 A 
ATOM     23  C   UNL     1       7.673  -2.698  -1.288  1.00  0.00     0.029 A 
ATOM     24  C   UNL     1       9.826  -0.930  -1.073  1.00  0.00     0.018 A 
ATOM     25  C   UNL     1       8.597  -2.594  -2.330  1.00  0.00     0.018 A 
ATOM     26  C   UNL     1       9.673  -1.716  -2.215  1.00  0.00     0.018 A 
ATOM     27  Br  UNL     1      10.935  -1.589  -3.616  1.00  0.00    -0.051 Br
ENDBRANCH  13  21
ENDBRANCH   9  10
ENDBRANCH   8   9
ENDBRANCH   6   8
ENDBRANCH   5   6
ENDBRANCH   4   5
ENDBRANCH   3   4
ENDBRANCH   2   3
ENDBRANCH   1   2
BRANCH   1  28
ATOM     28  C   UNL     1       1.922   1.004  -2.893  1.00  0.00     0.188 C 
BRANCH  28  29
ATOM     29  O   UNL     1       3.039   0.253  -3.366  1.00  0.00    -0.376 OA
BRANCH  29  30
ATOM     30  C   UNL     1       3.446   0.547  -4.700  1.00  0.00     0.202 C 
BRANCH  30  31
ATOM     31  C   UNL     1       4.665   1.472  -4.724  1.00  0.00     0.261 C 
BRANCH  31  32
ATOM     32  O   UNL     1       4.535   2.625  -3.890  1.00  0.00    -0.460 OA
BRANCH  32  33
ATOM     33  C   UNL     1       3.508   3.444  -4.189  1.00  0.00     0.338 C 
ATOM     34  O   UNL     1       2.684   3.289  -5.074  1.00  0.00    -0.246 OA
BRANCH  33  35
ATOM     35  C   UNL     1       3.560   4.653  -3.352  1.00  0.00     0.060 A 
ATOM     36  C   UNL     1       2.506   5.556  -3.512  1.00  0.00     0.016 A 
ATOM     37  C   UNL     1       4.731   5.005  -2.665  1.00  0.00     0.016 A 
ATOM     38  C   UNL     1       2.730   6.884  -3.226  1.00  0.00     0.010 A 
ATOM     39  C   UNL     1       4.955   6.338  -2.377  1.00  0.00     0.010 A 
ATOM     40  C   UNL     1       3.999   7.270  -2.783  1.00  0.00    -0.014 A 
BRANCH  40  41
ATOM     41  C   UNL     1       4.355   8.660  -3.017  1.00  0.00     0.031 A 
ATOM     42  C   UNL     1       3.786   9.678  -2.114  1.00  0.00     0.074 A 
ATOM     43  C   UNL     1       5.156   8.999  -4.048  1.00  0.00     0.049 A 
ATOM     44  N   UNL     1       3.069  10.707  -2.430  1.00  0.00    -0.248 NA
ATOM     45  C   UNL     1       4.035   9.520  -0.677  1.00  0.00     0.031 C 
ATOM     46  C   UNL     1       5.982   8.111  -4.873  1.00  0.00     0.029 A 
ATOM     47  N   UNL     1       5.465  10.242  -4.516  1.00  0.00    -0.354 N 
ATOM     48  C   UNL     1       2.906  11.425  -1.252  1.00  0.00     0.074 A 
ATOM     49  C   UNL     1       3.451  10.614  -0.190  1.00  0.00     0.031 C 
ATOM     50  C   UNL     1       6.846   8.856  -5.595  1.00  0.00     0.029 A 
ATOM     51  C   UNL     1       6.551  10.262  -5.374  1.00  0.00     0.049 A 
ATOM     52  H   UNL     1       4.963  11.051  -4.267  1.00  0.00     0.167 HD
ATOM     53  C   UNL     1       2.509  12.724  -1.252  1.00  0.00     0.037 A 
ATOM     54  C   UNL     1       7.216  11.354  -5.815  1.00  0.00     0.037 A 
ATOM     55  C   UNL     1       1.791  13.084  -2.442  1.00  0.00     0.049 A 
ATOM     56  C   UNL     1       6.333  12.532  -5.655  1.00  0.00     0.074 A 
ATOM     57  C   UNL     1       0.635  12.629  -3.048  1.00  0.00     0.029 A 
ATOM     58  N   UNL     1       2.392  13.895  -3.369  1.00  0.00    -0.354 N 
ATOM     59  N   UNL     1       5.282  12.780  -6.385  1.00  0.00    -0.248 NA
ATOM     60  C   UNL     1       6.432  13.302  -4.424  1.00  0.00     0.031 C 
ATOM     61  C   UNL     1       0.835  12.821  -4.446  1.00  0.00     0.029 A 
ATOM     62  C   UNL     1       2.104  13.373  -4.605  1.00  0.00     0.049 A 
ATOM     63  H   UNL     1       2.929  14.699  -3.183  1.00  0.00     0.167 HD
ATOM     64  C   UNL     1       4.402  13.421  -5.528  1.00  0.00     0.074 A 
ATOM     65  C   UNL     1       5.208  13.832  -4.388  1.00  0.00     0.031 C 
ATOM     66  C   UNL     1       3.052  13.310  -5.692  1.00  0.00     0.037 A 
BRANCH  53  67
ATOM     67  C   UNL     1       3.035  13.731  -0.270  1.00  0.00     0.064 A 
ATOM     68  C   UNL     1       2.384  14.966  -0.106  1.00  0.00     0.173 A 
ATOM     69  C   UNL     1       4.313  13.624   0.322  1.00  0.00     0.173 A 
ATOM     70  F   UNL     1       1.190  15.188  -0.676  1.00  0.00    -0.203 F 
ATOM     71  C   UNL     1       2.983  16.026   0.579  1.00  0.00     0.198 A 
ATOM     72  C   UNL     1       4.885  14.664   1.050  1.00  0.00     0.198 A 
ATOM     73  F   UNL     1       5.090  12.549   0.128  1.00  0.00    -0.203 F 
ATOM     74  F   UNL     1       2.373  17.218   0.625  1.00  0.00    -0.200 F 
ATOM     75  C   UNL     1       4.230  15.873   1.160  1.00  0.00     0.200 A 
ATOM     76  F   UNL     1       6.105  14.505   1.583  1.00  0.00    -0.200 F 
ATOM     77  F   UNL     1       4.823  16.902   1.780  1.00  0.00    -0.200 F 
ENDBRANCH  53  67
BRANCH  54  78
ATOM     78  C   UNL     1       8.654  11.466  -6.141  1.00  0.00     0.064 A 
ATOM     79  C   UNL     1       9.144  12.529  -6.915  1.00  0.00     0.173 A 
ATOM     80  C   UNL     1       9.617  10.665  -5.495  1.00  0.00     0.173 A 
ATOM     81  F   UNL     1       8.295  13.373  -7.518  1.00  0.00    -0.203 F 
ATOM     82  C   UNL     1      10.515  12.777  -7.030  1.00  0.00     0.198 A 
ATOM     83  C   UNL     1      10.984  10.902  -5.624  1.00  0.00     0.198 A 
ATOM     84  F   UNL     1       9.250   9.689  -4.651  1.00  0.00    -0.203 F 
ATOM     85  F   UNL     1      10.945  13.837  -7.729  1.00  0.00    -0.200 F 
ATOM     86  C   UNL     1      11.433  11.966  -6.383  1.00  0.00     0.200 A 
ATOM     87  F   UNL     1      11.858  10.130  -4.964  1.00  0.00    -0.200 F 
ATOM     88  F   UNL     1      12.744  12.232  -6.455  1.00  0.00    -0.200 F 
ENDBRANCH  54  78
BRANCH  66  89
ATOM     89  C   UNL     1       2.553  12.783  -7.005  1.00  0.00     0.064 A 
ATOM     90  C   UNL     1       2.804  11.477  -7.459  1.00  0.00     0.173 A 
ATOM     91  C   UNL     1       1.694  13.584  -7.770  1.00  0.00     0.173 A 
ATOM     92  F   UNL     1       3.529  10.622  -6.725  1.00  0.00    -0.203 F 
ATOM     93  C   UNL     1       2.262  11.016  -8.657  1.00  0.00     0.198 A 
ATOM     94  C   UNL     1       1.126  13.108  -8.949  1.00  0.00     0.198 A 
ATOM     95  F   UNL     1       1.371  14.817  -7.351  1.00  0.00    -0.203 F 
ATOM     96  F   UNL     1       2.529   9.772  -9.080  1.00  0.00    -0.200 F 
ATOM     97  C   UNL     1       1.421  11.830  -9.398  1.00  0.00     0.200 A 
ATOM     98  F   UNL     1       0.274  13.879  -9.639  1.00  0.00    -0.200 F 
ATOM     99  F   UNL     1       0.872  11.374 -10.533  1.00  0.00    -0.200 F 
ENDBRANCH  66  89
ENDBRANCH  40  41
ENDBRANCH  33  35
ENDBRANCH  32  33
ENDBRANCH  31  32
ENDBRANCH  30  31
ENDBRANCH  29  30
ENDBRANCH  28  29
ENDBRANCH   1  28
TORSDOF 21
