REMARK SMILES CCC[NH2+][C@@]1(C(=O)OCCOCCOCCOC(=O)c2ccc(-c3c4nc(c(-c5c(F)c(F)c(F)c(F)c5F)c5ccc([nH]5)c(-c5c(F)c(F)c(F)c(F)c5F)c5nc(c(-c6c(F)c(F)c(F)c(F)c6F)c6ccc3[nH]6)C=C5)C=C4)cc2)CC[C@H]([N@H+](C)CCC)C1
REMARK SMILES IDX 12 1 11 2 10 3 9 4 8 5 6 6 7 7 5 8 83 9 91 10 84 11 85 12
REMARK SMILES IDX 4 13 3 16 2 17 1 18 86 19 87 20 88 22 89 23 90 24 13 25
REMARK SMILES IDX 14 26 15 27 16 28 17 29 18 30 19 31 20 32 21 33 82 34 22 35
REMARK SMILES IDX 81 36 23 37 24 38 25 39 75 40 26 41 80 42 74 43 76 44 27 45
REMARK SMILES IDX 79 46 73 47 72 48 28 50 60 51 40 52 59 53 41 54 44 55 58 56
REMARK SMILES IDX 77 57 42 58 43 59 57 61 78 62 45 63 29 64 30 65 38 66 31 67
REMARK SMILES IDX 32 68 36 69 39 70 33 71 34 72 37 73 35 74 61 75 62 76 70 77
REMARK SMILES IDX 63 78 64 79 68 80 71 81 65 82 66 83 69 84 67 85 46 86 47 87
REMARK SMILES IDX 55 88 48 89 49 90 53 91 56 92 50 93 51 94 54 95 52 96
REMARK H PARENT 4 14 4 15 86 21 76 49 44 60
REMARK Flexibility Score: inf
ROOT
ATOM      1  C   UNL     1      -2.387   0.292   4.986  1.00  0.00     0.188 C 
ENDROOT
BRANCH   1   2
ATOM      2  O   UNL     1      -2.726  -0.378   6.194  1.00  0.00    -0.376 OA
BRANCH   2   3
ATOM      3  C   UNL     1      -1.834  -0.166   7.296  1.00  0.00     0.202 C 
BRANCH   3   4
ATOM      4  C   UNL     1      -0.430  -0.752   7.106  1.00  0.00     0.261 C 
BRANCH   4   5
ATOM      5  O   UNL     1       0.338   0.100   6.236  1.00  0.00    -0.459 OA
BRANCH   5   6
ATOM      6  C   UNL     1       1.026  -0.490   5.223  1.00  0.00     0.368 C 
ATOM      7  O   UNL     1       1.179  -1.703   5.123  1.00  0.00    -0.245 OA
BRANCH   6   8
ATOM      8  C   UNL     1       1.620   0.560   4.220  1.00  0.00     0.200 C 
ATOM      9  C   UNL     1       3.145   0.505   4.338  1.00  0.00     0.087 C 
ATOM     10  C   UNL     1       1.343   2.029   4.606  1.00  0.00     0.146 C 
ATOM     11  C   UNL     1       3.396   1.234   5.667  1.00  0.00     0.072 C 
ATOM     12  C   UNL     1       2.406   2.430   5.662  1.00  0.00     0.191 C 
BRANCH   8  13
ATOM     13  N   UNL     1       1.037   0.387   2.862  1.00  0.00    -0.332 N 
ATOM     14  H   UNL     1       0.023   0.465   2.949  1.00  0.00     0.347 HD
ATOM     15  H   UNL     1       1.470   1.111   2.289  1.00  0.00     0.347 HD
BRANCH  13  16
ATOM     16  C   UNL     1       1.329  -0.871   2.181  1.00  0.00     0.261 C 
BRANCH  16  17
ATOM     17  C   UNL     1       0.582  -0.937   0.839  1.00  0.00     0.058 C 
ATOM     18  C   UNL     1       1.002   0.127  -0.166  1.00  0.00     0.010 C 
ENDBRANCH  16  17
ENDBRANCH  13  16
ENDBRANCH   8  13
BRANCH  12  19
ATOM     19  N   UNL     1       1.970   3.039   6.944  1.00  0.00    -0.335 N 
ATOM     20  C   UNL     1       2.461   2.368   8.140  1.00  0.00     0.332 C 
ATOM     21  H   UNL     1       2.446   3.941   6.946  1.00  0.00     0.348 HD
BRANCH  19  22
ATOM     22  C   UNL     1       0.531   3.353   7.005  1.00  0.00     0.261 C 
BRANCH  22  23
ATOM     23  C   UNL     1      -0.028   4.054   8.250  1.00  0.00     0.058 C 
ATOM     24  C   UNL     1       0.448   5.484   8.414  1.00  0.00     0.010 C 
ENDBRANCH  22  23
ENDBRANCH  19  22
ENDBRANCH  12  19
ENDBRANCH   6   8
ENDBRANCH   5   6
ENDBRANCH   4   5
ENDBRANCH   3   4
ENDBRANCH   2   3
ENDBRANCH   1   2
BRANCH   1  25
ATOM     25  C   UNL     1      -2.786   1.763   4.912  1.00  0.00     0.188 C 
BRANCH  25  26
ATOM     26  O   UNL     1      -2.559   2.521   6.098  1.00  0.00    -0.376 OA
BRANCH  26  27
ATOM     27  C   UNL     1      -3.768   2.889   6.773  1.00  0.00     0.202 C 
BRANCH  27  28
ATOM     28  C   UNL     1      -4.316   4.239   6.290  1.00  0.00     0.261 C 
BRANCH  28  29
ATOM     29  O   UNL     1      -4.678   4.159   4.902  1.00  0.00    -0.460 OA
BRANCH  29  30
ATOM     30  C   UNL     1      -3.753   4.635   4.026  1.00  0.00     0.338 C 
ATOM     31  O   UNL     1      -2.795   5.335   4.276  1.00  0.00    -0.246 OA
BRANCH  30  32
ATOM     32  C   UNL     1      -3.974   3.980   2.710  1.00  0.00     0.060 A 
ATOM     33  C   UNL     1      -2.852   3.708   1.912  1.00  0.00     0.016 A 
ATOM     34  C   UNL     1      -5.242   3.561   2.299  1.00  0.00     0.016 A 
ATOM     35  C   UNL     1      -2.997   3.043   0.693  1.00  0.00     0.010 A 
ATOM     36  C   UNL     1      -5.389   2.902   1.079  1.00  0.00     0.010 A 
ATOM     37  C   UNL     1      -4.273   2.669   0.257  1.00  0.00    -0.014 A 
BRANCH  37  38
ATOM     38  C   UNL     1      -4.502   2.249  -1.144  1.00  0.00     0.031 A 
ATOM     39  C   UNL     1      -4.997   3.293  -2.106  1.00  0.00     0.074 A 
ATOM     40  C   UNL     1      -4.326   0.979  -1.545  1.00  0.00     0.049 A 
ATOM     41  N   UNL     1      -5.433   3.162  -3.331  1.00  0.00    -0.248 NA
ATOM     42  C   UNL     1      -5.016   4.677  -1.603  1.00  0.00     0.031 C 
ATOM     43  C   UNL     1      -3.811  -0.110  -0.719  1.00  0.00     0.029 A 
ATOM     44  N   UNL     1      -4.593   0.389  -2.756  1.00  0.00    -0.354 N 
ATOM     45  C   UNL     1      -5.791   4.440  -3.737  1.00  0.00     0.074 A 
ATOM     46  C   UNL     1      -5.553   5.328  -2.621  1.00  0.00     0.031 C 
ATOM     47  C   UNL     1      -3.824  -1.246  -1.440  1.00  0.00     0.029 A 
ATOM     48  C   UNL     1      -4.385  -0.969  -2.762  1.00  0.00     0.049 A 
ATOM     49  H   UNL     1      -4.904   0.890  -3.543  1.00  0.00     0.167 HD
ATOM     50  C   UNL     1      -6.269   4.839  -4.938  1.00  0.00     0.037 A 
ATOM     51  C   UNL     1      -4.652  -1.880  -3.719  1.00  0.00     0.037 A 
ATOM     52  C   UNL     1      -6.508   3.951  -6.042  1.00  0.00     0.049 A 
ATOM     53  C   UNL     1      -5.264  -1.424  -5.022  1.00  0.00     0.074 A 
ATOM     54  C   UNL     1      -6.984   4.252  -7.305  1.00  0.00     0.029 A 
ATOM     55  N   UNL     1      -6.291   2.582  -6.008  1.00  0.00    -0.354 N 
ATOM     56  N   UNL     1      -5.586  -0.213  -5.411  1.00  0.00    -0.248 NA
ATOM     57  C   UNL     1      -5.553  -2.465  -6.021  1.00  0.00     0.031 C 
ATOM     58  C   UNL     1      -7.100   3.057  -8.021  1.00  0.00     0.029 A 
ATOM     59  C   UNL     1      -6.644   2.019  -7.223  1.00  0.00     0.049 A 
ATOM     60  H   UNL     1      -5.939   2.084  -5.235  1.00  0.00     0.167 HD
ATOM     61  C   UNL     1      -6.077  -0.341  -6.704  1.00  0.00     0.074 A 
ATOM     62  C   UNL     1      -6.008  -1.748  -7.039  1.00  0.00     0.031 C 
ATOM     63  C   UNL     1      -6.543   0.618  -7.542  1.00  0.00     0.037 A 
BRANCH  50  64
ATOM     64  C   UNL     1      -6.588   6.295  -5.103  1.00  0.00     0.064 A 
ATOM     65  C   UNL     1      -5.577   7.267  -5.163  1.00  0.00     0.173 A 
ATOM     66  C   UNL     1      -7.918   6.723  -5.215  1.00  0.00     0.173 A 
ATOM     67  F   UNL     1      -4.290   6.912  -5.039  1.00  0.00    -0.203 F 
ATOM     68  C   UNL     1      -5.890   8.617  -5.301  1.00  0.00     0.198 A 
ATOM     69  C   UNL     1      -8.226   8.070  -5.385  1.00  0.00     0.198 A 
ATOM     70  F   UNL     1      -8.922   5.835  -5.163  1.00  0.00    -0.203 F 
ATOM     71  F   UNL     1      -4.911   9.533  -5.302  1.00  0.00    -0.200 F 
ATOM     72  C   UNL     1      -7.212   9.017  -5.420  1.00  0.00     0.200 A 
ATOM     73  F   UNL     1      -9.504   8.454  -5.509  1.00  0.00    -0.200 F 
ATOM     74  F   UNL     1      -7.511  10.316  -5.558  1.00  0.00    -0.200 F 
ENDBRANCH  50  64
BRANCH  51  75
ATOM     75  C   UNL     1      -4.366  -3.320  -3.485  1.00  0.00     0.064 A 
ATOM     76  C   UNL     1      -3.371  -3.986  -4.214  1.00  0.00     0.173 A 
ATOM     77  C   UNL     1      -5.104  -4.071  -2.557  1.00  0.00     0.173 A 
ATOM     78  F   UNL     1      -2.658  -3.319  -5.134  1.00  0.00    -0.203 F 
ATOM     79  C   UNL     1      -3.139  -5.349  -4.041  1.00  0.00     0.198 A 
ATOM     80  C   UNL     1      -4.853  -5.428  -2.365  1.00  0.00     0.198 A 
ATOM     81  F   UNL     1      -6.074  -3.486  -1.839  1.00  0.00    -0.203 F 
ATOM     82  F   UNL     1      -2.219  -5.970  -4.791  1.00  0.00    -0.200 F 
ATOM     83  C   UNL     1      -3.877  -6.068  -3.113  1.00  0.00     0.200 A 
ATOM     84  F   UNL     1      -5.563  -6.118  -1.462  1.00  0.00    -0.200 F 
ATOM     85  F   UNL     1      -3.656  -7.380  -2.950  1.00  0.00    -0.200 F 
ENDBRANCH  51  75
BRANCH  63  86
ATOM     86  C   UNL     1      -6.961   0.197  -8.921  1.00  0.00     0.064 A 
ATOM     87  C   UNL     1      -8.147  -0.515  -9.148  1.00  0.00     0.173 A 
ATOM     88  C   UNL     1      -6.197   0.576 -10.036  1.00  0.00     0.173 A 
ATOM     89  F   UNL     1      -8.906  -0.911  -8.115  1.00  0.00    -0.203 F 
ATOM     90  C   UNL     1      -8.544  -0.847 -10.441  1.00  0.00     0.198 A 
ATOM     91  C   UNL     1      -6.612   0.269 -11.328  1.00  0.00     0.198 A 
ATOM     92  F   UNL     1      -5.059   1.268  -9.872  1.00  0.00    -0.203 F 
ATOM     93  F   UNL     1      -9.662  -1.560 -10.634  1.00  0.00    -0.200 F 
ATOM     94  C   UNL     1      -7.783  -0.447 -11.529  1.00  0.00     0.200 A 
ATOM     95  F   UNL     1      -5.884   0.671 -12.378  1.00  0.00    -0.200 F 
ATOM     96  F   UNL     1      -8.175  -0.754 -12.773  1.00  0.00    -0.200 F 
ENDBRANCH  63  86
ENDBRANCH  37  38
ENDBRANCH  30  32
ENDBRANCH  29  30
ENDBRANCH  28  29
ENDBRANCH  27  28
ENDBRANCH  26  27
ENDBRANCH  25  26
ENDBRANCH   1  25
TORSDOF 23
