REMARK SMILES Cc1cc2c(c(C)c1Br)C=C(C(=O)OCCOCCOCCOC(=O)c1ccc(-c3c4nc(c(-c5c(F)c(F)c(F)c(F)c5F)c5ccc([nH]5)c(-c5c(F)c(F)c(F)c(F)c5F)c5nc(c(-c6c(F)c(F)c(F)c(F)c6F)c6ccc3[nH]6)C=C5)C=C4)cc1)[C@@H](C(F)(F)F)O2
REMARK SMILES IDX 19 1 18 2 17 3 16 4 15 5 14 6 12 7 13 8 11 9 1 10 2 11 3 12
REMARK SMILES IDX 8 13 4 14 6 15 9 16 5 17 94 18 7 19 10 20 89 21 90 22 91 23
REMARK SMILES IDX 92 24 93 25 20 26 21 27 22 28 23 29 24 30 25 31 26 32 27 33
REMARK SMILES IDX 88 34 28 35 87 36 29 37 30 38 31 39 81 40 32 41 86 42 80 43
REMARK SMILES IDX 82 44 33 45 85 46 79 47 78 48 34 50 66 51 46 52 65 53 47 54
REMARK SMILES IDX 50 55 64 56 83 57 48 58 49 59 63 61 84 62 51 63 35 64 36 65
REMARK SMILES IDX 44 66 37 67 38 68 42 69 45 70 39 71 40 72 43 73 41 74 67 75
REMARK SMILES IDX 68 76 76 77 69 78 70 79 74 80 77 81 71 82 72 83 75 84 73 85
REMARK SMILES IDX 52 86 53 87 61 88 54 89 55 90 59 91 62 92 56 93 57 94 60 95
REMARK SMILES IDX 58 96
REMARK H PARENT 82 49 50 60
REMARK Flexibility Score: inf
ROOT
ATOM      1  C   UNL     1      -3.562   1.801  -6.966  1.00  0.00     0.188 C 
ENDROOT
BRANCH   1   2
ATOM      2  C   UNL     1      -2.822   2.947  -7.687  1.00  0.00     0.188 C 
BRANCH   2   3
ATOM      3  O   UNL     1      -2.982   3.112  -9.076  1.00  0.00    -0.376 OA
BRANCH   3   4
ATOM      4  C   UNL     1      -2.463   2.168  -9.995  1.00  0.00     0.202 C 
BRANCH   4   5
ATOM      5  C   UNL     1      -1.331   1.172  -9.688  1.00  0.00     0.261 C 
BRANCH   5   6
ATOM      6  O   UNL     1      -1.215   0.722  -8.335  1.00  0.00    -0.460 OA
BRANCH   6   7
ATOM      7  C   UNL     1      -0.122   1.169  -7.670  1.00  0.00     0.338 C 
ATOM      8  O   UNL     1       0.750   1.900  -8.109  1.00  0.00    -0.246 OA
BRANCH   7   9
ATOM      9  C   UNL     1      -0.207   0.770  -6.251  1.00  0.00     0.087 C 
ATOM     10  C   UNL     1       0.804  -0.154   0.060  1.00  0.00     0.046 C 
ATOM     11  C   UNL     1       0.491   0.434  -1.291  1.00  0.00    -0.033 A 
ATOM     12  C   UNL     1       0.027  -0.427  -2.293  1.00  0.00     0.051 A 
ATOM     13  C   UNL     1       0.699   1.794  -1.603  1.00  0.00     0.024 A 
ATOM     14  C   UNL     1      -0.155   0.024  -3.598  1.00  0.00     0.128 A 
ATOM     15  C   UNL     1       0.491   2.278  -2.919  1.00  0.00    -0.026 A 
ATOM     16  Br  UNL     1       1.307   2.961  -0.213  1.00  0.00    -0.050 Br
ATOM     17  C   UNL     1       0.111   1.356  -3.931  1.00  0.00     0.021 A 
ATOM     18  O   UNL     1      -0.592  -0.925  -4.478  1.00  0.00    -0.475 OA
ATOM     19  C   UNL     1       0.667   3.737  -3.278  1.00  0.00     0.046 C 
ATOM     20  C   UNL     1       0.059   1.722  -5.346  1.00  0.00     0.027 C 
ATOM     21  C   UNL     1      -0.569  -0.643  -5.900  1.00  0.00     0.316 C 
BRANCH  21  22
ATOM     22  C   UNL     1       0.341  -1.669  -6.587  1.00  0.00     0.430 C 
ATOM     23  F   UNL     1       0.034  -2.933  -6.208  1.00  0.00    -0.167 F 
ATOM     24  F   UNL     1       0.215  -1.627  -7.934  1.00  0.00    -0.167 F 
ATOM     25  F   UNL     1       1.645  -1.462  -6.296  1.00  0.00    -0.167 F 
ENDBRANCH  21  22
ENDBRANCH   7   9
ENDBRANCH   6   7
ENDBRANCH   5   6
ENDBRANCH   4   5
ENDBRANCH   3   4
ENDBRANCH   2   3
ENDBRANCH   1   2
BRANCH   1  26
ATOM     26  O   UNL     1      -4.305   0.859  -7.708  1.00  0.00    -0.376 OA
BRANCH  26  27
ATOM     27  C   UNL     1      -5.417   1.301  -8.472  1.00  0.00     0.202 C 
BRANCH  27  28
ATOM     28  C   UNL     1      -6.345   2.450  -8.030  1.00  0.00     0.261 C 
BRANCH  28  29
ATOM     29  O   UNL     1      -5.710   3.594  -7.438  1.00  0.00    -0.460 OA
BRANCH  29  30
ATOM     30  C   UNL     1      -6.010   3.821  -6.131  1.00  0.00     0.338 C 
ATOM     31  O   UNL     1      -6.763   3.187  -5.420  1.00  0.00    -0.246 OA
BRANCH  30  32
ATOM     32  C   UNL     1      -5.097   4.862  -5.611  1.00  0.00     0.060 A 
ATOM     33  C   UNL     1      -4.100   4.482  -4.701  1.00  0.00     0.016 A 
ATOM     34  C   UNL     1      -5.228   6.194  -6.002  1.00  0.00     0.016 A 
ATOM     35  C   UNL     1      -3.215   5.432  -4.197  1.00  0.00     0.010 A 
ATOM     36  C   UNL     1      -4.362   7.154  -5.463  1.00  0.00     0.010 A 
ATOM     37  C   UNL     1      -3.360   6.779  -4.549  1.00  0.00    -0.014 A 
BRANCH  37  38
ATOM     38  C   UNL     1      -2.607   7.799  -3.779  1.00  0.00     0.031 A 
ATOM     39  C   UNL     1      -3.268   8.395  -2.568  1.00  0.00     0.074 A 
ATOM     40  C   UNL     1      -1.341   8.133  -4.088  1.00  0.00     0.049 A 
ATOM     41  N   UNL     1      -2.811   9.280  -1.720  1.00  0.00    -0.248 NA
ATOM     42  C   UNL     1      -4.628   7.917  -2.267  1.00  0.00     0.031 C 
ATOM     43  C   UNL     1      -0.565   7.578  -5.194  1.00  0.00     0.029 A 
ATOM     44  N   UNL     1      -0.481   9.020  -3.485  1.00  0.00    -0.354 N 
ATOM     45  C   UNL     1      -3.820   9.454  -0.783  1.00  0.00     0.074 A 
ATOM     46  C   UNL     1      -4.929   8.619  -1.186  1.00  0.00     0.031 C 
ATOM     47  C   UNL     1       0.659   8.138  -5.190  1.00  0.00     0.029 A 
ATOM     48  C   UNL     1       0.743   9.111  -4.100  1.00  0.00     0.049 A 
ATOM     49  H   UNL     1      -0.722   9.541  -2.685  1.00  0.00     0.167 HD
ATOM     50  C   UNL     1      -3.814  10.226   0.327  1.00  0.00     0.037 A 
ATOM     51  C   UNL     1       1.801   9.902  -3.822  1.00  0.00     0.037 A 
ATOM     52  C   UNL     1      -2.716  11.060   0.729  1.00  0.00     0.049 A 
ATOM     53  C   UNL     1       1.732  10.853  -2.650  1.00  0.00     0.074 A 
ATOM     54  C   UNL     1      -2.619  11.876   1.841  1.00  0.00     0.029 A 
ATOM     55  N   UNL     1      -1.526  11.191   0.029  1.00  0.00    -0.354 N 
ATOM     56  N   UNL     1       0.787  10.993  -1.752  1.00  0.00    -0.248 NA
ATOM     57  C   UNL     1       2.874  11.762  -2.458  1.00  0.00     0.031 C 
ATOM     58  C   UNL     1      -1.396  12.547   1.783  1.00  0.00     0.029 A 
ATOM     59  C   UNL     1      -0.707  12.108   0.664  1.00  0.00     0.049 A 
ATOM     60  H   UNL     1      -1.299  10.704  -0.797  1.00  0.00     0.167 HD
ATOM     61  C   UNL     1       1.225  11.987  -0.884  1.00  0.00     0.074 A 
ATOM     62  C   UNL     1       2.531  12.403  -1.347  1.00  0.00     0.031 C 
ATOM     63  C   UNL     1       0.596  12.511   0.196  1.00  0.00     0.037 A 
BRANCH  50  64
ATOM     64  C   UNL     1      -5.044  10.217   1.184  1.00  0.00     0.064 A 
ATOM     65  C   UNL     1      -5.381   9.104   1.968  1.00  0.00     0.173 A 
ATOM     66  C   UNL     1      -5.864  11.352   1.263  1.00  0.00     0.173 A 
ATOM     67  F   UNL     1      -4.637   7.989   1.914  1.00  0.00    -0.203 F 
ATOM     68  C   UNL     1      -6.506   9.122   2.788  1.00  0.00     0.198 A 
ATOM     69  C   UNL     1      -6.970  11.377   2.107  1.00  0.00     0.198 A 
ATOM     70  F   UNL     1      -5.582  12.442   0.534  1.00  0.00    -0.203 F 
ATOM     71  F   UNL     1      -6.832   8.034   3.499  1.00  0.00    -0.200 F 
ATOM     72  C   UNL     1      -7.293  10.262   2.865  1.00  0.00     0.200 A 
ATOM     73  F   UNL     1      -7.721  12.484   2.191  1.00  0.00    -0.200 F 
ATOM     74  F   UNL     1      -8.366  10.283   3.667  1.00  0.00    -0.200 F 
ENDBRANCH  50  64
BRANCH  51  75
ATOM     75  C   UNL     1       3.022   9.842  -4.672  1.00  0.00     0.064 A 
ATOM     76  C   UNL     1       4.239   9.373  -4.158  1.00  0.00     0.173 A 
ATOM     77  C   UNL     1       3.004  10.270  -6.008  1.00  0.00     0.173 A 
ATOM     78  F   UNL     1       4.318   8.984  -2.877  1.00  0.00    -0.203 F 
ATOM     79  C   UNL     1       5.391   9.343  -4.943  1.00  0.00     0.198 A 
ATOM     80  C   UNL     1       4.149  10.213  -6.801  1.00  0.00     0.198 A 
ATOM     81  F   UNL     1       1.870  10.741  -6.548  1.00  0.00    -0.203 F 
ATOM     82  F   UNL     1       6.550   8.932  -4.412  1.00  0.00    -0.200 F 
ATOM     83  C   UNL     1       5.343   9.755  -6.266  1.00  0.00     0.200 A 
ATOM     84  F   UNL     1       4.096  10.605  -8.081  1.00  0.00    -0.200 F 
ATOM     85  F   UNL     1       6.449   9.719  -7.022  1.00  0.00    -0.200 F 
ENDBRANCH  51  75
BRANCH  63  86
ATOM     86  C   UNL     1       1.287  13.601   0.965  1.00  0.00     0.064 A 
ATOM     87  C   UNL     1       1.384  14.902   0.451  1.00  0.00     0.173 A 
ATOM     88  C   UNL     1       1.734  13.378   2.277  1.00  0.00     0.173 A 
ATOM     89  F   UNL     1       0.980  15.164  -0.801  1.00  0.00    -0.203 F 
ATOM     90  C   UNL     1       1.898  15.940   1.223  1.00  0.00     0.198 A 
ATOM     91  C   UNL     1       2.219  14.425   3.057  1.00  0.00     0.198 A 
ATOM     92  F   UNL     1       1.652  12.155   2.821  1.00  0.00    -0.203 F 
ATOM     93  F   UNL     1       1.994  17.173   0.706  1.00  0.00    -0.200 F 
ATOM     94  C   UNL     1       2.301  15.704   2.530  1.00  0.00     0.200 A 
ATOM     95  F   UNL     1       2.587  14.199   4.326  1.00  0.00    -0.200 F 
ATOM     96  F   UNL     1       2.762  16.713   3.282  1.00  0.00    -0.200 F 
ENDBRANCH  63  86
ENDBRANCH  37  38
ENDBRANCH  30  32
ENDBRANCH  29  30
ENDBRANCH  28  29
ENDBRANCH  27  28
ENDBRANCH  26  27
ENDBRANCH   1  26
TORSDOF 18
