REMARK SMILES N#CC1=C(N)N2C(=O)[C@@H](CC(=O)OCCOCCOCCOC(=O)c3ccc(-c4c5nc(c(-c6c(F)c(F)c(F)c(F)c6F)c6ccc([nH]6)c(-c6c(F)c(F)c(F)c(F)c6F)c6nc(c(-c7c(F)c(F)c(F)c(F)c7F)c7ccc4[nH]7)C=C6)C=C5)cc3)SC2=C(C#N)[C@H]1c1ccc(Cl)cc1
REMARK SMILES IDX 17 1 16 2 15 3 14 4 13 5 11 6 12 7 10 8 9 9 3 10 4 11 93 12
REMARK SMILES IDX 6 13 90 14 7 15 89 16 8 17 88 18 2 19 1 20 5 21 94 24 95 25
REMARK SMILES IDX 100 26 96 27 99 28 97 29 98 30 91 31 92 32 18 33 19 34 20 35
REMARK SMILES IDX 21 36 22 37 23 38 24 39 25 40 26 41 87 42 27 43 86 44 28 45
REMARK SMILES IDX 29 46 30 47 80 48 31 49 85 50 79 51 81 52 32 53 84 54 78 55
REMARK SMILES IDX 77 56 33 58 65 59 45 60 64 61 46 62 49 63 63 64 82 65 47 66
REMARK SMILES IDX 48 67 62 69 83 70 50 71 34 72 35 73 43 74 36 75 37 76 41 77
REMARK SMILES IDX 44 78 38 79 39 80 42 81 40 82 66 83 67 84 75 85 68 86 69 87
REMARK SMILES IDX 73 88 76 89 70 90 71 91 74 92 72 93 51 94 52 95 60 96 53 97
REMARK SMILES IDX 54 98 58 99 61 100 55 101 56 102 59 103 57 104
REMARK H PARENT 5 22 5 23 81 57 49 68
REMARK Flexibility Score: inf
ROOT
ATOM      1  C   UNL     1       6.518  -3.169  -3.316  1.00  0.00     0.188 C 
ENDROOT
BRANCH   1   2
ATOM      2  O   UNL     1       6.672  -4.309  -4.130  1.00  0.00    -0.376 OA
BRANCH   2   3
ATOM      3  C   UNL     1       7.306  -5.433  -3.531  1.00  0.00     0.202 C 
BRANCH   3   4
ATOM      4  C   UNL     1       8.645  -5.178  -2.784  1.00  0.00     0.261 C 
BRANCH   4   5
ATOM      5  O   UNL     1       8.595  -4.343  -1.567  1.00  0.00    -0.463 OA
BRANCH   5   6
ATOM      6  C   UNL     1       9.341  -3.209  -1.546  1.00  0.00     0.307 C 
ATOM      7  O   UNL     1      10.166  -2.958  -2.426  1.00  0.00    -0.252 OA
BRANCH   6   8
ATOM      8  C   UNL     1       8.990  -2.075  -0.532  1.00  0.00     0.147 C 
BRANCH   8   9
ATOM      9  C   UNL     1       8.204  -2.021   0.815  1.00  0.00     0.154 C 
ATOM     10  C   UNL     1       3.815  -0.092   0.019  1.00  0.00     0.083 C 
ATOM     11  C   UNL     1       4.472  -1.085   0.725  1.00  0.00     0.126 C 
ATOM     12  C   UNL     1       4.533   1.020  -1.031  1.00  0.00     0.107 C 
ATOM     13  N   UNL     1       5.877  -1.170   0.716  1.00  0.00    -0.258 N 
ATOM     14  C   UNL     1       5.950   1.166   0.269  1.00  0.00     0.073 C 
ATOM     15  C   UNL     1       6.678  -2.308   0.985  1.00  0.00     0.247 C 
ATOM     16  C   UNL     1       6.524   0.029   0.719  1.00  0.00     0.099 C 
ATOM     17  O   UNL     1       6.250  -3.415   1.297  1.00  0.00    -0.273 OA
ATOM     18  S   UNL     1       8.162  -0.172   1.298  1.00  0.00    -0.093 SA
BRANCH  10  19
ATOM     19  C   UNL     1       2.295  -0.092   0.019  1.00  0.00     0.100 C 
ATOM     20  N   UNL     1       1.034  -0.092   0.019  1.00  0.00    -0.193 NA
ENDBRANCH  10  19
BRANCH  11  21
ATOM     21  N   UNL     1       3.787  -2.051   1.414  1.00  0.00    -0.384 N 
ATOM     22  H   UNL     1       2.803  -2.029   1.445  1.00  0.00     0.158 HD
ATOM     23  H   UNL     1       4.279  -2.768   1.877  1.00  0.00     0.158 HD
ENDBRANCH  11  21
BRANCH  12  24
ATOM     24  C   UNL     1       4.606   1.000  -3.224  1.00  0.00    -0.034 A 
ATOM     25  C   UNL     1       5.815   0.625  -4.179  1.00  0.00     0.006 A 
ATOM     26  C   UNL     1       3.545   1.278  -4.332  1.00  0.00     0.006 A 
ATOM     27  C   UNL     1       5.900   0.554  -5.601  1.00  0.00     0.021 A 
ATOM     28  C   UNL     1       3.641   1.197  -5.758  1.00  0.00     0.021 A 
ATOM     29  C   UNL     1       4.812   0.845  -6.380  1.00  0.00     0.041 A 
ATOM     30  Cl  UNL     1       4.920   0.788  -8.090  1.00  0.00    -0.084 Cl
ENDBRANCH  12  24
BRANCH  14  31
ATOM     31  C   UNL     1       6.700   2.452   0.574  1.00  0.00     0.098 C 
ATOM     32  N   UNL     1       7.323   3.519   0.827  1.00  0.00    -0.193 NA
ENDBRANCH  14  31
ENDBRANCH   8   9
ENDBRANCH   6   8
ENDBRANCH   5   6
ENDBRANCH   4   5
ENDBRANCH   3   4
ENDBRANCH   2   3
ENDBRANCH   1   2
BRANCH   1  33
ATOM     33  C   UNL     1       6.135  -3.391  -1.839  1.00  0.00     0.188 C 
BRANCH  33  34
ATOM     34  O   UNL     1       5.767  -4.684  -1.417  1.00  0.00    -0.376 OA
BRANCH  34  35
ATOM     35  C   UNL     1       4.386  -4.800  -1.095  1.00  0.00     0.202 C 
BRANCH  35  36
ATOM     36  C   UNL     1       3.500  -4.495  -2.313  1.00  0.00     0.261 C 
BRANCH  36  37
ATOM     37  O   UNL     1       3.814  -3.186  -2.883  1.00  0.00    -0.460 OA
BRANCH  37  38
ATOM     38  C   UNL     1       3.365  -2.158  -2.147  1.00  0.00     0.338 C 
ATOM     39  O   UNL     1       2.431  -2.303  -1.370  1.00  0.00    -0.246 OA
BRANCH  38  40
ATOM     40  C   UNL     1       4.068  -0.791  -2.250  1.00  0.00     0.060 A 
ATOM     41  C   UNL     1       5.787  -0.188  -2.025  1.00  0.00     0.016 A 
ATOM     42  C   UNL     1       2.771   0.423  -2.265  1.00  0.00     0.016 A 
ATOM     43  C   UNL     1       6.145   1.665  -2.049  1.00  0.00     0.010 A 
ATOM     44  C   UNL     1       3.080   2.175  -2.176  1.00  0.00     0.010 A 
ATOM     45  C   UNL     1       4.751   2.846  -2.169  1.00  0.00    -0.014 A 
BRANCH  45  46
ATOM     46  C   UNL     1       4.724   4.285  -2.663  1.00  0.00     0.031 A 
ATOM     47  C   UNL     1       3.581   5.235  -2.257  1.00  0.00     0.074 A 
ATOM     48  C   UNL     1       5.428   4.604  -3.773  1.00  0.00     0.049 A 
ATOM     49  N   UNL     1       3.154   6.335  -2.841  1.00  0.00    -0.248 NA
ATOM     50  C   UNL     1       2.763   4.863  -1.084  1.00  0.00     0.031 C 
ATOM     51  C   UNL     1       6.468   3.791  -4.384  1.00  0.00     0.029 A 
ATOM     52  N   UNL     1       5.311   5.660  -4.652  1.00  0.00    -0.354 N 
ATOM     53  C   UNL     1       2.046   6.767  -2.110  1.00  0.00     0.074 A 
ATOM     54  C   UNL     1       1.757   5.726  -1.152  1.00  0.00     0.031 C 
ATOM     55  C   UNL     1       6.820   4.292  -5.571  1.00  0.00     0.029 A 
ATOM     56  C   UNL     1       6.085   5.522  -5.785  1.00  0.00     0.049 A 
ATOM     57  H   UNL     1       4.731   6.439  -4.486  1.00  0.00     0.167 HD
ATOM     58  C   UNL     1       1.386   7.955  -2.158  1.00  0.00     0.037 A 
ATOM     59  C   UNL     1       6.241   6.299  -6.872  1.00  0.00     0.037 A 
ATOM     60  C   UNL     1       1.722   9.017  -3.072  1.00  0.00     0.049 A 
ATOM     61  C   UNL     1       5.564   7.632  -6.886  1.00  0.00     0.074 A 
ATOM     62  C   UNL     1       1.243  10.316  -3.115  1.00  0.00     0.029 A 
ATOM     63  N   UNL     1       2.638   8.898  -4.106  1.00  0.00    -0.354 N 
ATOM     64  N   UNL     1       4.654   8.100  -6.069  1.00  0.00    -0.248 NA
ATOM     65  C   UNL     1       5.996   8.580  -7.920  1.00  0.00     0.031 C 
ATOM     66  C   UNL     1       1.849  10.972  -4.192  1.00  0.00     0.029 A 
ATOM     67  C   UNL     1       2.739  10.097  -4.792  1.00  0.00     0.049 A 
ATOM     68  H   UNL     1       3.144   8.081  -4.321  1.00  0.00     0.167 HD
ATOM     69  C   UNL     1       4.454   9.417  -6.446  1.00  0.00     0.074 A 
ATOM     70  C   UNL     1       5.339   9.672  -7.564  1.00  0.00     0.031 C 
ATOM     71  C   UNL     1       3.623  10.337  -5.901  1.00  0.00     0.037 A 
BRANCH  58  72
ATOM     72  C   UNL     1       0.325   8.231  -1.113  1.00  0.00     0.064 A 
ATOM     73  C   UNL     1       0.660   8.304   0.252  1.00  0.00     0.173 A 
ATOM     74  C   UNL     1      -1.007   8.513  -1.461  1.00  0.00     0.173 A 
ATOM     75  F   UNL     1       1.918   8.066   0.651  1.00  0.00    -0.203 F 
ATOM     76  C   UNL     1      -0.297   8.594   1.223  1.00  0.00     0.198 A 
ATOM     77  C   UNL     1      -1.955   8.841  -0.488  1.00  0.00     0.198 A 
ATOM     78  F   UNL     1      -1.391   8.492  -2.745  1.00  0.00    -0.203 F 
ATOM     79  F   UNL     1       0.048   8.599   2.518  1.00  0.00    -0.200 F 
ATOM     80  C   UNL     1      -1.602   8.870   0.852  1.00  0.00     0.200 A 
ATOM     81  F   UNL     1      -3.212   9.135  -0.849  1.00  0.00    -0.200 F 
ATOM     82  F   UNL     1      -2.517   9.163   1.786  1.00  0.00    -0.200 F 
ENDBRANCH  58  72
BRANCH  59  83
ATOM     83  C   UNL     1       7.200   5.904  -7.940  1.00  0.00     0.064 A 
ATOM     84  C   UNL     1       8.446   6.538  -8.055  1.00  0.00     0.173 A 
ATOM     85  C   UNL     1       6.909   4.873  -8.846  1.00  0.00     0.173 A 
ATOM     86  F   UNL     1       8.776   7.521  -7.205  1.00  0.00    -0.203 F 
ATOM     87  C   UNL     1       9.341   6.196  -9.066  1.00  0.00     0.198 A 
ATOM     88  C   UNL     1       7.820   4.510  -9.838  1.00  0.00     0.198 A 
ATOM     89  F   UNL     1       5.747   4.210  -8.757  1.00  0.00    -0.203 F 
ATOM     90  F   UNL     1      10.498   6.861  -9.185  1.00  0.00    -0.200 F 
ATOM     91  C   UNL     1       9.028   5.182  -9.957  1.00  0.00     0.200 A 
ATOM     92  F   UNL     1       7.528   3.511 -10.682  1.00  0.00    -0.200 F 
ATOM     93  F   UNL     1       9.889   4.855 -10.930  1.00  0.00    -0.200 F 
ENDBRANCH  59  83
BRANCH  71  94
ATOM     94  C   UNL     1       3.670  11.716  -6.483  1.00  0.00     0.064 A 
ATOM     95  C   UNL     1       3.191  11.988  -7.772  1.00  0.00     0.173 A 
ATOM     96  C   UNL     1       4.200  12.779  -5.736  1.00  0.00     0.173 A 
ATOM     97  F   UNL     1       2.697  10.998  -8.532  1.00  0.00    -0.203 F 
ATOM     98  C   UNL     1       3.275  13.269  -8.308  1.00  0.00     0.198 A 
ATOM     99  C   UNL     1       4.246  14.066  -6.261  1.00  0.00     0.198 A 
ATOM    100  F   UNL     1       4.671  12.570  -4.498  1.00  0.00    -0.203 F 
ATOM    101  F   UNL     1       2.874  13.492  -9.567  1.00  0.00    -0.200 F 
ATOM    102  C   UNL     1       3.794  14.308  -7.550  1.00  0.00     0.200 A 
ATOM    103  F   UNL     1       4.734  15.072  -5.522  1.00  0.00    -0.200 F 
ATOM    104  F   UNL     1       3.869  15.542  -8.066  1.00  0.00    -0.200 F 
ENDBRANCH  71  94
ENDBRANCH  45  46
ENDBRANCH  38  40
ENDBRANCH  37  38
ENDBRANCH  36  37
ENDBRANCH  35  36
ENDBRANCH  34  35
ENDBRANCH  33  34
ENDBRANCH   1  33
TORSDOF 22
