REMARK SMILES Cc1nnc(SCC(=O)Nc2cccc(C(=O)OCCOCCOCCOC(=O)c3ccc(-c4c5nc(c(-c6c(F)c(F)c(F)c(F)c6F)c6ccc([nH]6)c(-c6c(F)c(F)c(F)c(F)c6F)c6nc(c(-c7c(F)c(F)c(F)c(F)c7F)c7ccc4[nH]7)C=C6)C=C5)cc3)c2)n1-c1ccccc1
REMARK SMILES IDX 21 1 20 2 19 3 18 4 16 5 17 6 15 7 11 8 12 9 93 10 13 11
REMARK SMILES IDX 14 12 10 13 8 14 9 15 7 17 6 18 5 19 1 20 2 21 3 22 94 23
REMARK SMILES IDX 4 24 95 25 96 26 100 27 97 28 99 29 98 30 22 31 23 32 24 33
REMARK SMILES IDX 25 34 26 35 27 36 28 37 29 38 30 39 31 40 92 41 32 42 91 43
REMARK SMILES IDX 33 44 34 45 35 46 85 47 36 48 90 49 84 50 86 51 37 52 89 53
REMARK SMILES IDX 83 54 82 55 38 57 70 58 50 59 69 60 51 61 54 62 68 63 87 64
REMARK SMILES IDX 52 65 53 66 67 68 88 69 55 70 39 71 40 72 48 73 41 74 42 75
REMARK SMILES IDX 46 76 49 77 43 78 44 79 47 80 45 81 71 82 72 83 80 84 73 85
REMARK SMILES IDX 74 86 78 87 81 88 75 89 76 90 79 91 77 92 56 93 57 94 65 95
REMARK SMILES IDX 58 96 59 97 63 98 66 99 60 100 61 101 64 102 62 103
REMARK H PARENT 10 16 86 56 54 67
REMARK Flexibility Score: inf
ROOT
ATOM      1  O   UNL     1      -3.522  -1.011  -8.289  1.00  0.00    -0.376 OA
ENDROOT
BRANCH   1   2
ATOM      2  C   UNL     1      -2.117  -0.891  -8.457  1.00  0.00     0.202 C 
BRANCH   2   3
ATOM      3  C   UNL     1      -1.237   0.306  -8.045  1.00  0.00     0.261 C 
BRANCH   3   4
ATOM      4  O   UNL     1      -1.838   1.279  -7.205  1.00  0.00    -0.460 OA
BRANCH   4   5
ATOM      5  C   UNL     1      -2.263   2.431  -7.769  1.00  0.00     0.338 C 
ATOM      6  O   UNL     1      -2.158   2.769  -8.937  1.00  0.00    -0.246 OA
BRANCH   5   7
ATOM      7  C   UNL     1      -3.050   3.162  -6.751  1.00  0.00     0.062 A 
ATOM      8  C   UNL     1      -3.430   3.713  -4.440  1.00  0.00     0.042 A 
ATOM      9  C   UNL     1      -4.583   4.415  -4.783  1.00  0.00     0.026 A 
ATOM     10  C   UNL     1      -2.738   3.011  -5.404  1.00  0.00     0.041 A 
ATOM     11  C   UNL     1      -4.942   4.528  -6.127  1.00  0.00     0.003 A 
ATOM     12  C   UNL     1      -4.151   3.938  -7.117  1.00  0.00     0.016 A 
BRANCH   8  13
ATOM     13  N   UNL     1      -2.944   3.820  -3.141  1.00  0.00    -0.325 N 
ATOM     14  C   UNL     1      -1.701   4.275  -2.812  1.00  0.00     0.234 C 
ATOM     15  O   UNL     1      -1.691   4.961  -1.778  1.00  0.00    -0.274 OA
ATOM     16  H   UNL     1      -3.540   3.547  -2.406  1.00  0.00     0.169 HD
BRANCH  14  17
ATOM     17  C   UNL     1      -0.470   4.239  -3.707  1.00  0.00     0.178 C 
BRANCH  17  18
ATOM     18  S   UNL     1       0.347   2.701  -4.168  1.00  0.00    -0.076 SA
BRANCH  18  19
ATOM     19  C   UNL     1       0.119   1.478  -2.967  1.00  0.00     0.196 A 
ATOM     20  C   UNL     1       1.051  -0.254   0.083  1.00  0.00     0.090 C 
ATOM     21  C   UNL     1       0.570   0.196  -1.242  1.00  0.00     0.135 A 
ATOM     22  N   UNL     1      -0.007  -0.548  -2.164  1.00  0.00    -0.134 NA
ATOM     23  N   UNL     1       0.659   1.492  -1.700  1.00  0.00    -0.274 N 
ATOM     24  N   UNL     1      -0.276   0.254  -3.250  1.00  0.00    -0.123 NA
BRANCH  23  25
ATOM     25  C   UNL     1       1.176   2.599  -1.020  1.00  0.00     0.049 A 
ATOM     26  C   UNL     1       0.271   3.482  -0.441  1.00  0.00     0.027 A 
ATOM     27  C   UNL     1       2.528   2.913  -1.141  1.00  0.00     0.027 A 
ATOM     28  C   UNL     1       0.699   4.758  -0.089  1.00  0.00     0.002 A 
ATOM     29  C   UNL     1       2.954   4.181  -0.748  1.00  0.00     0.002 A 
ATOM     30  C   UNL     1       2.034   5.114  -0.262  1.00  0.00     0.000 A 
ENDBRANCH  23  25
ENDBRANCH  18  19
ENDBRANCH  17  18
ENDBRANCH  14  17
ENDBRANCH   8  13
ENDBRANCH   5   7
ENDBRANCH   4   5
ENDBRANCH   3   4
ENDBRANCH   2   3
ENDBRANCH   1   2
BRANCH   1  31
ATOM     31  C   UNL     1      -4.277  -0.060  -7.576  1.00  0.00     0.188 C 
BRANCH  31  32
ATOM     32  C   UNL     1      -4.206  -0.052  -6.039  1.00  0.00     0.188 C 
BRANCH  32  33
ATOM     33  O   UNL     1      -3.087  -0.589  -5.376  1.00  0.00    -0.376 OA
BRANCH  33  34
ATOM     34  C   UNL     1      -2.804  -1.978  -5.348  1.00  0.00     0.202 C 
BRANCH  34  35
ATOM     35  C   UNL     1      -3.810  -3.091  -5.644  1.00  0.00     0.261 C 
BRANCH  35  36
ATOM     36  O   UNL     1      -4.945  -2.740  -6.408  1.00  0.00    -0.460 OA
BRANCH  36  37
ATOM     37  C   UNL     1      -6.033  -2.470  -5.660  1.00  0.00     0.338 C 
ATOM     38  O   UNL     1      -6.086  -2.280  -4.456  1.00  0.00    -0.246 OA
BRANCH  37  39
ATOM     39  C   UNL     1      -7.217  -2.524  -6.514  1.00  0.00     0.060 A 
ATOM     40  C   UNL     1      -8.392  -1.981  -5.992  1.00  0.00     0.016 A 
ATOM     41  C   UNL     1      -7.209  -3.400  -7.607  1.00  0.00     0.016 A 
ATOM     42  C   UNL     1      -9.585  -2.521  -6.407  1.00  0.00     0.010 A 
ATOM     43  C   UNL     1      -8.399  -3.952  -8.005  1.00  0.00     0.010 A 
ATOM     44  C   UNL     1      -9.557  -3.574  -7.330  1.00  0.00    -0.014 A 
BRANCH  44  45
ATOM     45  C   UNL     1     -10.811  -4.206  -7.670  1.00  0.00     0.031 A 
ATOM     46  C   UNL     1     -11.665  -3.326  -8.494  1.00  0.00     0.074 A 
ATOM     47  C   UNL     1     -11.097  -5.479  -7.334  1.00  0.00     0.049 A 
ATOM     48  N   UNL     1     -12.803  -2.817  -8.164  1.00  0.00    -0.248 NA
ATOM     49  C   UNL     1     -11.103  -2.791  -9.746  1.00  0.00     0.031 C 
ATOM     50  C   UNL     1     -10.217  -6.480  -6.729  1.00  0.00     0.029 A 
ATOM     51  N   UNL     1     -12.240  -6.181  -7.562  1.00  0.00    -0.354 N 
ATOM     52  C   UNL     1     -13.203  -2.066  -9.261  1.00  0.00     0.074 A 
ATOM     53  C   UNL     1     -12.048  -1.924 -10.106  1.00  0.00     0.031 C 
ATOM     54  C   UNL     1     -10.779  -7.705  -6.860  1.00  0.00     0.029 A 
ATOM     55  C   UNL     1     -12.100  -7.561  -7.448  1.00  0.00     0.049 A 
ATOM     56  H   UNL     1     -13.095  -5.748  -7.789  1.00  0.00     0.167 HD
ATOM     57  C   UNL     1     -14.525  -1.885  -9.515  1.00  0.00     0.037 A 
ATOM     58  C   UNL     1     -12.986  -8.484  -7.907  1.00  0.00     0.037 A 
ATOM     59  C   UNL     1     -15.309  -2.075  -8.319  1.00  0.00     0.049 A 
ATOM     60  C   UNL     1     -14.291  -7.786  -8.081  1.00  0.00     0.074 A 
ATOM     61  C   UNL     1     -15.297  -1.497  -7.062  1.00  0.00     0.029 A 
ATOM     62  N   UNL     1     -16.008  -3.250  -8.177  1.00  0.00    -0.354 N 
ATOM     63  N   UNL     1     -15.017  -7.357  -7.085  1.00  0.00    -0.248 NA
ATOM     64  C   UNL     1     -14.533  -7.133  -9.361  1.00  0.00     0.031 C 
ATOM     65  C   UNL     1     -15.533  -2.573  -6.157  1.00  0.00     0.029 A 
ATOM     66  C   UNL     1     -15.763  -3.721  -6.913  1.00  0.00     0.049 A 
ATOM     67  H   UNL     1     -16.579  -3.674  -8.858  1.00  0.00     0.167 HD
ATOM     68  C   UNL     1     -15.463  -6.110  -7.493  1.00  0.00     0.074 A 
ATOM     69  C   UNL     1     -15.183  -6.049  -8.927  1.00  0.00     0.031 C 
ATOM     70  C   UNL     1     -15.734  -5.125  -6.588  1.00  0.00     0.037 A 
BRANCH  57  71
ATOM     71  C   UNL     1     -15.112  -1.976 -10.903  1.00  0.00     0.064 A 
ATOM     72  C   UNL     1     -16.487  -1.724 -11.069  1.00  0.00     0.173 A 
ATOM     73  C   UNL     1     -14.472  -2.598 -12.000  1.00  0.00     0.173 A 
ATOM     74  F   UNL     1     -17.200  -1.152 -10.087  1.00  0.00    -0.203 F 
ATOM     75  C   UNL     1     -17.183  -2.153 -12.201  1.00  0.00     0.198 A 
ATOM     76  C   UNL     1     -15.159  -2.974 -13.151  1.00  0.00     0.198 A 
ATOM     77  F   UNL     1     -13.190  -2.977 -11.971  1.00  0.00    -0.203 F 
ATOM     78  F   UNL     1     -18.514  -2.018 -12.251  1.00  0.00    -0.200 F 
ATOM     79  C   UNL     1     -16.520  -2.784 -13.237  1.00  0.00     0.200 A 
ATOM     80  F   UNL     1     -14.499  -3.601 -14.134  1.00  0.00    -0.200 F 
ATOM     81  F   UNL     1     -17.195  -3.256 -14.293  1.00  0.00    -0.200 F 
ENDBRANCH  57  71
BRANCH  58  82
ATOM     82  C   UNL     1     -12.720  -9.809  -8.530  1.00  0.00     0.064 A 
ATOM     83  C   UNL     1     -13.780 -10.689  -8.824  1.00  0.00     0.173 A 
ATOM     84  C   UNL     1     -11.479 -10.124  -9.114  1.00  0.00     0.173 A 
ATOM     85  F   UNL     1     -15.009 -10.452  -8.342  1.00  0.00    -0.203 F 
ATOM     86  C   UNL     1     -13.617 -11.783  -9.684  1.00  0.00     0.198 A 
ATOM     87  C   UNL     1     -11.315 -11.221  -9.964  1.00  0.00     0.198 A 
ATOM     88  F   UNL     1     -10.416  -9.324  -8.957  1.00  0.00    -0.203 F 
ATOM     89  F   UNL     1     -14.670 -12.551  -9.997  1.00  0.00    -0.200 F 
ATOM     90  C   UNL     1     -12.387 -12.039 -10.264  1.00  0.00     0.200 A 
ATOM     91  F   UNL     1     -10.126 -11.438 -10.544  1.00  0.00    -0.200 F 
ATOM     92  F   UNL     1     -12.245 -13.043 -11.140  1.00  0.00    -0.200 F 
ENDBRANCH  58  82
BRANCH  70  93
ATOM     93  C   UNL     1     -15.785  -5.484  -5.130  1.00  0.00     0.064 A 
ATOM     94  C   UNL     1     -14.703  -6.014  -4.404  1.00  0.00     0.173 A 
ATOM     95  C   UNL     1     -16.931  -5.123  -4.408  1.00  0.00     0.173 A 
ATOM     96  F   UNL     1     -13.536  -6.288  -5.003  1.00  0.00    -0.203 F 
ATOM     97  C   UNL     1     -14.787  -6.208  -3.025  1.00  0.00     0.198 A 
ATOM     98  C   UNL     1     -16.995  -5.280  -3.027  1.00  0.00     0.198 A 
ATOM     99  F   UNL     1     -17.975  -4.565  -5.040  1.00  0.00    -0.203 F 
ATOM    100  F   UNL     1     -13.746  -6.724  -2.354  1.00  0.00    -0.200 F 
ATOM    101  C   UNL     1     -15.929  -5.832  -2.338  1.00  0.00     0.200 A 
ATOM    102  F   UNL     1     -18.082  -4.865  -2.362  1.00  0.00    -0.200 F 
ATOM    103  F   UNL     1     -15.992  -5.973  -1.006  1.00  0.00    -0.200 F 
ENDBRANCH  70  93
ENDBRANCH  44  45
ENDBRANCH  37  39
ENDBRANCH  36  37
ENDBRANCH  35  36
ENDBRANCH  34  35
ENDBRANCH  33  34
ENDBRANCH  32  33
ENDBRANCH  31  32
ENDBRANCH   1  31
TORSDOF 22
