REMARK SMILES O=C(OCCOCCOCCOC(=O)c1ccccc1Nc1cccc(S(F)(F)(F)(F)F)c1)c1ccc(-c2c3nc(c(-c4c(F)c(F)c(F)c(F)c4F)c4ccc([nH]4)c(-c4c(F)c(F)c(F)c(F)c4F)c4nc(c(-c5c(F)c(F)c(F)c(F)c5F)c5ccc2[nH]5)C=C4)C=C3)cc1
REMARK SMILES IDX 8 1 7 2 6 3 5 4 4 5 3 6 2 7 1 8 34 9 35 10 96 11 36 12 95 13
REMARK SMILES IDX 37 14 38 15 39 16 89 17 40 18 94 19 88 20 90 21 41 22 93 23
REMARK SMILES IDX 87 24 86 25 42 27 74 28 54 29 73 30 55 31 58 32 72 33 91 34
REMARK SMILES IDX 56 35 57 36 71 38 92 39 59 40 43 41 44 42 52 43 45 44 46 45
REMARK SMILES IDX 50 46 53 47 47 48 48 49 51 50 49 51 75 52 76 53 84 54 77 55
REMARK SMILES IDX 78 56 82 57 85 58 79 59 80 60 83 61 81 62 60 63 61 64 69 65
REMARK SMILES IDX 62 66 63 67 67 68 70 69 64 70 65 71 68 72 66 73 9 74 10 75
REMARK SMILES IDX 11 76 12 77 13 78 14 79 15 80 16 81 20 82 17 83 19 84 18 85
REMARK SMILES IDX 21 86 22 88 23 89 33 90 24 91 26 92 25 93 27 94 28 95 29 96
REMARK SMILES IDX 30 97 31 98 32 99
REMARK H PARENT 90 26 58 37 21 87
REMARK Flexibility Score: inf
ROOT
ATOM      1  C   UNL     1       2.600   1.016   2.249  1.00  0.00     0.188 C 
ENDROOT
BRANCH   1   2
ATOM      2  C   UNL     1       3.107  -0.194   1.482  1.00  0.00     0.188 C 
BRANCH   2   3
ATOM      3  O   UNL     1       4.527  -0.194   1.482  1.00  0.00    -0.376 OA
BRANCH   3   4
ATOM      4  C   UNL     1       5.000   0.992   0.861  1.00  0.00     0.202 C 
BRANCH   4   5
ATOM      5  C   UNL     1       4.493   1.052  -0.571  1.00  0.00     0.261 C 
BRANCH   5   6
ATOM      6  O   UNL     1       3.073   1.052  -0.571  1.00  0.00    -0.460 OA
BRANCH   6   7
ATOM      7  C   UNL     1       2.363  -0.038  -0.001  1.00  0.00     0.338 C 
ATOM      8  O   UNL     1       1.093  -0.038  -0.001  1.00  0.00    -0.246 OA
BRANCH   7   9
ATOM      9  C   UNL     1       3.123  -1.204   0.610  1.00  0.00     0.060 A 
ATOM     10  C   UNL     1       4.245  -0.893   1.361  1.00  0.00     0.016 A 
ATOM     11  C   UNL     1       2.783  -2.465   0.370  1.00  0.00     0.016 A 
ATOM     12  C   UNL     1       5.113  -1.990   1.576  1.00  0.00     0.010 A 
ATOM     13  C   UNL     1       3.618  -3.495   0.729  1.00  0.00     0.010 A 
ATOM     14  C   UNL     1       4.772  -3.256   1.422  1.00  0.00    -0.014 A 
BRANCH  14  15
ATOM     15  C   UNL     1       5.618  -4.387   1.984  1.00  0.00     0.031 A 
ATOM     16  C   UNL     1       6.168  -5.358   1.146  1.00  0.00     0.074 A 
ATOM     17  C   UNL     1       5.832  -4.333   3.350  1.00  0.00     0.049 A 
ATOM     18  N   UNL     1       6.994  -6.351   1.483  1.00  0.00    -0.248 NA
ATOM     19  C   UNL     1       5.915  -5.439  -0.301  1.00  0.00     0.031 C 
ATOM     20  C   UNL     1       5.287  -3.351   4.201  1.00  0.00     0.029 A 
ATOM     21  N   UNL     1       6.586  -5.188   4.123  1.00  0.00    -0.354 N 
ATOM     22  C   UNL     1       7.322  -7.064   0.403  1.00  0.00     0.074 A 
ATOM     23  C   UNL     1       6.628  -6.492  -0.758  1.00  0.00     0.031 C 
ATOM     24  C   UNL     1       5.697  -3.618   5.469  1.00  0.00     0.029 A 
ATOM     25  C   UNL     1       6.506  -4.769   5.432  1.00  0.00     0.049 A 
ATOM     26  H   UNL     1       7.095  -5.965   3.795  1.00  0.00     0.167 HD
ATOM     27  C   UNL     1       8.174  -8.168   0.342  1.00  0.00     0.037 A 
ATOM     28  C   UNL     1       7.095  -5.347   6.546  1.00  0.00     0.037 A 
ATOM     29  C   UNL     1       8.798  -8.720   1.449  1.00  0.00     0.049 A 
ATOM     30  C   UNL     1       7.901  -6.487   6.493  1.00  0.00     0.074 A 
ATOM     31  C   UNL     1       9.666  -9.828   1.404  1.00  0.00     0.029 A 
ATOM     32  N   UNL     1       8.698  -8.316   2.763  1.00  0.00    -0.354 N 
ATOM     33  N   UNL     1       8.260  -7.176   5.408  1.00  0.00    -0.248 NA
ATOM     34  C   UNL     1       8.504  -7.127   7.669  1.00  0.00     0.031 C 
ATOM     35  C   UNL     1      10.076 -10.094   2.673  1.00  0.00     0.029 A 
ATOM     36  C   UNL     1       9.470  -9.158   3.532  1.00  0.00     0.049 A 
ATOM     37  H   UNL     1       8.166  -7.556   3.094  1.00  0.00     0.167 HD
ATOM     38  C   UNL     1       9.053  -8.193   5.752  1.00  0.00     0.074 A 
ATOM     39  C   UNL     1       9.215  -8.181   7.212  1.00  0.00     0.031 C 
ATOM     40  C   UNL     1       9.650  -9.129   4.906  1.00  0.00     0.037 A 
BRANCH  27  41
ATOM     41  C   UNL     1       8.431  -8.801  -1.016  1.00  0.00     0.064 A 
ATOM     42  C   UNL     1       9.110  -8.029  -1.945  1.00  0.00     0.173 A 
ATOM     43  C   UNL     1       8.126 -10.069  -1.265  1.00  0.00     0.173 A 
ATOM     44  F   UNL     1       9.655  -6.852  -1.652  1.00  0.00    -0.203 F 
ATOM     45  C   UNL     1       9.170  -8.607  -3.236  1.00  0.00     0.198 A 
ATOM     46  C   UNL     1       8.337 -10.607  -2.511  1.00  0.00     0.198 A 
ATOM     47  F   UNL     1       7.611 -10.824  -0.299  1.00  0.00    -0.203 F 
ATOM     48  F   UNL     1       9.469  -7.810  -4.257  1.00  0.00    -0.200 F 
ATOM     49  C   UNL     1       8.949  -9.883  -3.496  1.00  0.00     0.200 A 
ATOM     50  F   UNL     1       7.941 -11.852  -2.763  1.00  0.00    -0.200 F 
ATOM     51  F   UNL     1       9.303 -10.433  -4.654  1.00  0.00    -0.200 F 
ENDBRANCH  27  41
BRANCH  28  52
ATOM     52  C   UNL     1       6.851  -4.704   7.901  1.00  0.00     0.064 A 
ATOM     53  C   UNL     1       7.923  -4.347   8.701  1.00  0.00     0.173 A 
ATOM     54  C   UNL     1       5.601  -4.611   8.342  1.00  0.00     0.173 A 
ATOM     55  F   UNL     1       9.156  -4.182   8.231  1.00  0.00    -0.203 F 
ATOM     56  C   UNL     1       7.588  -4.173  10.065  1.00  0.00     0.198 A 
ATOM     57  C   UNL     1       5.345  -4.304   9.656  1.00  0.00     0.198 A 
ATOM     58  F   UNL     1       4.590  -4.817   7.503  1.00  0.00    -0.203 F 
ATOM     59  F   UNL     1       8.579  -4.188  10.952  1.00  0.00    -0.200 F 
ATOM     60  C   UNL     1       6.360  -3.998  10.518  1.00  0.00     0.200 A 
ATOM     61  F   UNL     1       4.089  -4.305  10.096  1.00  0.00    -0.200 F 
ATOM     62  F   UNL     1       6.125  -3.547  11.747  1.00  0.00    -0.200 F 
ENDBRANCH  28  52
BRANCH  40  63
ATOM     63  C   UNL     1      10.552 -10.182   5.530  1.00  0.00     0.064 A 
ATOM     64  C   UNL     1       9.999 -10.977   6.519  1.00  0.00     0.173 A 
ATOM     65  C   UNL     1      11.832 -10.292   5.192  1.00  0.00     0.173 A 
ATOM     66  F   UNL     1       8.688 -11.084   6.716  1.00  0.00    -0.203 F 
ATOM     67  C   UNL     1      10.955 -11.667   7.302  1.00  0.00     0.198 A 
ATOM     68  C   UNL     1      12.681 -11.091   5.920  1.00  0.00     0.198 A 
ATOM     69  F   UNL     1      12.296  -9.624   4.140  1.00  0.00    -0.203 F 
ATOM     70  F   UNL     1      10.559 -12.155   8.474  1.00  0.00    -0.200 F 
ATOM     71  C   UNL     1      12.213 -11.860   6.949  1.00  0.00     0.200 A 
ATOM     72  F   UNL     1      13.976 -11.116   5.618  1.00  0.00    -0.200 F 
ATOM     73  F   UNL     1      12.984 -12.753   7.563  1.00  0.00    -0.200 F 
ENDBRANCH  40  63
ENDBRANCH  14  15
ENDBRANCH   7   9
ENDBRANCH   6   7
ENDBRANCH   5   6
ENDBRANCH   4   5
ENDBRANCH   3   4
ENDBRANCH   2   3
ENDBRANCH   1   2
BRANCH   1  74
ATOM     74  O   UNL     1       3.073   2.203   1.628  1.00  0.00    -0.376 OA
BRANCH  74  75
ATOM     75  C   UNL     1       4.493   2.203   1.628  1.00  0.00     0.202 C 
BRANCH  75  76
ATOM     76  C   UNL     1       5.000   2.143   3.060  1.00  0.00     0.261 C 
BRANCH  76  77
ATOM     77  O   UNL     1       4.527   0.957   3.681  1.00  0.00    -0.460 OA
BRANCH  77  78
ATOM     78  C   UNL     1       3.131   0.727   3.801  1.00  0.00     0.340 C 
ATOM     79  O   UNL     1       2.305   1.583   3.353  1.00  0.00    -0.246 OA
BRANCH  78  80
ATOM     80  C   UNL     1       2.624  -0.542   4.466  1.00  0.00     0.083 A 
ATOM     81  C   UNL     1       1.514  -1.216   3.984  1.00  0.00     0.018 A 
ATOM     82  C   UNL     1       3.211  -0.906   5.600  1.00  0.00     0.053 A 
ATOM     83  C   UNL     1       0.918  -2.087   4.926  1.00  0.00     0.001 A 
ATOM     84  C   UNL     1       2.643  -1.862   6.407  1.00  0.00     0.027 A 
ATOM     85  C   UNL     1       1.512  -2.526   6.020  1.00  0.00     0.002 A 
BRANCH  82  86
ATOM     86  N   UNL     1       4.481  -0.279   5.996  1.00  0.00    -0.355 N 
ATOM     87  H   UNL     1       4.892   0.406   5.421  1.00  0.00     0.167 HD
BRANCH  86  88
ATOM     88  C   UNL     1       5.137  -0.676   7.250  1.00  0.00     0.040 A 
ATOM     89  C   UNL     1       5.418   0.298   8.194  1.00  0.00     0.026 A 
ATOM     90  C   UNL     1       5.508  -1.938   7.431  1.00  0.00     0.050 A 
ATOM     91  C   UNL     1       6.358  -0.106   9.171  1.00  0.00     0.004 A 
ATOM     92  C   UNL     1       6.317  -2.285   8.486  1.00  0.00     0.109 A 
ATOM     93  C   UNL     1       6.684  -1.360   9.424  1.00  0.00     0.024 A 
BRANCH  92  94
ATOM     94  S   UNL     1       6.906  -3.990   8.636  1.00  0.00     0.310 S 
ATOM     95  F   UNL     1       6.663  -4.000  10.203  1.00  0.00    -0.094 F 
ATOM     96  F   UNL     1       8.355  -3.446   8.934  1.00  0.00    -0.094 F 
ATOM     97  F   UNL     1       7.400  -5.458   8.765  1.00  0.00    -0.094 F 
ATOM     98  F   UNL     1       5.424  -4.511   8.476  1.00  0.00    -0.094 F 
ATOM     99  F   UNL     1       6.370  -2.503   8.614  1.00  0.00    -0.094 F 
ENDBRANCH  92  94
ENDBRANCH  86  88
ENDBRANCH  82  86
ENDBRANCH  78  80
ENDBRANCH  77  78
ENDBRANCH  76  77
ENDBRANCH  75  76
ENDBRANCH  74  75
ENDBRANCH   1  74
TORSDOF 20
