REMARK SMILES CC(C)N1C[C@@H](C(=O)N2CCC(C(=O)OCCOCCOCCOC(=O)c3ccc(-c4c5nc(c(-c6c(F)c(F)c(F)c(F)c6F)c6ccc([nH]6)c(-c6c(F)c(F)c(F)c(F)c6F)c6nc(c(-c7c(F)c(F)c(F)c(F)c7F)c7ccc4[nH]7)C=C6)C=C5)cc3)CC2)CC1=O
REMARK SMILES IDX 19 1 18 2 17 3 16 4 15 5 13 6 14 7 12 8 7 9 8 10 9 11 10 12
REMARK SMILES IDX 91 13 11 14 90 15 6 16 4 17 5 18 93 19 92 20 94 21 2 22 1 23
REMARK SMILES IDX 3 24 20 25 21 26 22 27 23 28 24 29 25 30 26 31 27 32 28 33
REMARK SMILES IDX 89 34 29 35 88 36 30 37 31 38 32 39 82 40 33 41 87 42 81 43
REMARK SMILES IDX 83 44 34 45 86 46 80 47 79 48 35 50 67 51 47 52 66 53 48 54
REMARK SMILES IDX 51 55 65 56 84 57 49 58 50 59 64 61 85 62 52 63 36 64 37 65
REMARK SMILES IDX 45 66 38 67 39 68 43 69 46 70 40 71 41 72 44 73 42 74 68 75
REMARK SMILES IDX 69 76 77 77 70 78 71 79 75 80 78 81 72 82 73 83 76 84 74 85
REMARK SMILES IDX 53 86 54 87 62 88 55 89 56 90 60 91 63 92 57 93 58 94 61 95
REMARK SMILES IDX 59 96
REMARK H PARENT 83 49 51 60
REMARK Flexibility Score: inf
ROOT
ATOM      1  C   UNL     1      -8.189  -3.752   7.665  1.00  0.00     0.188 C 
ENDROOT
BRANCH   1   2
ATOM      2  O   UNL     1      -9.502  -3.301   7.971  1.00  0.00    -0.376 OA
BRANCH   2   3
ATOM      3  C   UNL     1     -10.360  -3.000   6.871  1.00  0.00     0.202 C 
BRANCH   3   4
ATOM      4  C   UNL     1      -9.901  -1.895   5.905  1.00  0.00     0.261 C 
BRANCH   4   5
ATOM      5  O   UNL     1      -8.591  -2.090   5.329  1.00  0.00    -0.463 OA
BRANCH   5   6
ATOM      6  C   UNL     1      -7.632  -1.228   5.753  1.00  0.00     0.309 C 
ATOM      7  O   UNL     1      -7.820  -0.319   6.557  1.00  0.00    -0.252 OA
BRANCH   6   8
ATOM      8  C   UNL     1      -6.241  -1.518   5.215  1.00  0.00     0.103 C 
ATOM      9  C   UNL     1      -4.226  -1.424   1.739  1.00  0.00     0.227 C 
ATOM     10  O   UNL     1      -4.915  -2.178   1.044  1.00  0.00    -0.274 OA
ATOM     11  N   UNL     1      -4.255  -1.522   3.120  1.00  0.00    -0.342 N 
ATOM     12  C   UNL     1      -4.656  -2.792   3.717  1.00  0.00     0.120 C 
ATOM     13  C   UNL     1      -4.314  -0.396   4.039  1.00  0.00     0.120 C 
ATOM     14  C   UNL     1      -6.074  -2.731   4.287  1.00  0.00     0.037 C 
ATOM     15  C   UNL     1      -5.746  -0.235   4.535  1.00  0.00     0.037 C 
BRANCH   9  16
ATOM     16  C   UNL     1      -3.173  -0.569   1.046  1.00  0.00     0.107 C 
ATOM     17  N   UNL     1      -0.958   0.146   1.350  1.00  0.00    -0.339 N 
ATOM     18  C   UNL     1      -1.790  -1.018   1.490  1.00  0.00     0.133 C 
ATOM     19  C   UNL     1      -1.688   1.295   1.101  1.00  0.00     0.223 C 
ATOM     20  C   UNL     1      -3.158   0.950   1.127  1.00  0.00     0.115 C 
ATOM     21  O   UNL     1      -1.248   2.418   0.914  1.00  0.00    -0.275 OA
BRANCH  17  22
ATOM     22  C   UNL     1       0.500   0.035   1.389  1.00  0.00     0.078 C 
ATOM     23  C   UNL     1       1.089   0.119  -0.016  1.00  0.00     0.031 C 
ATOM     24  C   UNL     1       1.142   1.053   2.330  1.00  0.00     0.031 C 
ENDBRANCH  17  22
ENDBRANCH   9  16
ENDBRANCH   6   8
ENDBRANCH   5   6
ENDBRANCH   4   5
ENDBRANCH   3   4
ENDBRANCH   2   3
ENDBRANCH   1   2
BRANCH   1  25
ATOM     25  C   UNL     1      -8.089  -4.973   6.754  1.00  0.00     0.188 C 
BRANCH  25  26
ATOM     26  O   UNL     1      -8.950  -4.989   5.633  1.00  0.00    -0.376 OA
BRANCH  26  27
ATOM     27  C   UNL     1      -9.180  -6.244   4.991  1.00  0.00     0.202 C 
BRANCH  27  28
ATOM     28  C   UNL     1      -9.467  -7.500   5.854  1.00  0.00     0.261 C 
BRANCH  28  29
ATOM     29  O   UNL     1      -8.534  -7.824   6.911  1.00  0.00    -0.460 OA
BRANCH  29  30
ATOM     30  C   UNL     1      -7.216  -7.901   6.601  1.00  0.00     0.338 C 
ATOM     31  O   UNL     1      -6.747  -7.966   5.484  1.00  0.00    -0.246 OA
BRANCH  30  32
ATOM     32  C   UNL     1      -6.410  -7.595   7.828  1.00  0.00     0.060 A 
ATOM     33  C   UNL     1      -5.285  -6.767   7.680  1.00  0.00     0.016 A 
ATOM     34  C   UNL     1      -6.767  -8.034   9.107  1.00  0.00     0.016 A 
ATOM     35  C   UNL     1      -4.498  -6.416   8.785  1.00  0.00     0.010 A 
ATOM     36  C   UNL     1      -5.964  -7.701  10.213  1.00  0.00     0.010 A 
ATOM     37  C   UNL     1      -4.803  -6.920  10.055  1.00  0.00    -0.014 A 
BRANCH  37  38
ATOM     38  C   UNL     1      -3.801  -6.821  11.158  1.00  0.00     0.031 A 
ATOM     39  C   UNL     1      -2.924  -8.019  11.429  1.00  0.00     0.074 A 
ATOM     40  C   UNL     1      -3.629  -5.705  11.892  1.00  0.00     0.049 A 
ATOM     41  N   UNL     1      -2.034  -8.213  12.369  1.00  0.00    -0.248 NA
ATOM     42  C   UNL     1      -3.078  -9.154  10.505  1.00  0.00     0.031 C 
ATOM     43  C   UNL     1      -4.353  -4.450  11.712  1.00  0.00     0.029 A 
ATOM     44  N   UNL     1      -2.787  -5.456  12.953  1.00  0.00    -0.354 N 
ATOM     45  C   UNL     1      -1.528  -9.489  12.153  1.00  0.00     0.074 A 
ATOM     46  C   UNL     1      -2.236 -10.038  11.017  1.00  0.00     0.031 C 
ATOM     47  C   UNL     1      -3.937  -3.569  12.641  1.00  0.00     0.029 A 
ATOM     48  C   UNL     1      -2.945  -4.208  13.507  1.00  0.00     0.049 A 
ATOM     49  H   UNL     1      -2.132  -6.112  13.284  1.00  0.00     0.167 HD
ATOM     50  C   UNL     1      -0.554 -10.146  12.829  1.00  0.00     0.037 A 
ATOM     51  C   UNL     1      -2.378  -3.657  14.602  1.00  0.00     0.037 A 
ATOM     52  C   UNL     1       0.151  -9.615  13.966  1.00  0.00     0.049 A 
ATOM     53  C   UNL     1      -1.374  -4.451  15.408  1.00  0.00     0.074 A 
ATOM     54  C   UNL     1       1.147 -10.211  14.719  1.00  0.00     0.029 A 
ATOM     55  N   UNL     1      -0.072  -8.364  14.520  1.00  0.00    -0.354 N 
ATOM     56  N   UNL     1      -0.894  -5.652  15.190  1.00  0.00    -0.248 NA
ATOM     57  C   UNL     1      -0.831  -3.808  16.616  1.00  0.00     0.031 C 
ATOM     58  C   UNL     1       1.487  -9.346  15.763  1.00  0.00     0.029 A 
ATOM     59  C   UNL     1       0.752  -8.181  15.620  1.00  0.00     0.049 A 
ATOM     60  H   UNL     1      -0.719  -7.703  14.182  1.00  0.00     0.167 HD
ATOM     61  C   UNL     1       0.030  -5.887  16.203  1.00  0.00     0.074 A 
ATOM     62  C   UNL     1       0.055  -4.701  17.030  1.00  0.00     0.031 C 
ATOM     63  C   UNL     1       0.790  -6.988  16.427  1.00  0.00     0.037 A 
BRANCH  50  64
ATOM     64  C   UNL     1      -0.206 -11.533  12.367  1.00  0.00     0.064 A 
ATOM     65  C   UNL     1       0.451 -11.762  11.149  1.00  0.00     0.173 A 
ATOM     66  C   UNL     1      -0.504 -12.645  13.170  1.00  0.00     0.173 A 
ATOM     67  F   UNL     1       0.746 -10.735  10.337  1.00  0.00    -0.203 F 
ATOM     68  C   UNL     1       0.772 -13.053  10.739  1.00  0.00     0.198 A 
ATOM     69  C   UNL     1      -0.151 -13.932  12.773  1.00  0.00     0.198 A 
ATOM     70  F   UNL     1      -1.127 -12.483  14.347  1.00  0.00    -0.203 F 
ATOM     71  F   UNL     1       1.352 -13.251   9.547  1.00  0.00    -0.200 F 
ATOM     72  C   UNL     1       0.478 -14.136  11.554  1.00  0.00     0.200 A 
ATOM     73  F   UNL     1      -0.421 -14.975  13.569  1.00  0.00    -0.200 F 
ATOM     74  F   UNL     1       0.795 -15.377  11.162  1.00  0.00    -0.200 F 
ENDBRANCH  50  64
BRANCH  51  75
ATOM     75  C   UNL     1      -2.755  -2.282  15.039  1.00  0.00     0.064 A 
ATOM     76  C   UNL     1      -1.817  -1.239  15.048  1.00  0.00     0.173 A 
ATOM     77  C   UNL     1      -4.042  -1.999  15.523  1.00  0.00     0.173 A 
ATOM     78  F   UNL     1      -0.562  -1.464  14.630  1.00  0.00    -0.203 F 
ATOM     79  C   UNL     1      -2.141   0.021  15.550  1.00  0.00     0.198 A 
ATOM     80  C   UNL     1      -4.375  -0.729  15.991  1.00  0.00     0.198 A 
ATOM     81  F   UNL     1      -4.976  -2.961  15.550  1.00  0.00    -0.203 F 
ATOM     82  F   UNL     1      -1.203   0.977  15.611  1.00  0.00    -0.200 F 
ATOM     83  C   UNL     1      -3.421   0.277  16.016  1.00  0.00     0.200 A 
ATOM     84  F   UNL     1      -5.616  -0.485  16.434  1.00  0.00    -0.200 F 
ATOM     85  F   UNL     1      -3.730   1.486  16.504  1.00  0.00    -0.200 F 
ENDBRANCH  51  75
BRANCH  63  86
ATOM     86  C   UNL     1       1.762  -6.949  17.575  1.00  0.00     0.064 A 
ATOM     87  C   UNL     1       1.338  -6.957  18.912  1.00  0.00     0.173 A 
ATOM     88  C   UNL     1       3.146  -6.947  17.330  1.00  0.00     0.173 A 
ATOM     89  F   UNL     1       0.029  -6.949  19.205  1.00  0.00    -0.203 F 
ATOM     90  C   UNL     1       2.258  -6.934  19.958  1.00  0.00     0.198 A 
ATOM     91  C   UNL     1       4.063  -6.959  18.378  1.00  0.00     0.198 A 
ATOM     92  F   UNL     1       3.610  -6.949  16.071  1.00  0.00    -0.203 F 
ATOM     93  F   UNL     1       1.827  -6.888  21.226  1.00  0.00    -0.200 F 
ATOM     94  C   UNL     1       3.619  -6.943  19.690  1.00  0.00     0.200 A 
ATOM     95  F   UNL     1       5.377  -6.987  18.116  1.00  0.00    -0.200 F 
ATOM     96  F   UNL     1       4.503  -6.929  20.698  1.00  0.00    -0.200 F 
ENDBRANCH  63  86
ENDBRANCH  37  38
ENDBRANCH  30  32
ENDBRANCH  29  30
ENDBRANCH  28  29
ENDBRANCH  27  28
ENDBRANCH  26  27
ENDBRANCH  25  26
ENDBRANCH   1  25
TORSDOF 19
