REMARK SMILES Cc1c(CC(=O)OCCOCCOCCOC(=O)c2ccc(-c3c4nc(c(-c5c(F)c(F)c(F)c(F)c5F)c5ccc([nH]5)c(-c5c(F)c(F)c(F)c(F)c5F)c5nc(c(-c6c(F)c(F)c(F)c(F)c6F)c6ccc3[nH]6)C=C5)C=C4)cc2)c(O)oc2cc(=O)cc(O)c1-2
REMARK SMILES IDX 11 1 10 2 9 3 8 4 7 5 5 6 6 7 4 8 3 9 1 10 2 11 92 12 82 13
REMARK SMILES IDX 85 14 90 15 84 16 86 17 89 18 87 19 88 20 83 21 91 23 12 25
REMARK SMILES IDX 13 26 14 27 15 28 16 29 17 30 18 31 19 32 20 33 81 34 21 35
REMARK SMILES IDX 80 36 22 37 23 38 24 39 74 40 25 41 79 42 73 43 75 44 26 45
REMARK SMILES IDX 78 46 72 47 71 48 27 50 59 51 39 52 58 53 40 54 43 55 57 56
REMARK SMILES IDX 76 57 41 58 42 59 56 61 77 62 44 63 28 64 29 65 37 66 30 67
REMARK SMILES IDX 31 68 35 69 38 70 32 71 33 72 36 73 34 74 60 75 61 76 69 77
REMARK SMILES IDX 62 78 63 79 67 80 70 81 64 82 65 83 68 84 66 85 45 86 46 87
REMARK SMILES IDX 54 88 47 89 48 90 52 91 55 92 49 93 50 94 53 95 51 96
REMARK H PARENT 83 22 91 24 75 49 43 60
REMARK Flexibility Score: inf
ROOT
ATOM      1  C   UNL     1      -1.595   1.251   0.985  1.00  0.00     0.188 C 
ENDROOT
BRANCH   1   2
ATOM      2  O   UNL     1      -2.915   1.776   1.016  1.00  0.00    -0.376 OA
BRANCH   2   3
ATOM      3  C   UNL     1      -3.890   1.194   0.162  1.00  0.00     0.202 C 
BRANCH   3   4
ATOM      4  C   UNL     1      -3.684   1.429  -1.337  1.00  0.00     0.261 C 
BRANCH   4   5
ATOM      5  O   UNL     1      -2.555   0.700  -1.873  1.00  0.00    -0.463 OA
BRANCH   5   6
ATOM      6  C   UNL     1      -1.666   1.414  -2.607  1.00  0.00     0.310 C 
ATOM      7  O   UNL     1      -1.756   2.622  -2.811  1.00  0.00    -0.252 OA
BRANCH   6   8
ATOM      8  C   UNL     1      -0.537   0.599  -3.250  1.00  0.00     0.166 C 
BRANCH   8   9
ATOM      9  C   UNL     1      -0.299  -0.850  -2.843  1.00  0.00     0.048 A 
ATOM     10  C   UNL     1       1.786  -0.166  -1.497  1.00  0.00     0.046 C 
ATOM     11  C   UNL     1       0.738  -1.208  -1.826  1.00  0.00    -0.026 A 
ATOM     12  C   UNL     1       0.768  -2.472  -1.305  1.00  0.00     0.063 A 
ATOM     13  C   UNL     1      -1.026  -1.852  -3.392  1.00  0.00     0.286 A 
ATOM     14  C   UNL     1      -0.003  -3.520  -1.998  1.00  0.00     0.146 A 
ATOM     15  C   UNL     1       1.555  -2.913  -0.130  1.00  0.00     0.130 A 
ATOM     16  O   UNL     1      -0.871  -3.167  -3.011  1.00  0.00    -0.425 OA
ATOM     17  C   UNL     1       0.193  -4.821  -1.747  1.00  0.00     0.100 A 
ATOM     18  C   UNL     1       1.745  -4.210   0.143  1.00  0.00     0.099 A 
ATOM     19  C   UNL     1       1.142  -5.255  -0.707  1.00  0.00     0.186 A 
ATOM     20  O   UNL     1       1.387  -6.440  -0.520  1.00  0.00    -0.290 OA
BRANCH  13  21
ATOM     21  O   UNL     1      -1.988  -1.656  -4.359  1.00  0.00    -0.480 OA
ATOM     22  H   UNL     1      -2.162  -0.793  -4.679  1.00  0.00     0.297 HD
ENDBRANCH  13  21
BRANCH  15  23
ATOM     23  O   UNL     1       1.954  -1.948   0.769  1.00  0.00    -0.507 OA
ATOM     24  H   UNL     1       2.453  -2.189   1.524  1.00  0.00     0.293 HD
ENDBRANCH  15  23
ENDBRANCH   8   9
ENDBRANCH   6   8
ENDBRANCH   5   6
ENDBRANCH   4   5
ENDBRANCH   3   4
ENDBRANCH   2   3
ENDBRANCH   1   2
BRANCH   1  25
ATOM     25  C   UNL     1      -1.395  -0.267   0.815  1.00  0.00     0.188 C 
BRANCH  25  26
ATOM     26  O   UNL     1      -2.301  -1.164   1.436  1.00  0.00    -0.376 OA
BRANCH  26  27
ATOM     27  C   UNL     1      -2.608  -0.954   2.806  1.00  0.00     0.202 C 
BRANCH  27  28
ATOM     28  C   UNL     1      -1.437  -1.153   3.768  1.00  0.00     0.261 C 
BRANCH  28  29
ATOM     29  O   UNL     1      -0.465  -0.095   3.653  1.00  0.00    -0.460 OA
BRANCH  29  30
ATOM     30  C   UNL     1       0.823  -0.494   3.562  1.00  0.00     0.338 C 
ATOM     31  O   UNL     1       1.265  -1.632   3.563  1.00  0.00    -0.246 OA
BRANCH  30  32
ATOM     32  C   UNL     1       1.697   0.670   3.347  1.00  0.00     0.060 A 
ATOM     33  C   UNL     1       1.928   1.095   2.039  1.00  0.00     0.016 A 
ATOM     34  C   UNL     1       2.452   1.185   4.398  1.00  0.00     0.016 A 
ATOM     35  C   UNL     1       2.975   1.966   1.757  1.00  0.00     0.010 A 
ATOM     36  C   UNL     1       3.470   2.106   4.121  1.00  0.00     0.010 A 
ATOM     37  C   UNL     1       3.771   2.467   2.793  1.00  0.00    -0.014 A 
BRANCH  37  38
ATOM     38  C   UNL     1       4.987   3.264   2.482  1.00  0.00     0.031 A 
ATOM     39  C   UNL     1       6.342   2.704   2.819  1.00  0.00     0.074 A 
ATOM     40  C   UNL     1       4.895   4.457   1.863  1.00  0.00     0.049 A 
ATOM     41  N   UNL     1       7.508   3.299   2.831  1.00  0.00    -0.248 NA
ATOM     42  C   UNL     1       6.392   1.282   3.194  1.00  0.00     0.031 C 
ATOM     43  C   UNL     1       3.656   5.070   1.386  1.00  0.00     0.029 A 
ATOM     44  N   UNL     1       5.868   5.366   1.527  1.00  0.00    -0.354 N 
ATOM     45  C   UNL     1       8.416   2.343   3.267  1.00  0.00     0.074 A 
ATOM     46  C   UNL     1       7.672   1.125   3.502  1.00  0.00     0.031 C 
ATOM     47  C   UNL     1       3.943   6.247   0.809  1.00  0.00     0.029 A 
ATOM     48  C   UNL     1       5.372   6.511   0.952  1.00  0.00     0.049 A 
ATOM     49  H   UNL     1       6.827   5.213   1.684  1.00  0.00     0.167 HD
ATOM     50  C   UNL     1       9.749   2.478   3.458  1.00  0.00     0.037 A 
ATOM     51  C   UNL     1       5.989   7.664   0.629  1.00  0.00     0.037 A 
ATOM     52  C   UNL     1      10.490   3.677   3.167  1.00  0.00     0.049 A 
ATOM     53  C   UNL     1       7.460   7.815   0.913  1.00  0.00     0.074 A 
ATOM     54  C   UNL     1      11.843   3.916   3.331  1.00  0.00     0.029 A 
ATOM     55  N   UNL     1       9.940   4.832   2.633  1.00  0.00    -0.354 N 
ATOM     56  N   UNL     1       8.299   6.939   1.408  1.00  0.00    -0.248 NA
ATOM     57  C   UNL     1       8.063   9.123   0.618  1.00  0.00     0.031 C 
ATOM     58  C   UNL     1      12.106   5.229   2.931  1.00  0.00     0.029 A 
ATOM     59  C   UNL     1      10.925   5.793   2.477  1.00  0.00     0.049 A 
ATOM     60  H   UNL     1       8.991   4.952   2.400  1.00  0.00     0.167 HD
ATOM     61  C   UNL     1       9.527   7.583   1.479  1.00  0.00     0.074 A 
ATOM     62  C   UNL     1       9.330   8.918   0.954  1.00  0.00     0.031 C 
ATOM     63  C   UNL     1      10.709   7.114   1.946  1.00  0.00     0.037 A 
BRANCH  50  64
ATOM     64  C   UNL     1      10.498   1.318   4.042  1.00  0.00     0.064 A 
ATOM     65  C   UNL     1      10.809   0.179   3.288  1.00  0.00     0.173 A 
ATOM     66  C   UNL     1      10.971   1.383   5.362  1.00  0.00     0.173 A 
ATOM     67  F   UNL     1      10.367   0.063   2.027  1.00  0.00    -0.203 F 
ATOM     68  C   UNL     1      11.561  -0.858   3.837  1.00  0.00     0.198 A 
ATOM     69  C   UNL     1      11.742   0.357   5.900  1.00  0.00     0.198 A 
ATOM     70  F   UNL     1      10.701   2.454   6.125  1.00  0.00    -0.203 F 
ATOM     71  F   UNL     1      11.826  -1.950   3.107  1.00  0.00    -0.200 F 
ATOM     72  C   UNL     1      12.035  -0.764   5.137  1.00  0.00     0.200 A 
ATOM     73  F   UNL     1      12.208   0.455   7.152  1.00  0.00    -0.200 F 
ATOM     74  F   UNL     1      12.772  -1.755   5.657  1.00  0.00    -0.200 F 
ENDBRANCH  50  64
BRANCH  51  75
ATOM     75  C   UNL     1       5.202   8.789   0.057  1.00  0.00     0.064 A 
ATOM     76  C   UNL     1       5.402   9.215  -1.263  1.00  0.00     0.173 A 
ATOM     77  C   UNL     1       4.231   9.459   0.817  1.00  0.00     0.173 A 
ATOM     78  F   UNL     1       6.340   8.627  -2.021  1.00  0.00    -0.203 F 
ATOM     79  C   UNL     1       4.665  10.270  -1.798  1.00  0.00     0.198 A 
ATOM     80  C   UNL     1       3.473  10.492   0.272  1.00  0.00     0.198 A 
ATOM     81  F   UNL     1       4.004   9.095   2.088  1.00  0.00    -0.203 F 
ATOM     82  F   UNL     1       4.904  10.683  -3.050  1.00  0.00    -0.200 F 
ATOM     83  C   UNL     1       3.695  10.901  -1.034  1.00  0.00     0.200 A 
ATOM     84  F   UNL     1       2.527  11.088   1.010  1.00  0.00    -0.200 F 
ATOM     85  F   UNL     1       2.979  11.907  -1.553  1.00  0.00    -0.200 F 
ENDBRANCH  51  75
BRANCH  63  86
ATOM     86  C   UNL     1      11.888   8.039   1.902  1.00  0.00     0.064 A 
ATOM     87  C   UNL     1      12.020   9.096   2.813  1.00  0.00     0.173 A 
ATOM     88  C   UNL     1      12.933   7.817   0.992  1.00  0.00     0.173 A 
ATOM     89  F   UNL     1      11.041   9.355   3.692  1.00  0.00    -0.203 F 
ATOM     90  C   UNL     1      13.153   9.905   2.808  1.00  0.00     0.198 A 
ATOM     91  C   UNL     1      14.075   8.611   1.007  1.00  0.00     0.198 A 
ATOM     92  F   UNL     1      12.856   6.812   0.106  1.00  0.00    -0.203 F 
ATOM     93  F   UNL     1      13.247  10.928   3.669  1.00  0.00    -0.200 F 
ATOM     94  C   UNL     1      14.183   9.656   1.913  1.00  0.00     0.200 A 
ATOM     95  F   UNL     1      15.076   8.361   0.151  1.00  0.00    -0.200 F 
ATOM     96  F   UNL     1      15.281  10.425   1.922  1.00  0.00    -0.200 F 
ENDBRANCH  63  86
ENDBRANCH  37  38
ENDBRANCH  30  32
ENDBRANCH  29  30
ENDBRANCH  28  29
ENDBRANCH  27  28
ENDBRANCH  26  27
ENDBRANCH  25  26
ENDBRANCH   1  25
TORSDOF 20
