REMARK SMILES COCC[C@@H](C)NC(=O)N[C@@H]1C=C[C@@H](C(=O)OCCOCCOCCOC(=O)c2ccc(-c3c4nc(c(-c5c(F)c(F)c(F)c(F)c5F)c5ccc([nH]5)c(-c5c(F)c(F)c(F)c(F)c5F)c5nc(c(-c6c(F)c(F)c(F)c(F)c6F)c6ccc3[nH]6)C=C5)C=C4)cc2)C1
REMARK SMILES IDX 20 1 19 2 18 3 17 4 15 5 16 6 14 7 11 8 12 9 92 10 13 11
REMARK SMILES IDX 10 12 7 13 8 14 9 16 5 18 6 19 4 20 3 21 2 22 1 23 21 24
REMARK SMILES IDX 22 25 23 26 24 27 25 28 26 29 27 30 28 31 29 32 30 33 91 34
REMARK SMILES IDX 31 35 90 36 32 37 33 38 34 39 84 40 35 41 89 42 83 43 85 44
REMARK SMILES IDX 36 45 88 46 82 47 81 48 37 50 69 51 49 52 68 53 50 54 53 55
REMARK SMILES IDX 67 56 86 57 51 58 52 59 66 61 87 62 54 63 38 64 39 65 47 66
REMARK SMILES IDX 40 67 41 68 45 69 48 70 42 71 43 72 46 73 44 74 70 75 71 76
REMARK SMILES IDX 79 77 72 78 73 79 77 80 80 81 74 82 75 83 78 84 76 85 55 86
REMARK SMILES IDX 56 87 64 88 57 89 58 90 62 91 65 92 59 93 60 94 63 95 61 96
REMARK H PARENT 7 15 10 17 85 49 53 60
REMARK Flexibility Score: inf
ROOT
ATOM      1  O   UNL     1      -1.356  -4.088   4.802  1.00  0.00    -0.376 OA
ENDROOT
BRANCH   1   2
ATOM      2  C   UNL     1      -1.847  -3.166   5.770  1.00  0.00     0.202 C 
BRANCH   2   3
ATOM      3  C   UNL     1      -1.047  -1.864   5.936  1.00  0.00     0.261 C 
BRANCH   3   4
ATOM      4  O   UNL     1      -0.589  -1.307   4.692  1.00  0.00    -0.463 OA
BRANCH   4   5
ATOM      5  C   UNL     1       0.759  -1.195   4.514  1.00  0.00     0.312 C 
ATOM      6  O   UNL     1       1.595  -1.437   5.378  1.00  0.00    -0.252 OA
BRANCH   5   7
ATOM      7  C   UNL     1       1.137  -0.835   3.069  1.00  0.00     0.124 C 
ATOM      8  C   UNL     1       0.330   1.083   1.704  1.00  0.00     0.107 C 
ATOM      9  C   UNL     1       1.731   1.272   2.173  1.00  0.00    -0.006 C 
ATOM     10  C   UNL     1       0.001  -0.342   2.170  1.00  0.00     0.048 C 
ATOM     11  C   UNL     1       2.142   0.272   2.963  1.00  0.00    -0.014 C 
BRANCH   8  12
ATOM     12  N   UNL     1       0.210   1.241   0.275  1.00  0.00    -0.332 N 
ATOM     13  N   UNL     1      -2.122   1.526  -0.098  1.00  0.00    -0.336 N 
ATOM     14  C   UNL     1      -0.845   1.479  -0.529  1.00  0.00     0.315 C 
ATOM     15  H   UNL     1      -2.747   1.928  -0.744  1.00  0.00     0.165 HD
ATOM     16  O   UNL     1      -0.634   1.655  -1.730  1.00  0.00    -0.249 OA
ATOM     17  H   UNL     1       1.065   1.160  -0.207  1.00  0.00     0.165 HD
BRANCH  13  18
ATOM     18  C   UNL     1      -2.748   1.092   1.141  1.00  0.00     0.083 C 
ATOM     19  C   UNL     1      -3.044  -0.397   1.049  1.00  0.00     0.031 C 
BRANCH  18  20
ATOM     20  C   UNL     1      -3.998   1.894   1.520  1.00  0.00     0.053 C 
BRANCH  20  21
ATOM     21  C   UNL     1      -4.355   1.739   3.008  1.00  0.00     0.162 C 
BRANCH  21  22
ATOM     22  O   UNL     1      -3.597   2.608   3.850  1.00  0.00    -0.385 OA
ATOM     23  C   UNL     1      -2.425   2.042   4.418  1.00  0.00     0.194 C 
ENDBRANCH  21  22
ENDBRANCH  20  21
ENDBRANCH  18  20
ENDBRANCH  13  18
ENDBRANCH   8  12
ENDBRANCH   5   7
ENDBRANCH   4   5
ENDBRANCH   3   4
ENDBRANCH   2   3
ENDBRANCH   1   2
BRANCH   1  24
ATOM     24  C   UNL     1      -1.655  -3.786   3.442  1.00  0.00     0.188 C 
BRANCH  24  25
ATOM     25  C   UNL     1      -3.137  -3.777   3.046  1.00  0.00     0.188 C 
BRANCH  25  26
ATOM     26  O   UNL     1      -3.889  -2.728   3.642  1.00  0.00    -0.376 OA
BRANCH  26  27
ATOM     27  C   UNL     1      -5.192  -2.448   3.119  1.00  0.00     0.202 C 
BRANCH  27  28
ATOM     28  C   UNL     1      -6.009  -3.509   2.356  1.00  0.00     0.261 C 
BRANCH  28  29
ATOM     29  O   UNL     1      -5.285  -4.251   1.362  1.00  0.00    -0.460 OA
BRANCH  29  30
ATOM     30  C   UNL     1      -4.943  -3.622   0.212  1.00  0.00     0.338 C 
ATOM     31  O   UNL     1      -5.302  -2.517  -0.152  1.00  0.00    -0.246 OA
BRANCH  30  32
ATOM     32  C   UNL     1      -3.856  -4.425  -0.406  1.00  0.00     0.060 A 
ATOM     33  C   UNL     1      -2.667  -3.788  -0.790  1.00  0.00     0.016 A 
ATOM     34  C   UNL     1      -3.959  -5.816  -0.496  1.00  0.00     0.016 A 
ATOM     35  C   UNL     1      -1.578  -4.538  -1.246  1.00  0.00     0.010 A 
ATOM     36  C   UNL     1      -2.880  -6.563  -0.974  1.00  0.00     0.010 A 
ATOM     37  C   UNL     1      -1.685  -5.930  -1.359  1.00  0.00    -0.014 A 
BRANCH  37  38
ATOM     38  C   UNL     1      -0.626  -6.726  -2.028  1.00  0.00     0.031 A 
ATOM     39  C   UNL     1      -0.816  -7.090  -3.473  1.00  0.00     0.074 A 
ATOM     40  C   UNL     1       0.466  -7.149  -1.366  1.00  0.00     0.049 A 
ATOM     41  N   UNL     1      -0.120  -7.899  -4.228  1.00  0.00    -0.248 NA
ATOM     42  C   UNL     1      -1.955  -6.455  -4.154  1.00  0.00     0.031 C 
ATOM     43  C   UNL     1       0.800  -6.822   0.017  1.00  0.00     0.029 A 
ATOM     44  N   UNL     1       1.489  -7.972  -1.775  1.00  0.00    -0.354 N 
ATOM     45  C   UNL     1      -0.743  -7.881  -5.469  1.00  0.00     0.074 A 
ATOM     46  C   UNL     1      -1.885  -6.998  -5.360  1.00  0.00     0.031 C 
ATOM     47  C   UNL     1       1.939  -7.455   0.351  1.00  0.00     0.029 A 
ATOM     48  C   UNL     1       2.386  -8.270  -0.779  1.00  0.00     0.049 A 
ATOM     49  H   UNL     1       1.571  -8.315  -2.694  1.00  0.00     0.167 HD
ATOM     50  C   UNL     1      -0.393  -8.540  -6.598  1.00  0.00     0.037 A 
ATOM     51  C   UNL     1       3.424  -9.132  -0.771  1.00  0.00     0.037 A 
ATOM     52  C   UNL     1       0.741  -9.419  -6.706  1.00  0.00     0.049 A 
ATOM     53  C   UNL     1       3.733  -9.934  -2.012  1.00  0.00     0.074 A 
ATOM     54  C   UNL     1       1.187 -10.119  -7.813  1.00  0.00     0.029 A 
ATOM     55  N   UNL     1       1.602  -9.727  -5.663  1.00  0.00    -0.354 N 
ATOM     56  N   UNL     1       3.149  -9.908  -3.185  1.00  0.00    -0.248 NA
ATOM     57  C   UNL     1       4.842 -10.897  -1.921  1.00  0.00     0.031 C 
ATOM     58  C   UNL     1       2.283 -10.896  -7.425  1.00  0.00     0.029 A 
ATOM     59  C   UNL     1       2.556 -10.636  -6.092  1.00  0.00     0.049 A 
ATOM     60  H   UNL     1       1.544  -9.355  -4.753  1.00  0.00     0.167 HD
ATOM     61  C   UNL     1       3.830 -10.827  -3.975  1.00  0.00     0.074 A 
ATOM     62  C   UNL     1       4.884 -11.383  -3.154  1.00  0.00     0.031 C 
ATOM     63  C   UNL     1       3.602 -11.181  -5.264  1.00  0.00     0.037 A 
BRANCH  50  64
ATOM     64  C   UNL     1      -1.272  -8.365  -7.801  1.00  0.00     0.064 A 
ATOM     65  C   UNL     1      -1.311  -7.161  -8.519  1.00  0.00     0.173 A 
ATOM     66  C   UNL     1      -2.065  -9.429  -8.257  1.00  0.00     0.173 A 
ATOM     67  F   UNL     1      -0.586  -6.108  -8.113  1.00  0.00    -0.203 F 
ATOM     68  C   UNL     1      -2.131  -7.021  -9.636  1.00  0.00     0.198 A 
ATOM     69  C   UNL     1      -2.860  -9.295  -9.392  1.00  0.00     0.198 A 
ATOM     70  F   UNL     1      -2.063 -10.602  -7.606  1.00  0.00    -0.203 F 
ATOM     71  F   UNL     1      -2.190  -5.846 -10.279  1.00  0.00    -0.200 F 
ATOM     72  C   UNL     1      -2.898  -8.090 -10.076  1.00  0.00     0.200 A 
ATOM     73  F   UNL     1      -3.591 -10.333  -9.822  1.00  0.00    -0.200 F 
ATOM     74  F   UNL     1      -3.680  -7.956 -11.155  1.00  0.00    -0.200 F 
ENDBRANCH  50  64
BRANCH  51  75
ATOM     75  C   UNL     1       4.230  -9.322   0.466  1.00  0.00     0.064 A 
ATOM     76  C   UNL     1       5.578  -8.941   0.518  1.00  0.00     0.173 A 
ATOM     77  C   UNL     1       3.681  -9.927   1.607  1.00  0.00     0.173 A 
ATOM     78  F   UNL     1       6.160  -8.392  -0.559  1.00  0.00    -0.203 F 
ATOM     79  C   UNL     1       6.350  -9.174   1.655  1.00  0.00     0.198 A 
ATOM     80  C   UNL     1       4.446 -10.131   2.754  1.00  0.00     0.198 A 
ATOM     81  F   UNL     1       2.400 -10.322   1.608  1.00  0.00    -0.203 F 
ATOM     82  F   UNL     1       7.651  -8.850   1.656  1.00  0.00    -0.200 F 
ATOM     83  C   UNL     1       5.782  -9.762   2.774  1.00  0.00     0.200 A 
ATOM     84  F   UNL     1       3.890 -10.694   3.836  1.00  0.00    -0.200 F 
ATOM     85  F   UNL     1       6.525  -9.986   3.867  1.00  0.00    -0.200 F 
ENDBRANCH  51  75
BRANCH  63  86
ATOM     86  C   UNL     1       4.518 -12.201  -5.879  1.00  0.00     0.064 A 
ATOM     87  C   UNL     1       4.467 -13.553  -5.512  1.00  0.00     0.173 A 
ATOM     88  C   UNL     1       5.421 -11.830  -6.888  1.00  0.00     0.173 A 
ATOM     89  F   UNL     1       3.631 -13.958  -4.543  1.00  0.00    -0.203 F 
ATOM     90  C   UNL     1       5.300 -14.492  -6.115  1.00  0.00     0.198 A 
ATOM     91  C   UNL     1       6.230 -12.777  -7.511  1.00  0.00     0.198 A 
ATOM     92  F   UNL     1       5.505 -10.551  -7.284  1.00  0.00    -0.203 F 
ATOM     93  F   UNL     1       5.263 -15.772  -5.717  1.00  0.00    -0.200 F 
ATOM     94  C   UNL     1       6.174 -14.105  -7.120  1.00  0.00     0.200 A 
ATOM     95  F   UNL     1       7.062 -12.403  -8.494  1.00  0.00    -0.200 F 
ATOM     96  F   UNL     1       6.965 -15.013  -7.708  1.00  0.00    -0.200 F 
ENDBRANCH  63  86
ENDBRANCH  37  38
ENDBRANCH  30  32
ENDBRANCH  29  30
ENDBRANCH  28  29
ENDBRANCH  27  28
ENDBRANCH  26  27
ENDBRANCH  25  26
ENDBRANCH  24  25
ENDBRANCH   1  24
TORSDOF 22
