REMARK SMILES CCc1ccc2[nH]c(C(=O)c3cc(C)ccn3)c(CC(=O)OCCOCCOCCOC(=O)c3ccc(-c4c5nc(c(-c6c(F)c(F)c(F)c(F)c6F)c6ccc([nH]6)c(-c6c(F)c(F)c(F)c(F)c6F)c6nc(c(-c7c(F)c(F)c(F)c(F)c7F)c7ccc4[nH]7)C=C6)C=C5)cc3)c2c1
REMARK SMILES IDX 26 1 25 2 24 3 23 4 22 5 20 6 21 7 19 8 18 9 3 10 4 11 98 12
REMARK SMILES IDX 5 13 97 14 6 15 7 16 8 17 2 19 1 20 9 21 10 22 11 23 12 24
REMARK SMILES IDX 17 25 13 26 16 27 14 28 15 29 27 30 28 31 29 32 30 33 31 34
REMARK SMILES IDX 32 35 33 36 34 37 35 38 96 39 36 40 95 41 37 42 38 43 39 44
REMARK SMILES IDX 89 45 40 46 94 47 88 48 90 49 41 50 93 51 87 52 86 53 42 55
REMARK SMILES IDX 74 56 54 57 73 58 55 59 58 60 72 61 91 62 56 63 57 64 71 66
REMARK SMILES IDX 92 67 59 68 43 69 44 70 52 71 45 72 46 73 50 74 53 75 47 76
REMARK SMILES IDX 48 77 51 78 49 79 75 80 76 81 84 82 77 83 78 84 82 85 85 86
REMARK SMILES IDX 79 87 80 88 83 89 81 90 60 91 61 92 69 93 62 94 63 95 67 96
REMARK SMILES IDX 70 97 64 98 65 99 68 100 66 101
REMARK H PARENT 7 18 90 54 58 65
REMARK Flexibility Score: inf
ROOT
ATOM      1  C   UNL     1       0.157   4.359   7.479  1.00  0.00     0.188 C 
ENDROOT
BRANCH   1   2
ATOM      2  O   UNL     1      -1.039   5.093   7.231  1.00  0.00    -0.376 OA
BRANCH   2   3
ATOM      3  C   UNL     1      -2.072   4.458   6.488  1.00  0.00     0.202 C 
BRANCH   3   4
ATOM      4  C   UNL     1      -1.720   4.104   5.038  1.00  0.00     0.261 C 
BRANCH   4   5
ATOM      5  O   UNL     1      -0.580   3.221   4.966  1.00  0.00    -0.463 OA
BRANCH   5   6
ATOM      6  C   UNL     1       0.356   3.498   4.022  1.00  0.00     0.310 C 
ATOM      7  O   UNL     1       0.179   4.296   3.105  1.00  0.00    -0.252 OA
BRANCH   6   8
ATOM      8  C   UNL     1       1.721   2.883   4.308  1.00  0.00     0.161 C 
BRANCH   8   9
ATOM      9  C   UNL     1       1.786   1.444   4.761  1.00  0.00     0.000 A 
ATOM     10  C   UNL     1       0.636  -1.075   2.124  1.00  0.00    -0.048 A 
ATOM     11  C   UNL     1       0.988  -2.213   2.861  1.00  0.00     0.006 A 
ATOM     12  C   UNL     1       0.734   0.192   2.725  1.00  0.00     0.014 A 
ATOM     13  C   UNL     1       1.487  -2.119   4.164  1.00  0.00     0.027 A 
ATOM     14  C   UNL     1       1.323   0.321   3.998  1.00  0.00     0.004 A 
ATOM     15  C   UNL     1       1.675  -0.836   4.684  1.00  0.00     0.046 A 
ATOM     16  N   UNL     1       2.235  -0.438   5.872  1.00  0.00    -0.352 N 
ATOM     17  C   UNL     1       2.543   0.905   5.813  1.00  0.00     0.093 A 
ATOM     18  H   UNL     1       2.394  -1.022   6.648  1.00  0.00     0.167 HD
BRANCH  10  19
ATOM     19  C   UNL     1       0.173  -1.222   0.693  1.00  0.00     0.032 C 
ATOM     20  C   UNL     1       0.796  -0.207  -0.262  1.00  0.00     0.009 C 
ENDBRANCH  10  19
BRANCH  17  21
ATOM     21  C   UNL     1       3.555   1.539   6.645  1.00  0.00     0.227 C 
ATOM     22  O   UNL     1       4.068   2.622   6.369  1.00  0.00    -0.285 OA
BRANCH  21  23
ATOM     23  C   UNL     1       4.045   0.841   7.869  1.00  0.00     0.113 A 
ATOM     24  C   UNL     1       5.269   0.175   7.861  1.00  0.00     0.036 A 
ATOM     25  N   UNL     1       3.275   0.994   8.975  1.00  0.00    -0.253 NA
ATOM     26  C   UNL     1       5.747  -0.345   9.069  1.00  0.00    -0.047 A 
ATOM     27  C   UNL     1       3.792   0.534  10.135  1.00  0.00     0.112 A 
ATOM     28  C   UNL     1       7.038  -1.105   9.154  1.00  0.00     0.044 C 
ATOM     29  C   UNL     1       5.008  -0.121  10.233  1.00  0.00     0.023 A 
ENDBRANCH  21  23
ENDBRANCH  17  21
ENDBRANCH   8   9
ENDBRANCH   6   8
ENDBRANCH   5   6
ENDBRANCH   4   5
ENDBRANCH   3   4
ENDBRANCH   2   3
ENDBRANCH   1   2
BRANCH   1  30
ATOM     30  C   UNL     1       0.064   2.845   7.770  1.00  0.00     0.188 C 
BRANCH  30  31
ATOM     31  O   UNL     1      -1.117   2.474   8.469  1.00  0.00    -0.376 OA
BRANCH  31  32
ATOM     32  C   UNL     1      -0.888   1.968   9.777  1.00  0.00     0.202 C 
BRANCH  32  33
ATOM     33  C   UNL     1      -0.538   3.088  10.754  1.00  0.00     0.261 C 
BRANCH  33  34
ATOM     34  O   UNL     1       0.725   3.701  10.413  1.00  0.00    -0.460 OA
BRANCH  34  35
ATOM     35  C   UNL     1       1.802   3.358  11.136  1.00  0.00     0.338 C 
ATOM     36  O   UNL     1       1.822   2.593  12.100  1.00  0.00    -0.246 OA
BRANCH  35  37
ATOM     37  C   UNL     1       3.005   4.074  10.653  1.00  0.00     0.060 A 
ATOM     38  C   UNL     1       3.365   4.111   9.302  1.00  0.00     0.016 A 
ATOM     39  C   UNL     1       3.861   4.637  11.598  1.00  0.00     0.016 A 
ATOM     40  C   UNL     1       4.593   4.649   8.902  1.00  0.00     0.010 A 
ATOM     41  C   UNL     1       5.059   5.233  11.191  1.00  0.00     0.010 A 
ATOM     42  C   UNL     1       5.453   5.225   9.841  1.00  0.00    -0.014 A 
BRANCH  42  43
ATOM     43  C   UNL     1       6.776   5.792   9.458  1.00  0.00     0.031 A 
ATOM     44  C   UNL     1       8.035   5.215  10.044  1.00  0.00     0.074 A 
ATOM     45  C   UNL     1       6.869   6.847   8.628  1.00  0.00     0.049 A 
ATOM     46  N   UNL     1       9.242   5.720  10.094  1.00  0.00    -0.248 NA
ATOM     47  C   UNL     1       7.912   3.887  10.663  1.00  0.00     0.031 C 
ATOM     48  C   UNL     1       5.761   7.454   7.894  1.00  0.00     0.029 A 
ATOM     49  N   UNL     1       7.958   7.612   8.280  1.00  0.00    -0.354 N 
ATOM     50  C   UNL     1      10.011   4.799  10.792  1.00  0.00     0.074 A 
ATOM     51  C   UNL     1       9.133   3.702  11.146  1.00  0.00     0.031 C 
ATOM     52  C   UNL     1       6.223   8.493   7.182  1.00  0.00     0.029 A 
ATOM     53  C   UNL     1       7.640   8.682   7.482  1.00  0.00     0.049 A 
ATOM     54  H   UNL     1       8.876   7.411   8.575  1.00  0.00     0.167 HD
ATOM     55  C   UNL     1      11.327   4.868  11.113  1.00  0.00     0.037 A 
ATOM     56  C   UNL     1       8.385   9.731   7.083  1.00  0.00     0.037 A 
ATOM     57  C   UNL     1      12.203   5.949  10.737  1.00  0.00     0.049 A 
ATOM     58  C   UNL     1       9.808   9.855   7.554  1.00  0.00     0.074 A 
ATOM     59  C   UNL     1      13.548   6.114  11.023  1.00  0.00     0.029 A 
ATOM     60  N   UNL     1      11.821   7.052   9.985  1.00  0.00    -0.354 N 
ATOM     61  N   UNL     1      10.516   9.028   8.284  1.00  0.00    -0.248 NA
ATOM     62  C   UNL     1      10.527  11.077   7.166  1.00  0.00     0.031 C 
ATOM     63  C   UNL     1      13.967   7.337  10.487  1.00  0.00     0.029 A 
ATOM     64  C   UNL     1      12.898   7.911   9.820  1.00  0.00     0.049 A 
ATOM     65  H   UNL     1      10.918   7.202   9.623  1.00  0.00     0.167 HD
ATOM     66  C   UNL     1      11.768   9.614   8.420  1.00  0.00     0.074 A 
ATOM     67  C   UNL     1      11.726  10.864   7.690  1.00  0.00     0.031 C 
ATOM     68  C   UNL     1      12.853   9.153   9.090  1.00  0.00     0.037 A 
BRANCH  55  69
ATOM     69  C   UNL     1      11.887   3.764  11.964  1.00  0.00     0.064 A 
ATOM     70  C   UNL     1      12.079   2.466  11.470  1.00  0.00     0.173 A 
ATOM     71  C   UNL     1      12.250   4.018  13.296  1.00  0.00     0.173 A 
ATOM     72  F   UNL     1      11.735   2.165  10.209  1.00  0.00    -0.203 F 
ATOM     73  C   UNL     1      12.579   1.455  12.288  1.00  0.00     0.198 A 
ATOM     74  C   UNL     1      12.780   3.014  14.102  1.00  0.00     0.198 A 
ATOM     75  F   UNL     1      12.094   5.244  13.819  1.00  0.00    -0.203 F 
ATOM     76  F   UNL     1      12.697   0.207  11.812  1.00  0.00    -0.200 F 
ATOM     77  C   UNL     1      12.934   1.730  13.601  1.00  0.00     0.200 A 
ATOM     78  F   UNL     1      13.132   3.285  15.366  1.00  0.00    -0.200 F 
ATOM     79  F   UNL     1      13.412   0.756  14.386  1.00  0.00    -0.200 F 
ENDBRANCH  55  69
BRANCH  56  80
ATOM     80  C   UNL     1       7.781  10.776   6.217  1.00  0.00     0.064 A 
ATOM     81  C   UNL     1       8.197  10.929   4.888  1.00  0.00     0.173 A 
ATOM     82  C   UNL     1       6.778  11.635   6.691  1.00  0.00     0.173 A 
ATOM     83  F   UNL     1       9.178  10.156   4.401  1.00  0.00    -0.203 F 
ATOM     84  C   UNL     1       7.632  11.902   4.066  1.00  0.00     0.198 A 
ATOM     85  C   UNL     1       6.193  12.586   5.860  1.00  0.00     0.198 A 
ATOM     86  F   UNL     1       6.354  11.537   7.960  1.00  0.00    -0.203 F 
ATOM     87  F   UNL     1       8.074  12.052   2.810  1.00  0.00    -0.200 F 
ATOM     88  C   UNL     1       6.624  12.722   4.549  1.00  0.00     0.200 A 
ATOM     89  F   UNL     1       5.213  13.371   6.328  1.00  0.00    -0.200 F 
ATOM     90  F   UNL     1       6.074  13.650   3.754  1.00  0.00    -0.200 F 
ENDBRANCH  56  80
BRANCH  68  91
ATOM     91  C   UNL     1      14.102   9.985   9.030  1.00  0.00     0.064 A 
ATOM     92  C   UNL     1      14.215  11.200   9.721  1.00  0.00     0.173 A 
ATOM     93  C   UNL     1      15.210   9.549   8.286  1.00  0.00     0.173 A 
ATOM     94  F   UNL     1      13.180  11.671  10.432  1.00  0.00    -0.203 F 
ATOM     95  C   UNL     1      15.381  11.961   9.649  1.00  0.00     0.198 A 
ATOM     96  C   UNL     1      16.383  10.298   8.238  1.00  0.00     0.198 A 
ATOM     97  F   UNL     1      15.157   8.392   7.609  1.00  0.00    -0.203 F 
ATOM     98  F   UNL     1      15.448  13.142  10.277  1.00  0.00    -0.200 F 
ATOM     99  C   UNL     1      16.465  11.506   8.913  1.00  0.00     0.200 A 
ATOM    100  F   UNL     1      17.434   9.851   7.536  1.00  0.00    -0.200 F 
ATOM    101  F   UNL     1      17.586  12.238   8.847  1.00  0.00    -0.200 F 
ENDBRANCH  68  91
ENDBRANCH  42  43
ENDBRANCH  35  37
ENDBRANCH  34  35
ENDBRANCH  33  34
ENDBRANCH  32  33
ENDBRANCH  31  32
ENDBRANCH  30  31
ENDBRANCH   1  30
TORSDOF 21
