REMARK SMILES O=C(N[C@@H](Cc1ccc(O)cc1)C(=O)N[C@@H](CO)C(=O)OCCOCCOCCOC(=O)c1ccc(-c2c3nc(c(-c4c(F)c(F)c(F)c(F)c4F)c4ccc([nH]4)c(-c4c(F)c(F)c(F)c(F)c4F)c4nc(c(-c5c(F)c(F)c(F)c(F)c5F)c5ccc2[nH]5)C=C4)C=C3)cc1)c1ccc(F)cc1
REMARK SMILES IDX 24 1 23 2 22 3 21 4 19 5 20 6 16 7 15 8 13 9 14 10 4 12 3 13
REMARK SMILES IDX 1 14 2 15 96 17 97 18 102 19 98 20 101 21 99 22 100 23 5 24
REMARK SMILES IDX 6 25 7 26 12 27 8 28 11 29 9 30 10 31 17 33 18 34 25 36
REMARK SMILES IDX 26 37 27 38 28 39 29 40 30 41 31 42 32 43 33 44 34 45 95 46
REMARK SMILES IDX 35 47 94 48 36 49 37 50 38 51 88 52 39 53 93 54 87 55 89 56
REMARK SMILES IDX 40 57 92 58 86 59 85 60 41 62 73 63 53 64 72 65 54 66 57 67
REMARK SMILES IDX 71 68 90 69 55 70 56 71 70 73 91 74 58 75 42 76 43 77 51 78
REMARK SMILES IDX 44 79 45 80 49 81 52 82 46 83 47 84 50 85 48 86 74 87 75 88
REMARK SMILES IDX 83 89 76 90 77 91 81 92 84 93 78 94 79 95 82 96 80 97 59 98
REMARK SMILES IDX 60 99 68 100 61 101 62 102 66 103 69 104 63 105 64 106
REMARK SMILES IDX 67 107 65 108
REMARK H PARENT 15 11 3 16 10 32 18 35 89 61 57 72
REMARK Flexibility Score: inf
ROOT
ATOM      1  O   UNL     1       7.237  -6.488   3.188  1.00  0.00    -0.376 OA
ENDROOT
BRANCH   1   2
ATOM      2  C   UNL     1       6.005  -7.055   3.626  1.00  0.00     0.202 C 
BRANCH   2   3
ATOM      3  C   UNL     1       5.071  -7.339   2.450  1.00  0.00     0.261 C 
BRANCH   3   4
ATOM      4  O   UNL     1       4.580  -6.124   1.837  1.00  0.00    -0.462 OA
BRANCH   4   5
ATOM      5  C   UNL     1       3.275  -5.785   2.060  1.00  0.00     0.331 C 
ATOM      6  O   UNL     1       2.545  -6.361   2.857  1.00  0.00    -0.250 OA
BRANCH   5   7
ATOM      7  C   UNL     1       2.814  -4.629   1.131  1.00  0.00     0.218 C 
BRANCH   7   8
ATOM      8  N   UNL     1       3.945  -3.998   0.426  1.00  0.00    -0.339 N 
ATOM      9  C   UNL     1       4.398  -2.727   0.317  1.00  0.00     0.243 C 
ATOM     10  O   UNL     1       5.560  -2.611  -0.096  1.00  0.00    -0.273 OA
ATOM     11  H   UNL     1       4.491  -4.645  -0.076  1.00  0.00     0.164 HD
BRANCH   9  12
ATOM     12  C   UNL     1       3.636  -1.445   0.729  1.00  0.00     0.176 C 
BRANCH  12  13
ATOM     13  N   UNL     1       2.275  -1.306   0.221  1.00  0.00    -0.340 N 
ATOM     14  O   UNL     1       0.511  -0.121  -0.538  1.00  0.00    -0.269 OA
ATOM     15  C   UNL     1       1.724  -0.186  -0.371  1.00  0.00     0.251 C 
ATOM     16  H   UNL     1       1.689  -2.092   0.310  1.00  0.00     0.164 HD
BRANCH  15  17
ATOM     17  C   UNL     1       2.578   0.966  -0.770  1.00  0.00     0.040 A 
ATOM     18  C   UNL     1       3.646   0.807  -1.667  1.00  0.00     0.017 A 
ATOM     19  C   UNL     1       2.276   2.239  -0.266  1.00  0.00     0.017 A 
ATOM     20  C   UNL     1       4.444   1.904  -2.004  1.00  0.00     0.040 A 
ATOM     21  C   UNL     1       3.070   3.336  -0.616  1.00  0.00     0.040 A 
ATOM     22  C   UNL     1       4.151   3.156  -1.474  1.00  0.00     0.123 A 
ATOM     23  F   UNL     1       4.916   4.205  -1.802  1.00  0.00    -0.207 F 
ENDBRANCH  15  17
ENDBRANCH  12  13
BRANCH  12  24
ATOM     24  C   UNL     1       3.789  -0.967   2.184  1.00  0.00     0.070 C 
BRANCH  24  25
ATOM     25  C   UNL     1       3.319  -1.859   3.296  1.00  0.00    -0.045 A 
ATOM     26  C   UNL     1       2.117  -1.637   3.976  1.00  0.00     0.007 A 
ATOM     27  C   UNL     1       4.143  -2.908   3.710  1.00  0.00     0.007 A 
ATOM     28  C   UNL     1       1.730  -2.493   5.012  1.00  0.00     0.046 A 
ATOM     29  C   UNL     1       3.748  -3.779   4.722  1.00  0.00     0.046 A 
ATOM     30  C   UNL     1       2.530  -3.577   5.350  1.00  0.00     0.115 A 
BRANCH  30  31
ATOM     31  O   UNL     1       2.085  -4.434   6.310  1.00  0.00    -0.508 OA
ATOM     32  H   UNL     1       1.259  -4.284   6.726  1.00  0.00     0.293 HD
ENDBRANCH  30  31
ENDBRANCH  24  25
ENDBRANCH  12  24
ENDBRANCH   9  12
ENDBRANCH   7   8
BRANCH   7  33
ATOM     33  C   UNL     1       1.821  -5.224   0.128  1.00  0.00     0.193 C 
BRANCH  33  34
ATOM     34  O   UNL     1       2.458  -6.163  -0.740  1.00  0.00    -0.394 OA
ATOM     35  H   UNL     1       3.156  -5.716  -1.244  1.00  0.00     0.210 HD
ENDBRANCH  33  34
ENDBRANCH   7  33
ENDBRANCH   5   7
ENDBRANCH   4   5
ENDBRANCH   3   4
ENDBRANCH   2   3
ENDBRANCH   1   2
BRANCH   1  36
ATOM     36  C   UNL     1       7.190  -5.084   2.957  1.00  0.00     0.188 C 
BRANCH  36  37
ATOM     37  C   UNL     1       7.529  -4.716   1.507  1.00  0.00     0.188 C 
BRANCH  37  38
ATOM     38  O   UNL     1       8.665  -5.335   0.910  1.00  0.00    -0.376 OA
BRANCH  38  39
ATOM     39  C   UNL     1       9.783  -5.595   1.750  1.00  0.00     0.202 C 
BRANCH  39  40
ATOM     40  C   UNL     1      10.584  -4.360   2.163  1.00  0.00     0.261 C 
BRANCH  40  41
ATOM     41  O   UNL     1       9.777  -3.367   2.828  1.00  0.00    -0.460 OA
BRANCH  41  42
ATOM     42  C   UNL     1      10.005  -2.096   2.422  1.00  0.00     0.338 C 
ATOM     43  O   UNL     1      10.830  -1.708   1.616  1.00  0.00    -0.246 OA
BRANCH  42  44
ATOM     44  C   UNL     1       9.081  -1.159   3.085  1.00  0.00     0.060 A 
ATOM     45  C   UNL     1       7.957  -0.712   2.384  1.00  0.00     0.016 A 
ATOM     46  C   UNL     1       9.467  -0.534   4.275  1.00  0.00     0.016 A 
ATOM     47  C   UNL     1       7.253   0.405   2.846  1.00  0.00     0.010 A 
ATOM     48  C   UNL     1       8.744   0.571   4.745  1.00  0.00     0.010 A 
ATOM     49  C   UNL     1       7.655   1.073   4.012  1.00  0.00    -0.014 A 
BRANCH  49  50
ATOM     50  C   UNL     1       7.054   2.394   4.344  1.00  0.00     0.031 A 
ATOM     51  C   UNL     1       7.777   3.649   3.930  1.00  0.00     0.074 A 
ATOM     52  C   UNL     1       5.858   2.494   4.952  1.00  0.00     0.049 A 
ATOM     53  N   UNL     1       7.467   4.903   4.155  1.00  0.00    -0.248 NA
ATOM     54  C   UNL     1       9.010   3.465   3.150  1.00  0.00     0.031 C 
ATOM     55  C   UNL     1       5.011   1.373   5.349  1.00  0.00     0.029 A 
ATOM     56  N   UNL     1       5.150   3.608   5.342  1.00  0.00    -0.354 N 
ATOM     57  C   UNL     1       8.469   5.653   3.553  1.00  0.00     0.074 A 
ATOM     58  C   UNL     1       9.404   4.716   2.967  1.00  0.00     0.031 C 
ATOM     59  C   UNL     1       3.901   1.855   5.938  1.00  0.00     0.029 A 
ATOM     60  C   UNL     1       3.977   3.315   5.993  1.00  0.00     0.049 A 
ATOM     61  H   UNL     1       5.456   4.527   5.171  1.00  0.00     0.167 HD
ATOM     62  C   UNL     1       8.601   7.000   3.490  1.00  0.00     0.037 A 
ATOM     63  C   UNL     1       3.083   4.130   6.591  1.00  0.00     0.037 A 
ATOM     64  C   UNL     1       7.679   7.946   4.061  1.00  0.00     0.049 A 
ATOM     65  C   UNL     1       3.300   5.625   6.584  1.00  0.00     0.074 A 
ATOM     66  C   UNL     1       7.740   9.330   4.041  1.00  0.00     0.029 A 
ATOM     67  N   UNL     1       6.530   7.608   4.757  1.00  0.00    -0.354 N 
ATOM     68  N   UNL     1       4.252   6.325   6.018  1.00  0.00    -0.248 NA
ATOM     69  C   UNL     1       2.312   6.442   7.308  1.00  0.00     0.031 C 
ATOM     70  C   UNL     1       6.651   9.828   4.764  1.00  0.00     0.029 A 
ATOM     71  C   UNL     1       5.886   8.756   5.192  1.00  0.00     0.049 A 
ATOM     72  H   UNL     1       6.217   6.689   4.918  1.00  0.00     0.167 HD
ATOM     73  C   UNL     1       3.966   7.657   6.297  1.00  0.00     0.074 A 
ATOM     74  C   UNL     1       2.742   7.672   7.066  1.00  0.00     0.031 C 
ATOM     75  C   UNL     1       4.661   8.768   5.949  1.00  0.00     0.037 A 
BRANCH  62  76
ATOM     76  C   UNL     1       9.820   7.540   2.803  1.00  0.00     0.064 A 
ATOM     77  C   UNL     1       9.950   7.518   1.407  1.00  0.00     0.173 A 
ATOM     78  C   UNL     1      10.854   8.121   3.553  1.00  0.00     0.173 A 
ATOM     79  F   UNL     1       8.994   6.960   0.649  1.00  0.00    -0.203 F 
ATOM     80  C   UNL     1      11.082   8.040   0.787  1.00  0.00     0.198 A 
ATOM     81  C   UNL     1      11.972   8.664   2.928  1.00  0.00     0.198 A 
ATOM     82  F   UNL     1      10.773   8.170   4.891  1.00  0.00    -0.203 F 
ATOM     83  F   UNL     1      11.205   7.974  -0.546  1.00  0.00    -0.200 F 
ATOM     84  C   UNL     1      12.088   8.618   1.547  1.00  0.00     0.200 A 
ATOM     85  F   UNL     1      12.938   9.233   3.664  1.00  0.00    -0.200 F 
ATOM     86  F   UNL     1      13.174   9.127   0.949  1.00  0.00    -0.200 F 
ENDBRANCH  62  76
BRANCH  63  87
ATOM     87  C   UNL     1       1.904   3.558   7.293  1.00  0.00     0.064 A 
ATOM     88  C   UNL     1       0.603   3.775   6.820  1.00  0.00     0.173 A 
ATOM     89  C   UNL     1       2.053   2.836   8.486  1.00  0.00     0.173 A 
ATOM     90  F   UNL     1       0.408   4.489   5.701  1.00  0.00    -0.203 F 
ATOM     91  C   UNL     1      -0.506   3.313   7.526  1.00  0.00     0.198 A 
ATOM     92  C   UNL     1       0.946   2.349   9.176  1.00  0.00     0.198 A 
ATOM     93  F   UNL     1       3.277   2.613   8.988  1.00  0.00    -0.203 F 
ATOM     94  F   UNL     1      -1.741   3.586   7.084  1.00  0.00    -0.200 F 
ATOM     95  C   UNL     1      -0.334   2.597   8.701  1.00  0.00     0.200 A 
ATOM     96  F   UNL     1       1.117   1.655  10.309  1.00  0.00    -0.200 F 
ATOM     97  F   UNL     1      -1.400   2.159   9.385  1.00  0.00    -0.200 F 
ENDBRANCH  63  87
BRANCH  75  98
ATOM     98  C   UNL     1       4.101  10.100   6.364  1.00  0.00     0.064 A 
ATOM     99  C   UNL     1       4.126  10.526   7.700  1.00  0.00     0.173 A 
ATOM    100  C   UNL     1       3.567  10.977   5.407  1.00  0.00     0.173 A 
ATOM    101  F   UNL     1       4.612   9.720   8.656  1.00  0.00    -0.203 F 
ATOM    102  C   UNL     1       3.614  11.769   8.067  1.00  0.00     0.198 A 
ATOM    103  C   UNL     1       3.083  12.231   5.773  1.00  0.00     0.198 A 
ATOM    104  F   UNL     1       3.526  10.623   4.114  1.00  0.00    -0.203 F 
ATOM    105  F   UNL     1       3.607  12.134   9.356  1.00  0.00    -0.200 F 
ATOM    106  C   UNL     1       3.099  12.622   7.103  1.00  0.00     0.200 A 
ATOM    107  F   UNL     1       2.597  13.059   4.838  1.00  0.00    -0.200 F 
ATOM    108  F   UNL     1       2.612  13.820   7.457  1.00  0.00    -0.200 F 
ENDBRANCH  75  98
ENDBRANCH  49  50
ENDBRANCH  42  44
ENDBRANCH  41  42
ENDBRANCH  40  41
ENDBRANCH  39  40
ENDBRANCH  38  39
ENDBRANCH  37  38
ENDBRANCH  36  37
ENDBRANCH   1  36
TORSDOF 26
