REMARK SMILES O=C(N[C@@H](CS)C(=O)N[C@@H](CO)C(=O)OCCOCCOCCOC(=O)c1ccc(-c2c3nc(c(-c4c(F)c(F)c(F)c(F)c4F)c4ccc([nH]4)c(-c4c(F)c(F)c(F)c(F)c4F)c4nc(c(-c5c(F)c(F)c(F)c(F)c5F)c5ccc2[nH]5)C=C4)C=C3)cc1)c1ccc(F)cc1
REMARK SMILES IDX 19 1 18 2 17 3 16 4 15 5 13 6 14 7 10 8 9 9 7 10 8 11 4 13
REMARK SMILES IDX 3 14 1 15 2 16 90 18 91 19 96 20 92 21 95 22 93 23 94 24
REMARK SMILES IDX 5 25 6 26 11 28 12 29 20 31 21 32 22 33 23 34 24 35 25 36
REMARK SMILES IDX 26 37 27 38 28 39 89 40 29 41 88 42 30 43 31 44 32 45 82 46
REMARK SMILES IDX 33 47 87 48 81 49 83 50 34 51 86 52 80 53 79 54 35 56 67 57
REMARK SMILES IDX 47 58 66 59 48 60 51 61 65 62 84 63 49 64 50 65 64 67 85 68
REMARK SMILES IDX 52 69 36 70 37 71 45 72 38 73 39 74 43 75 46 76 40 77 41 78
REMARK SMILES IDX 44 79 42 80 68 81 69 82 77 83 70 84 71 85 75 86 78 87 72 88
REMARK SMILES IDX 73 89 76 90 74 91 53 92 54 93 62 94 55 95 56 96 60 97 63 98
REMARK SMILES IDX 57 99 58 100 61 101 59 102
REMARK H PARENT 9 12 3 17 6 27 12 30 83 55 51 66
REMARK Flexibility Score: inf
ROOT
ATOM      1  C   UNL     1       6.411   4.367   3.380  1.00  0.00     0.188 C 
ENDROOT
BRANCH   1   2
ATOM      2  O   UNL     1       6.718   5.292   4.408  1.00  0.00    -0.376 OA
BRANCH   2   3
ATOM      3  C   UNL     1       6.222   5.022   5.717  1.00  0.00     0.202 C 
BRANCH   3   4
ATOM      4  C   UNL     1       4.732   4.693   5.865  1.00  0.00     0.261 C 
BRANCH   4   5
ATOM      5  O   UNL     1       4.368   3.442   5.241  1.00  0.00    -0.462 OA
BRANCH   5   6
ATOM      6  C   UNL     1       3.068   3.361   4.835  1.00  0.00     0.331 C 
ATOM      7  O   UNL     1       2.244   4.257   4.982  1.00  0.00    -0.250 OA
BRANCH   6   8
ATOM      8  C   UNL     1       2.711   2.011   4.174  1.00  0.00     0.218 C 
BRANCH   8   9
ATOM      9  N   UNL     1       3.826   1.081   3.962  1.00  0.00    -0.339 N 
ATOM     10  C   UNL     1       4.279   0.397   2.885  1.00  0.00     0.244 C 
ATOM     11  O   UNL     1       5.267  -0.323   3.076  1.00  0.00    -0.273 OA
ATOM     12  H   UNL     1       4.358   0.920   4.775  1.00  0.00     0.164 HD
BRANCH  10  13
ATOM     13  C   UNL     1       3.732   0.525   1.446  1.00  0.00     0.181 C 
BRANCH  13  14
ATOM     14  N   UNL     1       2.335   0.156   1.238  1.00  0.00    -0.339 N 
ATOM     15  O   UNL     1       0.568  -0.504   0.011  1.00  0.00    -0.269 OA
ATOM     16  C   UNL     1       1.787  -0.496   0.155  1.00  0.00     0.251 C 
ATOM     17  H   UNL     1       1.710   0.403   1.958  1.00  0.00     0.164 HD
BRANCH  16  18
ATOM     18  C   UNL     1       2.647  -1.153  -0.863  1.00  0.00     0.040 A 
ATOM     19  C   UNL     1       3.611  -2.106  -0.500  1.00  0.00     0.017 A 
ATOM     20  C   UNL     1       2.442  -0.852  -2.216  1.00  0.00     0.017 A 
ATOM     21  C   UNL     1       4.416  -2.693  -1.480  1.00  0.00     0.040 A 
ATOM     22  C   UNL     1       3.240  -1.453  -3.195  1.00  0.00     0.040 A 
ATOM     23  C   UNL     1       4.227  -2.358  -2.817  1.00  0.00     0.123 A 
ATOM     24  F   UNL     1       5.001  -2.922  -3.753  1.00  0.00    -0.207 F 
ENDBRANCH  16  18
ENDBRANCH  13  14
BRANCH  13  25
ATOM     25  C   UNL     1       4.154   1.815   0.725  1.00  0.00     0.101 C 
BRANCH  25  26
ATOM     26  S   UNL     1       3.098   3.284   0.895  1.00  0.00    -0.177 SA
ATOM     27  H   UNL     1       1.889   3.043   0.321  1.00  0.00     0.102 HD
ENDBRANCH  25  26
ENDBRANCH  13  25
ENDBRANCH  10  13
ENDBRANCH   8   9
BRANCH   8  28
ATOM     28  C   UNL     1       1.635   1.340   5.035  1.00  0.00     0.193 C 
BRANCH  28  29
ATOM     29  O   UNL     1       2.198   0.796   6.229  1.00  0.00    -0.394 OA
ATOM     30  H   UNL     1       2.860   0.126   5.998  1.00  0.00     0.210 HD
ENDBRANCH  28  29
ENDBRANCH   8  28
ENDBRANCH   6   8
ENDBRANCH   5   6
ENDBRANCH   4   5
ENDBRANCH   3   4
ENDBRANCH   2   3
ENDBRANCH   1   2
BRANCH   1  31
ATOM     31  C   UNL     1       6.823   2.897   3.560  1.00  0.00     0.188 C 
BRANCH  31  32
ATOM     32  O   UNL     1       7.471   2.470   4.731  1.00  0.00    -0.376 OA
BRANCH  32  33
ATOM     33  C   UNL     1       8.828   2.797   4.979  1.00  0.00     0.202 C 
BRANCH  33  34
ATOM     34  C   UNL     1       9.852   3.199   3.901  1.00  0.00     0.261 C 
BRANCH  34  35
ATOM     35  O   UNL     1       9.333   3.633   2.642  1.00  0.00    -0.460 OA
BRANCH  35  36
ATOM     36  C   UNL     1       9.699   2.885   1.571  1.00  0.00     0.338 C 
ATOM     37  O   UNL     1      10.422   1.908   1.544  1.00  0.00    -0.246 OA
BRANCH  36  38
ATOM     38  C   UNL     1       8.966   3.376   0.393  1.00  0.00     0.060 A 
ATOM     39  C   UNL     1       7.791   2.719   0.016  1.00  0.00     0.016 A 
ATOM     40  C   UNL     1       9.472   4.427  -0.370  1.00  0.00     0.016 A 
ATOM     41  C   UNL     1       7.091   3.137  -1.113  1.00  0.00     0.010 A 
ATOM     42  C   UNL     1       8.785   4.823  -1.523  1.00  0.00     0.010 A 
ATOM     43  C   UNL     1       7.594   4.178  -1.901  1.00  0.00    -0.014 A 
BRANCH  43  44
ATOM     44  C   UNL     1       6.967   4.469  -3.210  1.00  0.00     0.031 A 
ATOM     45  C   UNL     1       7.537   3.820  -4.437  1.00  0.00     0.074 A 
ATOM     46  C   UNL     1       5.878   5.251  -3.308  1.00  0.00     0.049 A 
ATOM     47  N   UNL     1       7.264   4.039  -5.696  1.00  0.00    -0.248 NA
ATOM     48  C   UNL     1       8.538   2.766  -4.207  1.00  0.00     0.031 C 
ATOM     49  C   UNL     1       5.145   5.830  -2.185  1.00  0.00     0.029 A 
ATOM     50  N   UNL     1       5.200   5.694  -4.418  1.00  0.00    -0.354 N 
ATOM     51  C   UNL     1       8.073   3.166  -6.410  1.00  0.00     0.074 A 
ATOM     52  C   UNL     1       8.842   2.409  -5.446  1.00  0.00     0.031 C 
ATOM     53  C   UNL     1       4.126   6.566  -2.664  1.00  0.00     0.029 A 
ATOM     54  C   UNL     1       4.177   6.561  -4.125  1.00  0.00     0.049 A 
ATOM     55  H   UNL     1       5.427   5.416  -5.335  1.00  0.00     0.167 HD
ATOM     56  C   UNL     1       8.171   3.018  -7.752  1.00  0.00     0.037 A 
ATOM     57  C   UNL     1       3.408   7.303  -4.948  1.00  0.00     0.037 A 
ATOM     58  C   UNL     1       7.411   3.777  -8.707  1.00  0.00     0.049 A 
ATOM     59  C   UNL     1       3.643   7.235  -6.438  1.00  0.00     0.074 A 
ATOM     60  C   UNL     1       7.474   3.739 -10.088  1.00  0.00     0.029 A 
ATOM     61  N   UNL     1       6.447   4.716  -8.374  1.00  0.00    -0.354 N 
ATOM     62  N   UNL     1       4.458   6.464  -7.115  1.00  0.00    -0.248 NA
ATOM     63  C   UNL     1       2.867   8.163  -7.275  1.00  0.00     0.031 C 
ATOM     64  C   UNL     1       6.575   4.685 -10.592  1.00  0.00     0.029 A 
ATOM     65  C   UNL     1       5.921   5.280  -9.524  1.00  0.00     0.049 A 
ATOM     66  H   UNL     1       6.176   4.947  -7.457  1.00  0.00     0.167 HD
ATOM     67  C   UNL     1       4.280   6.798  -8.452  1.00  0.00     0.074 A 
ATOM     68  C   UNL     1       3.268   7.832  -8.494  1.00  0.00     0.031 C 
ATOM     69  C   UNL     1       4.903   6.298  -9.547  1.00  0.00     0.037 A 
BRANCH  56  70
ATOM     70  C   UNL     1       9.180   2.036  -8.262  1.00  0.00     0.064 A 
ATOM     71  C   UNL     1       8.965   0.652  -8.187  1.00  0.00     0.173 A 
ATOM     72  C   UNL     1      10.371   2.489  -8.848  1.00  0.00     0.173 A 
ATOM     73  F   UNL     1       7.851   0.172  -7.615  1.00  0.00    -0.203 F 
ATOM     74  C   UNL     1       9.918  -0.243  -8.666  1.00  0.00     0.198 A 
ATOM     75  C   UNL     1      11.309   1.591  -9.347  1.00  0.00     0.198 A 
ATOM     76  F   UNL     1      10.621   3.804  -8.939  1.00  0.00    -0.203 F 
ATOM     77  F   UNL     1       9.713  -1.563  -8.549  1.00  0.00    -0.200 F 
ATOM     78  C   UNL     1      11.085   0.227  -9.251  1.00  0.00     0.200 A 
ATOM     79  F   UNL     1      12.433   2.048  -9.917  1.00  0.00    -0.200 F 
ATOM     80  F   UNL     1      11.999  -0.637  -9.714  1.00  0.00    -0.200 F 
ENDBRANCH  56  70
BRANCH  57  81
ATOM     81  C   UNL     1       2.390   8.235  -4.392  1.00  0.00     0.064 A 
ATOM     82  C   UNL     1       1.023   8.044  -4.638  1.00  0.00     0.173 A 
ATOM     83  C   UNL     1       2.767   9.368  -3.655  1.00  0.00     0.173 A 
ATOM     84  F   UNL     1       0.615   6.996  -5.369  1.00  0.00    -0.203 F 
ATOM     85  C   UNL     1       0.075   8.959  -4.183  1.00  0.00     0.198 A 
ATOM     86  C   UNL     1       1.816  10.266  -3.175  1.00  0.00     0.198 A 
ATOM     87  F   UNL     1       4.062   9.608  -3.406  1.00  0.00    -0.203 F 
ATOM     88  F   UNL     1      -1.220   8.783  -4.481  1.00  0.00    -0.200 F 
ATOM     89  C   UNL     1       0.471  10.066  -3.448  1.00  0.00     0.200 A 
ATOM     90  F   UNL     1       2.204  11.332  -2.462  1.00  0.00    -0.200 F 
ATOM     91  F   UNL     1      -0.440  10.949  -3.018  1.00  0.00    -0.200 F 
ENDBRANCH  57  81
BRANCH  69  92
ATOM     92  C   UNL     1       4.490   6.833 -10.887  1.00  0.00     0.064 A 
ATOM     93  C   UNL     1       4.882   8.107 -11.321  1.00  0.00     0.173 A 
ATOM     94  C   UNL     1       3.750   6.034 -11.773  1.00  0.00     0.173 A 
ATOM     95  F   UNL     1       5.578   8.913 -10.504  1.00  0.00    -0.203 F 
ATOM     96  C   UNL     1       4.538   8.568 -12.589  1.00  0.00     0.198 A 
ATOM     97  C   UNL     1       3.429   6.488 -13.049  1.00  0.00     0.198 A 
ATOM     98  F   UNL     1       3.357   4.805 -11.407  1.00  0.00    -0.203 F 
ATOM     99  F   UNL     1       4.895   9.801 -12.971  1.00  0.00    -0.200 F 
ATOM    100  C   UNL     1       3.820   7.755 -13.454  1.00  0.00     0.200 A 
ATOM    101  F   UNL     1       2.748   5.697 -13.888  1.00  0.00    -0.200 F 
ATOM    102  F   UNL     1       3.502   8.195 -14.679  1.00  0.00    -0.200 F 
ENDBRANCH  69  92
ENDBRANCH  43  44
ENDBRANCH  36  38
ENDBRANCH  35  36
ENDBRANCH  34  35
ENDBRANCH  33  34
ENDBRANCH  32  33
ENDBRANCH  31  32
ENDBRANCH   1  31
TORSDOF 25
