REMARK SMILES O=C(CCc1cc2n(n1)CCCN(S(=O)(=O)CCC(F)(F)F)C2)OCCOCCOCCOC(=O)c1ccc(-c2c3nc(c(-c4c(F)c(F)c(F)c(F)c4F)c4ccc([nH]4)c(-c4c(F)c(F)c(F)c(F)c4F)c4nc(c(-c5c(F)c(F)c(F)c(F)c5F)c5ccc2[nH]5)C=C4)C=C3)cc1
REMARK SMILES IDX 25 1 24 2 2 3 1 4 3 5 4 6 5 7 6 8 9 9 7 10 8 11 23 12 13 13
REMARK SMILES IDX 12 14 14 16 15 17 16 18 17 19 18 20 19 21 20 22 21 23 22 24
REMARK SMILES IDX 10 25 11 26 26 28 27 29 28 30 29 31 30 32 31 33 32 34 33 35
REMARK SMILES IDX 34 36 35 37 36 38 37 39 98 40 38 41 97 42 39 43 40 44 41 45
REMARK SMILES IDX 91 46 42 47 96 48 90 49 92 50 43 51 95 52 89 53 88 54 44 56
REMARK SMILES IDX 76 57 56 58 75 59 57 60 60 61 74 62 93 63 58 64 59 65 73 67
REMARK SMILES IDX 94 68 61 69 45 70 46 71 54 72 47 73 48 74 52 75 55 76 49 77
REMARK SMILES IDX 50 78 53 79 51 80 77 81 78 82 86 83 79 84 80 85 84 86 87 87
REMARK SMILES IDX 81 88 82 89 85 90 83 91 62 92 63 93 71 94 64 95 65 96 69 97
REMARK SMILES IDX 72 98 66 99 67 100 70 101 68 102
REMARK H PARENT 92 55 60 66
REMARK Flexibility Score: 90.00
ROOT
ATOM      1  C   UNL     1       3.812  -0.328  -0.907  1.00  0.00     0.261 C 
ENDROOT
BRANCH   1   2
ATOM      2  O   UNL     1       2.617  -0.841  -0.297  1.00  0.00    -0.463 OA
BRANCH   2   3
ATOM      3  C   UNL     1       2.435  -1.223   0.978  1.00  0.00     0.306 C 
ATOM      4  O   UNL     1       1.504  -1.979   1.253  1.00  0.00    -0.252 OA
BRANCH   3   5
ATOM      5  C   UNL     1       3.306  -0.669   2.066  1.00  0.00     0.129 C 
BRANCH   5   6
ATOM      6  C   UNL     1       4.363  -1.656   2.546  1.00  0.00     0.070 C 
BRANCH   6   7
ATOM      7  C   UNL     1       5.369  -2.001   1.501  1.00  0.00     0.063 A 
ATOM      8  C   UNL     1       5.443  -3.176   0.717  1.00  0.00     0.050 A 
ATOM      9  N   UNL     1       6.281  -1.100   1.116  1.00  0.00    -0.178 NA
ATOM     10  C   UNL     1       6.373  -2.896  -0.264  1.00  0.00     0.054 A 
ATOM     11  N   UNL     1       6.818  -1.630   0.003  1.00  0.00    -0.268 N 
BRANCH  10  12
ATOM     12  C   UNL     1       6.780  -3.643  -1.478  1.00  0.00     0.157 C 
BRANCH  12  13
ATOM     13  N   UNL     1       8.246  -3.887  -1.528  1.00  0.00    -0.196 NA
BRANCH  13  14
ATOM     14  C   UNL     1       9.128  -2.820  -0.982  1.00  0.00     0.104 CG0
ATOM     15  G   UNL     1       8.768  -1.460  -1.574  1.00  0.00     0.000 G0
ENDBRANCH  13  14
BRANCH  13  16
ATOM     16  S   UNL     1       8.681  -5.484  -1.223  1.00  0.00     0.214 S 
ATOM     17  O   UNL     1       8.828  -5.630   0.196  1.00  0.00    -0.212 OA
ATOM     18  O   UNL     1       7.784  -6.350  -1.979  1.00  0.00    -0.212 OA
BRANCH  16  19
ATOM     19  C   UNL     1      10.292  -5.652  -1.967  1.00  0.00     0.163 C 
BRANCH  19  20
ATOM     20  C   UNL     1      10.325  -5.651  -3.486  1.00  0.00     0.133 C 
BRANCH  20  21
ATOM     21  C   UNL     1       9.952  -4.342  -4.141  1.00  0.00     0.390 C 
ATOM     22  F   UNL     1      10.601  -3.306  -3.568  1.00  0.00    -0.171 F 
ATOM     23  F   UNL     1      10.317  -4.363  -5.445  1.00  0.00    -0.171 F 
ATOM     24  F   UNL     1       8.632  -4.091  -4.109  1.00  0.00    -0.171 F 
ENDBRANCH  20  21
ENDBRANCH  19  20
ENDBRANCH  16  19
ENDBRANCH  13  16
ENDBRANCH  12  13
ENDBRANCH  10  12
BRANCH  11  25
ATOM     25  C   UNL     1       7.589  -0.782  -0.886  1.00  0.00     0.146 C 
BRANCH  25  26
ATOM     26  C   UNL     1       8.768  -1.460  -1.574  1.00  0.00     0.040 CG0
ATOM     27  G   UNL     1       9.128  -2.820  -0.982  1.00  0.00     0.000 G0
ENDBRANCH  25  26
ENDBRANCH  11  25
ENDBRANCH   6   7
ENDBRANCH   5   6
ENDBRANCH   3   5
ENDBRANCH   2   3
ENDBRANCH   1   2
BRANCH   1  28
ATOM     28  C   UNL     1       4.377   1.020  -0.435  1.00  0.00     0.202 C 
BRANCH  28  29
ATOM     29  O   UNL     1       3.481   2.026   0.032  1.00  0.00    -0.376 OA
BRANCH  29  30
ATOM     30  C   UNL     1       2.166   2.064  -0.503  1.00  0.00     0.188 C 
BRANCH  30  31
ATOM     31  C   UNL     1       2.019   2.201  -2.032  1.00  0.00     0.188 C 
BRANCH  31  32
ATOM     32  O   UNL     1       3.136   1.687  -2.744  1.00  0.00    -0.376 OA
BRANCH  32  33
ATOM     33  C   UNL     1       3.817   2.531  -3.660  1.00  0.00     0.202 C 
BRANCH  33  34
ATOM     34  C   UNL     1       4.735   3.621  -3.095  1.00  0.00     0.261 C 
BRANCH  34  35
ATOM     35  O   UNL     1       4.479   3.958  -1.745  1.00  0.00    -0.460 OA
BRANCH  35  36
ATOM     36  C   UNL     1       3.453   4.811  -1.576  1.00  0.00     0.338 C 
ATOM     37  O   UNL     1       2.742   5.277  -2.453  1.00  0.00    -0.246 OA
BRANCH  36  38
ATOM     38  C   UNL     1       3.373   5.214  -0.161  1.00  0.00     0.060 A 
ATOM     39  C   UNL     1       2.292   6.054   0.113  1.00  0.00     0.016 A 
ATOM     40  C   UNL     1       4.597   5.313   0.509  1.00  0.00     0.016 A 
ATOM     41  C   UNL     1       2.583   7.263   0.684  1.00  0.00     0.010 A 
ATOM     42  C   UNL     1       4.895   6.526   1.064  1.00  0.00     0.010 A 
ATOM     43  C   UNL     1       3.917   7.519   1.007  1.00  0.00    -0.014 A 
BRANCH  43  44
ATOM     44  C   UNL     1       4.288   8.886   1.276  1.00  0.00     0.031 A 
ATOM     45  C   UNL     1       3.881   9.322   2.625  1.00  0.00     0.074 A 
ATOM     46  C   UNL     1       5.018   9.580   0.381  1.00  0.00     0.049 A 
ATOM     47  N   UNL     1       3.094  10.293   2.949  1.00  0.00    -0.248 NA
ATOM     48  C   UNL     1       4.259   8.446   3.748  1.00  0.00     0.031 C 
ATOM     49  C   UNL     1       5.636   9.100  -0.861  1.00  0.00     0.029 A 
ATOM     50  N   UNL     1       5.463  10.861   0.463  1.00  0.00    -0.354 N 
ATOM     51  C   UNL     1       3.041  10.265   4.338  1.00  0.00     0.074 A 
ATOM     52  C   UNL     1       3.597   9.008   4.756  1.00  0.00     0.031 C 
ATOM     53  C   UNL     1       6.559   9.997  -1.278  1.00  0.00     0.029 A 
ATOM     54  C   UNL     1       6.507  11.155  -0.406  1.00  0.00     0.049 A 
ATOM     55  H   UNL     1       5.079  11.522   1.082  1.00  0.00     0.167 HD
ATOM     56  C   UNL     1       2.824  11.401   5.048  1.00  0.00     0.037 A 
ATOM     57  C   UNL     1       7.333  12.225  -0.289  1.00  0.00     0.037 A 
ATOM     58  C   UNL     1       2.154  12.397   4.256  1.00  0.00     0.049 A 
ATOM     59  C   UNL     1       6.642  13.212   0.588  1.00  0.00     0.074 A 
ATOM     60  C   UNL     1       0.929  12.454   3.619  1.00  0.00     0.029 A 
ATOM     61  N   UNL     1       2.905  13.405   3.705  1.00  0.00    -0.354 N 
ATOM     62  N   UNL     1       5.549  13.841   0.245  1.00  0.00    -0.248 NA
ATOM     63  C   UNL     1       6.885  13.119   2.022  1.00  0.00     0.031 C 
ATOM     64  C   UNL     1       1.173  13.162   2.406  1.00  0.00     0.029 A 
ATOM     65  C   UNL     1       2.515  13.543   2.397  1.00  0.00     0.049 A 
ATOM     66  H   UNL     1       3.598  13.933   4.164  1.00  0.00     0.167 HD
ATOM     67  C   UNL     1       4.773  13.861   1.397  1.00  0.00     0.074 A 
ATOM     68  C   UNL     1       5.672  13.450   2.473  1.00  0.00     0.031 C 
ATOM     69  C   UNL     1       3.410  13.923   1.331  1.00  0.00     0.037 A 
BRANCH  56  70
ATOM     70  C   UNL     1       3.585  11.722   6.308  1.00  0.00     0.064 A 
ATOM     71  C   UNL     1       3.203  12.842   7.066  1.00  0.00     0.173 A 
ATOM     72  C   UNL     1       4.842  11.160   6.638  1.00  0.00     0.173 A 
ATOM     73  F   UNL     1       2.041  13.464   6.823  1.00  0.00    -0.203 F 
ATOM     74  C   UNL     1       4.051  13.402   8.024  1.00  0.00     0.198 A 
ATOM     75  C   UNL     1       5.657  11.687   7.634  1.00  0.00     0.198 A 
ATOM     76  F   UNL     1       5.390  10.157   5.942  1.00  0.00    -0.203 F 
ATOM     77  F   UNL     1       3.702  14.545   8.630  1.00  0.00    -0.200 F 
ATOM     78  C   UNL     1       5.279  12.829   8.303  1.00  0.00     0.200 A 
ATOM     79  F   UNL     1       6.851  11.124   7.873  1.00  0.00    -0.200 F 
ATOM     80  F   UNL     1       6.119  13.402   9.174  1.00  0.00    -0.200 F 
ENDBRANCH  56  70
BRANCH  57  81
ATOM     81  C   UNL     1       8.798  12.246  -0.523  1.00  0.00     0.064 A 
ATOM     82  C   UNL     1       9.496  13.454  -0.670  1.00  0.00     0.173 A 
ATOM     83  C   UNL     1       9.586  11.088  -0.349  1.00  0.00     0.173 A 
ATOM     84  F   UNL     1       8.825  14.609  -0.784  1.00  0.00    -0.203 F 
ATOM     85  C   UNL     1      10.896  13.502  -0.638  1.00  0.00     0.198 A 
ATOM     86  C   UNL     1      10.980  11.136  -0.325  1.00  0.00     0.198 A 
ATOM     87  F   UNL     1       9.019   9.899  -0.104  1.00  0.00    -0.203 F 
ATOM     88  F   UNL     1      11.528  14.681  -0.730  1.00  0.00    -0.200 F 
ATOM     89  C   UNL     1      11.636  12.344  -0.460  1.00  0.00     0.200 A 
ATOM     90  F   UNL     1      11.679  10.012  -0.113  1.00  0.00    -0.200 F 
ATOM     91  F   UNL     1      12.972  12.396  -0.377  1.00  0.00    -0.200 F 
ENDBRANCH  57  81
BRANCH  69  92
ATOM     92  C   UNL     1       2.789  14.168  -0.017  1.00  0.00     0.064 A 
ATOM     93  C   UNL     1       2.869  13.258  -1.086  1.00  0.00     0.173 A 
ATOM     94  C   UNL     1       1.952  15.278  -0.179  1.00  0.00     0.173 A 
ATOM     95  F   UNL     1       3.566  12.121  -0.969  1.00  0.00    -0.203 F 
ATOM     96  C   UNL     1       2.173  13.472  -2.275  1.00  0.00     0.198 A 
ATOM     97  C   UNL     1       1.230  15.472  -1.354  1.00  0.00     0.198 A 
ATOM     98  F   UNL     1       1.789  16.148   0.830  1.00  0.00    -0.203 F 
ATOM     99  F   UNL     1       2.271  12.590  -3.281  1.00  0.00    -0.200 F 
ATOM    100  C   UNL     1       1.348  14.576  -2.404  1.00  0.00     0.200 A 
ATOM    101  F   UNL     1       0.393  16.514  -1.455  1.00  0.00    -0.200 F 
ATOM    102  F   UNL     1       0.642  14.761  -3.529  1.00  0.00    -0.200 F 
ENDBRANCH  69  92
ENDBRANCH  43  44
ENDBRANCH  36  38
ENDBRANCH  35  36
ENDBRANCH  34  35
ENDBRANCH  33  34
ENDBRANCH  32  33
ENDBRANCH  31  32
ENDBRANCH  30  31
ENDBRANCH  29  30
ENDBRANCH  28  29
ENDBRANCH   1  28
TORSDOF 23
