REMARK SMILES C[NH2+][C@]1(C(=O)OCCOCCOCCOC(=O)c2ccc(-c3c4nc(c(-c5c(F)c(F)c(F)c(F)c5F)c5ccc([nH]5)c(-c5c(F)c(F)c(F)c(F)c5F)c5nc(c(-c6c(F)c(F)c(F)c(F)c6F)c6ccc3[nH]6)C=C5)C=C4)cc2)CCC[C@H](Sc2n[nH]c(=O)n2C)C1
REMARK SMILES IDX 10 1 9 2 8 3 7 4 6 5 4 6 5 7 3 8 81 9 93 10 82 11 84 12
REMARK SMILES IDX 83 13 2 14 1 15 85 18 86 19 87 20 91 21 88 22 89 23 92 24
REMARK SMILES IDX 90 26 11 27 12 28 13 29 14 30 15 31 16 32 17 33 18 34 19 35
REMARK SMILES IDX 80 36 20 37 79 38 21 39 22 40 23 41 73 42 24 43 78 44 72 45
REMARK SMILES IDX 74 46 25 47 77 48 71 49 70 50 26 52 58 53 38 54 57 55 39 56
REMARK SMILES IDX 42 57 56 58 75 59 40 60 41 61 55 63 76 64 43 65 27 66 28 67
REMARK SMILES IDX 36 68 29 69 30 70 34 71 37 72 31 73 32 74 35 75 33 76 59 77
REMARK SMILES IDX 60 78 68 79 61 80 62 81 66 82 69 83 63 84 64 85 67 86 65 87
REMARK SMILES IDX 44 88 45 89 53 90 46 91 47 92 51 93 54 94 48 95 49 96 52 97
REMARK SMILES IDX 50 98
REMARK H PARENT 2 16 2 17 88 25 74 51 42 62
REMARK Flexibility Score: inf
ROOT
ATOM      1  C   UNL     1       2.100   0.364  -1.880  1.00  0.00     0.188 C 
ENDROOT
BRANCH   1   2
ATOM      2  O   UNL     1       3.430   0.632  -1.458  1.00  0.00    -0.376 OA
BRANCH   2   3
ATOM      3  C   UNL     1       3.641   0.898  -0.070  1.00  0.00     0.202 C 
BRANCH   3   4
ATOM      4  C   UNL     1       2.683   1.854   0.672  1.00  0.00     0.261 C 
BRANCH   4   5
ATOM      5  O   UNL     1       1.291   1.462   0.652  1.00  0.00    -0.459 OA
BRANCH   5   6
ATOM      6  C   UNL     1       0.394   2.441   0.352  1.00  0.00     0.368 C 
ATOM      7  O   UNL     1       0.707   3.620   0.191  1.00  0.00    -0.245 OA
BRANCH   6   8
ATOM      8  C   UNL     1      -1.068   1.925   0.120  1.00  0.00     0.195 C 
ATOM      9  C   UNL     1      -1.399   0.622   0.905  1.00  0.00     0.081 C 
ATOM     10  C   UNL     1      -2.015   3.028   0.692  1.00  0.00     0.096 C 
ATOM     11  C   UNL     1      -2.882   0.232   0.860  1.00  0.00     0.008 C 
ATOM     12  C   UNL     1      -3.524   2.700   0.705  1.00  0.00     0.061 C 
ATOM     13  C   UNL     1      -3.765   1.353   1.393  1.00  0.00     0.015 C 
BRANCH   8  14
ATOM     14  N   UNL     1      -1.268   1.641  -1.343  1.00  0.00    -0.335 N 
ATOM     15  C   UNL     1      -0.947   2.748  -2.247  1.00  0.00     0.331 C 
ATOM     16  H   UNL     1      -0.677   0.848  -1.594  1.00  0.00     0.347 HD
ATOM     17  H   UNL     1      -2.266   1.462  -1.461  1.00  0.00     0.347 HD
ENDBRANCH   8  14
BRANCH  12  18
ATOM     18  S   UNL     1      -4.141   2.767  -1.007  1.00  0.00    -0.082 SA
BRANCH  18  19
ATOM     19  C   UNL     1      -5.849   2.761  -0.872  1.00  0.00     0.191 A 
ATOM     20  N   UNL     1      -6.527   2.760   0.236  1.00  0.00    -0.146 NA
ATOM     21  N   UNL     1      -6.590   2.753  -2.005  1.00  0.00    -0.273 N 
ATOM     22  N   UNL     1      -7.827   2.741  -0.189  1.00  0.00    -0.226 N 
ATOM     23  C   UNL     1      -7.887   2.738  -1.576  1.00  0.00     0.343 A 
ATOM     24  C   UNL     1      -6.211   2.766  -3.402  1.00  0.00     0.157 C 
ATOM     25  H   UNL     1      -8.612   2.731   0.406  1.00  0.00     0.195 HD
ATOM     26  O   UNL     1      -8.902   2.724  -2.257  1.00  0.00    -0.246 OA
ENDBRANCH  18  19
ENDBRANCH  12  18
ENDBRANCH   6   8
ENDBRANCH   5   6
ENDBRANCH   4   5
ENDBRANCH   3   4
ENDBRANCH   2   3
ENDBRANCH   1   2
BRANCH   1  27
ATOM     27  C   UNL     1       1.326  -0.744  -1.161  1.00  0.00     0.188 C 
BRANCH  27  28
ATOM     28  O   UNL     1       1.907  -1.189   0.041  1.00  0.00    -0.376 OA
BRANCH  28  29
ATOM     29  C   UNL     1       2.349  -2.531   0.154  1.00  0.00     0.202 C 
BRANCH  29  30
ATOM     30  C   UNL     1       3.088  -3.253  -0.994  1.00  0.00     0.261 C 
BRANCH  30  31
ATOM     31  O   UNL     1       2.622  -3.038  -2.336  1.00  0.00    -0.460 OA
BRANCH  31  32
ATOM     32  C   UNL     1       1.452  -3.624  -2.692  1.00  0.00     0.338 C 
ATOM     33  O   UNL     1       0.776  -4.380  -2.019  1.00  0.00    -0.246 OA
BRANCH  32  34
ATOM     34  C   UNL     1       0.993  -2.966  -3.944  1.00  0.00     0.060 A 
ATOM     35  C   UNL     1      -0.239  -2.292  -3.941  1.00  0.00     0.016 A 
ATOM     36  C   UNL     1       1.790  -2.960  -5.090  1.00  0.00     0.016 A 
ATOM     37  C   UNL     1      -0.689  -1.636  -5.090  1.00  0.00     0.010 A 
ATOM     38  C   UNL     1       1.326  -2.327  -6.248  1.00  0.00     0.010 A 
ATOM     39  C   UNL     1       0.071  -1.688  -6.264  1.00  0.00    -0.014 A 
BRANCH  39  40
ATOM     40  C   UNL     1      -0.525  -1.269  -7.558  1.00  0.00     0.031 A 
ATOM     41  C   UNL     1      -1.089  -2.337  -8.456  1.00  0.00     0.074 A 
ATOM     42  C   UNL     1      -0.576   0.020  -7.939  1.00  0.00     0.049 A 
ATOM     43  N   UNL     1      -1.571  -2.243  -9.668  1.00  0.00    -0.248 NA
ATOM     44  C   UNL     1      -1.104  -3.702  -7.906  1.00  0.00     0.031 C 
ATOM     45  C   UNL     1      -0.114   1.157  -7.147  1.00  0.00     0.029 A 
ATOM     46  N   UNL     1      -1.028   0.584  -9.108  1.00  0.00    -0.354 N 
ATOM     47  C   UNL     1      -1.934  -3.534 -10.029  1.00  0.00     0.074 A 
ATOM     48  C   UNL     1      -1.588  -4.398  -8.922  1.00  0.00     0.031 C 
ATOM     49  C   UNL     1      -0.285   2.283  -7.863  1.00  0.00     0.029 A 
ATOM     50  C   UNL     1      -0.832   1.941  -9.177  1.00  0.00     0.049 A 
ATOM     51  H   UNL     1      -1.453   0.064  -9.828  1.00  0.00     0.167 HD
ATOM     52  C   UNL     1      -2.511  -3.962 -11.177  1.00  0.00     0.037 A 
ATOM     53  C   UNL     1      -1.040   2.800 -10.195  1.00  0.00     0.037 A 
ATOM     54  C   UNL     1      -2.850  -3.104 -12.282  1.00  0.00     0.049 A 
ATOM     55  C   UNL     1      -1.602   2.288 -11.500  1.00  0.00     0.074 A 
ATOM     56  C   UNL     1      -3.447  -3.441 -13.484  1.00  0.00     0.029 A 
ATOM     57  N   UNL     1      -2.611  -1.739 -12.324  1.00  0.00    -0.354 N 
ATOM     58  N   UNL     1      -1.961   1.071 -11.829  1.00  0.00    -0.248 NA
ATOM     59  C   UNL     1      -1.789   3.274 -12.575  1.00  0.00     0.031 C 
ATOM     60  C   UNL     1      -3.513  -2.292 -14.277  1.00  0.00     0.029 A 
ATOM     61  C   UNL     1      -3.022  -1.224 -13.543  1.00  0.00     0.049 A 
ATOM     62  H   UNL     1      -2.208  -1.213 -11.595  1.00  0.00     0.167 HD
ATOM     63  C   UNL     1      -2.446   1.150 -13.130  1.00  0.00     0.074 A 
ATOM     64  C   UNL     1      -2.348   2.539 -13.527  1.00  0.00     0.031 C 
ATOM     65  C   UNL     1      -2.931   0.163 -13.924  1.00  0.00     0.037 A 
BRANCH  52  66
ATOM     66  C   UNL     1      -2.782  -5.433 -11.308  1.00  0.00     0.064 A 
ATOM     67  C   UNL     1      -3.766  -6.076 -10.542  1.00  0.00     0.173 A 
ATOM     68  C   UNL     1      -2.063  -6.206 -12.233  1.00  0.00     0.173 A 
ATOM     69  F   UNL     1      -4.471  -5.387  -9.632  1.00  0.00    -0.203 F 
ATOM     70  C   UNL     1      -3.998  -7.443 -10.675  1.00  0.00     0.198 A 
ATOM     71  C   UNL     1      -2.322  -7.565 -12.388  1.00  0.00     0.198 A 
ATOM     72  F   UNL     1      -1.113  -5.641 -12.993  1.00  0.00    -0.203 F 
ATOM     73  F   UNL     1      -4.904  -8.046  -9.893  1.00  0.00    -0.200 F 
ATOM     74  C   UNL     1      -3.282  -8.184 -11.602  1.00  0.00     0.200 A 
ATOM     75  F   UNL     1      -1.639  -8.276 -13.295  1.00  0.00    -0.200 F 
ATOM     76  F   UNL     1      -3.512  -9.497 -11.735  1.00  0.00    -0.200 F 
ENDBRANCH  52  66
BRANCH  53  77
ATOM     77  C   UNL     1      -0.694   4.240 -10.040  1.00  0.00     0.064 A 
ATOM     78  C   UNL     1      -1.688   5.229 -10.043  1.00  0.00     0.173 A 
ATOM     79  C   UNL     1       0.639   4.659  -9.920  1.00  0.00     0.173 A 
ATOM     80  F   UNL     1      -2.976   4.883 -10.185  1.00  0.00    -0.203 F 
ATOM     81  C   UNL     1      -1.361   6.581  -9.954  1.00  0.00     0.198 A 
ATOM     82  C   UNL     1       0.963   6.009  -9.798  1.00  0.00     0.198 A 
ATOM     83  F   UNL     1       1.630   3.756  -9.919  1.00  0.00    -0.203 F 
ATOM     84  F   UNL     1      -2.327   7.507 -10.015  1.00  0.00    -0.200 F 
ATOM     85  C   UNL     1      -0.036   6.970  -9.825  1.00  0.00     0.200 A 
ATOM     86  F   UNL     1       2.244   6.379  -9.663  1.00  0.00    -0.200 F 
ATOM     87  F   UNL     1       0.278   8.269  -9.737  1.00  0.00    -0.200 F 
ENDBRANCH  53  77
BRANCH  65  88
ATOM     88  C   UNL     1      -3.443   0.548 -15.285  1.00  0.00     0.064 A 
ATOM     89  C   UNL     1      -2.583   0.960 -16.313  1.00  0.00     0.173 A 
ATOM     90  C   UNL     1      -4.813   0.456 -15.577  1.00  0.00     0.173 A 
ATOM     91  F   UNL     1      -1.265   1.077 -16.086  1.00  0.00    -0.203 F 
ATOM     92  C   UNL     1      -3.078   1.294 -17.572  1.00  0.00     0.198 A 
ATOM     93  C   UNL     1      -5.300   0.756 -16.847  1.00  0.00     0.198 A 
ATOM     94  F   UNL     1      -5.681   0.058 -14.635  1.00  0.00    -0.203 F 
ATOM     95  F   UNL     1      -2.243   1.735 -18.523  1.00  0.00    -0.200 F 
ATOM     96  C   UNL     1      -4.434   1.183 -17.840  1.00  0.00     0.200 A 
ATOM     97  F   UNL     1      -6.609   0.630 -17.108  1.00  0.00    -0.200 F 
ATOM     98  F   UNL     1      -4.907   1.494 -19.055  1.00  0.00    -0.200 F 
ENDBRANCH  65  88
ENDBRANCH  39  40
ENDBRANCH  32  34
ENDBRANCH  31  32
ENDBRANCH  30  31
ENDBRANCH  29  30
ENDBRANCH  28  29
ENDBRANCH  27  28
ENDBRANCH   1  27
TORSDOF 20
