REMARK SMILES O=C(OCCOCCOCCOC(=O)c1ccc(-c2c3nc(c(-c4c(F)c(F)c(F)c(F)c4F)c4ccc([nH]4)c(-c4c(F)c(F)c(F)c(F)c4F)c4nc(c(-c5c(F)c(F)c(F)c(F)c5F)c5ccc2[nH]5)C=C4)C=C3)cc1)C1=Cc2cc(Cl)cc(-c3ccc(CO)cc3)c2O[C@@H]1C(F)(F)F
REMARK SMILES IDX 7 1 6 2 5 3 4 4 3 5 2 6 1 7 78 8 79 9 96 10 80 11 95 12
REMARK SMILES IDX 81 13 94 14 82 15 85 16 83 17 84 18 97 19 98 20 99 21 100 22
REMARK SMILES IDX 86 23 87 24 93 25 88 26 92 27 89 28 90 29 91 30 8 32 9 33
REMARK SMILES IDX 10 34 11 35 12 36 13 37 14 38 15 39 16 40 77 41 17 42 76 43
REMARK SMILES IDX 18 44 19 45 20 46 70 47 21 48 75 49 69 50 71 51 22 52 74 53
REMARK SMILES IDX 68 54 67 55 23 57 55 58 35 59 54 60 36 61 39 62 53 63 72 64
REMARK SMILES IDX 37 65 38 66 52 68 73 69 40 70 24 71 25 72 33 73 26 74 27 75
REMARK SMILES IDX 31 76 34 77 28 78 29 79 32 80 30 81 56 82 57 83 65 84 58 85
REMARK SMILES IDX 59 86 63 87 66 88 60 89 61 90 64 91 62 92 41 93 42 94 50 95
REMARK SMILES IDX 43 96 44 97 48 98 51 99 45 100 46 101 49 102 47 103
REMARK H PARENT 91 31 71 56 39 67
REMARK Flexibility Score: inf
ROOT
ATOM      1  C   UNL     1       2.102  -2.188  -0.282  1.00  0.00     0.188 C 
ENDROOT
BRANCH   1   2
ATOM      2  O   UNL     1       3.563  -1.986  -0.675  1.00  0.00    -0.376 OA
BRANCH   2   3
ATOM      3  C   UNL     1       4.469  -0.455  -0.653  1.00  0.00     0.202 C 
BRANCH   3   4
ATOM      4  C   UNL     1       3.843   1.222   0.587  1.00  0.00     0.261 C 
BRANCH   4   5
ATOM      5  O   UNL     1       2.893   2.354   0.157  1.00  0.00    -0.460 OA
BRANCH   5   6
ATOM      6  C   UNL     1       3.040   2.683  -1.136  1.00  0.00     0.338 C 
ATOM      7  O   UNL     1       2.342   3.385  -1.824  1.00  0.00    -0.246 OA
BRANCH   6   8
ATOM      8  C   UNL     1       3.895   1.563  -1.476  1.00  0.00     0.087 C 
ATOM      9  C   UNL     1       5.287   1.689  -1.110  1.00  0.00     0.027 C 
ATOM     10  C   UNL     1       2.686   0.251  -0.787  1.00  0.00     0.316 C 
ATOM     11  C   UNL     1       6.028   0.842   0.273  1.00  0.00     0.019 A 
ATOM     12  O   UNL     1       3.429  -0.579   0.842  1.00  0.00    -0.475 OA
ATOM     13  C   UNL     1       7.298   1.236   0.610  1.00  0.00     0.032 A 
ATOM     14  C   UNL     1       5.165  -0.239   1.314  1.00  0.00     0.135 A 
ATOM     15  C   UNL     1       7.813   0.663   1.772  1.00  0.00     0.042 A 
ATOM     16  C   UNL     1       5.792  -0.817   2.412  1.00  0.00     0.026 A 
ATOM     17  Cl  UNL     1       9.400   1.149   2.266  1.00  0.00    -0.084 Cl
ATOM     18  C   UNL     1       7.121  -0.301   2.589  1.00  0.00     0.033 A 
BRANCH  10  19
ATOM     19  C   UNL     1       2.414  -0.347  -2.392  1.00  0.00     0.430 C 
ATOM     20  F   UNL     1       2.556  -1.645  -2.701  1.00  0.00    -0.167 F 
ATOM     21  F   UNL     1       1.162   0.013  -2.779  1.00  0.00    -0.167 F 
ATOM     22  F   UNL     1       3.239   0.264  -3.303  1.00  0.00    -0.167 F 
ENDBRANCH  10  19
BRANCH  16  23
ATOM     23  C   UNL     1       5.437  -1.897   3.332  1.00  0.00    -0.015 A 
ATOM     24  C   UNL     1       4.872  -1.647   4.587  1.00  0.00     0.009 A 
ATOM     25  C   UNL     1       5.944  -3.195   3.108  1.00  0.00     0.009 A 
ATOM     26  C   UNL     1       4.699  -2.680   5.523  1.00  0.00     0.007 A 
ATOM     27  C   UNL     1       5.746  -4.237   4.026  1.00  0.00     0.007 A 
ATOM     28  C   UNL     1       5.072  -3.997   5.224  1.00  0.00    -0.023 A 
BRANCH  28  29
ATOM     29  C   UNL     1       4.755  -5.126   6.170  1.00  0.00     0.191 C 
BRANCH  29  30
ATOM     30  O   UNL     1       5.844  -5.400   7.037  1.00  0.00    -0.392 OA
ATOM     31  H   UNL     1       6.616  -5.664   6.512  1.00  0.00     0.211 HD
ENDBRANCH  29  30
ENDBRANCH  28  29
ENDBRANCH  16  23
ENDBRANCH   6   8
ENDBRANCH   5   6
ENDBRANCH   4   5
ENDBRANCH   3   4
ENDBRANCH   2   3
ENDBRANCH   1   2
BRANCH   1  32
ATOM     32  C   UNL     1       1.565  -3.458   0.397  1.00  0.00     0.188 C 
BRANCH  32  33
ATOM     33  O   UNL     1       2.220  -3.947   1.532  1.00  0.00    -0.376 OA
BRANCH  33  34
ATOM     34  C   UNL     1       3.607  -4.137   1.365  1.00  0.00     0.202 C 
BRANCH  34  35
ATOM     35  C   UNL     1       4.115  -5.136   0.320  1.00  0.00     0.261 C 
BRANCH  35  36
ATOM     36  O   UNL     1       3.766  -4.810  -1.033  1.00  0.00    -0.460 OA
BRANCH  36  37
ATOM     37  C   UNL     1       2.800  -5.570  -1.599  1.00  0.00     0.338 C 
ATOM     38  O   UNL     1       2.219  -6.525  -1.115  1.00  0.00    -0.246 OA
BRANCH  37  39
ATOM     39  C   UNL     1       2.402  -4.943  -2.869  1.00  0.00     0.060 A 
ATOM     40  C   UNL     1       1.121  -4.383  -2.999  1.00  0.00     0.016 A 
ATOM     41  C   UNL     1       3.282  -4.973  -3.949  1.00  0.00     0.016 A 
ATOM     42  C   UNL     1       0.716  -3.841  -4.215  1.00  0.00     0.010 A 
ATOM     43  C   UNL     1       2.859  -4.477  -5.180  1.00  0.00     0.010 A 
ATOM     44  C   UNL     1       1.567  -3.938  -5.320  1.00  0.00    -0.014 A 
BRANCH  44  45
ATOM     45  C   UNL     1       1.009  -3.738  -6.672  1.00  0.00     0.031 A 
ATOM     46  C   UNL     1       0.458  -4.944  -7.376  1.00  0.00     0.074 A 
ATOM     47  C   UNL     1       0.986  -2.527  -7.249  1.00  0.00     0.049 A 
ATOM     48  N   UNL     1      -0.027  -5.056  -8.584  1.00  0.00    -0.248 NA
ATOM     49  C   UNL     1       0.461  -6.202  -6.609  1.00  0.00     0.031 C 
ATOM     50  C   UNL     1       1.445  -1.287  -6.629  1.00  0.00     0.029 A 
ATOM     51  N   UNL     1       0.565  -2.150  -8.498  1.00  0.00    -0.354 N 
ATOM     52  C   UNL     1      -0.383  -6.391  -8.720  1.00  0.00     0.074 A 
ATOM     53  C   UNL     1      -0.026  -7.060  -7.490  1.00  0.00     0.031 C 
ATOM     54  C   UNL     1       1.294  -0.282  -7.510  1.00  0.00     0.029 A 
ATOM     55  C   UNL     1       0.762  -0.818  -8.763  1.00  0.00     0.049 A 
ATOM     56  H   UNL     1       0.160  -2.775  -9.142  1.00  0.00     0.167 HD
ATOM     57  C   UNL     1      -0.964  -7.000  -9.779  1.00  0.00     0.037 A 
ATOM     58  C   UNL     1       0.555  -0.128  -9.901  1.00  0.00     0.037 A 
ATOM     59  C   UNL     1      -1.286  -6.327 -11.007  1.00  0.00     0.049 A 
ATOM     60  C   UNL     1       0.003  -0.855 -11.105  1.00  0.00     0.074 A 
ATOM     61  C   UNL     1      -1.870  -6.846 -12.148  1.00  0.00     0.029 A 
ATOM     62  N   UNL     1      -1.034  -4.985 -11.259  1.00  0.00    -0.354 N 
ATOM     63  N   UNL     1      -0.355  -2.112 -11.226  1.00  0.00    -0.248 NA
ATOM     64  C   UNL     1      -0.178  -0.064 -12.329  1.00  0.00     0.031 C 
ATOM     65  C   UNL     1      -1.903  -5.837 -13.115  1.00  0.00     0.029 A 
ATOM     66  C   UNL     1      -1.421  -4.667 -12.549  1.00  0.00     0.049 A 
ATOM     67  H   UNL     1      -0.638  -4.354 -10.615  1.00  0.00     0.167 HD
ATOM     68  C   UNL     1      -0.838  -2.252 -12.522  1.00  0.00     0.074 A 
ATOM     69  C   UNL     1      -0.740  -0.947 -13.143  1.00  0.00     0.031 C 
ATOM     70  C   UNL     1      -1.323  -3.356 -13.144  1.00  0.00     0.037 A 
BRANCH  57  71
ATOM     71  C   UNL     1      -1.243  -8.470  -9.662  1.00  0.00     0.064 A 
ATOM     72  C   UNL     1      -2.208  -8.973  -8.775  1.00  0.00     0.173 A 
ATOM     73  C   UNL     1      -0.544  -9.390 -10.458  1.00  0.00     0.173 A 
ATOM     74  F   UNL     1      -2.892  -8.140  -7.976  1.00  0.00    -0.203 F 
ATOM     75  C   UNL     1      -2.438 -10.343  -8.667  1.00  0.00     0.198 A 
ATOM     76  C   UNL     1      -0.804 -10.755 -10.375  1.00  0.00     0.198 A 
ATOM     77  F   UNL     1       0.391  -8.965 -11.322  1.00  0.00    -0.203 F 
ATOM     78  F   UNL     1      -3.321 -10.803  -7.770  1.00  0.00    -0.200 F 
ATOM     79  C   UNL     1      -1.743 -11.231  -9.473  1.00  0.00     0.200 A 
ATOM     80  F   UNL     1      -0.142 -11.610 -11.166  1.00  0.00    -0.200 F 
ATOM     81  F   UNL     1      -1.972 -12.548  -9.375  1.00  0.00    -0.200 F 
ENDBRANCH  57  71
BRANCH  58  82
ATOM     82  C   UNL     1       0.876   1.323  -9.968  1.00  0.00     0.064 A 
ATOM     83  C   UNL     1      -0.132   2.278 -10.165  1.00  0.00     0.173 A 
ATOM     84  C   UNL     1       2.197   1.786  -9.871  1.00  0.00     0.173 A 
ATOM     85  F   UNL     1      -1.409   1.887 -10.291  1.00  0.00    -0.203 F 
ATOM     86  C   UNL     1       0.171   3.633 -10.288  1.00  0.00     0.198 A 
ATOM     87  C   UNL     1       2.495   3.144  -9.958  1.00  0.00     0.198 A 
ATOM     88  F   UNL     1       3.203   0.917  -9.689  1.00  0.00    -0.203 F 
ATOM     89  F   UNL     1      -0.807   4.515 -10.540  1.00  0.00    -0.200 F 
ATOM     90  C   UNL     1       1.483   4.066 -10.179  1.00  0.00     0.200 A 
ATOM     91  F   UNL     1       3.764   3.559  -9.840  1.00  0.00    -0.200 F 
ATOM     92  F   UNL     1       1.774   5.368 -10.300  1.00  0.00    -0.200 F 
ENDBRANCH  58  82
BRANCH  70  93
ATOM     93  C   UNL     1      -1.836  -3.195 -14.548  1.00  0.00     0.064 A 
ATOM     94  C   UNL     1      -0.981  -2.928 -15.628  1.00  0.00     0.173 A 
ATOM     95  C   UNL     1      -3.204  -3.361 -14.822  1.00  0.00     0.173 A 
ATOM     96  F   UNL     1       0.333  -2.752 -15.422  1.00  0.00    -0.203 F 
ATOM     97  C   UNL     1      -1.480  -2.798 -16.921  1.00  0.00     0.198 A 
ATOM     98  C   UNL     1      -3.692  -3.273 -16.122  1.00  0.00     0.198 A 
ATOM     99  F   UNL     1      -4.065  -3.631 -13.830  1.00  0.00    -0.203 F 
ATOM    100  F   UNL     1      -0.653  -2.483 -17.928  1.00  0.00    -0.200 F 
ATOM    101  C   UNL     1      -2.833  -2.980 -17.169  1.00  0.00     0.200 A 
ATOM    102  F   UNL     1      -4.996  -3.474 -16.361  1.00  0.00    -0.200 F 
ATOM    103  F   UNL     1      -3.309  -2.868 -18.416  1.00  0.00    -0.200 F 
ENDBRANCH  70  93
ENDBRANCH  44  45
ENDBRANCH  37  39
ENDBRANCH  36  37
ENDBRANCH  35  36
ENDBRANCH  34  35
ENDBRANCH  33  34
ENDBRANCH  32  33
ENDBRANCH   1  32
TORSDOF 21
