REMARK SMILES O=C(OCCOCCOCCOC(=O)c1ccc(-c2c3nc(c(-c4c(F)c(F)c(F)c(F)c4F)c4ccc([nH]4)c(-c4c(F)c(F)c(F)c(F)c4F)c4nc(c(-c5c(F)c(F)c(F)c(F)c5F)c5ccc2[nH]5)C=C4)C=C3)cc1)c1ccc(NS(=O)(=O)Cc2c(Cl)cccc2Cl)cc1
REMARK SMILES IDX 7 1 6 2 5 3 4 4 3 5 2 6 1 7 78 8 79 9 96 10 80 11 95 12
REMARK SMILES IDX 81 13 82 14 83 16 84 17 85 18 86 19 87 20 88 21 93 22 89 23
REMARK SMILES IDX 90 24 92 25 94 26 91 27 8 28 9 29 10 30 11 31 12 32 13 33
REMARK SMILES IDX 14 34 15 35 16 36 77 37 17 38 76 39 18 40 19 41 20 42 70 43
REMARK SMILES IDX 21 44 75 45 69 46 71 47 22 48 74 49 68 50 67 51 23 53 55 54
REMARK SMILES IDX 35 55 54 56 36 57 39 58 53 59 72 60 37 61 38 62 52 64 73 65
REMARK SMILES IDX 40 66 24 67 25 68 33 69 26 70 27 71 31 72 34 73 28 74 29 75
REMARK SMILES IDX 32 76 30 77 56 78 57 79 65 80 58 81 59 82 63 83 66 84 60 85
REMARK SMILES IDX 61 86 64 87 62 88 41 89 42 90 50 91 43 92 44 93 48 94 51 95
REMARK SMILES IDX 45 96 46 97 49 98 47 99
REMARK H PARENT 82 15 71 52 39 63
REMARK Flexibility Score: inf
ROOT
ATOM      1  C   UNL     1       2.217   1.004   1.906  1.00  0.00     0.188 C 
ENDROOT
BRANCH   1   2
ATOM      2  O   UNL     1       3.519   0.632   1.444  1.00  0.00    -0.376 OA
BRANCH   2   3
ATOM      3  C   UNL     1       4.065   1.546   0.492  1.00  0.00     0.202 C 
BRANCH   3   4
ATOM      4  C   UNL     1       3.943   1.006  -0.928  1.00  0.00     0.261 C 
BRANCH   4   5
ATOM      5  O   UNL     1       2.555   0.749  -1.242  1.00  0.00    -0.460 OA
BRANCH   5   6
ATOM      6  C   UNL     1       2.003  -0.489  -1.331  1.00  0.00     0.338 C 
ATOM      7  O   UNL     1       0.800  -0.664  -1.466  1.00  0.00    -0.246 OA
BRANCH   6   8
ATOM      8  C   UNL     1       2.914  -1.645  -1.348  1.00  0.00     0.060 A 
ATOM      9  C   UNL     1       3.415  -2.169  -0.158  1.00  0.00     0.018 A 
ATOM     10  C   UNL     1       3.289  -2.189  -2.576  1.00  0.00     0.018 A 
ATOM     11  C   UNL     1       4.375  -3.181  -0.202  1.00  0.00     0.027 A 
ATOM     12  C   UNL     1       4.252  -3.201  -2.609  1.00  0.00     0.027 A 
ATOM     13  C   UNL     1       4.822  -3.686  -1.425  1.00  0.00     0.049 A 
BRANCH  13  14
ATOM     14  N   UNL     1       5.966  -4.520  -1.560  1.00  0.00    -0.283 N 
ATOM     15  H   UNL     1       6.370  -4.590  -2.455  1.00  0.00     0.180 HD
BRANCH  14  16
ATOM     16  S   UNL     1       6.679  -5.388  -0.332  1.00  0.00     0.237 S 
ATOM     17  O   UNL     1       5.662  -5.793   0.616  1.00  0.00    -0.206 OA
ATOM     18  O   UNL     1       7.459  -6.399  -1.017  1.00  0.00    -0.206 OA
BRANCH  16  19
ATOM     19  C   UNL     1       7.848  -4.282   0.498  1.00  0.00     0.198 C 
BRANCH  19  20
ATOM     20  C   UNL     1       7.962  -2.900  -0.107  1.00  0.00     0.006 A 
ATOM     21  C   UNL     1       8.618  -2.685  -1.335  1.00  0.00     0.046 A 
ATOM     22  C   UNL     1       7.496  -1.754   0.573  1.00  0.00     0.046 A 
ATOM     23  Cl  UNL     1       9.337  -3.975  -2.233  1.00  0.00    -0.084 Cl
ATOM     24  C   UNL     1       8.762  -1.398  -1.874  1.00  0.00     0.021 A 
ATOM     25  C   UNL     1       7.645  -0.469   0.033  1.00  0.00     0.021 A 
ATOM     26  Cl  UNL     1       6.761  -1.833   2.138  1.00  0.00    -0.084 Cl
ATOM     27  C   UNL     1       8.272  -0.290  -1.194  1.00  0.00     0.003 A 
ENDBRANCH  19  20
ENDBRANCH  16  19
ENDBRANCH  14  16
ENDBRANCH  13  14
ENDBRANCH   6   8
ENDBRANCH   5   6
ENDBRANCH   4   5
ENDBRANCH   3   4
ENDBRANCH   2   3
ENDBRANCH   1   2
BRANCH   1  28
ATOM     28  C   UNL     1       2.063   0.712   3.399  1.00  0.00     0.188 C 
BRANCH  28  29
ATOM     29  O   UNL     1       3.004   1.397   4.225  1.00  0.00    -0.376 OA
BRANCH  29  30
ATOM     30  C   UNL     1       4.312   0.820   4.318  1.00  0.00     0.202 C 
BRANCH  30  31
ATOM     31  C   UNL     1       4.381  -0.493   5.105  1.00  0.00     0.261 C 
BRANCH  31  32
ATOM     32  O   UNL     1       4.033  -1.632   4.289  1.00  0.00    -0.460 OA
BRANCH  32  33
ATOM     33  C   UNL     1       3.010  -2.384   4.755  1.00  0.00     0.338 C 
ATOM     34  O   UNL     1       2.328  -2.184   5.745  1.00  0.00    -0.246 OA
BRANCH  33  35
ATOM     35  C   UNL     1       2.751  -3.519   3.857  1.00  0.00     0.060 A 
ATOM     36  C   UNL     1       1.532  -3.567   3.170  1.00  0.00     0.016 A 
ATOM     37  C   UNL     1       3.602  -4.625   3.879  1.00  0.00     0.016 A 
ATOM     38  C   UNL     1       1.123  -4.759   2.567  1.00  0.00     0.010 A 
ATOM     39  C   UNL     1       3.190  -5.816   3.276  1.00  0.00     0.010 A 
ATOM     40  C   UNL     1       1.924  -5.905   2.669  1.00  0.00    -0.014 A 
BRANCH  40  41
ATOM     41  C   UNL     1       1.377  -7.240   2.316  1.00  0.00     0.031 A 
ATOM     42  C   UNL     1       0.846  -8.126   3.412  1.00  0.00     0.074 A 
ATOM     43  C   UNL     1       1.360  -7.669   1.043  1.00  0.00     0.049 A 
ATOM     44  N   UNL     1       0.416  -9.362   3.353  1.00  0.00    -0.248 NA
ATOM     45  C   UNL     1       0.797  -7.538   4.760  1.00  0.00     0.031 C 
ATOM     46  C   UNL     1       1.812  -6.899  -0.112  1.00  0.00     0.029 A 
ATOM     47  N   UNL     1       0.961  -8.873   0.517  1.00  0.00    -0.354 N 
ATOM     48  C   UNL     1       0.063  -9.703   4.652  1.00  0.00     0.074 A 
ATOM     49  C   UNL     1       0.342  -8.551   5.483  1.00  0.00     0.031 C 
ATOM     50  C   UNL     1       1.682  -7.658  -1.214  1.00  0.00     0.029 A 
ATOM     51  C   UNL     1       1.176  -8.977  -0.833  1.00  0.00     0.049 A 
ATOM     52  H   UNL     1       0.559  -9.592   1.058  1.00  0.00     0.167 HD
ATOM     53  C   UNL     1      -0.451 -10.869   5.112  1.00  0.00     0.037 A 
ATOM     54  C   UNL     1       1.014 -10.028  -1.660  1.00  0.00     0.037 A 
ATOM     55  C   UNL     1      -0.735 -12.015   4.289  1.00  0.00     0.049 A 
ATOM     56  C   UNL     1       0.502 -11.337  -1.116  1.00  0.00     0.074 A 
ATOM     57  C   UNL     1      -1.280 -13.233   4.660  1.00  0.00     0.029 A 
ATOM     58  N   UNL     1      -0.490 -12.086   2.926  1.00  0.00    -0.354 N 
ATOM     59  N   UNL     1       0.151 -11.646   0.108  1.00  0.00    -0.248 NA
ATOM     60  C   UNL     1       0.367 -12.445  -2.074  1.00  0.00     0.031 C 
ATOM     61  C   UNL     1      -1.325 -14.055   3.529  1.00  0.00     0.029 A 
ATOM     62  C   UNL     1      -0.851 -13.334   2.445  1.00  0.00     0.049 A 
ATOM     63  H   UNL     1      -0.114 -11.357   2.381  1.00  0.00     0.167 HD
ATOM     64  C   UNL     1      -0.271 -12.969   0.064  1.00  0.00     0.074 A 
ATOM     65  C   UNL     1      -0.139 -13.404  -1.311  1.00  0.00     0.031 C 
ATOM     66  C   UNL     1      -0.728 -13.751   1.072  1.00  0.00     0.037 A 
BRANCH  53  67
ATOM     67  C   UNL     1      -0.719 -10.975   6.584  1.00  0.00     0.064 A 
ATOM     68  C   UNL     1      -1.796 -10.307   7.186  1.00  0.00     0.173 A 
ATOM     69  C   UNL     1       0.090 -11.784   7.396  1.00  0.00     0.173 A 
ATOM     70  F   UNL     1      -2.593  -9.514   6.454  1.00  0.00    -0.203 F 
ATOM     71  C   UNL     1      -2.038 -10.428   8.552  1.00  0.00     0.198 A 
ATOM     72  C   UNL     1      -0.170 -11.921   8.757  1.00  0.00     0.198 A 
ATOM     73  F   UNL     1       1.129 -12.449   6.868  1.00  0.00    -0.203 F 
ATOM     74  F   UNL     1      -3.049  -9.750   9.114  1.00  0.00    -0.200 F 
ATOM     75  C   UNL     1      -1.230 -11.238   9.335  1.00  0.00     0.200 A 
ATOM     76  F   UNL     1       0.605 -12.714   9.509  1.00  0.00    -0.200 F 
ATOM     77  F   UNL     1      -1.468 -11.357  10.648  1.00  0.00    -0.200 F 
ENDBRANCH  53  67
BRANCH  54  78
ATOM     78  C   UNL     1       1.357  -9.891  -3.098  1.00  0.00     0.064 A 
ATOM     79  C   UNL     1       0.357  -9.879  -4.079  1.00  0.00     0.173 A 
ATOM     80  C   UNL     1       2.690  -9.774  -3.519  1.00  0.00     0.173 A 
ATOM     81  F   UNL     1      -0.929 -10.017  -3.725  1.00  0.00    -0.203 F 
ATOM     82  C   UNL     1       0.678  -9.765  -5.429  1.00  0.00     0.198 A 
ATOM     83  C   UNL     1       3.007  -9.634  -4.868  1.00  0.00     0.198 A 
ATOM     84  F   UNL     1       3.683  -9.787  -2.619  1.00  0.00    -0.203 F 
ATOM     85  F   UNL     1      -0.294  -9.794  -6.351  1.00  0.00    -0.200 F 
ATOM     86  C   UNL     1       2.002  -9.636  -5.822  1.00  0.00     0.200 A 
ATOM     87  F   UNL     1       4.286  -9.498  -5.243  1.00  0.00    -0.200 F 
ATOM     88  F   UNL     1       2.309  -9.518  -7.121  1.00  0.00    -0.200 F 
ENDBRANCH  54  78
BRANCH  66  89
ATOM     89  C   UNL     1      -1.163 -15.145   0.725  1.00  0.00     0.064 A 
ATOM     90  C   UNL     1      -0.235 -16.156   0.436  1.00  0.00     0.173 A 
ATOM     91  C   UNL     1      -2.525 -15.484   0.728  1.00  0.00     0.173 A 
ATOM     92  F   UNL     1       1.078 -15.879   0.407  1.00  0.00    -0.203 F 
ATOM     93  C   UNL     1      -0.655 -17.451   0.145  1.00  0.00     0.198 A 
ATOM     94  C   UNL     1      -2.940 -16.785   0.460  1.00  0.00     0.198 A 
ATOM     95  F   UNL     1      -3.452 -14.555   1.004  1.00  0.00    -0.203 F 
ATOM     96  F   UNL     1       0.246 -18.393  -0.166  1.00  0.00    -0.200 F 
ATOM     97  C   UNL     1      -2.006 -17.766   0.164  1.00  0.00     0.200 A 
ATOM     98  F   UNL     1      -4.245 -17.091   0.490  1.00  0.00    -0.200 F 
ATOM     99  F   UNL     1      -2.408 -19.015  -0.110  1.00  0.00    -0.200 F 
ENDBRANCH  66  89
ENDBRANCH  40  41
ENDBRANCH  33  35
ENDBRANCH  32  33
ENDBRANCH  31  32
ENDBRANCH  30  31
ENDBRANCH  29  30
ENDBRANCH  28  29
ENDBRANCH   1  28
TORSDOF 21
