REMARK SMILES C[NH+]1CCN(C(=O)c2ccc3c(c2)N(CC(=O)OCCOCCOCCOC(=O)c2ccc(-c4c5nc(c(-c6c(F)c(F)c(F)c(F)c6F)c6ccc([nH]6)c(-c6c(F)c(F)c(F)c(F)c6F)c6nc(c(-c7c(F)c(F)c(F)c(F)c7F)c7ccc4[nH]7)C=C6)C=C5)cc2)C(=O)CO3)CC1
REMARK SMILES IDX 22 1 21 2 20 3 19 4 18 5 16 6 17 7 15 8 14 9 8 10 9 11 13 12
REMARK SMILES IDX 10 13 12 14 11 15 96 16 93 17 95 18 94 19 6 20 1 21 2 22
REMARK SMILES IDX 3 23 98 24 4 26 97 27 5 28 7 29 23 30 24 31 25 32 26 33
REMARK SMILES IDX 27 34 28 35 29 36 30 37 31 38 92 39 32 40 91 41 33 42 34 43
REMARK SMILES IDX 35 44 85 45 36 46 90 47 84 48 86 49 37 50 89 51 83 52 82 53
REMARK SMILES IDX 38 55 70 56 50 57 69 58 51 59 54 60 68 61 87 62 52 63 53 64
REMARK SMILES IDX 67 66 88 67 55 68 39 69 40 70 48 71 41 72 42 73 46 74 49 75
REMARK SMILES IDX 43 76 44 77 47 78 45 79 71 80 72 81 80 82 73 83 74 84 78 85
REMARK SMILES IDX 81 86 75 87 76 88 79 89 77 90 56 91 57 92 65 93 58 94 59 95
REMARK SMILES IDX 63 96 66 97 60 98 61 99 64 100 62 101
REMARK H PARENT 2 25 86 54 54 65
REMARK Flexibility Score: inf
ROOT
ATOM      1  C   UNL     1       1.341  -4.155   0.547  1.00  0.00     0.188 C 
ENDROOT
BRANCH   1   2
ATOM      2  O   UNL     1       1.795  -5.484   0.499  1.00  0.00    -0.376 OA
BRANCH   2   3
ATOM      3  C   UNL     1       0.805  -6.506   0.626  1.00  0.00     0.202 C 
BRANCH   3   4
ATOM      4  C   UNL     1      -0.073  -6.516   1.907  1.00  0.00     0.261 C 
BRANCH   4   5
ATOM      5  O   UNL     1      -1.325  -5.731   1.875  1.00  0.00    -0.462 OA
BRANCH   5   6
ATOM      6  C   UNL     1      -1.597  -4.997   3.002  1.00  0.00     0.326 C 
ATOM      7  O   UNL     1      -0.793  -4.910   3.936  1.00  0.00    -0.250 OA
BRANCH   6   8
ATOM      8  C   UNL     1      -2.950  -4.167   3.076  1.00  0.00     0.248 C 
BRANCH   8   9
ATOM      9  N   UNL     1      -4.202  -4.282   2.312  1.00  0.00    -0.295 N 
ATOM     10  C   UNL     1      -4.647  -1.314  -0.202  1.00  0.00     0.042 A 
ATOM     11  C   UNL     1      -5.836  -1.758  -0.779  1.00  0.00     0.018 A 
ATOM     12  C   UNL     1      -4.379  -1.992   1.061  1.00  0.00     0.044 A 
ATOM     13  C   UNL     1      -6.538  -2.877  -0.257  1.00  0.00     0.049 A 
ATOM     14  C   UNL     1      -4.870  -3.284   1.450  1.00  0.00     0.087 A 
ATOM     15  C   UNL     1      -6.032  -3.666   0.793  1.00  0.00     0.143 A 
ATOM     16  O   UNL     1      -6.728  -4.813   1.064  1.00  0.00    -0.482 OA
ATOM     17  C   UNL     1      -4.871  -5.475   2.602  1.00  0.00     0.265 C 
ATOM     18  C   UNL     1      -6.345  -5.463   2.263  1.00  0.00     0.330 C 
ATOM     19  O   UNL     1      -4.350  -6.413   3.208  1.00  0.00    -0.270 OA
BRANCH  10  20
ATOM     20  C   UNL     1      -3.958  -0.014  -0.866  1.00  0.00     0.254 C 
ATOM     21  C   UNL     1       1.492   1.229  -0.674  1.00  0.00     0.332 C 
ATOM     22  N   UNL     1       0.327   1.020  -1.561  1.00  0.00    -0.334 N 
ATOM     23  C   UNL     1      -0.747   2.000  -1.288  1.00  0.00     0.283 C 
ATOM     24  C   UNL     1      -0.155  -0.365  -1.436  1.00  0.00     0.283 C 
ATOM     25  H   UNL     1       0.622   1.171  -2.525  1.00  0.00     0.347 HD
ATOM     26  C   UNL     1      -2.214   1.639  -1.800  1.00  0.00     0.181 C 
ATOM     27  C   UNL     1      -1.550  -0.632  -2.106  1.00  0.00     0.181 C 
ATOM     28  N   UNL     1      -2.643   0.219  -1.543  1.00  0.00    -0.327 N 
ATOM     29  O   UNL     1      -4.709   0.972  -0.773  1.00  0.00    -0.269 OA
ENDBRANCH  10  20
ENDBRANCH   8   9
ENDBRANCH   6   8
ENDBRANCH   5   6
ENDBRANCH   4   5
ENDBRANCH   3   4
ENDBRANCH   2   3
ENDBRANCH   1   2
BRANCH   1  30
ATOM     30  C   UNL     1       0.071  -3.859  -0.200  1.00  0.00     0.188 C 
BRANCH  30  31
ATOM     31  O   UNL     1      -0.265  -4.423  -1.438  1.00  0.00    -0.376 OA
BRANCH  31  32
ATOM     32  C   UNL     1      -1.676  -4.291  -1.610  1.00  0.00     0.202 C 
BRANCH  32  33
ATOM     33  C   UNL     1      -2.497  -3.306  -0.704  1.00  0.00     0.261 C 
BRANCH  33  34
ATOM     34  O   UNL     1      -1.988  -2.058   0.073  1.00  0.00    -0.460 OA
BRANCH  34  35
ATOM     35  C   UNL     1      -1.448  -1.831   1.323  1.00  0.00     0.338 C 
ATOM     36  O   UNL     1      -0.809  -2.652   1.972  1.00  0.00    -0.246 OA
BRANCH  35  37
ATOM     37  C   UNL     1      -1.799  -0.551   2.067  1.00  0.00     0.060 A 
ATOM     38  C   UNL     1      -1.991  -0.585   3.453  1.00  0.00     0.016 A 
ATOM     39  C   UNL     1      -2.107   0.644   1.452  1.00  0.00     0.016 A 
ATOM     40  C   UNL     1      -2.521   0.519   4.145  1.00  0.00     0.010 A 
ATOM     41  C   UNL     1      -2.564   1.784   2.115  1.00  0.00     0.010 A 
ATOM     42  C   UNL     1      -2.745   1.742   3.485  1.00  0.00    -0.014 A 
BRANCH  42  43
ATOM     43  C   UNL     1      -2.803   3.028   4.225  1.00  0.00     0.031 A 
ATOM     44  C   UNL     1      -3.897   4.044   4.041  1.00  0.00     0.074 A 
ATOM     45  C   UNL     1      -1.682   3.340   4.908  1.00  0.00     0.049 A 
ATOM     46  N   UNL     1      -4.013   5.232   4.582  1.00  0.00    -0.248 NA
ATOM     47  C   UNL     1      -4.959   3.729   3.073  1.00  0.00     0.031 C 
ATOM     48  C   UNL     1      -0.465   2.516   4.925  1.00  0.00     0.029 A 
ATOM     49  N   UNL     1      -1.359   4.405   5.699  1.00  0.00    -0.354 N 
ATOM     50  C   UNL     1      -5.129   5.821   3.994  1.00  0.00     0.074 A 
ATOM     51  C   UNL     1      -5.636   4.872   3.027  1.00  0.00     0.031 C 
ATOM     52  C   UNL     1       0.426   3.049   5.763  1.00  0.00     0.029 A 
ATOM     53  C   UNL     1      -0.126   4.281   6.295  1.00  0.00     0.049 A 
ATOM     54  H   UNL     1      -1.948   5.183   5.829  1.00  0.00     0.167 HD
ATOM     55  C   UNL     1      -5.667   7.039   4.258  1.00  0.00     0.037 A 
ATOM     56  C   UNL     1       0.487   5.067   7.195  1.00  0.00     0.037 A 
ATOM     57  C   UNL     1      -5.139   7.928   5.268  1.00  0.00     0.049 A 
ATOM     58  C   UNL     1      -0.245   6.289   7.641  1.00  0.00     0.074 A 
ATOM     59  C   UNL     1      -5.657   9.121   5.739  1.00  0.00     0.029 A 
ATOM     60  N   UNL     1      -3.959   7.704   5.970  1.00  0.00    -0.354 N 
ATOM     61  N   UNL     1      -1.372   6.777   7.181  1.00  0.00    -0.248 NA
ATOM     62  C   UNL     1       0.355   7.057   8.732  1.00  0.00     0.031 C 
ATOM     63  C   UNL     1      -4.780   9.629   6.705  1.00  0.00     0.029 A 
ATOM     64  C   UNL     1      -3.736   8.732   6.871  1.00  0.00     0.049 A 
ATOM     65  H   UNL     1      -3.368   6.926   5.844  1.00  0.00     0.167 HD
ATOM     66  C   UNL     1      -1.620   7.917   7.920  1.00  0.00     0.074 A 
ATOM     67  C   UNL     1      -0.543   8.020   8.890  1.00  0.00     0.031 C 
ATOM     68  C   UNL     1      -2.635   8.807   7.800  1.00  0.00     0.037 A 
BRANCH  55  69
ATOM     69  C   UNL     1      -6.891   7.479   3.489  1.00  0.00     0.064 A 
ATOM     70  C   UNL     1      -8.124   6.819   3.619  1.00  0.00     0.173 A 
ATOM     71  C   UNL     1      -6.859   8.625   2.675  1.00  0.00     0.173 A 
ATOM     72  F   UNL     1      -8.226   5.723   4.385  1.00  0.00    -0.203 F 
ATOM     73  C   UNL     1      -9.262   7.268   2.947  1.00  0.00     0.198 A 
ATOM     74  C   UNL     1      -8.007   9.092   2.032  1.00  0.00     0.198 A 
ATOM     75  F   UNL     1      -5.718   9.312   2.518  1.00  0.00    -0.203 F 
ATOM     76  F   UNL     1     -10.415   6.593   3.061  1.00  0.00    -0.200 F 
ATOM     77  C   UNL     1      -9.206   8.409   2.163  1.00  0.00     0.200 A 
ATOM     78  F   UNL     1      -7.954  10.208   1.291  1.00  0.00    -0.200 F 
ATOM     79  F   UNL     1     -10.305   8.851   1.536  1.00  0.00    -0.200 F 
ENDBRANCH  55  69
BRANCH  56  80
ATOM     80  C   UNL     1       1.776   4.620   7.778  1.00  0.00     0.064 A 
ATOM     81  C   UNL     1       1.819   4.092   9.076  1.00  0.00     0.173 A 
ATOM     82  C   UNL     1       2.950   4.561   7.011  1.00  0.00     0.173 A 
ATOM     83  F   UNL     1       0.720   4.115   9.844  1.00  0.00    -0.203 F 
ATOM     84  C   UNL     1       2.985   3.523   9.584  1.00  0.00     0.198 A 
ATOM     85  C   UNL     1       4.106   3.965   7.510  1.00  0.00     0.198 A 
ATOM     86  F   UNL     1       2.949   5.014   5.748  1.00  0.00    -0.203 F 
ATOM     87  F   UNL     1       2.998   3.029  10.829  1.00  0.00    -0.200 F 
ATOM     88  C   UNL     1       4.123   3.448   8.796  1.00  0.00     0.200 A 
ATOM     89  F   UNL     1       5.192   3.858   6.731  1.00  0.00    -0.200 F 
ATOM     90  F   UNL     1       5.232   2.864   9.271  1.00  0.00    -0.200 F 
ENDBRANCH  56  80
BRANCH  68  91
ATOM     91  C   UNL     1      -2.597   9.965   8.745  1.00  0.00     0.064 A 
ATOM     92  C   UNL     1      -1.662  10.998   8.588  1.00  0.00     0.173 A 
ATOM     93  C   UNL     1      -3.492  10.033   9.821  1.00  0.00     0.173 A 
ATOM     94  F   UNL     1      -0.775  10.959   7.582  1.00  0.00    -0.203 F 
ATOM     95  C   UNL     1      -1.599  12.043   9.502  1.00  0.00     0.198 A 
ATOM     96  C   UNL     1      -3.443  11.095  10.717  1.00  0.00     0.198 A 
ATOM     97  F   UNL     1      -4.403   9.066  10.006  1.00  0.00    -0.203 F 
ATOM     98  F   UNL     1      -0.656  12.987   9.372  1.00  0.00    -0.200 F 
ATOM     99  C   UNL     1      -2.491  12.092  10.563  1.00  0.00     0.200 A 
ATOM    100  F   UNL     1      -4.309  11.146  11.738  1.00  0.00    -0.200 F 
ATOM    101  F   UNL     1      -2.422  13.095  11.449  1.00  0.00    -0.200 F 
ENDBRANCH  68  91
ENDBRANCH  42  43
ENDBRANCH  35  37
ENDBRANCH  34  35
ENDBRANCH  33  34
ENDBRANCH  32  33
ENDBRANCH  31  32
ENDBRANCH  30  31
ENDBRANCH   1  30
TORSDOF 19
