REMARK SMILES CC(C)C[C@H](C)NS(=O)(=O)c1cc(C(=O)OCCOCCOCCOC(=O)c2ccc(-c3c4nc(c(-c5c(F)c(F)c(F)c(F)c5F)c5ccc([nH]5)c(-c5c(F)c(F)c(F)c(F)c5F)c5nc(c(-c6c(F)c(F)c(F)c(F)c6F)c6ccc3[nH]6)C=C5)C=C4)cc2)ccc1Cl
REMARK SMILES IDX 19 1 18 2 17 3 16 4 14 5 15 6 13 7 11 8 12 9 93 10 92 11
REMARK SMILES IDX 94 12 91 13 8 14 9 15 10 16 7 17 5 19 6 20 4 21 2 22 1 23
REMARK SMILES IDX 3 24 20 25 21 26 22 27 23 28 24 29 25 30 26 31 27 32 28 33
REMARK SMILES IDX 29 34 90 35 30 36 89 37 31 38 32 39 33 40 83 41 34 42 88 43
REMARK SMILES IDX 82 44 84 45 35 46 87 47 81 48 80 49 36 51 68 52 48 53 67 54
REMARK SMILES IDX 49 55 52 56 66 57 85 58 50 59 51 60 65 62 86 63 53 64 37 65
REMARK SMILES IDX 38 66 46 67 39 68 40 69 44 70 47 71 41 72 42 73 45 74 43 75
REMARK SMILES IDX 69 76 70 77 78 78 71 79 72 80 76 81 79 82 73 83 74 84 77 85
REMARK SMILES IDX 75 86 54 87 55 88 63 89 56 90 57 91 61 92 64 93 58 94 59 95
REMARK SMILES IDX 62 96 60 97
REMARK H PARENT 7 18 84 50 52 61
REMARK Flexibility Score: inf
ROOT
ATOM      1  O   UNL     1      -4.037  -8.147   4.306  1.00  0.00    -0.376 OA
ENDROOT
BRANCH   1   2
ATOM      2  C   UNL     1      -4.181  -9.105   3.267  1.00  0.00     0.202 C 
BRANCH   2   3
ATOM      3  C   UNL     1      -4.708  -8.639   1.905  1.00  0.00     0.261 C 
BRANCH   3   4
ATOM      4  O   UNL     1      -4.012  -7.515   1.340  1.00  0.00    -0.460 OA
BRANCH   4   5
ATOM      5  C   UNL     1      -4.718  -6.359   1.321  1.00  0.00     0.338 C 
ATOM      6  O   UNL     1      -5.860  -6.192   1.718  1.00  0.00    -0.246 OA
BRANCH   5   7
ATOM      7  C   UNL     1      -3.887  -5.228   0.845  1.00  0.00     0.061 A 
ATOM      8  C   UNL     1      -3.492  -2.811   0.903  1.00  0.00     0.101 A 
ATOM      9  C   UNL     1      -4.126  -3.966   1.403  1.00  0.00     0.039 A 
ATOM     10  C   UNL     1      -2.658  -2.927  -0.204  1.00  0.00     0.061 A 
ATOM     11  C   UNL     1      -2.338  -4.210  -0.691  1.00  0.00     0.023 A 
ATOM     12  Cl  UNL     1      -2.089  -1.612  -1.158  1.00  0.00    -0.083 Cl
ATOM     13  C   UNL     1      -2.938  -5.360  -0.164  1.00  0.00     0.017 A 
BRANCH   8  14
ATOM     14  S   UNL     1      -3.889  -1.331   1.786  1.00  0.00     0.242 S 
ATOM     15  O   UNL     1      -3.742  -1.638   3.186  1.00  0.00    -0.207 OA
ATOM     16  O   UNL     1      -5.174  -0.900   1.262  1.00  0.00    -0.207 OA
BRANCH  14  17
ATOM     17  N   UNL     1      -2.848  -0.098   1.424  1.00  0.00    -0.208 NA
ATOM     18  H   UNL     1      -2.961   0.042   0.420  1.00  0.00     0.141 HD
BRANCH  17  19
ATOM     19  C   UNL     1      -1.400  -0.015   1.641  1.00  0.00     0.067 C 
ATOM     20  C   UNL     1      -0.938   1.236   0.870  1.00  0.00     0.025 C 
BRANCH  19  21
ATOM     21  C   UNL     1      -0.978   0.139   3.109  1.00  0.00     0.022 C 
BRANCH  21  22
ATOM     22  C   UNL     1      -0.643  -1.153   3.885  1.00  0.00    -0.016 C 
ATOM     23  C   UNL     1       0.284  -2.116   3.141  1.00  0.00     0.007 C 
ATOM     24  C   UNL     1      -0.005  -0.772   5.228  1.00  0.00     0.007 C 
ENDBRANCH  21  22
ENDBRANCH  19  21
ENDBRANCH  17  19
ENDBRANCH  14  17
ENDBRANCH   8  14
ENDBRANCH   5   7
ENDBRANCH   4   5
ENDBRANCH   3   4
ENDBRANCH   2   3
ENDBRANCH   1   2
BRANCH   1  25
ATOM     25  C   UNL     1      -3.185  -7.020   4.129  1.00  0.00     0.188 C 
BRANCH  25  26
ATOM     26  C   UNL     1      -1.836  -7.167   3.394  1.00  0.00     0.188 C 
BRANCH  26  27
ATOM     27  O   UNL     1      -1.482  -8.505   3.107  1.00  0.00    -0.376 OA
BRANCH  27  28
ATOM     28  C   UNL     1      -0.409  -9.066   3.845  1.00  0.00     0.202 C 
BRANCH  28  29
ATOM     29  C   UNL     1      -0.544  -9.161   5.374  1.00  0.00     0.261 C 
BRANCH  29  30
ATOM     30  O   UNL     1      -1.026  -7.985   6.045  1.00  0.00    -0.460 OA
BRANCH  30  31
ATOM     31  C   UNL     1      -0.133  -7.012   6.311  1.00  0.00     0.338 C 
ATOM     32  O   UNL     1       1.051  -6.992   6.006  1.00  0.00    -0.246 OA
BRANCH  31  33
ATOM     33  C   UNL     1      -0.857  -5.870   6.902  1.00  0.00     0.060 A 
ATOM     34  C   UNL     1      -1.013  -4.712   6.137  1.00  0.00     0.016 A 
ATOM     35  C   UNL     1      -1.362  -5.924   8.205  1.00  0.00     0.016 A 
ATOM     36  C   UNL     1      -1.638  -3.596   6.690  1.00  0.00     0.010 A 
ATOM     37  C   UNL     1      -1.961  -4.785   8.766  1.00  0.00     0.010 A 
ATOM     38  C   UNL     1      -2.059  -3.596   8.025  1.00  0.00    -0.014 A 
BRANCH  38  39
ATOM     39  C   UNL     1      -2.426  -2.297   8.655  1.00  0.00     0.031 A 
ATOM     40  C   UNL     1      -1.438  -1.621   9.571  1.00  0.00     0.074 A 
ATOM     41  C   UNL     1      -3.569  -1.663   8.334  1.00  0.00     0.049 A 
ATOM     42  N   UNL     1      -1.528  -0.475  10.200  1.00  0.00    -0.248 NA
ATOM     43  C   UNL     1      -0.170  -2.330   9.803  1.00  0.00     0.031 C 
ATOM     44  C   UNL     1      -4.579  -2.162   7.404  1.00  0.00     0.029 A 
ATOM     45  N   UNL     1      -4.062  -0.448   8.747  1.00  0.00    -0.354 N 
ATOM     46  C   UNL     1      -0.341  -0.334  10.908  1.00  0.00     0.074 A 
ATOM     47  C   UNL     1       0.444  -1.523  10.655  1.00  0.00     0.031 C 
ATOM     48  C   UNL     1      -5.569  -1.258   7.309  1.00  0.00     0.029 A 
ATOM     49  C   UNL     1      -5.280  -0.133   8.196  1.00  0.00     0.049 A 
ATOM     50  H   UNL     1      -3.587   0.141   9.377  1.00  0.00     0.167 HD
ATOM     51  C   UNL     1       0.066   0.695  11.690  1.00  0.00     0.037 A 
ATOM     52  C   UNL     1      -6.077   0.936   8.393  1.00  0.00     0.037 A 
ATOM     53  C   UNL     1      -0.700   1.890  11.932  1.00  0.00     0.049 A 
ATOM     54  C   UNL     1      -5.630   2.039   9.317  1.00  0.00     0.074 A 
ATOM     55  C   UNL     1      -0.367   2.988  12.707  1.00  0.00     0.029 A 
ATOM     56  N   UNL     1      -1.955   2.145  11.400  1.00  0.00    -0.354 N 
ATOM     57  N   UNL     1      -4.508   2.160   9.986  1.00  0.00    -0.248 NA
ATOM     58  C   UNL     1      -6.561   3.162   9.507  1.00  0.00     0.031 C 
ATOM     59  C   UNL     1      -1.439   3.886  12.681  1.00  0.00     0.029 A 
ATOM     60  C   UNL     1      -2.418   3.373  11.846  1.00  0.00     0.049 A 
ATOM     61  H   UNL     1      -2.445   1.542  10.795  1.00  0.00     0.167 HD
ATOM     62  C   UNL     1      -4.586   3.378  10.648  1.00  0.00     0.074 A 
ATOM     63  C   UNL     1      -5.858   3.968  10.290  1.00  0.00     0.031 C 
ATOM     64  C   UNL     1      -3.682   3.957  11.478  1.00  0.00     0.037 A 
BRANCH  51  65
ATOM     65  C   UNL     1       1.399   0.562  12.369  1.00  0.00     0.064 A 
ATOM     66  C   UNL     1       2.604   0.653  11.657  1.00  0.00     0.173 A 
ATOM     67  C   UNL     1       1.468   0.374  13.758  1.00  0.00     0.173 A 
ATOM     68  F   UNL     1       2.592   0.817  10.326  1.00  0.00    -0.203 F 
ATOM     69  C   UNL     1       3.830   0.535  12.308  1.00  0.00     0.198 A 
ATOM     70  C   UNL     1       2.696   0.286  14.409  1.00  0.00     0.198 A 
ATOM     71  F   UNL     1       0.345   0.286  14.486  1.00  0.00    -0.203 F 
ATOM     72  F   UNL     1       4.969   0.578  11.603  1.00  0.00    -0.200 F 
ATOM     73  C   UNL     1       3.875   0.358  13.683  1.00  0.00     0.200 A 
ATOM     74  F   UNL     1       2.737   0.128  15.739  1.00  0.00    -0.200 F 
ATOM     75  F   UNL     1       5.055   0.252  14.309  1.00  0.00    -0.200 F 
ENDBRANCH  51  65
BRANCH  52  76
ATOM     76  C   UNL     1      -7.393   1.015   7.707  1.00  0.00     0.064 A 
ATOM     77  C   UNL     1      -7.642   1.975   6.716  1.00  0.00     0.173 A 
ATOM     78  C   UNL     1      -8.441   0.148   8.052  1.00  0.00     0.173 A 
ATOM     79  F   UNL     1      -6.685   2.852   6.378  1.00  0.00    -0.203 F 
ATOM     80  C   UNL     1      -8.893   2.076   6.109  1.00  0.00     0.198 A 
ATOM     81  C   UNL     1      -9.681   0.230   7.425  1.00  0.00     0.198 A 
ATOM     82  F   UNL     1      -8.259  -0.779   9.004  1.00  0.00    -0.203 F 
ATOM     83  F   UNL     1      -9.122   3.039   5.207  1.00  0.00    -0.200 F 
ATOM     84  C   UNL     1      -9.909   1.199   6.460  1.00  0.00     0.200 A 
ATOM     85  F   UNL     1     -10.660  -0.619   7.765  1.00  0.00    -0.200 F 
ATOM     86  F   UNL     1     -11.113   1.300   5.880  1.00  0.00    -0.200 F 
ENDBRANCH  52  76
BRANCH  64  87
ATOM     87  C   UNL     1      -4.017   5.316  12.023  1.00  0.00     0.064 A 
ATOM     88  C   UNL     1      -5.021   5.501  12.985  1.00  0.00     0.173 A 
ATOM     89  C   UNL     1      -3.308   6.448  11.591  1.00  0.00     0.173 A 
ATOM     90  F   UNL     1      -5.737   4.454  13.423  1.00  0.00    -0.203 F 
ATOM     91  C   UNL     1      -5.326   6.771  13.467  1.00  0.00     0.198 A 
ATOM     92  C   UNL     1      -3.594   7.712  12.098  1.00  0.00     0.198 A 
ATOM     93  F   UNL     1      -2.330   6.327  10.680  1.00  0.00    -0.203 F 
ATOM     94  F   UNL     1      -6.327   6.930  14.344  1.00  0.00    -0.200 F 
ATOM     95  C   UNL     1      -4.610   7.875  13.028  1.00  0.00     0.200 A 
ATOM     96  F   UNL     1      -2.891   8.775  11.683  1.00  0.00    -0.200 F 
ATOM     97  F   UNL     1      -4.905   9.096  13.494  1.00  0.00    -0.200 F 
ENDBRANCH  64  87
ENDBRANCH  38  39
ENDBRANCH  31  33
ENDBRANCH  30  31
ENDBRANCH  29  30
ENDBRANCH  28  29
ENDBRANCH  27  28
ENDBRANCH  26  27
ENDBRANCH  25  26
ENDBRANCH   1  25
TORSDOF 22
