REMARK SMILES C[C@H](S[C@H]1[NH+]=C(Cl)[NH+]=C2N=CN=C21)C(=O)OCCOCCOCCOC(=O)c1ccc(-c2c3nc(c(-c4c(F)c(F)c(F)c(F)c4F)c4ccc([nH]4)c(-c4c(F)c(F)c(F)c(F)c4F)c4nc(c(-c5c(F)c(F)c(F)c(F)c5F)c5ccc2[nH]5)C=C4)C=C3)cc1
REMARK SMILES IDX 20 1 19 2 18 3 17 4 16 5 14 6 15 7 2 8 1 9 3 10 4 11 5 12
REMARK SMILES IDX 13 13 6 14 9 16 12 17 7 18 8 19 10 20 11 21 21 23 22 24
REMARK SMILES IDX 23 25 24 26 25 27 26 28 27 29 28 30 29 31 90 32 30 33 89 34
REMARK SMILES IDX 31 35 32 36 33 37 83 38 34 39 88 40 82 41 84 42 35 43 87 44
REMARK SMILES IDX 81 45 80 46 36 48 68 49 48 50 67 51 49 52 52 53 66 54 85 55
REMARK SMILES IDX 50 56 51 57 65 59 86 60 53 61 37 62 38 63 46 64 39 65 40 66
REMARK SMILES IDX 44 67 47 68 41 69 42 70 45 71 43 72 69 73 70 74 78 75 71 76
REMARK SMILES IDX 72 77 76 78 79 79 73 80 74 81 77 82 75 83 54 84 55 85 63 86
REMARK SMILES IDX 56 87 57 88 61 89 64 90 58 91 59 92 62 93 60 94
REMARK H PARENT 5 15 8 22 84 47 52 58
REMARK Flexibility Score: inf
ROOT
ATOM      1  C   UNL     1      -2.676  -0.703  -1.733  1.00  0.00     0.188 C 
ENDROOT
BRANCH   1   2
ATOM      2  O   UNL     1      -3.928  -1.239  -1.346  1.00  0.00    -0.376 OA
BRANCH   2   3
ATOM      3  C   UNL     1      -4.110  -1.548   0.026  1.00  0.00     0.202 C 
BRANCH   3   4
ATOM      4  C   UNL     1      -3.011  -2.358   0.743  1.00  0.00     0.261 C 
BRANCH   4   5
ATOM      5  O   UNL     1      -1.700  -1.731   0.806  1.00  0.00    -0.462 OA
BRANCH   5   6
ATOM      6  C   UNL     1      -0.668  -2.407   0.233  1.00  0.00     0.319 C 
ATOM      7  O   UNL     1      -0.801  -3.537  -0.239  1.00  0.00    -0.251 OA
BRANCH   6   8
ATOM      8  C   UNL     1       0.673  -1.658   0.078  1.00  0.00     0.160 C 
ATOM      9  C   UNL     1       1.773  -2.555   0.632  1.00  0.00     0.032 C 
BRANCH   8  10
ATOM     10  S   UNL     1       0.861   0.002   0.871  1.00  0.00    -0.067 SA
BRANCH  10  11
ATOM     11  C   UNL     1       1.566   1.046  -0.498  1.00  0.00     0.384 C 
ATOM     12  N   UNL     1       1.847   0.410  -1.788  1.00  0.00    -0.156 N 
ATOM     13  C   UNL     1       0.775   2.290  -0.702  1.00  0.00     0.214 C 
ATOM     14  C   UNL     1       1.779   1.067  -2.890  1.00  0.00     0.514 C 
ATOM     15  H   UNL     1       2.094  -0.543  -1.811  1.00  0.00     0.455 HD
ATOM     16  C   UNL     1       0.855   2.901  -2.031  1.00  0.00     0.338 C 
ATOM     17  N   UNL     1       0.088   3.095   0.048  1.00  0.00    -0.225 NA
ATOM     18  Cl  UNL     1       2.207   0.252  -4.334  1.00  0.00     0.068 Cl
ATOM     19  N   UNL     1       1.375   2.355  -3.059  1.00  0.00    -0.118 N 
ATOM     20  N   UNL     1       0.228   4.110  -2.006  1.00  0.00    -0.173 NA
ATOM     21  C   UNL     1      -0.229   4.162  -0.791  1.00  0.00     0.229 C 
ATOM     22  H   UNL     1       1.478   2.831  -3.914  1.00  0.00     0.464 HD
ENDBRANCH  10  11
ENDBRANCH   8  10
ENDBRANCH   6   8
ENDBRANCH   5   6
ENDBRANCH   4   5
ENDBRANCH   3   4
ENDBRANCH   2   3
ENDBRANCH   1   2
BRANCH   1  23
ATOM     23  C   UNL     1      -2.077   0.457  -0.901  1.00  0.00     0.188 C 
BRANCH  23  24
ATOM     24  O   UNL     1      -2.773   0.878   0.247  1.00  0.00    -0.376 OA
BRANCH  24  25
ATOM     25  C   UNL     1      -3.536   2.068   0.196  1.00  0.00     0.202 C 
BRANCH  25  26
ATOM     26  C   UNL     1      -3.833   2.783  -1.133  1.00  0.00     0.261 C 
BRANCH  26  27
ATOM     27  O   UNL     1      -3.832   1.923  -2.285  1.00  0.00    -0.460 OA
BRANCH  27  28
ATOM     28  C   UNL     1      -2.873   2.157  -3.225  1.00  0.00     0.338 C 
ATOM     29  O   UNL     1      -1.989   1.395  -3.557  1.00  0.00    -0.246 OA
BRANCH  28  30
ATOM     30  C   UNL     1      -2.985   3.423  -3.914  1.00  0.00     0.060 A 
ATOM     31  C   UNL     1      -1.807   3.893  -4.499  1.00  0.00     0.016 A 
ATOM     32  C   UNL     1      -4.231   4.015  -4.105  1.00  0.00     0.016 A 
ATOM     33  C   UNL     1      -1.872   4.994  -5.301  1.00  0.00     0.010 A 
ATOM     34  C   UNL     1      -4.305   5.089  -4.956  1.00  0.00     0.010 A 
ATOM     35  C   UNL     1      -3.127   5.554  -5.550  1.00  0.00    -0.014 A 
BRANCH  35  36
ATOM     36  C   UNL     1      -3.170   6.473  -6.663  1.00  0.00     0.031 A 
ATOM     37  C   UNL     1      -2.677   5.872  -7.940  1.00  0.00     0.074 A 
ATOM     38  C   UNL     1      -3.672   7.707  -6.524  1.00  0.00     0.049 A 
ATOM     39  N   UNL     1      -1.702   6.287  -8.680  1.00  0.00    -0.248 NA
ATOM     40  C   UNL     1      -3.212   4.556  -8.345  1.00  0.00     0.031 C 
ATOM     41  C   UNL     1      -4.394   8.260  -5.378  1.00  0.00     0.029 A 
ATOM     42  N   UNL     1      -3.737   8.699  -7.441  1.00  0.00    -0.354 N 
ATOM     43  C   UNL     1      -1.605   5.380  -9.733  1.00  0.00     0.074 A 
ATOM     44  C   UNL     1      -2.445   4.264  -9.396  1.00  0.00     0.031 C 
ATOM     45  C   UNL     1      -5.038   9.381  -5.768  1.00  0.00     0.029 A 
ATOM     46  C   UNL     1      -4.665   9.680  -7.139  1.00  0.00     0.049 A 
ATOM     47  H   UNL     1      -3.175   8.721  -8.249  1.00  0.00     0.167 HD
ATOM     48  C   UNL     1      -1.027   5.745 -10.909  1.00  0.00     0.037 A 
ATOM     49  C   UNL     1      -5.150  10.600  -8.006  1.00  0.00     0.037 A 
ATOM     50  C   UNL     1      -0.111   6.839 -10.702  1.00  0.00     0.049 A 
ATOM     51  C   UNL     1      -4.210  10.668  -9.156  1.00  0.00     0.074 A 
ATOM     52  C   UNL     1       1.052   7.003  -9.975  1.00  0.00     0.029 A 
ATOM     53  N   UNL     1      -0.547   8.104 -11.004  1.00  0.00    -0.354 N 
ATOM     54  N   UNL     1      -3.001  11.150  -9.078  1.00  0.00    -0.248 NA
ATOM     55  C   UNL     1      -4.455   9.784 -10.287  1.00  0.00     0.031 C 
ATOM     56  C   UNL     1       0.997   8.341  -9.485  1.00  0.00     0.029 A 
ATOM     57  C   UNL     1      -0.158   8.938  -9.991  1.00  0.00     0.049 A 
ATOM     58  H   UNL     1      -1.052   8.366 -11.808  1.00  0.00     0.167 HD
ATOM     59  C   UNL     1      -2.233  10.306  -9.867  1.00  0.00     0.074 A 
ATOM     60  C   UNL     1      -3.195   9.550 -10.664  1.00  0.00     0.031 C 
ATOM     61  C   UNL     1      -0.913  10.099  -9.586  1.00  0.00     0.037 A 
BRANCH  48  62
ATOM     62  C   UNL     1      -1.640   5.440 -12.262  1.00  0.00     0.064 A 
ATOM     63  C   UNL     1      -1.012   5.957 -13.415  1.00  0.00     0.173 A 
ATOM     64  C   UNL     1      -2.960   4.976 -12.454  1.00  0.00     0.173 A 
ATOM     65  F   UNL     1       0.247   6.417 -13.363  1.00  0.00    -0.203 F 
ATOM     66  C   UNL     1      -1.700   6.124 -14.620  1.00  0.00     0.198 A 
ATOM     67  C   UNL     1      -3.628   5.104 -13.670  1.00  0.00     0.198 A 
ATOM     68  F   UNL     1      -3.704   4.477 -11.462  1.00  0.00    -0.203 F 
ATOM     69  F   UNL     1      -1.109   6.761 -15.639  1.00  0.00    -0.200 F 
ATOM     70  C   UNL     1      -3.014   5.714 -14.740  1.00  0.00     0.200 A 
ATOM     71  F   UNL     1      -4.906   4.708 -13.761  1.00  0.00    -0.200 F 
ATOM     72  F   UNL     1      -3.701   5.947 -15.865  1.00  0.00    -0.200 F 
ENDBRANCH  48  62
BRANCH  49  73
ATOM     73  C   UNL     1      -6.517  11.164  -8.058  1.00  0.00     0.064 A 
ATOM     74  C   UNL     1      -6.786  12.306  -8.826  1.00  0.00     0.173 A 
ATOM     75  C   UNL     1      -7.635  10.451  -7.579  1.00  0.00     0.173 A 
ATOM     76  F   UNL     1      -5.778  13.015  -9.354  1.00  0.00    -0.203 F 
ATOM     77  C   UNL     1      -8.094  12.696  -9.124  1.00  0.00     0.198 A 
ATOM     78  C   UNL     1      -8.940  10.849  -7.867  1.00  0.00     0.198 A 
ATOM     79  F   UNL     1      -7.488   9.303  -6.904  1.00  0.00    -0.203 F 
ATOM     80  F   UNL     1      -8.310  13.754  -9.918  1.00  0.00    -0.200 F 
ATOM     81  C   UNL     1      -9.170  11.962  -8.653  1.00  0.00     0.200 A 
ATOM     82  F   UNL     1      -9.971  10.110  -7.431  1.00  0.00    -0.200 F 
ATOM     83  F   UNL     1     -10.422  12.301  -8.988  1.00  0.00    -0.200 F 
ENDBRANCH  49  73
BRANCH  61  84
ATOM     84  C   UNL     1      -0.250  11.029  -8.612  1.00  0.00     0.064 A 
ATOM     85  C   UNL     1      -0.621  11.164  -7.263  1.00  0.00     0.173 A 
ATOM     86  C   UNL     1       0.897  11.712  -9.038  1.00  0.00     0.173 A 
ATOM     87  F   UNL     1      -1.642  10.464  -6.752  1.00  0.00    -0.203 F 
ATOM     88  C   UNL     1       0.098  11.987  -6.398  1.00  0.00     0.198 A 
ATOM     89  C   UNL     1       1.637  12.500  -8.162  1.00  0.00     0.198 A 
ATOM     90  F   UNL     1       1.330  11.576 -10.302  1.00  0.00    -0.203 F 
ATOM     91  F   UNL     1      -0.286  12.117  -5.119  1.00  0.00    -0.200 F 
ATOM     92  C   UNL     1       1.230  12.648  -6.847  1.00  0.00     0.200 A 
ATOM     93  F   UNL     1       2.759  13.094  -8.589  1.00  0.00    -0.200 F 
ATOM     94  F   UNL     1       1.945  13.407  -6.005  1.00  0.00    -0.200 F 
ENDBRANCH  61  84
ENDBRANCH  35  36
ENDBRANCH  28  30
ENDBRANCH  27  28
ENDBRANCH  26  27
ENDBRANCH  25  26
ENDBRANCH  24  25
ENDBRANCH  23  24
ENDBRANCH   1  23
TORSDOF 19
