REMARK SMILES COc1ccc2c(c1)CC[C@@](C)(CCC(=O)OCCOCCOCCOC(=O)c1ccc(-c3c4nc(c(-c5c(F)c(F)c(F)c(F)c5F)c5ccc([nH]5)c(-c5c(F)c(F)c(F)c(F)c5F)c5nc(c(-c6c(F)c(F)c(F)c(F)c6F)c6ccc3[nH]6)C=C5)C=C4)cc1)C2=O
REMARK SMILES IDX 21 1 20 2 19 3 18 4 17 5 15 6 16 7 14 8 13 9 11 10 3 11 4 12
REMARK SMILES IDX 8 13 5 14 7 15 6 16 9 17 92 18 10 19 93 20 12 21 2 22 1 23
REMARK SMILES IDX 22 24 23 25 24 26 25 27 26 28 27 29 28 30 29 31 30 32 91 33
REMARK SMILES IDX 31 34 90 35 32 36 33 37 34 38 84 39 35 40 89 41 83 42 85 43
REMARK SMILES IDX 36 44 88 45 82 46 81 47 37 49 69 50 49 51 68 52 50 53 53 54
REMARK SMILES IDX 67 55 86 56 51 57 52 58 66 60 87 61 54 62 38 63 39 64 47 65
REMARK SMILES IDX 40 66 41 67 45 68 48 69 42 70 43 71 46 72 44 73 70 74 71 75
REMARK SMILES IDX 79 76 72 77 73 78 77 79 80 80 74 81 75 82 78 83 76 84 55 85
REMARK SMILES IDX 56 86 64 87 57 88 58 89 62 90 65 91 59 92 60 93 63 94 61 95
REMARK H PARENT 85 48 53 59
REMARK Flexibility Score: inf
ROOT
ATOM      1  C   UNL     1       4.426   7.847  -2.374  1.00  0.00     0.188 C 
ENDROOT
BRANCH   1   2
ATOM      2  O   UNL     1       4.896   7.425  -1.101  1.00  0.00    -0.376 OA
BRANCH   2   3
ATOM      3  C   UNL     1       4.173   6.326  -0.547  1.00  0.00     0.202 C 
BRANCH   3   4
ATOM      4  C   UNL     1       2.795   6.696   0.038  1.00  0.00     0.261 C 
BRANCH   4   5
ATOM      5  O   UNL     1       1.764   6.867  -0.962  1.00  0.00    -0.463 OA
BRANCH   5   6
ATOM      6  C   UNL     1       1.451   8.138  -1.313  1.00  0.00     0.305 C 
ATOM      7  O   UNL     1       1.871   9.144  -0.753  1.00  0.00    -0.252 OA
BRANCH   6   8
ATOM      8  C   UNL     1       0.478   8.202  -2.475  1.00  0.00     0.124 C 
BRANCH   8   9
ATOM      9  C   UNL     1       0.826   7.467  -3.783  1.00  0.00     0.026 C 
BRANCH   9  10
ATOM     10  C   UNL     1       0.478   5.951  -3.945  1.00  0.00     0.032 C 
ATOM     11  C   UNL     1       0.411   1.204  -1.790  1.00  0.00     0.119 A 
ATOM     12  C   UNL     1       1.741   1.618  -1.759  1.00  0.00     0.047 A 
ATOM     13  C   UNL     1      -0.568   2.017  -2.373  1.00  0.00     0.050 A 
ATOM     14  C   UNL     1       2.074   2.877  -2.240  1.00  0.00     0.016 A 
ATOM     15  C   UNL     1      -0.247   3.293  -2.856  1.00  0.00    -0.033 A 
ATOM     16  C   UNL     1       1.081   3.717  -2.767  1.00  0.00     0.022 A 
ATOM     17  C   UNL     1      -1.297   4.153  -3.503  1.00  0.00     0.037 C 
ATOM     18  C   UNL     1       1.482   5.059  -3.233  1.00  0.00     0.169 C 
ATOM     19  C   UNL     1      -0.939   5.639  -3.439  1.00  0.00     0.020 C 
ATOM     20  O   UNL     1       2.654   5.376  -3.093  1.00  0.00    -0.294 OA
ATOM     21  C   UNL     1       0.646   5.604  -5.444  1.00  0.00     0.020 C 
BRANCH  11  22
ATOM     22  O   UNL     1      -0.007  -0.004  -1.302  1.00  0.00    -0.497 OA
ATOM     23  C   UNL     1       0.585  -0.335  -0.045  1.00  0.00     0.278 C 
ENDBRANCH  11  22
ENDBRANCH   9  10
ENDBRANCH   8   9
ENDBRANCH   6   8
ENDBRANCH   5   6
ENDBRANCH   4   5
ENDBRANCH   3   4
ENDBRANCH   2   3
ENDBRANCH   1   2
BRANCH   1  24
ATOM     24  C   UNL     1       5.284   7.370  -3.531  1.00  0.00     0.188 C 
BRANCH  24  25
ATOM     25  O   UNL     1       4.905   6.120  -4.102  1.00  0.00    -0.376 OA
BRANCH  25  26
ATOM     26  C   UNL     1       5.833   5.060  -3.903  1.00  0.00     0.202 C 
BRANCH  26  27
ATOM     27  C   UNL     1       6.953   5.032  -4.956  1.00  0.00     0.261 C 
BRANCH  27  28
ATOM     28  O   UNL     1       7.508   6.339  -5.176  1.00  0.00    -0.460 OA
BRANCH  28  29
ATOM     29  C   UNL     1       6.926   7.061  -6.172  1.00  0.00     0.338 C 
ATOM     30  O   UNL     1       6.205   6.641  -7.063  1.00  0.00    -0.246 OA
BRANCH  29  31
ATOM     31  C   UNL     1       7.119   8.507  -5.879  1.00  0.00     0.060 A 
ATOM     32  C   UNL     1       8.245   8.966  -5.191  1.00  0.00     0.016 A 
ATOM     33  C   UNL     1       6.071   9.395  -6.178  1.00  0.00     0.016 A 
ATOM     34  C   UNL     1       8.329  10.309  -4.817  1.00  0.00     0.010 A 
ATOM     35  C   UNL     1       6.144  10.733  -5.782  1.00  0.00     0.010 A 
ATOM     36  C   UNL     1       7.289  11.204  -5.126  1.00  0.00    -0.014 A 
BRANCH  36  37
ATOM     37  C   UNL     1       7.545  12.660  -5.019  1.00  0.00     0.031 A 
ATOM     38  C   UNL     1       7.113  13.490  -3.853  1.00  0.00     0.074 A 
ATOM     39  C   UNL     1       8.231  13.215  -6.035  1.00  0.00     0.049 A 
ATOM     40  N   UNL     1       7.414  14.738  -3.588  1.00  0.00    -0.248 NA
ATOM     41  C   UNL     1       6.231  12.858  -2.865  1.00  0.00     0.031 C 
ATOM     42  C   UNL     1       8.667  12.495  -7.234  1.00  0.00     0.029 A 
ATOM     43  N   UNL     1       8.697  14.489  -6.220  1.00  0.00    -0.354 N 
ATOM     44  C   UNL     1       6.785  15.036  -2.388  1.00  0.00     0.074 A 
ATOM     45  C   UNL     1       6.044  13.851  -2.001  1.00  0.00     0.031 C 
ATOM     46  C   UNL     1       9.369  13.328  -8.013  1.00  0.00     0.029 A 
ATOM     47  C   UNL     1       9.416  14.640  -7.379  1.00  0.00     0.049 A 
ATOM     48  H   UNL     1       8.534  15.223  -5.585  1.00  0.00     0.167 HD
ATOM     49  C   UNL     1       6.844  16.190  -1.677  1.00  0.00     0.037 A 
ATOM     50  C   UNL     1      10.059  15.713  -7.874  1.00  0.00     0.037 A 
ATOM     51  C   UNL     1       7.571  17.368  -2.089  1.00  0.00     0.049 A 
ATOM     52  C   UNL     1      10.077  16.983  -7.078  1.00  0.00     0.074 A 
ATOM     53  C   UNL     1       7.728  18.566  -1.411  1.00  0.00     0.029 A 
ATOM     54  N   UNL     1       8.249  17.505  -3.293  1.00  0.00    -0.354 N 
ATOM     55  N   UNL     1       9.561  17.225  -5.898  1.00  0.00    -0.248 NA
ATOM     56  C   UNL     1      10.777  18.127  -7.677  1.00  0.00     0.031 C 
ATOM     57  C   UNL     1       8.451  19.443  -2.225  1.00  0.00     0.029 A 
ATOM     58  C   UNL     1       8.794  18.778  -3.390  1.00  0.00     0.049 A 
ATOM     59  H   UNL     1       8.331  16.802  -3.978  1.00  0.00     0.167 HD
ATOM     60  C   UNL     1       9.884  18.541  -5.605  1.00  0.00     0.074 A 
ATOM     61  C   UNL     1      10.662  19.038  -6.721  1.00  0.00     0.031 C 
ATOM     62  C   UNL     1       9.559  19.269  -4.509  1.00  0.00     0.037 A 
BRANCH  49  63
ATOM     63  C   UNL     1       6.122  16.249  -0.361  1.00  0.00     0.064 A 
ATOM     64  C   UNL     1       6.603  15.558   0.762  1.00  0.00     0.173 A 
ATOM     65  C   UNL     1       5.016  17.095  -0.184  1.00  0.00     0.173 A 
ATOM     66  F   UNL     1       7.662  14.743   0.650  1.00  0.00    -0.203 F 
ATOM     67  C   UNL     1       5.998  15.704   2.009  1.00  0.00     0.198 A 
ATOM     68  C   UNL     1       4.429  17.258   1.069  1.00  0.00     0.198 A 
ATOM     69  F   UNL     1       4.528  17.796  -1.219  1.00  0.00    -0.203 F 
ATOM     70  F   UNL     1       6.467  15.024   3.064  1.00  0.00    -0.200 F 
ATOM     71  C   UNL     1       4.919  16.561   2.163  1.00  0.00     0.200 A 
ATOM     72  F   UNL     1       3.401  18.105   1.222  1.00  0.00    -0.200 F 
ATOM     73  F   UNL     1       4.356  16.722   3.369  1.00  0.00    -0.200 F 
ENDBRANCH  49  63
BRANCH  50  74
ATOM     74  C   UNL     1      10.777  15.594  -9.166  1.00  0.00     0.064 A 
ATOM     75  C   UNL     1      12.176  15.597  -9.211  1.00  0.00     0.173 A 
ATOM     76  C   UNL     1      10.080  15.424 -10.372  1.00  0.00     0.173 A 
ATOM     77  F   UNL     1      12.883  15.766  -8.084  1.00  0.00    -0.203 F 
ATOM     78  C   UNL     1      12.854  15.447 -10.418  1.00  0.00     0.198 A 
ATOM     79  C   UNL     1      10.760  15.245 -11.573  1.00  0.00     0.198 A 
ATOM     80  F   UNL     1       8.739  15.400 -10.376  1.00  0.00    -0.203 F 
ATOM     81  F   UNL     1      14.194  15.485 -10.440  1.00  0.00    -0.200 F 
ATOM     82  C   UNL     1      12.146  15.263 -11.596  1.00  0.00     0.200 A 
ATOM     83  F   UNL     1      10.072  15.047 -12.706  1.00  0.00    -0.200 F 
ATOM     84  F   UNL     1      12.800  15.104 -12.755  1.00  0.00    -0.200 F 
ENDBRANCH  50  74
BRANCH  62  85
ATOM     85  C   UNL     1      10.041  20.690  -4.460  1.00  0.00     0.064 A 
ATOM     86  C   UNL     1       9.483  21.680  -5.283  1.00  0.00     0.173 A 
ATOM     87  C   UNL     1      11.034  21.078  -3.547  1.00  0.00     0.173 A 
ATOM     88  F   UNL     1       8.545  21.357  -6.186  1.00  0.00    -0.203 F 
ATOM     89  C   UNL     1       9.911  23.002  -5.204  1.00  0.00     0.198 A 
ATOM     90  C   UNL     1      11.438  22.407  -3.450  1.00  0.00     0.198 A 
ATOM     91  F   UNL     1      11.598  20.172  -2.736  1.00  0.00    -0.203 F 
ATOM     92  F   UNL     1       9.392  23.923  -6.028  1.00  0.00    -0.200 F 
ATOM     93  C   UNL     1      10.881  23.366  -4.281  1.00  0.00     0.200 A 
ATOM     94  F   UNL     1      12.365  22.760  -2.549  1.00  0.00    -0.200 F 
ATOM     95  F   UNL     1      11.281  24.642  -4.197  1.00  0.00    -0.200 F 
ENDBRANCH  62  85
ENDBRANCH  36  37
ENDBRANCH  29  31
ENDBRANCH  28  29
ENDBRANCH  27  28
ENDBRANCH  26  27
ENDBRANCH  25  26
ENDBRANCH  24  25
ENDBRANCH   1  24
TORSDOF 20
