REMARK SMILES Cc1cc2c(=O)c3ccccc3oc2c(C(=O)OCCOCCOCCOC(=O)c2ccc(-c3c4nc(c(-c5c(F)c(F)c(F)c(F)c5F)c5ccc([nH]5)c(-c5c(F)c(F)c(F)c(F)c5F)c5nc(c(-c6c(F)c(F)c(F)c(F)c6F)c6ccc3[nH]6)C=C5)C=C4)cc2)c1C
REMARK SMILES IDX 23 1 22 2 21 3 20 4 19 5 18 6 16 7 17 8 15 9 1 10 2 11 3 12
REMARK SMILES IDX 93 13 4 14 94 15 5 16 14 17 6 18 7 19 13 20 8 21 12 22 9 23
REMARK SMILES IDX 11 24 10 25 24 26 25 27 26 28 27 29 28 30 29 31 30 32 31 33
REMARK SMILES IDX 92 34 32 35 91 36 33 37 34 38 35 39 85 40 36 41 90 42 84 43
REMARK SMILES IDX 86 44 37 45 89 46 83 47 82 48 38 50 70 51 50 52 69 53 51 54
REMARK SMILES IDX 54 55 68 56 87 57 52 58 53 59 67 61 88 62 55 63 39 64 40 65
REMARK SMILES IDX 48 66 41 67 42 68 46 69 49 70 43 71 44 72 47 73 45 74 71 75
REMARK SMILES IDX 72 76 80 77 73 78 74 79 78 80 81 81 75 82 76 83 79 84 77 85
REMARK SMILES IDX 56 86 57 87 65 88 58 89 59 90 63 91 66 92 60 93 61 94 64 95
REMARK SMILES IDX 62 96
REMARK H PARENT 86 49 54 60
REMARK Flexibility Score: inf
ROOT
ATOM      1  C   UNL     1       0.243   1.724   5.392  1.00  0.00     0.188 C 
ENDROOT
BRANCH   1   2
ATOM      2  C   UNL     1      -0.791   2.791   5.814  1.00  0.00     0.188 C 
BRANCH   2   3
ATOM      3  O   UNL     1      -1.808   2.472   6.742  1.00  0.00    -0.376 OA
BRANCH   3   4
ATOM      4  C   UNL     1      -2.803   1.517   6.405  1.00  0.00     0.202 C 
BRANCH   4   5
ATOM      5  C   UNL     1      -3.300   1.326   4.967  1.00  0.00     0.261 C 
BRANCH   5   6
ATOM      6  O   UNL     1      -2.260   1.295   3.980  1.00  0.00    -0.460 OA
BRANCH   6   7
ATOM      7  C   UNL     1      -2.380   2.172   2.950  1.00  0.00     0.342 C 
ATOM      8  O   UNL     1      -3.290   2.966   2.787  1.00  0.00    -0.246 OA
BRANCH   7   9
ATOM      9  C   UNL     1      -1.176   2.117   2.071  1.00  0.00     0.106 A 
ATOM     10  C   UNL     1       1.038  -0.309   0.034  1.00  0.00     0.044 C 
ATOM     11  C   UNL     1       0.431   0.912   0.674  1.00  0.00    -0.046 A 
ATOM     12  C   UNL     1       0.976   2.144   0.290  1.00  0.00     0.019 A 
ATOM     13  C   UNL     1      -0.669   0.884   1.564  1.00  0.00    -0.030 A 
ATOM     14  C   UNL     1       0.501   3.336   0.833  1.00  0.00     0.067 A 
ATOM     15  C   UNL     1      -1.230  -0.435   2.039  1.00  0.00     0.046 C 
ATOM     16  C   UNL     1       1.156   4.596   0.460  1.00  0.00     0.200 A 
ATOM     17  C   UNL     1      -0.559   3.343   1.733  1.00  0.00     0.153 A 
ATOM     18  O   UNL     1       2.055   4.634  -0.369  1.00  0.00    -0.288 OA
ATOM     19  C   UNL     1       0.697   5.802   1.144  1.00  0.00     0.065 A 
ATOM     20  O   UNL     1      -0.991   4.504   2.343  1.00  0.00    -0.455 OA
ATOM     21  C   UNL     1       1.309   7.034   0.886  1.00  0.00     0.016 A 
ATOM     22  C   UNL     1      -0.349   5.687   2.055  1.00  0.00     0.138 A 
ATOM     23  C   UNL     1       0.860   8.172   1.546  1.00  0.00     0.001 A 
ATOM     24  C   UNL     1      -0.794   6.832   2.714  1.00  0.00     0.048 A 
ATOM     25  C   UNL     1      -0.194   8.070   2.450  1.00  0.00     0.004 A 
ENDBRANCH   7   9
ENDBRANCH   6   7
ENDBRANCH   5   6
ENDBRANCH   4   5
ENDBRANCH   3   4
ENDBRANCH   2   3
ENDBRANCH   1   2
BRANCH   1  26
ATOM     26  O   UNL     1       0.125   0.387   5.827  1.00  0.00    -0.376 OA
BRANCH  26  27
ATOM     27  C   UNL     1       0.204   0.072   7.207  1.00  0.00     0.202 C 
BRANCH  27  28
ATOM     28  C   UNL     1       1.119   0.813   8.194  1.00  0.00     0.261 C 
BRANCH  28  29
ATOM     29  O   UNL     1       1.187   2.235   8.049  1.00  0.00    -0.460 OA
BRANCH  29  30
ATOM     30  C   UNL     1       2.376   2.722   7.611  1.00  0.00     0.338 C 
ATOM     31  O   UNL     1       3.375   2.090   7.312  1.00  0.00    -0.246 OA
BRANCH  30  32
ATOM     32  C   UNL     1       2.222   4.166   7.363  1.00  0.00     0.060 A 
ATOM     33  C   UNL     1       1.913   5.026   8.417  1.00  0.00     0.016 A 
ATOM     34  C   UNL     1       2.374   4.658   6.058  1.00  0.00     0.016 A 
ATOM     35  C   UNL     1       1.773   6.391   8.165  1.00  0.00     0.010 A 
ATOM     36  C   UNL     1       2.205   6.020   5.803  1.00  0.00     0.010 A 
ATOM     37  C   UNL     1       1.925   6.897   6.861  1.00  0.00    -0.014 A 
BRANCH  37  38
ATOM     38  C   UNL     1       1.944   8.362   6.645  1.00  0.00     0.031 A 
ATOM     39  C   UNL     1       0.731   9.107   6.183  1.00  0.00     0.074 A 
ATOM     40  C   UNL     1       3.087   9.020   6.908  1.00  0.00     0.049 A 
ATOM     41  N   UNL     1       0.600  10.379   5.900  1.00  0.00    -0.248 NA
ATOM     42  C   UNL     1      -0.495   8.320   6.006  1.00  0.00     0.031 C 
ATOM     43  C   UNL     1       4.315   8.394   7.398  1.00  0.00     0.029 A 
ATOM     44  N   UNL     1       3.392  10.354   6.839  1.00  0.00    -0.354 N 
ATOM     45  C   UNL     1      -0.703  10.538   5.448  1.00  0.00     0.074 A 
ATOM     46  C   UNL     1      -1.334   9.236   5.536  1.00  0.00     0.031 C 
ATOM     47  C   UNL     1       5.222   9.350   7.645  1.00  0.00     0.029 A 
ATOM     48  C   UNL     1       4.656  10.648   7.287  1.00  0.00     0.049 A 
ATOM     49  H   UNL     1       2.766  11.035   6.502  1.00  0.00     0.167 HD
ATOM     50  C   UNL     1      -1.291  11.665   4.974  1.00  0.00     0.037 A 
ATOM     51  C   UNL     1       5.281  11.833   7.409  1.00  0.00     0.037 A 
ATOM     52  C   UNL     1      -0.669  12.970   4.994  1.00  0.00     0.049 A 
ATOM     53  C   UNL     1       4.559  13.088   7.003  1.00  0.00     0.074 A 
ATOM     54  C   UNL     1      -1.206  14.187   4.606  1.00  0.00     0.029 A 
ATOM     55  N   UNL     1       0.612  13.235   5.460  1.00  0.00    -0.354 N 
ATOM     56  N   UNL     1       3.346  13.224   6.526  1.00  0.00    -0.248 NA
ATOM     57  C   UNL     1       5.290  14.352   7.155  1.00  0.00     0.031 C 
ATOM     58  C   UNL     1      -0.244  15.180   4.808  1.00  0.00     0.029 A 
ATOM     59  C   UNL     1       0.875  14.595   5.376  1.00  0.00     0.049 A 
ATOM     60  H   UNL     1       1.241  12.558   5.800  1.00  0.00     0.167 HD
ATOM     61  C   UNL     1       3.163  14.586   6.331  1.00  0.00     0.074 A 
ATOM     62  C   UNL     1       4.380  15.237   6.771  1.00  0.00     0.031 C 
ATOM     63  C   UNL     1       2.088  15.235   5.823  1.00  0.00     0.037 A 
BRANCH  50  64
ATOM     64  C   UNL     1      -2.663  11.561   4.363  1.00  0.00     0.064 A 
ATOM     65  C   UNL     1      -3.803  11.260   5.120  1.00  0.00     0.173 A 
ATOM     66  C   UNL     1      -2.850  11.860   3.001  1.00  0.00     0.173 A 
ATOM     67  F   UNL     1      -3.689  10.963   6.423  1.00  0.00    -0.203 F 
ATOM     68  C   UNL     1      -5.070  11.240   4.537  1.00  0.00     0.198 A 
ATOM     69  C   UNL     1      -4.121  11.883   2.432  1.00  0.00     0.198 A 
ATOM     70  F   UNL     1      -1.798  12.164   2.224  1.00  0.00    -0.203 F 
ATOM     71  F   UNL     1      -6.137  10.905   5.275  1.00  0.00    -0.200 F 
ATOM     72  C   UNL     1      -5.230  11.566   3.199  1.00  0.00     0.200 A 
ATOM     73  F   UNL     1      -4.273  12.226   1.145  1.00  0.00    -0.200 F 
ATOM     74  F   UNL     1      -6.452  11.575   2.650  1.00  0.00    -0.200 F 
ENDBRANCH  50  64
BRANCH  51  75
ATOM     75  C   UNL     1       6.644  11.883   7.996  1.00  0.00     0.064 A 
ATOM     76  C   UNL     1       6.851  12.435   9.267  1.00  0.00     0.173 A 
ATOM     77  C   UNL     1       7.753  11.345   7.328  1.00  0.00     0.173 A 
ATOM     78  F   UNL     1       5.823  12.975   9.939  1.00  0.00    -0.203 F 
ATOM     79  C   UNL     1       8.118  12.456   9.844  1.00  0.00     0.198 A 
ATOM     80  C   UNL     1       9.014  11.338   7.919  1.00  0.00     0.198 A 
ATOM     81  F   UNL     1       7.604  10.796   6.113  1.00  0.00    -0.203 F 
ATOM     82  F   UNL     1       8.295  13.021  11.046  1.00  0.00    -0.200 F 
ATOM     83  C   UNL     1       9.197  11.899   9.174  1.00  0.00     0.200 A 
ATOM     84  F   UNL     1      10.049  10.780   7.277  1.00  0.00    -0.200 F 
ATOM     85  F   UNL     1      10.412  11.904   9.737  1.00  0.00    -0.200 F 
ENDBRANCH  51  75
BRANCH  63  86
ATOM     86  C   UNL     1       2.160  16.732   5.726  1.00  0.00     0.064 A 
ATOM     87  C   UNL     1       2.981  17.369   4.783  1.00  0.00     0.173 A 
ATOM     88  C   UNL     1       1.347  17.538   6.538  1.00  0.00     0.173 A 
ATOM     89  F   UNL     1       3.786  16.645   3.991  1.00  0.00    -0.203 F 
ATOM     90  C   UNL     1       2.998  18.756   4.669  1.00  0.00     0.198 A 
ATOM     91  C   UNL     1       1.344  18.924   6.401  1.00  0.00     0.198 A 
ATOM     92  F   UNL     1       0.537  16.980   7.450  1.00  0.00    -0.203 F 
ATOM     93  F   UNL     1       3.818  19.344   3.787  1.00  0.00    -0.200 F 
ATOM     94  C   UNL     1       2.173  19.532   5.470  1.00  0.00     0.200 A 
ATOM     95  F   UNL     1       0.535  19.670   7.164  1.00  0.00    -0.200 F 
ATOM     96  F   UNL     1       2.179  20.866   5.347  1.00  0.00    -0.200 F 
ENDBRANCH  63  86
ENDBRANCH  37  38
ENDBRANCH  30  32
ENDBRANCH  29  30
ENDBRANCH  28  29
ENDBRANCH  27  28
ENDBRANCH  26  27
ENDBRANCH   1  26
TORSDOF 17
