REMARK SMILES O=C(OCCOCCOCCOC(=O)[C@H]1Cc2cc(O)ccc2C[NH2+]1)c1ccc(-c2c3nc(c(-c4c(F)c(F)c(F)c(F)c4F)c4ccc([nH]4)c(-c4c(F)c(F)c(F)c(F)c4F)c4nc(c(-c5c(F)c(F)c(F)c(F)c5F)c5ccc2[nH]5)C=C4)C=C3)cc1
REMARK SMILES IDX 7 1 6 2 5 3 4 4 3 5 2 6 1 7 26 8 27 9 88 10 28 11 87 12
REMARK SMILES IDX 29 13 30 14 31 15 81 16 32 17 86 18 80 19 82 20 33 21 85 22
REMARK SMILES IDX 79 23 78 24 34 26 66 27 46 28 65 29 47 30 50 31 64 32 83 33
REMARK SMILES IDX 48 34 49 35 63 37 84 38 51 39 35 40 36 41 44 42 37 43 38 44
REMARK SMILES IDX 42 45 45 46 39 47 40 48 43 49 41 50 67 51 68 52 76 53 69 54
REMARK SMILES IDX 70 55 74 56 77 57 71 58 72 59 75 60 73 61 52 62 53 63 61 64
REMARK SMILES IDX 54 65 55 66 59 67 62 68 56 69 57 70 60 71 58 72 8 73 9 74
REMARK SMILES IDX 10 75 11 76 12 77 13 78 14 79 15 80 16 81 25 82 17 83 24 84
REMARK SMILES IDX 18 87 23 88 19 89 22 90 21 91 20 92
REMARK H PARENT 82 25 50 36 25 85 25 86 20 93
REMARK Flexibility Score: inf
ROOT
ATOM      1  C   UNL     1       2.644   0.461  -1.381  1.00  0.00     0.188 C 
ENDROOT
BRANCH   1   2
ATOM      2  O   UNL     1       4.043   0.409  -1.102  1.00  0.00    -0.376 OA
BRANCH   2   3
ATOM      3  C   UNL     1       4.623  -0.871  -1.383  1.00  0.00     0.202 C 
BRANCH   3   4
ATOM      4  C   UNL     1       4.644  -1.817  -0.180  1.00  0.00     0.261 C 
BRANCH   4   5
ATOM      5  O   UNL     1       3.388  -1.881   0.502  1.00  0.00    -0.460 OA
BRANCH   5   6
ATOM      6  C   UNL     1       2.883  -1.065   1.456  1.00  0.00     0.338 C 
ATOM      7  O   UNL     1       1.756  -1.326   1.869  1.00  0.00    -0.246 OA
BRANCH   6   8
ATOM      8  C   UNL     1       3.564   0.155   2.026  1.00  0.00     0.060 A 
ATOM      9  C   UNL     1       2.824   0.841   2.998  1.00  0.00     0.016 A 
ATOM     10  C   UNL     1       4.814   0.695   1.690  1.00  0.00     0.016 A 
ATOM     11  C   UNL     1       3.308   2.013   3.580  1.00  0.00     0.010 A 
ATOM     12  C   UNL     1       5.302   1.881   2.271  1.00  0.00     0.010 A 
ATOM     13  C   UNL     1       4.544   2.567   3.211  1.00  0.00    -0.014 A 
BRANCH  13  14
ATOM     14  C   UNL     1       5.067   3.736   3.963  1.00  0.00     0.031 A 
ATOM     15  C   UNL     1       5.271   5.101   3.357  1.00  0.00     0.074 A 
ATOM     16  C   UNL     1       5.314   3.529   5.271  1.00  0.00     0.049 A 
ATOM     17  N   UNL     1       5.412   6.255   3.967  1.00  0.00    -0.248 NA
ATOM     18  C   UNL     1       5.334   5.201   1.893  1.00  0.00     0.031 C 
ATOM     19  C   UNL     1       5.220   2.225   5.936  1.00  0.00     0.029 A 
ATOM     20  N   UNL     1       5.660   4.391   6.275  1.00  0.00    -0.354 N 
ATOM     21  C   UNL     1       5.503   7.217   2.963  1.00  0.00     0.074 A 
ATOM     22  C   UNL     1       5.461   6.511   1.703  1.00  0.00     0.031 C 
ATOM     23  C   UNL     1       5.441   2.382   7.245  1.00  0.00     0.029 A 
ATOM     24  C   UNL     1       5.745   3.783   7.503  1.00  0.00     0.049 A 
ATOM     25  H   UNL     1       5.832   5.349   6.132  1.00  0.00     0.167 HD
ATOM     26  C   UNL     1       5.599   8.564   3.101  1.00  0.00     0.037 A 
ATOM     27  C   UNL     1       6.037   4.296   8.710  1.00  0.00     0.037 A 
ATOM     28  C   UNL     1       5.709   9.220   4.375  1.00  0.00     0.049 A 
ATOM     29  C   UNL     1       6.252   5.774   8.815  1.00  0.00     0.074 A 
ATOM     30  C   UNL     1       5.718  10.573   4.652  1.00  0.00     0.029 A 
ATOM     31  N   UNL     1       5.893   8.556   5.579  1.00  0.00    -0.354 N 
ATOM     32  N   UNL     1       6.102   6.691   7.890  1.00  0.00    -0.248 NA
ATOM     33  C   UNL     1       6.681   6.290  10.118  1.00  0.00     0.031 C 
ATOM     34  C   UNL     1       5.997  10.730   6.013  1.00  0.00     0.029 A 
ATOM     35  C   UNL     1       6.118   9.473   6.590  1.00  0.00     0.049 A 
ATOM     36  H   UNL     1       5.868   7.579   5.697  1.00  0.00     0.167 HD
ATOM     37  C   UNL     1       6.422   7.896   8.493  1.00  0.00     0.074 A 
ATOM     38  C   UNL     1       6.745   7.594   9.875  1.00  0.00     0.031 C 
ATOM     39  C   UNL     1       6.454   9.138   7.951  1.00  0.00     0.037 A 
BRANCH  26  40
ATOM     40  C   UNL     1       5.584   9.434   1.875  1.00  0.00     0.064 A 
ATOM     41  C   UNL     1       4.373   9.894   1.343  1.00  0.00     0.173 A 
ATOM     42  C   UNL     1       6.759   9.929   1.299  1.00  0.00     0.173 A 
ATOM     43  F   UNL     1       3.223   9.600   1.953  1.00  0.00    -0.203 F 
ATOM     44  C   UNL     1       4.325  10.717   0.221  1.00  0.00     0.198 A 
ATOM     45  C   UNL     1       6.715  10.799   0.206  1.00  0.00     0.198 A 
ATOM     46  F   UNL     1       7.951   9.606   1.821  1.00  0.00    -0.203 F 
ATOM     47  F   UNL     1       3.140  11.082  -0.291  1.00  0.00    -0.200 F 
ATOM     48  C   UNL     1       5.499  11.171  -0.349  1.00  0.00     0.200 A 
ATOM     49  F   UNL     1       7.853  11.294  -0.302  1.00  0.00    -0.200 F 
ATOM     50  F   UNL     1       5.458  11.987  -1.412  1.00  0.00    -0.200 F 
ENDBRANCH  26  40
BRANCH  27  51
ATOM     51  C   UNL     1       6.118   3.380   9.876  1.00  0.00     0.064 A 
ATOM     52  C   UNL     1       5.150   3.403  10.886  1.00  0.00     0.173 A 
ATOM     53  C   UNL     1       7.106   2.382   9.940  1.00  0.00     0.173 A 
ATOM     54  F   UNL     1       4.193   4.342  10.874  1.00  0.00    -0.203 F 
ATOM     55  C   UNL     1       5.156   2.454  11.907  1.00  0.00     0.198 A 
ATOM     56  C   UNL     1       7.092   1.416  10.942  1.00  0.00     0.198 A 
ATOM     57  F   UNL     1       8.049   2.309   8.989  1.00  0.00    -0.203 F 
ATOM     58  F   UNL     1       4.221   2.499  12.866  1.00  0.00    -0.200 F 
ATOM     59  C   UNL     1       6.117   1.452  11.925  1.00  0.00     0.200 A 
ATOM     60  F   UNL     1       8.006   0.436  10.938  1.00  0.00    -0.200 F 
ATOM     61  F   UNL     1       6.098   0.519  12.887  1.00  0.00    -0.200 F 
ENDBRANCH  27  51
BRANCH  39  62
ATOM     62  C   UNL     1       6.899  10.260   8.836  1.00  0.00     0.064 A 
ATOM     63  C   UNL     1       8.249  10.410   9.180  1.00  0.00     0.173 A 
ATOM     64  C   UNL     1       5.994  11.246   9.254  1.00  0.00     0.173 A 
ATOM     65  F   UNL     1       9.146   9.482   8.815  1.00  0.00    -0.203 F 
ATOM     66  C   UNL     1       8.679  11.512   9.912  1.00  0.00     0.198 A 
ATOM     67  C   UNL     1       6.433  12.362   9.957  1.00  0.00     0.198 A 
ATOM     68  F   UNL     1       4.693  11.148   8.940  1.00  0.00    -0.203 F 
ATOM     69  F   UNL     1       9.971  11.625  10.250  1.00  0.00    -0.200 F 
ATOM     70  C   UNL     1       7.774  12.494  10.287  1.00  0.00     0.200 A 
ATOM     71  F   UNL     1       5.561  13.320  10.301  1.00  0.00    -0.200 F 
ATOM     72  F   UNL     1       8.195  13.570  10.965  1.00  0.00    -0.200 F 
ENDBRANCH  39  62
ENDBRANCH  13  14
ENDBRANCH   6   8
ENDBRANCH   5   6
ENDBRANCH   4   5
ENDBRANCH   3   4
ENDBRANCH   2   3
ENDBRANCH   1   2
BRANCH   1  73
ATOM     73  C   UNL     1       2.252   1.033  -2.749  1.00  0.00     0.188 C 
BRANCH  73  74
ATOM     74  O   UNL     1       3.150   0.868  -3.835  1.00  0.00    -0.376 OA
BRANCH  74  75
ATOM     75  C   UNL     1       4.423   1.503  -3.763  1.00  0.00     0.202 C 
BRANCH  75  76
ATOM     76  C   UNL     1       4.496   3.015  -3.525  1.00  0.00     0.261 C 
BRANCH  76  77
ATOM     77  O   UNL     1       3.847   3.476  -2.321  1.00  0.00    -0.459 OA
BRANCH  77  78
ATOM     78  C   UNL     1       2.850   4.378  -2.536  1.00  0.00     0.365 C 
ATOM     79  O   UNL     1       2.466   4.733  -3.649  1.00  0.00    -0.245 OA
BRANCH  78  80
ATOM     80  C   UNL     1       2.286   5.048  -1.281  1.00  0.00     0.298 C 
ATOM     81  C   UNL     1       2.292   4.255   0.033  1.00  0.00     0.113 C 
ATOM     82  N   UNL     1       2.969   6.360  -1.128  1.00  0.00    -0.331 N 
ATOM     83  C   UNL     1       1.921   5.137   1.216  1.00  0.00    -0.029 A 
ATOM     84  C   UNL     1       2.153   7.192  -0.241  1.00  0.00     0.298 C 
ATOM     85  H   UNL     1       3.062   6.811  -2.038  1.00  0.00     0.347 HD
ATOM     86  H   UNL     1       3.902   6.231  -0.735  1.00  0.00     0.347 HD
ATOM     87  C   UNL     1       1.681   4.581   2.475  1.00  0.00     0.050 A 
ATOM     88  C   UNL     1       1.902   6.535   1.090  1.00  0.00     0.010 A 
ATOM     89  C   UNL     1       1.580   5.391   3.603  1.00  0.00     0.115 A 
ATOM     90  C   UNL     1       1.614   7.327   2.212  1.00  0.00     0.013 A 
ATOM     91  C   UNL     1       1.527   6.767   3.482  1.00  0.00     0.046 A 
BRANCH  89  92
ATOM     92  O   UNL     1       1.572   4.803   4.833  1.00  0.00    -0.508 OA
ATOM     93  H   UNL     1       1.608   3.870   4.907  1.00  0.00     0.293 HD
ENDBRANCH  89  92
ENDBRANCH  78  80
ENDBRANCH  77  78
ENDBRANCH  76  77
ENDBRANCH  75  76
ENDBRANCH  74  75
ENDBRANCH  73  74
ENDBRANCH   1  73
TORSDOF 18
