REMARK SMILES CSCC[C@@H](CO)n1ccnc1-c1ccccc1C(=O)OCCOCCOCCOC(=O)c1ccc(-c2c3nc(c(-c4c(F)c(F)c(F)c(F)c4F)c4ccc([nH]4)c(-c4c(F)c(F)c(F)c(F)c4F)c4nc(c(-c5c(F)c(F)c(F)c(F)c5F)c5ccc2[nH]5)C=C4)C=C3)cc1
REMARK SMILES IDX 24 1 23 2 22 3 21 4 19 5 20 6 18 7 13 8 14 9 15 10 17 11
REMARK SMILES IDX 16 12 12 13 8 14 9 15 10 16 11 17 5 18 4 19 3 20 2 21 1 22
REMARK SMILES IDX 6 23 7 24 25 26 26 27 27 28 28 29 29 30 30 31 31 32 32 33
REMARK SMILES IDX 33 34 34 35 95 36 35 37 94 38 36 39 37 40 38 41 88 42 39 43
REMARK SMILES IDX 93 44 87 45 89 46 40 47 92 48 86 49 85 50 41 52 73 53 53 54
REMARK SMILES IDX 72 55 54 56 57 57 71 58 90 59 55 60 56 61 70 63 91 64 58 65
REMARK SMILES IDX 42 66 43 67 51 68 44 69 45 70 49 71 52 72 46 73 47 74 50 75
REMARK SMILES IDX 48 76 74 77 75 78 83 79 76 80 77 81 81 82 84 83 78 84 79 85
REMARK SMILES IDX 82 86 80 87 59 88 60 89 68 90 61 91 62 92 66 93 69 94 63 95
REMARK SMILES IDX 64 96 67 97 65 98
REMARK H PARENT 7 25 89 51 57 62
REMARK Flexibility Score: inf
ROOT
ATOM      1  O   UNL     1      -3.932   5.050  -0.081  1.00  0.00    -0.376 OA
ENDROOT
BRANCH   1   2
ATOM      2  C   UNL     1      -3.456   3.847  -0.675  1.00  0.00     0.202 C 
BRANCH   2   3
ATOM      3  C   UNL     1      -2.163   3.287  -0.077  1.00  0.00     0.261 C 
BRANCH   3   4
ATOM      4  O   UNL     1      -1.117   4.245   0.154  1.00  0.00    -0.460 OA
BRANCH   4   5
ATOM      5  C   UNL     1      -0.367   4.666  -0.880  1.00  0.00     0.338 C 
ATOM      6  O   UNL     1      -0.564   4.389  -2.055  1.00  0.00    -0.246 OA
BRANCH   5   7
ATOM      7  C   UNL     1       0.756   5.538  -0.420  1.00  0.00     0.071 A 
ATOM      8  C   UNL     1       1.399   5.429   0.831  1.00  0.00     0.032 A 
ATOM      9  C   UNL     1       2.410   6.358   1.148  1.00  0.00     0.013 A 
ATOM     10  C   UNL     1       2.815   7.334   0.235  1.00  0.00     0.001 A 
ATOM     11  C   UNL     1       1.185   6.516  -1.339  1.00  0.00     0.016 A 
ATOM     12  C   UNL     1       2.208   7.408  -1.012  1.00  0.00     0.001 A 
BRANCH   8  13
ATOM     13  C   UNL     1       1.035   4.470   1.880  1.00  0.00     0.141 A 
ATOM     14  N   UNL     1       1.202   3.094   1.885  1.00  0.00    -0.326 N 
ATOM     15  C   UNL     1       0.597   2.621   3.032  1.00  0.00     0.108 A 
ATOM     16  C   UNL     1       0.199   3.732   3.727  1.00  0.00     0.131 A 
ATOM     17  N   UNL     1       0.509   4.859   3.030  1.00  0.00    -0.237 NA
BRANCH  14  18
ATOM     18  C   UNL     1       1.950   2.216   0.970  1.00  0.00     0.115 C 
BRANCH  18  19
ATOM     19  C   UNL     1       1.482   2.296  -0.489  1.00  0.00     0.039 C 
BRANCH  19  20
ATOM     20  C   UNL     1       2.005   1.264  -1.484  1.00  0.00     0.071 C 
BRANCH  20  21
ATOM     21  S   UNL     1       0.921  -0.185  -1.706  1.00  0.00    -0.165 SA
ATOM     22  C   UNL     1       1.135  -1.008  -0.118  1.00  0.00     0.085 C 
ENDBRANCH  20  21
ENDBRANCH  19  20
ENDBRANCH  18  19
BRANCH  18  23
ATOM     23  C   UNL     1       3.468   2.369   1.167  1.00  0.00     0.181 C 
BRANCH  23  24
ATOM     24  O   UNL     1       3.999   3.600   0.699  1.00  0.00    -0.394 OA
ATOM     25  H   UNL     1       3.862   3.667  -0.259  1.00  0.00     0.210 HD
ENDBRANCH  23  24
ENDBRANCH  18  23
ENDBRANCH  14  18
ENDBRANCH   8  13
ENDBRANCH   5   7
ENDBRANCH   4   5
ENDBRANCH   3   4
ENDBRANCH   2   3
ENDBRANCH   1   2
BRANCH   1  26
ATOM     26  C   UNL     1      -3.160   6.197  -0.398  1.00  0.00     0.188 C 
BRANCH  26  27
ATOM     27  C   UNL     1      -2.369   6.831   0.767  1.00  0.00     0.188 C 
BRANCH  27  28
ATOM     28  O   UNL     1      -2.349   6.307   2.087  1.00  0.00    -0.376 OA
BRANCH  28  29
ATOM     29  C   UNL     1      -3.422   5.566   2.639  1.00  0.00     0.202 C 
BRANCH  29  30
ATOM     30  C   UNL     1      -4.721   6.308   2.938  1.00  0.00     0.261 C 
BRANCH  30  31
ATOM     31  O   UNL     1      -5.169   7.072   1.830  1.00  0.00    -0.460 OA
BRANCH  31  32
ATOM     32  C   UNL     1      -4.735   8.349   1.837  1.00  0.00     0.338 C 
ATOM     33  O   UNL     1      -4.095   8.919   2.703  1.00  0.00    -0.246 OA
BRANCH  32  34
ATOM     34  C   UNL     1      -5.142   8.991   0.580  1.00  0.00     0.060 A 
ATOM     35  C   UNL     1      -4.614  10.258   0.319  1.00  0.00     0.016 A 
ATOM     36  C   UNL     1      -6.141   8.422  -0.225  1.00  0.00     0.016 A 
ATOM     37  C   UNL     1      -5.273  11.066  -0.576  1.00  0.00     0.010 A 
ATOM     38  C   UNL     1      -6.802   9.227  -1.120  1.00  0.00     0.010 A 
ATOM     39  C   UNL     1      -6.432  10.569  -1.177  1.00  0.00    -0.014 A 
BRANCH  39  40
ATOM     40  C   UNL     1      -7.393  11.549  -1.635  1.00  0.00     0.031 A 
ATOM     41  C   UNL     1      -7.240  12.042  -3.011  1.00  0.00     0.074 A 
ATOM     42  C   UNL     1      -8.404  11.913  -0.822  1.00  0.00     0.049 A 
ATOM     43  N   UNL     1      -7.047  13.258  -3.397  1.00  0.00    -0.248 NA
ATOM     44  C   UNL     1      -7.246  11.048  -4.091  1.00  0.00     0.031 C 
ATOM     45  C   UNL     1      -8.821  11.274   0.432  1.00  0.00     0.029 A 
ATOM     46  N   UNL     1      -9.350  12.871  -1.012  1.00  0.00    -0.354 N 
ATOM     47  C   UNL     1      -7.074  13.216  -4.784  1.00  0.00     0.074 A 
ATOM     48  C   UNL     1      -7.068  11.825  -5.159  1.00  0.00     0.031 C 
ATOM     49  C   UNL     1     -10.051  11.719   0.767  1.00  0.00     0.029 A 
ATOM     50  C   UNL     1     -10.450  12.747  -0.179  1.00  0.00     0.049 A 
ATOM     51  H   UNL     1      -9.261  13.588  -1.680  1.00  0.00     0.167 HD
ATOM     52  C   UNL     1      -7.331  14.328  -5.521  1.00  0.00     0.037 A 
ATOM     53  C   UNL     1     -11.637  13.380  -0.323  1.00  0.00     0.037 A 
ATOM     54  C   UNL     1      -7.099  15.538  -4.780  1.00  0.00     0.049 A 
ATOM     55  C   UNL     1     -11.431  14.540  -1.227  1.00  0.00     0.074 A 
ATOM     56  C   UNL     1      -6.003  16.075  -4.130  1.00  0.00     0.029 A 
ATOM     57  N   UNL     1      -8.179  16.259  -4.333  1.00  0.00    -0.354 N 
ATOM     58  N   UNL     1     -10.786  15.625  -0.903  1.00  0.00    -0.248 NA
ATOM     59  C   UNL     1     -11.604  14.324  -2.657  1.00  0.00     0.031 C 
ATOM     60  C   UNL     1      -6.533  16.753  -2.994  1.00  0.00     0.029 A 
ATOM     61  C   UNL     1      -7.919  16.609  -3.032  1.00  0.00     0.049 A 
ATOM     62  H   UNL     1      -8.987  16.482  -4.849  1.00  0.00     0.167 HD
ATOM     63  C   UNL     1     -10.114  15.993  -2.059  1.00  0.00     0.074 A 
ATOM     64  C   UNL     1     -10.744  15.229  -3.128  1.00  0.00     0.031 C 
ATOM     65  C   UNL     1      -8.925  16.663  -2.000  1.00  0.00     0.037 A 
BRANCH  52  66
ATOM     66  C   UNL     1      -8.102  14.289  -6.809  1.00  0.00     0.064 A 
ATOM     67  C   UNL     1      -8.089  15.404  -7.663  1.00  0.00     0.173 A 
ATOM     68  C   UNL     1      -9.066  13.298  -7.101  1.00  0.00     0.173 A 
ATOM     69  F   UNL     1      -7.243  16.421  -7.444  1.00  0.00    -0.203 F 
ATOM     70  C   UNL     1      -9.004  15.534  -8.711  1.00  0.00     0.198 A 
ATOM     71  C   UNL     1      -9.936  13.403  -8.182  1.00  0.00     0.198 A 
ATOM     72  F   UNL     1      -9.275  12.253  -6.290  1.00  0.00    -0.203 F 
ATOM     73  F   UNL     1      -9.032  16.664  -9.431  1.00  0.00    -0.200 F 
ATOM     74  C   UNL     1      -9.924  14.533  -8.971  1.00  0.00     0.200 A 
ATOM     75  F   UNL     1     -10.835  12.433  -8.402  1.00  0.00    -0.200 F 
ATOM     76  F   UNL     1     -10.831  14.679  -9.945  1.00  0.00    -0.200 F 
ENDBRANCH  52  66
BRANCH  53  77
ATOM     77  C   UNL     1     -12.983  12.884   0.044  1.00  0.00     0.064 A 
ATOM     78  C   UNL     1     -14.070  13.764   0.152  1.00  0.00     0.173 A 
ATOM     79  C   UNL     1     -13.287  11.508   0.049  1.00  0.00     0.173 A 
ATOM     80  F   UNL     1     -13.872  15.090   0.107  1.00  0.00    -0.203 F 
ATOM     81  C   UNL     1     -15.384  13.296   0.242  1.00  0.00     0.198 A 
ATOM     82  C   UNL     1     -14.596  11.041   0.156  1.00  0.00     0.198 A 
ATOM     83  F   UNL     1     -12.331  10.588  -0.145  1.00  0.00    -0.203 F 
ATOM     84  F   UNL     1     -16.402  14.166   0.279  1.00  0.00    -0.200 F 
ATOM     85  C   UNL     1     -15.646  11.935   0.239  1.00  0.00     0.200 A 
ATOM     86  F   UNL     1     -14.836   9.723   0.117  1.00  0.00    -0.200 F 
ATOM     87  F   UNL     1     -16.908  11.487   0.271  1.00  0.00    -0.200 F 
ENDBRANCH  53  77
BRANCH  65  88
ATOM     88  C   UNL     1      -8.528  17.260  -0.681  1.00  0.00     0.064 A 
ATOM     89  C   UNL     1      -8.311  16.506   0.486  1.00  0.00     0.173 A 
ATOM     90  C   UNL     1      -8.252  18.633  -0.622  1.00  0.00     0.173 A 
ATOM     91  F   UNL     1      -8.441  15.172   0.478  1.00  0.00    -0.203 F 
ATOM     92  C   UNL     1      -7.904  17.113   1.672  1.00  0.00     0.198 A 
ATOM     93  C   UNL     1      -7.806  19.230   0.554  1.00  0.00     0.198 A 
ATOM     94  F   UNL     1      -8.379  19.393  -1.722  1.00  0.00    -0.203 F 
ATOM     95  F   UNL     1      -7.732  16.376   2.780  1.00  0.00    -0.200 F 
ATOM     96  C   UNL     1      -7.648  18.474   1.704  1.00  0.00     0.200 A 
ATOM     97  F   UNL     1      -7.510  20.537   0.567  1.00  0.00    -0.200 F 
ATOM     98  F   UNL     1      -7.227  19.053   2.837  1.00  0.00    -0.200 F 
ENDBRANCH  65  88
ENDBRANCH  39  40
ENDBRANCH  32  34
ENDBRANCH  31  32
ENDBRANCH  30  31
ENDBRANCH  29  30
ENDBRANCH  28  29
ENDBRANCH  27  28
ENDBRANCH  26  27
ENDBRANCH   1  26
TORSDOF 24
