REMARK SMILES C=CCc1cccc(-c2ccc([C@@H](C)C(=O)OCCOCCOCCOC(=O)c3ccc(-c4c5nc(c(-c6c(F)c(F)c(F)c(F)c6F)c6ccc([nH]6)c(-c6c(F)c(F)c(F)c(F)c6F)c6nc(c(-c7c(F)c(F)c(F)c(F)c7F)c7ccc4[nH]7)C=C6)C=C5)cc3)cc2)c1
REMARK SMILES IDX 21 1 20 2 19 3 18 4 17 5 15 6 16 7 13 8 14 9 12 10 9 11
REMARK SMILES IDX 10 12 93 13 11 14 92 15 8 16 4 17 5 18 94 19 6 20 7 21 3 22
REMARK SMILES IDX 2 23 1 24 22 25 23 26 24 27 25 28 26 29 27 30 28 31 29 32
REMARK SMILES IDX 30 33 91 34 31 35 90 36 32 37 33 38 34 39 84 40 35 41 89 42
REMARK SMILES IDX 83 43 85 44 36 45 88 46 82 47 81 48 37 50 69 51 49 52 68 53
REMARK SMILES IDX 50 54 53 55 67 56 86 57 51 58 52 59 66 61 87 62 54 63 38 64
REMARK SMILES IDX 39 65 47 66 40 67 41 68 45 69 48 70 42 71 43 72 46 73 44 74
REMARK SMILES IDX 70 75 71 76 79 77 72 78 73 79 77 80 80 81 74 82 75 83 78 84
REMARK SMILES IDX 76 85 55 86 56 87 64 88 57 89 58 90 62 91 65 92 59 93 60 94
REMARK SMILES IDX 63 95 61 96
REMARK H PARENT 85 49 53 60
REMARK Flexibility Score: inf
ROOT
ATOM      1  C   UNL     1      -3.906  -7.201  -6.194  1.00  0.00     0.188 C 
ENDROOT
BRANCH   1   2
ATOM      2  O   UNL     1      -3.401  -8.160  -7.117  1.00  0.00    -0.376 OA
BRANCH   2   3
ATOM      3  C   UNL     1      -2.749  -7.714  -8.299  1.00  0.00     0.202 C 
BRANCH   3   4
ATOM      4  C   UNL     1      -3.548  -6.831  -9.269  1.00  0.00     0.261 C 
BRANCH   4   5
ATOM      5  O   UNL     1      -4.095  -5.619  -8.701  1.00  0.00    -0.463 OA
BRANCH   5   6
ATOM      6  C   UNL     1      -5.444  -5.487  -8.745  1.00  0.00     0.313 C 
ATOM      7  O   UNL     1      -6.184  -6.316  -9.273  1.00  0.00    -0.252 OA
BRANCH   6   8
ATOM      8  C   UNL     1      -6.033  -4.235  -8.089  1.00  0.00     0.126 C 
ATOM      9  C   UNL     1      -6.755  -3.414  -9.157  1.00  0.00     0.025 C 
BRANCH   8  10
ATOM     10  C   UNL     1      -5.192  -3.331  -7.189  1.00  0.00    -0.034 A 
ATOM     11  C   UNL     1      -3.710  -1.644  -5.408  1.00  0.00    -0.018 A 
ATOM     12  C   UNL     1      -3.276  -1.888  -6.722  1.00  0.00     0.009 A 
ATOM     13  C   UNL     1      -4.909  -2.245  -5.005  1.00  0.00     0.009 A 
ATOM     14  C   UNL     1      -4.008  -2.709  -7.604  1.00  0.00     0.005 A 
ATOM     15  C   UNL     1      -5.638  -3.066  -5.878  1.00  0.00     0.005 A 
BRANCH  11  16
ATOM     16  C   UNL     1      -2.969  -0.746  -4.498  1.00  0.00    -0.018 A 
ATOM     17  C   UNL     1      -1.790  -0.317  -2.381  1.00  0.00    -0.044 A 
ATOM     18  C   UNL     1      -1.633   1.025  -2.751  1.00  0.00     0.004 A 
ATOM     19  C   UNL     1      -2.459  -1.192  -3.262  1.00  0.00     0.012 A 
ATOM     20  C   UNL     1      -2.123   1.483  -3.971  1.00  0.00     0.001 A 
ATOM     21  C   UNL     1      -2.784   0.606  -4.834  1.00  0.00     0.009 A 
BRANCH  17  22
ATOM     22  C   UNL     1      -1.264  -0.797  -1.045  1.00  0.00     0.062 C 
BRANCH  22  23
ATOM     23  C   UNL     1       0.238  -0.744  -0.950  1.00  0.00    -0.030 C 
ATOM     24  C   UNL     1       0.920   0.004  -0.071  1.00  0.00     0.004 C 
ENDBRANCH  22  23
ENDBRANCH  17  22
ENDBRANCH  11  16
ENDBRANCH   8  10
ENDBRANCH   6   8
ENDBRANCH   5   6
ENDBRANCH   4   5
ENDBRANCH   3   4
ENDBRANCH   2   3
ENDBRANCH   1   2
BRANCH   1  25
ATOM     25  C   UNL     1      -3.159  -5.875  -5.991  1.00  0.00     0.188 C 
BRANCH  25  26
ATOM     26  O   UNL     1      -1.831  -5.878  -6.473  1.00  0.00    -0.376 OA
BRANCH  26  27
ATOM     27  C   UNL     1      -0.841  -5.435  -5.566  1.00  0.00     0.202 C 
BRANCH  27  28
ATOM     28  C   UNL     1      -0.512  -6.487  -4.501  1.00  0.00     0.261 C 
BRANCH  28  29
ATOM     29  O   UNL     1      -1.645  -6.959  -3.745  1.00  0.00    -0.460 OA
BRANCH  29  30
ATOM     30  C   UNL     1      -2.204  -6.087  -2.874  1.00  0.00     0.338 C 
ATOM     31  O   UNL     1      -1.834  -4.956  -2.626  1.00  0.00    -0.246 OA
BRANCH  30  32
ATOM     32  C   UNL     1      -3.485  -6.667  -2.410  1.00  0.00     0.060 A 
ATOM     33  C   UNL     1      -4.667  -5.931  -2.583  1.00  0.00     0.016 A 
ATOM     34  C   UNL     1      -3.520  -7.921  -1.797  1.00  0.00     0.016 A 
ATOM     35  C   UNL     1      -5.880  -6.429  -2.102  1.00  0.00     0.010 A 
ATOM     36  C   UNL     1      -4.732  -8.411  -1.301  1.00  0.00     0.010 A 
ATOM     37  C   UNL     1      -5.910  -7.651  -1.415  1.00  0.00    -0.014 A 
BRANCH  37  38
ATOM     38  C   UNL     1      -7.113  -8.037  -0.634  1.00  0.00     0.031 A 
ATOM     39  C   UNL     1      -7.123  -7.758   0.844  1.00  0.00     0.074 A 
ATOM     40  C   UNL     1      -8.175  -8.626  -1.210  1.00  0.00     0.049 A 
ATOM     41  N   UNL     1      -8.020  -8.062   1.748  1.00  0.00    -0.248 NA
ATOM     42  C   UNL     1      -5.950  -7.046   1.375  1.00  0.00     0.031 C 
ATOM     43  C   UNL     1      -8.309  -8.925  -2.632  1.00  0.00     0.029 A 
ATOM     44  N   UNL     1      -9.341  -9.094  -0.653  1.00  0.00    -0.354 N 
ATOM     45  C   UNL     1      -7.513  -7.591   2.953  1.00  0.00     0.074 A 
ATOM     46  C   UNL     1      -6.218  -7.011   2.670  1.00  0.00     0.031 C 
ATOM     47  C   UNL     1      -9.484  -9.545  -2.837  1.00  0.00     0.029 A 
ATOM     48  C   UNL     1     -10.170  -9.715  -1.555  1.00  0.00     0.049 A 
ATOM     49  H   UNL     1      -9.562  -8.994   0.301  1.00  0.00     0.167 HD
ATOM     50  C   UNL     1      -8.077  -7.633   4.183  1.00  0.00     0.037 A 
ATOM     51  C   UNL     1     -11.334 -10.367  -1.362  1.00  0.00     0.037 A 
ATOM     52  C   UNL     1      -9.364  -8.213   4.465  1.00  0.00     0.049 A 
ATOM     53  C   UNL     1     -11.918 -10.456   0.026  1.00  0.00     0.074 A 
ATOM     54  C   UNL     1     -10.037  -8.275   5.673  1.00  0.00     0.029 A 
ATOM     55  N   UNL     1     -10.166  -8.847   3.528  1.00  0.00    -0.354 N 
ATOM     56  N   UNL     1     -11.454  -9.977   1.155  1.00  0.00    -0.248 NA
ATOM     57  C   UNL     1     -13.195 -11.173   0.163  1.00  0.00     0.031 C 
ATOM     58  C   UNL     1     -11.217  -9.001   5.479  1.00  0.00     0.029 A 
ATOM     59  C   UNL     1     -11.313  -9.332   4.137  1.00  0.00     0.049 A 
ATOM     60  H   UNL     1      -9.953  -8.940   2.571  1.00  0.00     0.167 HD
ATOM     61  C   UNL     1     -12.391 -10.306   2.128  1.00  0.00     0.074 A 
ATOM     62  C   UNL     1     -13.457 -11.018   1.454  1.00  0.00     0.031 C 
ATOM     63  C   UNL     1     -12.371 -10.039   3.458  1.00  0.00     0.037 A 
BRANCH  50  64
ATOM     64  C   UNL     1      -7.279  -7.070   5.324  1.00  0.00     0.064 A 
ATOM     65  C   UNL     1      -7.021  -5.696   5.444  1.00  0.00     0.173 A 
ATOM     66  C   UNL     1      -6.762  -7.922   6.313  1.00  0.00     0.173 A 
ATOM     67  F   UNL     1      -7.478  -4.839   4.518  1.00  0.00    -0.203 F 
ATOM     68  C   UNL     1      -6.242  -5.201   6.488  1.00  0.00     0.198 A 
ATOM     69  C   UNL     1      -6.014  -7.419   7.374  1.00  0.00     0.198 A 
ATOM     70  F   UNL     1      -6.982  -9.244   6.250  1.00  0.00    -0.203 F 
ATOM     71  F   UNL     1      -5.954  -3.893   6.544  1.00  0.00    -0.200 F 
ATOM     72  C   UNL     1      -5.744  -6.062   7.454  1.00  0.00     0.200 A 
ATOM     73  F   UNL     1      -5.545  -8.251   8.314  1.00  0.00    -0.200 F 
ATOM     74  F   UNL     1      -4.994  -5.584   8.457  1.00  0.00    -0.200 F 
ENDBRANCH  50  64
BRANCH  51  75
ATOM     75  C   UNL     1     -12.023 -10.999  -2.518  1.00  0.00     0.064 A 
ATOM     76  C   UNL     1     -13.236 -10.492  -3.004  1.00  0.00     0.173 A 
ATOM     77  C   UNL     1     -11.483 -12.124  -3.158  1.00  0.00     0.173 A 
ATOM     78  F   UNL     1     -13.808  -9.437  -2.406  1.00  0.00    -0.203 F 
ATOM     79  C   UNL     1     -13.887 -11.092  -4.081  1.00  0.00     0.198 A 
ATOM     80  C   UNL     1     -12.120 -12.706  -4.252  1.00  0.00     0.198 A 
ATOM     81  F   UNL     1     -10.328 -12.653  -2.726  1.00  0.00    -0.203 F 
ATOM     82  F   UNL     1     -15.066 -10.612  -4.500  1.00  0.00    -0.200 F 
ATOM     83  C   UNL     1     -13.324 -12.193  -4.710  1.00  0.00     0.200 A 
ATOM     84  F   UNL     1     -11.568 -13.764  -4.862  1.00  0.00    -0.200 F 
ATOM     85  F   UNL     1     -13.946 -12.763  -5.750  1.00  0.00    -0.200 F 
ENDBRANCH  51  75
BRANCH  63  86
ATOM     86  C   UNL     1     -13.555 -10.479   4.274  1.00  0.00     0.064 A 
ATOM     87  C   UNL     1     -13.808 -11.831   4.547  1.00  0.00     0.173 A 
ATOM     88  C   UNL     1     -14.425  -9.526   4.829  1.00  0.00     0.173 A 
ATOM     89  F   UNL     1     -13.015 -12.784   4.033  1.00  0.00    -0.203 F 
ATOM     90  C   UNL     1     -14.902 -12.215   5.320  1.00  0.00     0.198 A 
ATOM     91  C   UNL     1     -15.498  -9.911   5.629  1.00  0.00     0.198 A 
ATOM     92  F   UNL     1     -14.226  -8.218   4.609  1.00  0.00    -0.203 F 
ATOM     93  F   UNL     1     -15.152 -13.516   5.524  1.00  0.00    -0.200 F 
ATOM     94  C   UNL     1     -15.741 -11.255   5.866  1.00  0.00     0.200 A 
ATOM     95  F   UNL     1     -16.297  -8.981   6.170  1.00  0.00    -0.200 F 
ATOM     96  F   UNL     1     -16.788 -11.626   6.616  1.00  0.00    -0.200 F 
ENDBRANCH  63  86
ENDBRANCH  37  38
ENDBRANCH  30  32
ENDBRANCH  29  30
ENDBRANCH  28  29
ENDBRANCH  27  28
ENDBRANCH  26  27
ENDBRANCH  25  26
ENDBRANCH   1  25
TORSDOF 21
