REMARK SMILES Cc1ccc(N2C(=O)N=C(OCCOCCOCCOC(=O)c3ccc(-c4c5nc(c(-c6c(F)c(F)c(F)c(F)c6F)c6ccc([nH]6)c(-c6c(F)c(F)c(F)c(F)c6F)c6nc(c(-c7c(F)c(F)c(F)c(F)c7F)c7ccc4[nH]7)C=C6)C=C5)cc3)/C(=C/c3ccccc3OCc3cccc(C(=O)[O-])c3)C2=O)cc1
REMARK SMILES IDX 15 1 14 2 13 3 12 4 11 5 10 6 6 7 7 8 105 9 8 10 9 11 86 12
REMARK SMILES IDX 106 13 87 14 5 15 1 16 2 17 3 18 108 19 4 20 107 21 88 22
REMARK SMILES IDX 89 23 93 24 90 25 92 26 91 27 94 28 95 29 96 30 97 31 104 32
REMARK SMILES IDX 98 33 100 34 99 35 101 36 102 37 103 38 16 39 17 40 18 41
REMARK SMILES IDX 19 42 20 43 21 44 22 45 23 46 24 47 85 48 25 49 84 50 26 51
REMARK SMILES IDX 27 52 28 53 78 54 29 55 83 56 77 57 79 58 30 59 82 60 76 61
REMARK SMILES IDX 75 62 31 64 63 65 43 66 62 67 44 68 47 69 61 70 80 71 45 72
REMARK SMILES IDX 46 73 60 75 81 76 48 77 32 78 33 79 41 80 34 81 35 82 39 83
REMARK SMILES IDX 42 84 36 85 37 86 40 87 38 88 64 89 65 90 73 91 66 92 67 93
REMARK SMILES IDX 71 94 74 95 68 96 69 97 72 98 70 99 49 100 50 101 58 102
REMARK SMILES IDX 51 103 52 104 56 105 59 106 53 107 54 108 57 109 55 110
REMARK H PARENT 79 63 47 74
REMARK Flexibility Score: inf
ROOT
ATOM      1  C   UNL     1      -6.550   6.298  -0.494  1.00  0.00     0.188 C 
ENDROOT
BRANCH   1   2
ATOM      2  O   UNL     1      -7.974   6.171  -0.542  1.00  0.00    -0.376 OA
BRANCH   2   3
ATOM      3  C   UNL     1      -8.410   4.896  -1.026  1.00  0.00     0.201 C 
BRANCH   3   4
ATOM      4  C   UNL     1      -8.147   3.760  -0.038  1.00  0.00     0.260 C 
BRANCH   4   5
ATOM      5  O   UNL     1      -6.731   3.734   0.340  1.00  0.00    -0.475 OA
BRANCH   5   6
ATOM      6  C   UNL     1      -5.570   3.117   0.070  1.00  0.00     0.231 C 
ATOM      7  N   UNL     1      -3.099   1.840   0.077  1.00  0.00    -0.226 N 
ATOM      8  C   UNL     1      -3.432   2.829   0.983  1.00  0.00     0.358 C 
ATOM      9  C   UNL     1      -4.152   1.183  -0.519  1.00  0.00     0.272 C 
ATOM     10  O   UNL     1      -2.749   3.039   1.983  1.00  0.00    -0.245 OA
ATOM     11  N   UNL     1      -4.614   3.491   0.842  1.00  0.00    -0.156 NA
ATOM     12  C   UNL     1      -5.500   1.996  -0.894  1.00  0.00     0.103 C 
ATOM     13  O   UNL     1      -3.998  -0.020  -0.741  1.00  0.00    -0.268 OA
ATOM     14  C   UNL     1      -6.728   1.857  -1.566  1.00  0.00     0.031 C 
BRANCH   7  15
ATOM     15  C   UNL     1      -1.723   1.270   0.105  1.00  0.00     0.054 A 
ATOM     16  C   UNL     1       2.449  -0.123   0.029  1.00  0.00     0.044 C 
ATOM     17  C   UNL     1       1.023   0.351   0.043  1.00  0.00    -0.051 A 
ATOM     18  C   UNL     1      -0.030  -0.520  -0.222  1.00  0.00     0.005 A 
ATOM     19  C   UNL     1       0.704   1.670   0.360  1.00  0.00     0.005 A 
ATOM     20  C   UNL     1      -1.371  -0.067  -0.202  1.00  0.00     0.027 A 
ATOM     21  C   UNL     1      -0.634   2.114   0.389  1.00  0.00     0.027 A 
ENDBRANCH   7  15
BRANCH  14  22
ATOM     22  C   UNL     1      -7.998   0.986  -2.321  1.00  0.00     0.018 A 
ATOM     23  C   UNL     1      -8.746   1.901  -3.107  1.00  0.00     0.012 A 
ATOM     24  C   UNL     1      -8.625  -0.445  -2.267  1.00  0.00     0.127 A 
ATOM     25  C   UNL     1     -10.008   1.598  -3.639  1.00  0.00     0.001 A 
ATOM     26  C   UNL     1      -9.930  -0.658  -2.767  1.00  0.00     0.047 A 
ATOM     27  C   UNL     1     -10.614   0.364  -3.418  1.00  0.00     0.004 A 
BRANCH  24  28
ATOM     28  O   UNL     1      -7.971  -1.996  -2.230  1.00  0.00    -0.488 OA
BRANCH  28  29
ATOM     29  C   UNL     1      -6.492  -2.866  -2.009  1.00  0.00     0.265 C 
BRANCH  29  30
ATOM     30  C   UNL     1      -5.771  -3.763  -0.918  1.00  0.00    -0.010 A 
ATOM     31  C   UNL     1      -4.383  -3.582  -0.715  1.00  0.00     0.007 A 
ATOM     32  C   UNL     1      -6.295  -4.931  -0.359  1.00  0.00     0.017 A 
ATOM     33  C   UNL     1      -3.594  -4.531  -0.035  1.00  0.00     0.001 A 
ATOM     34  C   UNL     1      -5.533  -5.882   0.338  1.00  0.00    -0.002 A 
ATOM     35  C   UNL     1      -4.166  -5.693   0.479  1.00  0.00     0.010 A 
BRANCH  34  36
ATOM     36  C   UNL     1      -6.163  -7.136   0.821  1.00  0.00     0.071 C 
ATOM     37  O   UNL     1      -5.598  -8.193   1.008  1.00  0.00    -0.545 OA
ATOM     38  O   UNL     1      -7.486  -6.993   1.031  1.00  0.00    -0.545 OA
ENDBRANCH  34  36
ENDBRANCH  29  30
ENDBRANCH  28  29
ENDBRANCH  24  28
ENDBRANCH  14  22
ENDBRANCH   5   6
ENDBRANCH   4   5
ENDBRANCH   3   4
ENDBRANCH   2   3
ENDBRANCH   1   2
BRANCH   1  39
ATOM     39  C   UNL     1      -6.011   6.536   0.930  1.00  0.00     0.188 C 
BRANCH  39  40
ATOM     40  O   UNL     1      -6.451   5.660   1.963  1.00  0.00    -0.376 OA
BRANCH  40  41
ATOM     41  C   UNL     1      -7.712   5.944   2.556  1.00  0.00     0.202 C 
BRANCH  41  42
ATOM     42  C   UNL     1      -7.798   5.156   3.873  1.00  0.00     0.261 C 
BRANCH  42  43
ATOM     43  O   UNL     1      -7.872   3.739   3.583  1.00  0.00    -0.460 OA
BRANCH  43  44
ATOM     44  C   UNL     1      -6.781   2.966   3.857  1.00  0.00     0.338 C 
ATOM     45  O   UNL     1      -5.865   3.248   4.608  1.00  0.00    -0.246 OA
BRANCH  44  46
ATOM     46  C   UNL     1      -6.807   1.743   2.982  1.00  0.00     0.060 A 
ATOM     47  C   UNL     1      -5.655   0.962   2.779  1.00  0.00     0.016 A 
ATOM     48  C   UNL     1      -7.925   1.455   2.215  1.00  0.00     0.016 A 
ATOM     49  C   UNL     1      -5.562   0.045   1.693  1.00  0.00     0.010 A 
ATOM     50  C   UNL     1      -7.795   0.620   1.101  1.00  0.00     0.010 A 
ATOM     51  C   UNL     1      -6.574  -0.017   0.732  1.00  0.00    -0.014 A 
BRANCH  51  52
ATOM     52  C   UNL     1      -6.655  -0.824  -0.614  1.00  0.00     0.031 A 
ATOM     53  C   UNL     1      -7.923  -1.950  -0.002  1.00  0.00     0.074 A 
ATOM     54  C   UNL     1      -6.101  -0.541  -2.109  1.00  0.00     0.049 A 
ATOM     55  N   UNL     1      -9.093  -2.284  -0.511  1.00  0.00    -0.248 NA
ATOM     56  C   UNL     1      -7.727  -2.728   1.231  1.00  0.00     0.031 C 
ATOM     57  C   UNL     1      -6.751  -0.885  -3.660  1.00  0.00     0.029 A 
ATOM     58  N   UNL     1      -5.000   0.111  -2.765  1.00  0.00    -0.354 N 
ATOM     59  C   UNL     1      -9.367  -3.590  -0.209  1.00  0.00     0.074 A 
ATOM     60  C   UNL     1      -8.662  -3.690   1.086  1.00  0.00     0.031 C 
ATOM     61  C   UNL     1      -6.213  -0.263  -4.685  1.00  0.00     0.029 A 
ATOM     62  C   UNL     1      -4.954   0.063  -4.168  1.00  0.00     0.049 A 
ATOM     63  H   UNL     1      -4.302   0.574  -2.248  1.00  0.00     0.167 HD
ATOM     64  C   UNL     1      -9.515  -4.629  -1.147  1.00  0.00     0.037 A 
ATOM     65  C   UNL     1      -3.914  -0.397  -4.889  1.00  0.00     0.037 A 
ATOM     66  C   UNL     1      -8.939  -4.582  -2.578  1.00  0.00     0.049 A 
ATOM     67  C   UNL     1      -4.073  -1.913  -5.196  1.00  0.00     0.074 A 
ATOM     68  C   UNL     1      -9.331  -3.988  -3.780  1.00  0.00     0.029 A 
ATOM     69  N   UNL     1      -7.785  -5.325  -3.011  1.00  0.00    -0.354 N 
ATOM     70  N   UNL     1      -5.111  -2.653  -4.813  1.00  0.00    -0.248 NA
ATOM     71  C   UNL     1      -3.141  -2.717  -5.968  1.00  0.00     0.031 C 
ATOM     72  C   UNL     1      -8.285  -4.097  -4.769  1.00  0.00     0.029 A 
ATOM     73  C   UNL     1      -7.218  -4.808  -4.239  1.00  0.00     0.049 A 
ATOM     74  H   UNL     1      -7.421  -6.100  -2.526  1.00  0.00     0.167 HD
ATOM     75  C   UNL     1      -4.963  -3.982  -5.135  1.00  0.00     0.074 A 
ATOM     76  C   UNL     1      -3.718  -3.937  -5.917  1.00  0.00     0.031 C 
ATOM     77  C   UNL     1      -5.776  -5.035  -4.696  1.00  0.00     0.037 A 
BRANCH  64  78
ATOM     78  C   UNL     1     -10.738  -5.500  -0.860  1.00  0.00     0.064 A 
ATOM     79  C   UNL     1     -11.605  -5.888  -1.905  1.00  0.00     0.173 A 
ATOM     80  C   UNL     1     -11.154  -5.896   0.428  1.00  0.00     0.173 A 
ATOM     81  F   UNL     1     -11.338  -5.607  -3.186  1.00  0.00    -0.203 F 
ATOM     82  C   UNL     1     -12.805  -6.564  -1.676  1.00  0.00     0.198 A 
ATOM     83  C   UNL     1     -12.366  -6.552   0.658  1.00  0.00     0.198 A 
ATOM     84  F   UNL     1     -10.401  -5.682   1.511  1.00  0.00    -0.203 F 
ATOM     85  F   UNL     1     -13.588  -6.894  -2.712  1.00  0.00    -0.200 F 
ATOM     86  C   UNL     1     -13.196  -6.880  -0.392  1.00  0.00     0.200 A 
ATOM     87  F   UNL     1     -12.722  -6.864   1.913  1.00  0.00    -0.200 F 
ATOM     88  F   UNL     1     -14.358  -7.506  -0.170  1.00  0.00    -0.200 F 
ENDBRANCH  64  78
BRANCH  65  89
ATOM     89  C   UNL     1      -2.972   0.757  -4.937  1.00  0.00     0.064 A 
ATOM     90  C   UNL     1      -3.558   1.998  -5.361  1.00  0.00     0.173 A 
ATOM     91  C   UNL     1      -1.898   0.864  -4.053  1.00  0.00     0.173 A 
ATOM     92  F   UNL     1      -4.604   1.986  -6.207  1.00  0.00    -0.203 F 
ATOM     93  C   UNL     1      -3.256   3.214  -4.745  1.00  0.00     0.198 A 
ATOM     94  C   UNL     1      -1.531   2.111  -3.515  1.00  0.00     0.198 A 
ATOM     95  F   UNL     1      -1.304  -0.244  -3.591  1.00  0.00    -0.203 F 
ATOM     96  F   UNL     1      -4.011   4.299  -4.981  1.00  0.00    -0.200 F 
ATOM     97  C   UNL     1      -2.253   3.264  -3.801  1.00  0.00     0.200 A 
ATOM     98  F   UNL     1      -0.524   2.188  -2.638  1.00  0.00    -0.200 F 
ATOM     99  F   UNL     1      -2.018   4.402  -3.130  1.00  0.00    -0.200 F 
ENDBRANCH  65  89
BRANCH  77 100
ATOM    100  C   UNL     1      -5.212  -6.448  -4.675  1.00  0.00     0.064 A 
ATOM    101  C   UNL     1      -3.838  -6.750  -4.540  1.00  0.00     0.173 A 
ATOM    102  C   UNL     1      -6.071  -7.564  -4.664  1.00  0.00     0.173 A 
ATOM    103  F   UNL     1      -2.920  -5.790  -4.358  1.00  0.00    -0.203 F 
ATOM    104  C   UNL     1      -3.358  -8.062  -4.537  1.00  0.00     0.198 A 
ATOM    105  C   UNL     1      -5.595  -8.872  -4.571  1.00  0.00     0.198 A 
ATOM    106  F   UNL     1      -7.403  -7.417  -4.712  1.00  0.00    -0.203 F 
ATOM    107  F   UNL     1      -2.037  -8.285  -4.506  1.00  0.00    -0.200 F 
ATOM    108  C   UNL     1      -4.238  -9.123  -4.545  1.00  0.00     0.200 A 
ATOM    109  F   UNL     1      -6.465  -9.888  -4.494  1.00  0.00    -0.200 F 
ATOM    110  F   UNL     1      -3.782 -10.382  -4.501  1.00  0.00    -0.200 F 
ENDBRANCH  77 100
ENDBRANCH  51  52
ENDBRANCH  44  46
ENDBRANCH  43  44
ENDBRANCH  42  43
ENDBRANCH  41  42
ENDBRANCH  40  41
ENDBRANCH  39  40
ENDBRANCH   1  39
TORSDOF 22
