REMARK SMILES O=C(OCCOCCOCCOC(=O)[C@@H](F)Oc1ccc(F)c(Cl)c1)c1ccc(-c2c3nc(c(-c4c(F)c(F)c(F)c(F)c4F)c4ccc([nH]4)c(-c4c(F)c(F)c(F)c(F)c4F)c4nc(c(-c5c(F)c(F)c(F)c(F)c5F)c5ccc2[nH]5)C=C4)C=C3)cc1
REMARK SMILES IDX 7 1 6 2 5 3 4 4 3 5 2 6 1 7 26 8 27 9 88 10 28 11 87 12
REMARK SMILES IDX 29 13 30 14 31 15 81 16 32 17 86 18 80 19 82 20 33 21 85 22
REMARK SMILES IDX 79 23 78 24 34 26 66 27 46 28 65 29 47 30 50 31 64 32 83 33
REMARK SMILES IDX 48 34 49 35 63 37 84 38 51 39 35 40 36 41 44 42 37 43 38 44
REMARK SMILES IDX 42 45 45 46 39 47 40 48 43 49 41 50 67 51 68 52 76 53 69 54
REMARK SMILES IDX 70 55 74 56 77 57 71 58 72 59 75 60 73 61 52 62 53 63 61 64
REMARK SMILES IDX 54 65 55 66 59 67 62 68 56 69 57 70 60 71 58 72 8 73 9 74
REMARK SMILES IDX 10 75 11 76 12 77 13 78 14 79 15 80 16 81 17 82 18 83 19 84
REMARK SMILES IDX 25 85 20 86 23 87 21 88 24 89 22 90
REMARK H PARENT 82 25 50 36
REMARK Flexibility Score: inf
ROOT
ATOM      1  C   UNL     1       2.449   0.175  -1.839  1.00  0.00     0.188 C 
ENDROOT
BRANCH   1   2
ATOM      2  O   UNL     1       3.824   0.494  -1.606  1.00  0.00    -0.376 OA
BRANCH   2   3
ATOM      3  C   UNL     1       4.678  -0.651  -1.458  1.00  0.00     0.202 C 
BRANCH   3   4
ATOM      4  C   UNL     1       4.434  -1.567  -0.239  1.00  0.00     0.261 C 
BRANCH   4   5
ATOM      5  O   UNL     1       3.073  -1.598   0.228  1.00  0.00    -0.460 OA
BRANCH   5   6
ATOM      6  C   UNL     1       2.460  -0.825   1.157  1.00  0.00     0.338 C 
ATOM      7  O   UNL     1       1.295  -1.084   1.456  1.00  0.00    -0.246 OA
BRANCH   6   8
ATOM      8  C   UNL     1       3.108   0.342   1.833  1.00  0.00     0.060 A 
ATOM      9  C   UNL     1       4.278   0.963   1.405  1.00  0.00     0.016 A 
ATOM     10  C   UNL     1       2.472   0.865   2.975  1.00  0.00     0.016 A 
ATOM     11  C   UNL     1       4.885   1.962   2.146  1.00  0.00     0.010 A 
ATOM     12  C   UNL     1       3.051   1.907   3.709  1.00  0.00     0.010 A 
ATOM     13  C   UNL     1       4.299   2.407   3.325  1.00  0.00    -0.014 A 
BRANCH  13  14
ATOM     14  C   UNL     1       5.158   3.195   4.228  1.00  0.00     0.031 A 
ATOM     15  C   UNL     1       5.771   2.477   5.397  1.00  0.00     0.074 A 
ATOM     16  C   UNL     1       5.535   4.438   3.879  1.00  0.00     0.049 A 
ATOM     17  N   UNL     1       6.605   2.916   6.301  1.00  0.00    -0.248 NA
ATOM     18  C   UNL     1       5.411   1.056   5.558  1.00  0.00     0.031 C 
ATOM     19  C   UNL     1       5.090   5.151   2.679  1.00  0.00     0.029 A 
ATOM     20  N   UNL     1       6.414   5.302   4.474  1.00  0.00    -0.354 N 
ATOM     21  C   UNL     1       6.835   1.841   7.151  1.00  0.00     0.074 A 
ATOM     22  C   UNL     1       6.054   0.729   6.666  1.00  0.00     0.031 C 
ATOM     23  C   UNL     1       5.718   6.337   2.618  1.00  0.00     0.029 A 
ATOM     24  C   UNL     1       6.562   6.487   3.796  1.00  0.00     0.049 A 
ATOM     25  H   UNL     1       6.893   5.093   5.309  1.00  0.00     0.167 HD
ATOM     26  C   UNL     1       7.630   1.796   8.244  1.00  0.00     0.037 A 
ATOM     27  C   UNL     1       7.288   7.573   4.122  1.00  0.00     0.037 A 
ATOM     28  C   UNL     1       8.408   2.916   8.694  1.00  0.00     0.049 A 
ATOM     29  C   UNL     1       8.092   7.519   5.398  1.00  0.00     0.074 A 
ATOM     30  C   UNL     1       9.209   3.024   9.813  1.00  0.00     0.029 A 
ATOM     31  N   UNL     1       8.473   4.134   8.028  1.00  0.00    -0.354 N 
ATOM     32  N   UNL     1       8.269   6.517   6.229  1.00  0.00    -0.248 NA
ATOM     33  C   UNL     1       8.792   8.749   5.787  1.00  0.00     0.031 C 
ATOM     34  C   UNL     1       9.714   4.328   9.856  1.00  0.00     0.029 A 
ATOM     35  C   UNL     1       9.284   5.010   8.727  1.00  0.00     0.049 A 
ATOM     36  H   UNL     1       8.010   4.343   7.185  1.00  0.00     0.167 HD
ATOM     37  C   UNL     1       9.124   6.985   7.216  1.00  0.00     0.074 A 
ATOM     38  C   UNL     1       9.452   8.352   6.864  1.00  0.00     0.031 C 
ATOM     39  C   UNL     1       9.596   6.356   8.320  1.00  0.00     0.037 A 
BRANCH  26  40
ATOM     40  C   UNL     1       7.613   0.532   9.055  1.00  0.00     0.064 A 
ATOM     41  C   UNL     1       8.172  -0.668   8.591  1.00  0.00     0.173 A 
ATOM     42  C   UNL     1       6.981   0.518  10.308  1.00  0.00     0.173 A 
ATOM     43  F   UNL     1       8.760  -0.719   7.386  1.00  0.00    -0.203 F 
ATOM     44  C   UNL     1       8.067  -1.842   9.336  1.00  0.00     0.198 A 
ATOM     45  C   UNL     1       6.906  -0.649  11.063  1.00  0.00     0.198 A 
ATOM     46  F   UNL     1       6.421   1.636  10.796  1.00  0.00    -0.203 F 
ATOM     47  F   UNL     1       8.547  -2.992   8.842  1.00  0.00    -0.200 F 
ATOM     48  C   UNL     1       7.439  -1.830  10.572  1.00  0.00     0.200 A 
ATOM     49  F   UNL     1       6.302  -0.633  12.259  1.00  0.00    -0.200 F 
ATOM     50  F   UNL     1       7.331  -2.962  11.282  1.00  0.00    -0.200 F 
ENDBRANCH  26  40
BRANCH  27  51
ATOM     51  C   UNL     1       7.258   8.811   3.293  1.00  0.00     0.064 A 
ATOM     52  C   UNL     1       8.430   9.343   2.734  1.00  0.00     0.173 A 
ATOM     53  C   UNL     1       6.073   9.544   3.121  1.00  0.00     0.173 A 
ATOM     54  F   UNL     1       9.592   8.685   2.865  1.00  0.00    -0.203 F 
ATOM     55  C   UNL     1       8.430  10.584   2.097  1.00  0.00     0.198 A 
ATOM     56  C   UNL     1       6.064  10.760   2.440  1.00  0.00     0.198 A 
ATOM     57  F   UNL     1       4.918   9.086   3.627  1.00  0.00    -0.203 F 
ATOM     58  F   UNL     1       9.577  11.093   1.627  1.00  0.00    -0.200 F 
ATOM     59  C   UNL     1       7.246  11.292   1.950  1.00  0.00     0.200 A 
ATOM     60  F   UNL     1       4.909  11.417   2.266  1.00  0.00    -0.200 F 
ATOM     61  F   UNL     1       7.240  12.473   1.318  1.00  0.00    -0.200 F 
ENDBRANCH  27  51
BRANCH  39  62
ATOM     62  C   UNL     1      10.557   7.126   9.177  1.00  0.00     0.064 A 
ATOM     63  C   UNL     1      10.145   8.219   9.952  1.00  0.00     0.173 A 
ATOM     64  C   UNL     1      11.905   6.743   9.235  1.00  0.00     0.173 A 
ATOM     65  F   UNL     1       8.869   8.632   9.915  1.00  0.00    -0.203 F 
ATOM     66  C   UNL     1      11.059   8.927  10.726  1.00  0.00     0.198 A 
ATOM     67  C   UNL     1      12.807   7.429  10.041  1.00  0.00     0.198 A 
ATOM     68  F   UNL     1      12.344   5.698   8.518  1.00  0.00    -0.203 F 
ATOM     69  F   UNL     1      10.659  10.009  11.407  1.00  0.00    -0.200 F 
ATOM     70  C   UNL     1      12.386   8.527  10.776  1.00  0.00     0.200 A 
ATOM     71  F   UNL     1      14.085   7.029  10.102  1.00  0.00    -0.200 F 
ATOM     72  F   UNL     1      13.263   9.206  11.527  1.00  0.00    -0.200 F 
ENDBRANCH  39  62
ENDBRANCH  13  14
ENDBRANCH   6   8
ENDBRANCH   5   6
ENDBRANCH   4   5
ENDBRANCH   3   4
ENDBRANCH   2   3
ENDBRANCH   1   2
BRANCH   1  73
ATOM     73  C   UNL     1       1.779   0.929  -2.989  1.00  0.00     0.188 C 
BRANCH  73  74
ATOM     74  O   UNL     1       2.297   0.708  -4.297  1.00  0.00    -0.376 OA
BRANCH  74  75
ATOM     75  C   UNL     1       3.679   0.971  -4.507  1.00  0.00     0.202 C 
BRANCH  75  76
ATOM     76  C   UNL     1       4.137   2.419  -4.342  1.00  0.00     0.261 C 
BRANCH  76  77
ATOM     77  O   UNL     1       3.766   2.992  -3.082  1.00  0.00    -0.458 OA
BRANCH  77  78
ATOM     78  C   UNL     1       3.006   4.130  -3.118  1.00  0.00     0.381 C 
ATOM     79  O   UNL     1       2.510   4.609  -4.126  1.00  0.00    -0.244 OA
BRANCH  78  80
ATOM     80  C   UNL     1       2.939   4.773  -1.726  1.00  0.00     0.461 C 
ATOM     81  F   UNL     1       3.539   4.042  -0.737  1.00  0.00    -0.189 F 
BRANCH  80  82
ATOM     82  O   UNL     1       3.452   6.099  -1.661  1.00  0.00    -0.451 OA
BRANCH  82  83
ATOM     83  C   UNL     1       4.808   6.262  -1.719  1.00  0.00     0.125 A 
ATOM     84  C   UNL     1       5.732   5.365  -2.261  1.00  0.00     0.050 A 
ATOM     85  C   UNL     1       5.270   7.477  -1.217  1.00  0.00     0.070 A 
ATOM     86  C   UNL     1       7.098   5.643  -2.263  1.00  0.00     0.044 A 
ATOM     87  C   UNL     1       6.635   7.766  -1.243  1.00  0.00     0.080 A 
ATOM     88  C   UNL     1       7.545   6.840  -1.738  1.00  0.00     0.142 A 
ATOM     89  Cl  UNL     1       7.178   9.298  -0.711  1.00  0.00    -0.081 Cl
ATOM     90  F   UNL     1       8.861   7.092  -1.733  1.00  0.00    -0.205 F 
ENDBRANCH  82  83
ENDBRANCH  80  82
ENDBRANCH  78  80
ENDBRANCH  77  78
ENDBRANCH  76  77
ENDBRANCH  75  76
ENDBRANCH  74  75
ENDBRANCH  73  74
ENDBRANCH   1  73
TORSDOF 19
