REMARK SMILES CC1=NN(c2ccc(C(=O)OCCOCCOCCOC(=O)c3ccc(-c4c5nc(c(-c6c(F)c(F)c(F)c(F)c6F)c6ccc([nH]6)c(-c6c(F)c(F)c(F)c(F)c6F)c6nc(c(-c7c(F)c(F)c(F)c(F)c7F)c7ccc4[nH]7)C=C6)C=C5)cc3)cc2)C(=O)/C1=C\c1ccc(N2CCCC2)cc1
REMARK SMILES IDX 15 1 14 2 13 3 12 4 11 5 9 6 10 7 8 8 5 9 6 10 87 11 7 12
REMARK SMILES IDX 86 13 4 14 1 15 2 16 3 17 90 18 88 19 91 20 89 21 92 22
REMARK SMILES IDX 93 23 102 24 94 25 101 26 95 27 96 28 97 29 100 30 98 31
REMARK SMILES IDX 99 32 16 33 17 34 18 35 19 36 20 37 21 38 22 39 23 40 24 41
REMARK SMILES IDX 85 42 25 43 84 44 26 45 27 46 28 47 78 48 29 49 83 50 77 51
REMARK SMILES IDX 79 52 30 53 82 54 76 55 75 56 31 58 63 59 43 60 62 61 44 62
REMARK SMILES IDX 47 63 61 64 80 65 45 66 46 67 60 69 81 70 48 71 32 72 33 73
REMARK SMILES IDX 41 74 34 75 35 76 39 77 42 78 36 79 37 80 40 81 38 82 64 83
REMARK SMILES IDX 65 84 73 85 66 86 67 87 71 88 74 89 68 90 69 91 72 92 70 93
REMARK SMILES IDX 49 94 50 95 58 96 51 97 52 98 56 99 59 100 53 101 54 102
REMARK SMILES IDX 57 103 55 104
REMARK H PARENT 79 57 47 68
REMARK Flexibility Score: inf
ROOT
ATOM      1  C   UNL     1       2.248   8.199  -0.084  1.00  0.00     0.188 C 
ENDROOT
BRANCH   1   2
ATOM      2  O   UNL     1       3.264   9.180   0.007  1.00  0.00    -0.376 OA
BRANCH   2   3
ATOM      3  C   UNL     1       4.557   8.935  -0.524  1.00  0.00     0.202 C 
BRANCH   3   4
ATOM      4  C   UNL     1       5.286   7.596  -0.340  1.00  0.00     0.261 C 
BRANCH   4   5
ATOM      5  O   UNL     1       4.486   6.426  -0.533  1.00  0.00    -0.460 OA
BRANCH   5   6
ATOM      6  C   UNL     1       4.209   5.722   0.592  1.00  0.00     0.338 C 
ATOM      7  O   UNL     1       4.581   5.966   1.727  1.00  0.00    -0.246 OA
BRANCH   6   8
ATOM      8  C   UNL     1       3.210   4.680   0.280  1.00  0.00     0.060 A 
ATOM      9  C   UNL     1       1.397   2.603  -0.140  1.00  0.00     0.069 A 
ATOM     10  C   UNL     1       1.173   3.510   0.900  1.00  0.00     0.029 A 
ATOM     11  C   UNL     1       2.464   2.813  -1.027  1.00  0.00     0.029 A 
ATOM     12  C   UNL     1       2.107   4.524   1.134  1.00  0.00     0.018 A 
ATOM     13  C   UNL     1       3.359   3.861  -0.837  1.00  0.00     0.018 A 
BRANCH   9  14
ATOM     14  N   UNL     1       0.676   1.398  -0.202  1.00  0.00    -0.196 N 
ATOM     15  C   UNL     1      -2.397  -0.442   0.146  1.00  0.00     0.069 C 
ATOM     16  C   UNL     1      -1.005   0.081   0.014  1.00  0.00     0.071 C 
ATOM     17  N   UNL     1      -0.681   1.348   0.090  1.00  0.00    -0.169 NA
ATOM     18  C   UNL     1       0.172  -0.785  -0.196  1.00  0.00     0.065 C 
ATOM     19  C   UNL     1       1.281   0.158  -0.440  1.00  0.00     0.280 C 
ATOM     20  C   UNL     1       0.246  -2.114  -0.042  1.00  0.00     0.024 C 
ATOM     21  O   UNL     1       2.434  -0.112  -0.725  1.00  0.00    -0.267 OA
BRANCH  20  22
ATOM     22  C   UNL     1       1.530  -2.822   0.027  1.00  0.00    -0.025 A 
ATOM     23  C   UNL     1       1.993  -3.600  -1.032  1.00  0.00     0.010 A 
ATOM     24  C   UNL     1       2.339  -2.672   1.159  1.00  0.00     0.010 A 
ATOM     25  C   UNL     1       3.261  -4.198  -0.961  1.00  0.00     0.026 A 
ATOM     26  C   UNL     1       3.596  -3.282   1.222  1.00  0.00     0.026 A 
ATOM     27  C   UNL     1       4.086  -4.056   0.165  1.00  0.00     0.037 A 
BRANCH  27  28
ATOM     28  N   UNL     1       5.338  -4.628   0.196  1.00  0.00    -0.372 N 
ATOM     29  C   UNL     1       5.979  -5.141   1.402  1.00  0.00     0.116 C 
ATOM     30  C   UNL     1       6.322  -4.254  -0.822  1.00  0.00     0.116 C 
ATOM     31  C   UNL     1       7.432  -4.702   1.253  1.00  0.00     0.023 C 
ATOM     32  C   UNL     1       7.651  -4.751  -0.252  1.00  0.00     0.023 C 
ENDBRANCH  27  28
ENDBRANCH  20  22
ENDBRANCH   9  14
ENDBRANCH   6   8
ENDBRANCH   5   6
ENDBRANCH   4   5
ENDBRANCH   3   4
ENDBRANCH   2   3
ENDBRANCH   1   2
BRANCH   1  33
ATOM     33  C   UNL     1       1.877   7.562  -1.439  1.00  0.00     0.188 C 
BRANCH  33  34
ATOM     34  O   UNL     1       2.643   7.916  -2.563  1.00  0.00    -0.376 OA
BRANCH  34  35
ATOM     35  C   UNL     1       2.428   9.143  -3.235  1.00  0.00     0.202 C 
BRANCH  35  36
ATOM     36  C   UNL     1       1.322  10.173  -2.929  1.00  0.00     0.261 C 
BRANCH  36  37
ATOM     37  O   UNL     1       0.595  10.050  -1.706  1.00  0.00    -0.460 OA
BRANCH  37  38
ATOM     38  C   UNL     1      -0.673   9.586  -1.823  1.00  0.00     0.338 C 
ATOM     39  O   UNL     1      -1.245   9.228  -2.837  1.00  0.00    -0.246 OA
BRANCH  38  40
ATOM     40  C   UNL     1      -1.242   9.421  -0.473  1.00  0.00     0.060 A 
ATOM     41  C   UNL     1      -1.511   8.127  -0.008  1.00  0.00     0.016 A 
ATOM     42  C   UNL     1      -1.543  10.537   0.309  1.00  0.00     0.016 A 
ATOM     43  C   UNL     1      -2.104   7.947   1.242  1.00  0.00     0.010 A 
ATOM     44  C   UNL     1      -2.156  10.354   1.551  1.00  0.00     0.010 A 
ATOM     45  C   UNL     1      -2.464   9.061   2.011  1.00  0.00    -0.014 A 
BRANCH  45  46
ATOM     46  C   UNL     1      -3.312   8.887   3.216  1.00  0.00     0.031 A 
ATOM     47  C   UNL     1      -4.792   9.120   3.094  1.00  0.00     0.074 A 
ATOM     48  C   UNL     1      -2.780   8.525   4.396  1.00  0.00     0.049 A 
ATOM     49  N   UNL     1      -5.718   9.099   4.019  1.00  0.00    -0.248 NA
ATOM     50  C   UNL     1      -5.294   9.421   1.744  1.00  0.00     0.031 C 
ATOM     51  C   UNL     1      -1.369   8.230   4.633  1.00  0.00     0.029 A 
ATOM     52  N   UNL     1      -3.372   8.357   5.624  1.00  0.00    -0.354 N 
ATOM     53  C   UNL     1      -6.908   9.390   3.365  1.00  0.00     0.074 A 
ATOM     54  C   UNL     1      -6.585   9.614   1.972  1.00  0.00     0.031 C 
ATOM     55  C   UNL     1      -1.200   7.933   5.934  1.00  0.00     0.029 A 
ATOM     56  C   UNL     1      -2.483   8.051   6.625  1.00  0.00     0.049 A 
ATOM     57  H   UNL     1      -4.341   8.446   5.772  1.00  0.00     0.167 HD
ATOM     58  C   UNL     1      -8.159   9.457   3.879  1.00  0.00     0.037 A 
ATOM     59  C   UNL     1      -2.683   7.912   7.951  1.00  0.00     0.037 A 
ATOM     60  C   UNL     1      -8.479   9.239   5.265  1.00  0.00     0.049 A 
ATOM     61  C   UNL     1      -4.074   8.075   8.512  1.00  0.00     0.074 A 
ATOM     62  C   UNL     1      -9.718   9.270   5.880  1.00  0.00     0.029 A 
ATOM     63  N   UNL     1      -7.548   8.960   6.255  1.00  0.00    -0.354 N 
ATOM     64  N   UNL     1      -5.199   8.322   7.886  1.00  0.00    -0.248 NA
ATOM     65  C   UNL     1      -4.222   7.934   9.968  1.00  0.00     0.031 C 
ATOM     66  C   UNL     1      -9.530   9.067   7.251  1.00  0.00     0.029 A 
ATOM     67  C   UNL     1      -8.182   8.844   7.481  1.00  0.00     0.049 A 
ATOM     68  H   UNL     1      -6.579   8.859   6.108  1.00  0.00     0.167 HD
ATOM     69  C   UNL     1      -6.188   8.333   8.862  1.00  0.00     0.074 A 
ATOM     70  C   UNL     1      -5.533   8.054  10.122  1.00  0.00     0.031 C 
ATOM     71  C   UNL     1      -7.520   8.552   8.727  1.00  0.00     0.037 A 
BRANCH  58  72
ATOM     72  C   UNL     1      -9.277   9.809   2.940  1.00  0.00     0.064 A 
ATOM     73  C   UNL     1      -9.720   8.917   1.952  1.00  0.00     0.173 A 
ATOM     74  C   UNL     1      -9.937  11.042   3.054  1.00  0.00     0.173 A 
ATOM     75  F   UNL     1      -9.114   7.731   1.792  1.00  0.00    -0.203 F 
ATOM     76  C   UNL     1     -10.765   9.257   1.097  1.00  0.00     0.198 A 
ATOM     77  C   UNL     1     -11.002  11.365   2.218  1.00  0.00     0.198 A 
ATOM     78  F   UNL     1      -9.556  11.930   3.984  1.00  0.00    -0.203 F 
ATOM     79  F   UNL     1     -11.140   8.408   0.130  1.00  0.00    -0.200 F 
ATOM     80  C   UNL     1     -11.411  10.476   1.236  1.00  0.00     0.200 A 
ATOM     81  F   UNL     1     -11.634  12.538   2.364  1.00  0.00    -0.200 F 
ATOM     82  F   UNL     1     -12.423  10.797   0.419  1.00  0.00    -0.200 F 
ENDBRANCH  58  72
BRANCH  59  83
ATOM     83  C   UNL     1      -1.536   7.619   8.852  1.00  0.00     0.064 A 
ATOM     84  C   UNL     1      -1.446   6.397   9.533  1.00  0.00     0.173 A 
ATOM     85  C   UNL     1      -0.529   8.568   9.081  1.00  0.00     0.173 A 
ATOM     86  F   UNL     1      -2.400   5.468   9.372  1.00  0.00    -0.203 F 
ATOM     87  C   UNL     1      -0.405   6.145  10.426  1.00  0.00     0.198 A 
ATOM     88  C   UNL     1       0.528   8.302   9.949  1.00  0.00     0.198 A 
ATOM     89  F   UNL     1      -0.571   9.756   8.460  1.00  0.00    -0.203 F 
ATOM     90  F   UNL     1      -0.376   4.991  11.107  1.00  0.00    -0.200 F 
ATOM     91  C   UNL     1       0.584   7.095  10.629  1.00  0.00     0.200 A 
ATOM     92  F   UNL     1       1.486   9.220  10.136  1.00  0.00    -0.200 F 
ATOM     93  F   UNL     1       1.582   6.853  11.489  1.00  0.00    -0.200 F 
ENDBRANCH  59  83
BRANCH  71  94
ATOM     94  C   UNL     1      -8.370   8.450   9.963  1.00  0.00     0.064 A 
ATOM     95  C   UNL     1      -8.316   9.411  10.983  1.00  0.00     0.173 A 
ATOM     96  C   UNL     1      -9.287   7.396  10.105  1.00  0.00     0.173 A 
ATOM     97  F   UNL     1      -7.448  10.431  10.903  1.00  0.00    -0.203 F 
ATOM     98  C   UNL     1      -9.126   9.306  12.111  1.00  0.00     0.198 A 
ATOM     99  C   UNL     1     -10.120   7.312  11.218  1.00  0.00     0.198 A 
ATOM    100  F   UNL     1      -9.388   6.454   9.155  1.00  0.00    -0.203 F 
ATOM    101  F   UNL     1      -9.020  10.208  13.096  1.00  0.00    -0.200 F 
ATOM    102  C   UNL     1     -10.032   8.262  12.224  1.00  0.00     0.200 A 
ATOM    103  F   UNL     1     -11.007   6.313  11.316  1.00  0.00    -0.200 F 
ATOM    104  F   UNL     1     -10.818   8.168  13.306  1.00  0.00    -0.200 F 
ENDBRANCH  71  94
ENDBRANCH  45  46
ENDBRANCH  38  40
ENDBRANCH  37  38
ENDBRANCH  36  37
ENDBRANCH  35  36
ENDBRANCH  34  35
ENDBRANCH  33  34
ENDBRANCH   1  33
TORSDOF 20
