REMARK SMILES COCc1cccc(O[C@@H](C)c2ccc(C(=O)OCCOCCOCCOC(=O)c3ccc(-c4c5nc(c(-c6c(F)c(F)c(F)c(F)c6F)c6ccc([nH]6)c(-c6c(F)c(F)c(F)c(F)c6F)c6nc(c(-c7c(F)c(F)c(F)c(F)c7F)c7ccc4[nH]7)C=C6)C=C5)cc3)o2)c1
REMARK SMILES IDX 21 1 20 2 19 3 18 4 16 5 17 6 15 7 12 8 13 9 93 10 14 11
REMARK SMILES IDX 10 12 11 13 9 14 8 15 4 16 5 17 94 18 6 19 7 20 3 21 2 22
REMARK SMILES IDX 1 23 22 24 23 25 24 26 25 27 26 28 27 29 28 30 29 31 30 32
REMARK SMILES IDX 31 33 92 34 32 35 91 36 33 37 34 38 35 39 85 40 36 41 90 42
REMARK SMILES IDX 84 43 86 44 37 45 89 46 83 47 82 48 38 50 70 51 50 52 69 53
REMARK SMILES IDX 51 54 54 55 68 56 87 57 52 58 53 59 67 61 88 62 55 63 39 64
REMARK SMILES IDX 40 65 48 66 41 67 42 68 46 69 49 70 43 71 44 72 47 73 45 74
REMARK SMILES IDX 71 75 72 76 80 77 73 78 74 79 78 80 81 81 75 82 76 83 79 84
REMARK SMILES IDX 77 85 56 86 57 87 65 88 58 89 59 90 63 91 66 92 60 93 61 94
REMARK SMILES IDX 64 95 62 96
REMARK H PARENT 86 49 54 60
REMARK Flexibility Score: inf
ROOT
ATOM      1  O   UNL     1       0.840  -1.781   6.707  1.00  0.00    -0.376 OA
ENDROOT
BRANCH   1   2
ATOM      2  C   UNL     1      -0.386  -2.272   7.240  1.00  0.00     0.202 C 
BRANCH   2   3
ATOM      3  C   UNL     1      -1.426  -2.754   6.233  1.00  0.00     0.261 C 
BRANCH   3   4
ATOM      4  O   UNL     1      -1.051  -4.041   5.711  1.00  0.00    -0.457 OA
BRANCH   4   5
ATOM      5  C   UNL     1      -1.050  -4.132   4.348  1.00  0.00     0.374 C 
ATOM      6  O   UNL     1      -1.466  -3.270   3.598  1.00  0.00    -0.242 OA
BRANCH   5   7
ATOM      7  C   UNL     1      -0.337  -5.323   3.947  1.00  0.00     0.211 A 
ATOM      8  C   UNL     1       1.014  -6.412   2.571  1.00  0.00     0.145 A 
ATOM      9  C   UNL     1       0.720  -7.278   3.607  1.00  0.00     0.050 A 
ATOM     10  O   UNL     1       0.385  -5.231   2.796  1.00  0.00    -0.450 OA
ATOM     11  C   UNL     1      -0.134  -6.572   4.500  1.00  0.00     0.058 A 
BRANCH   8  12
ATOM     12  C   UNL     1       1.872  -6.522   1.344  1.00  0.00     0.236 C 
ATOM     13  C   UNL     1       3.280  -5.959   1.500  1.00  0.00     0.062 C 
BRANCH  12  14
ATOM     14  O   UNL     1       1.206  -6.113   0.135  1.00  0.00    -0.483 OA
BRANCH  14  15
ATOM     15  C   UNL     1       0.647  -4.887  -0.071  1.00  0.00     0.120 A 
ATOM     16  C   UNL     1       0.218  -2.521   0.357  1.00  0.00    -0.019 A 
ATOM     17  C   UNL     1      -0.829  -2.552  -0.570  1.00  0.00     0.006 A 
ATOM     18  C   UNL     1       0.958  -3.697   0.586  1.00  0.00     0.052 A 
ATOM     19  C   UNL     1      -1.094  -3.713  -1.291  1.00  0.00     0.004 A 
ATOM     20  C   UNL     1      -0.356  -4.871  -1.042  1.00  0.00     0.046 A 
BRANCH  16  21
ATOM     21  C   UNL     1       0.504  -1.296   1.198  1.00  0.00     0.195 C 
BRANCH  21  22
ATOM     22  O   UNL     1       0.127  -0.050   0.607  1.00  0.00    -0.380 OA
ATOM     23  C   UNL     1       0.859   0.269  -0.566  1.00  0.00     0.195 C 
ENDBRANCH  21  22
ENDBRANCH  16  21
ENDBRANCH  14  15
ENDBRANCH  12  14
ENDBRANCH   8  12
ENDBRANCH   5   7
ENDBRANCH   4   5
ENDBRANCH   3   4
ENDBRANCH   2   3
ENDBRANCH   1   2
BRANCH   1  24
ATOM     24  C   UNL     1       1.649  -2.641   5.923  1.00  0.00     0.188 C 
BRANCH  24  25
ATOM     25  C   UNL     1       2.096  -4.007   6.482  1.00  0.00     0.188 C 
BRANCH  25  26
ATOM     26  O   UNL     1       1.942  -4.327   7.854  1.00  0.00    -0.376 OA
BRANCH  26  27
ATOM     27  C   UNL     1       2.389  -3.416   8.848  1.00  0.00     0.202 C 
BRANCH  27  28
ATOM     28  C   UNL     1       3.869  -3.042   8.883  1.00  0.00     0.261 C 
BRANCH  28  29
ATOM     29  O   UNL     1       4.308  -2.400   7.680  1.00  0.00    -0.460 OA
BRANCH  29  30
ATOM     30  C   UNL     1       5.275  -3.059   7.001  1.00  0.00     0.338 C 
ATOM     31  O   UNL     1       5.804  -4.118   7.287  1.00  0.00    -0.246 OA
BRANCH  30  32
ATOM     32  C   UNL     1       5.532  -2.364   5.732  1.00  0.00     0.060 A 
ATOM     33  C   UNL     1       5.384  -3.082   4.538  1.00  0.00     0.016 A 
ATOM     34  C   UNL     1       5.994  -1.047   5.727  1.00  0.00     0.016 A 
ATOM     35  C   UNL     1       5.734  -2.490   3.328  1.00  0.00     0.010 A 
ATOM     36  C   UNL     1       6.367  -0.464   4.517  1.00  0.00     0.010 A 
ATOM     37  C   UNL     1       6.267  -1.194   3.320  1.00  0.00    -0.014 A 
BRANCH  37  38
ATOM     38  C   UNL     1       6.873  -0.646   2.087  1.00  0.00     0.031 A 
ATOM     39  C   UNL     1       8.336  -0.866   1.845  1.00  0.00     0.074 A 
ATOM     40  C   UNL     1       6.138   0.077   1.228  1.00  0.00     0.049 A 
ATOM     41  N   UNL     1       9.099  -0.394   0.894  1.00  0.00    -0.248 NA
ATOM     42  C   UNL     1       9.038  -1.718   2.818  1.00  0.00     0.031 C 
ATOM     43  C   UNL     1       4.713   0.358   1.373  1.00  0.00     0.029 A 
ATOM     44  N   UNL     1       6.499   0.726   0.075  1.00  0.00    -0.354 N 
ATOM     45  C   UNL     1      10.374  -0.866   1.169  1.00  0.00     0.074 A 
ATOM     46  C   UNL     1      10.284  -1.666   2.372  1.00  0.00     0.031 C 
ATOM     47  C   UNL     1       4.322   1.134   0.348  1.00  0.00     0.029 A 
ATOM     48  C   UNL     1       5.465   1.403  -0.520  1.00  0.00     0.049 A 
ATOM     49  H   UNL     1       7.413   0.708  -0.291  1.00  0.00     0.167 HD
ATOM     50  C   UNL     1      11.520  -0.637   0.486  1.00  0.00     0.037 A 
ATOM     51  C   UNL     1       5.451   2.161  -1.633  1.00  0.00     0.037 A 
ATOM     52  C   UNL     1      11.607   0.170  -0.701  1.00  0.00     0.049 A 
ATOM     53  C   UNL     1       6.738   2.393  -2.379  1.00  0.00     0.074 A 
ATOM     54  C   UNL     1      12.722   0.467  -1.464  1.00  0.00     0.029 A 
ATOM     55  N   UNL     1      10.530   0.814  -1.293  1.00  0.00    -0.354 N 
ATOM     56  N   UNL     1       7.938   1.931  -2.123  1.00  0.00    -0.248 NA
ATOM     57  C   UNL     1       6.673   3.270  -3.557  1.00  0.00     0.031 C 
ATOM     58  C   UNL     1      12.326   1.320  -2.499  1.00  0.00     0.029 A 
ATOM     59  C   UNL     1      10.958   1.520  -2.405  1.00  0.00     0.049 A 
ATOM     60  H   UNL     1       9.601   0.775  -0.971  1.00  0.00     0.167 HD
ATOM     61  C   UNL     1       8.767   2.453  -3.106  1.00  0.00     0.074 A 
ATOM     62  C   UNL     1       7.930   3.249  -3.980  1.00  0.00     0.031 C 
ATOM     63  C   UNL     1      10.104   2.298  -3.265  1.00  0.00     0.037 A 
BRANCH  50  64
ATOM     64  C   UNL     1      12.777  -1.233   1.039  1.00  0.00     0.064 A 
ATOM     65  C   UNL     1      13.046  -2.606   0.942  1.00  0.00     0.173 A 
ATOM     66  C   UNL     1      13.731  -0.417   1.666  1.00  0.00     0.173 A 
ATOM     67  F   UNL     1      12.154  -3.429   0.370  1.00  0.00    -0.203 F 
ATOM     68  C   UNL     1      14.216  -3.144   1.471  1.00  0.00     0.198 A 
ATOM     69  C   UNL     1      14.910  -0.955   2.173  1.00  0.00     0.198 A 
ATOM     70  F   UNL     1      13.518   0.902   1.786  1.00  0.00    -0.203 F 
ATOM     71  F   UNL     1      14.433  -4.465   1.407  1.00  0.00    -0.200 F 
ATOM     72  C   UNL     1      15.149  -2.317   2.081  1.00  0.00     0.200 A 
ATOM     73  F   UNL     1      15.812  -0.154   2.758  1.00  0.00    -0.200 F 
ATOM     74  F   UNL     1      16.274  -2.837   2.590  1.00  0.00    -0.200 F 
ENDBRANCH  50  64
BRANCH  51  75
ATOM     75  C   UNL     1       4.175   2.743  -2.123  1.00  0.00     0.064 A 
ATOM     76  C   UNL     1       3.582   2.267  -3.301  1.00  0.00     0.173 A 
ATOM     77  C   UNL     1       3.524   3.778  -1.438  1.00  0.00     0.173 A 
ATOM     78  F   UNL     1       4.180   1.293  -4.003  1.00  0.00    -0.203 F 
ATOM     79  C   UNL     1       2.394   2.812  -3.782  1.00  0.00     0.198 A 
ATOM     80  C   UNL     1       2.322   4.306  -1.906  1.00  0.00     0.198 A 
ATOM     81  F   UNL     1       4.050   4.268  -0.306  1.00  0.00    -0.203 F 
ATOM     82  F   UNL     1       1.870   2.364  -4.931  1.00  0.00    -0.200 F 
ATOM     83  C   UNL     1       1.762   3.828  -3.080  1.00  0.00     0.200 A 
ATOM     84  F   UNL     1       1.709   5.280  -1.220  1.00  0.00    -0.200 F 
ATOM     85  F   UNL     1       0.617   4.349  -3.541  1.00  0.00    -0.200 F 
ENDBRANCH  51  75
BRANCH  63  86
ATOM     86  C   UNL     1      10.745   2.986  -4.432  1.00  0.00     0.064 A 
ATOM     87  C   UNL     1      10.983   4.367  -4.425  1.00  0.00     0.173 A 
ATOM     88  C   UNL     1      11.191   2.244  -5.536  1.00  0.00     0.173 A 
ATOM     89  F   UNL     1      10.564   5.119  -3.396  1.00  0.00    -0.203 F 
ATOM     90  C   UNL     1      11.636   4.984  -5.488  1.00  0.00     0.198 A 
ATOM     91  C   UNL     1      11.862   2.861  -6.587  1.00  0.00     0.198 A 
ATOM     92  F   UNL     1      10.992   0.918  -5.584  1.00  0.00    -0.203 F 
ATOM     93  F   UNL     1      11.830   6.310  -5.474  1.00  0.00    -0.200 F 
ATOM     94  C   UNL     1      12.082   4.230  -6.564  1.00  0.00     0.200 A 
ATOM     95  F   UNL     1      12.303   2.130  -7.620  1.00  0.00    -0.200 F 
ATOM     96  F   UNL     1      12.722   4.824  -7.580  1.00  0.00    -0.200 F 
ENDBRANCH  63  86
ENDBRANCH  37  38
ENDBRANCH  30  32
ENDBRANCH  29  30
ENDBRANCH  28  29
ENDBRANCH  27  28
ENDBRANCH  26  27
ENDBRANCH  25  26
ENDBRANCH  24  25
ENDBRANCH   1  24
TORSDOF 22
