REMARK SMILES C[NH+]1CCN(c2nc3c(cc2F)c(=O)c(C(=O)OCCOCCOCCOC(=O)c2ccc(-c4c5nc(c(-c6c(F)c(F)c(F)c(F)c6F)c6ccc([nH]6)c(-c6c(F)c(F)c(F)c(F)c6F)c6nc(c(-c7c(F)c(F)c(F)c(F)c7F)c7ccc4[nH]7)C=C6)C=C5)cc2)cn3-c2ccc(F)cc2F)CC1
REMARK SMILES IDX 23 1 22 2 21 3 20 4 19 5 18 6 16 7 17 8 15 9 6 10 7 11 11 12
REMARK SMILES IDX 8 13 10 14 12 15 9 16 94 17 13 18 93 19 14 20 5 21 1 22 2 23
REMARK SMILES IDX 3 24 104 25 4 27 103 28 95 29 96 30 101 31 97 32 100 33
REMARK SMILES IDX 102 34 98 35 99 36 24 37 25 38 26 39 27 40 28 41 29 42 30 43
REMARK SMILES IDX 31 44 92 45 32 46 91 47 33 48 34 49 35 50 85 51 36 52 90 53
REMARK SMILES IDX 84 54 86 55 37 56 89 57 83 58 82 59 38 61 70 62 50 63 69 64
REMARK SMILES IDX 51 65 54 66 68 67 87 68 52 69 53 70 67 72 88 73 55 74 39 75
REMARK SMILES IDX 40 76 48 77 41 78 42 79 46 80 49 81 43 82 44 83 47 84 45 85
REMARK SMILES IDX 71 86 72 87 80 88 73 89 74 90 78 91 81 92 75 93 76 94 79 95
REMARK SMILES IDX 77 96 56 97 57 98 65 99 58 100 59 101 63 102 66 103 60 104
REMARK SMILES IDX 61 105 64 106 62 107
REMARK H PARENT 2 26 86 60 54 71
REMARK Flexibility Score: inf
ROOT
ATOM      1  C   UNL     1      -9.110   2.257   3.981  1.00  0.00     0.188 C 
ENDROOT
BRANCH   1   2
ATOM      2  C   UNL     1     -10.402   2.149   3.141  1.00  0.00     0.188 C 
BRANCH   2   3
ATOM      3  O   UNL     1     -11.600   1.637   3.693  1.00  0.00    -0.376 OA
BRANCH   3   4
ATOM      4  C   UNL     1     -11.600   0.376   4.346  1.00  0.00     0.202 C 
BRANCH   4   5
ATOM      5  C   UNL     1     -11.043  -0.842   3.614  1.00  0.00     0.261 C 
BRANCH   5   6
ATOM      6  O   UNL     1      -9.667  -0.674   3.252  1.00  0.00    -0.459 OA
BRANCH   6   7
ATOM      7  C   UNL     1      -9.376  -0.801   1.937  1.00  0.00     0.343 C 
ATOM      8  O   UNL     1     -10.170  -1.050   1.042  1.00  0.00    -0.246 OA
BRANCH   7   9
ATOM      9  C   UNL     1      -7.976  -0.432   1.677  1.00  0.00     0.124 A 
ATOM     10  C   UNL     1      -2.991  -0.097   0.965  1.00  0.00     0.167 A 
ATOM     11  N   UNL     1      -4.057   0.473   0.355  1.00  0.00    -0.209 NA
ATOM     12  C   UNL     1      -3.135  -0.816   2.159  1.00  0.00     0.166 A 
ATOM     13  C   UNL     1      -5.301   0.244   0.861  1.00  0.00     0.151 A 
ATOM     14  C   UNL     1      -4.382  -0.999   2.720  1.00  0.00     0.059 A 
ATOM     15  F   UNL     1      -2.068  -1.354   2.770  1.00  0.00    -0.203 F 
ATOM     16  C   UNL     1      -5.483  -0.494   2.041  1.00  0.00     0.069 A 
ATOM     17  N   UNL     1      -6.459   0.713   0.156  1.00  0.00    -0.297 N 
ATOM     18  C   UNL     1      -6.838  -0.820   2.530  1.00  0.00     0.205 A 
ATOM     19  C   UNL     1      -7.714   0.309   0.591  1.00  0.00     0.113 A 
ATOM     20  O   UNL     1      -6.978  -1.444   3.575  1.00  0.00    -0.288 OA
BRANCH  10  21
ATOM     21  N   UNL     1      -1.754  -0.013   0.376  1.00  0.00    -0.343 N 
ATOM     22  C   UNL     1       2.432   0.131   0.040  1.00  0.00     0.332 C 
ATOM     23  N   UNL     1       1.029   0.065  -0.367  1.00  0.00    -0.334 N 
ATOM     24  C   UNL     1       0.294   1.276   0.087  1.00  0.00     0.283 C 
ATOM     25  C   UNL     1       0.403  -1.153   0.201  1.00  0.00     0.283 C 
ATOM     26  H   UNL     1       0.984   0.025  -1.385  1.00  0.00     0.347 HD
ATOM     27  C   UNL     1      -1.236   1.222  -0.194  1.00  0.00     0.179 C 
ATOM     28  C   UNL     1      -1.107  -1.238  -0.091  1.00  0.00     0.179 C 
ENDBRANCH  10  21
BRANCH  17  29
ATOM     29  C   UNL     1      -6.351   1.432  -1.068  1.00  0.00     0.083 A 
ATOM     30  C   UNL     1      -6.016   0.759  -2.254  1.00  0.00     0.033 A 
ATOM     31  C   UNL     1      -6.598   2.813  -1.127  1.00  0.00     0.150 A 
ATOM     32  C   UNL     1      -5.940   1.454  -3.462  1.00  0.00     0.041 A 
ATOM     33  C   UNL     1      -6.515   3.514  -2.326  1.00  0.00     0.080 A 
ATOM     34  F   UNL     1      -6.925   3.481  -0.010  1.00  0.00    -0.205 F 
ATOM     35  C   UNL     1      -6.188   2.823  -3.485  1.00  0.00     0.126 A 
ATOM     36  F   UNL     1      -6.111   3.483  -4.647  1.00  0.00    -0.207 F 
ENDBRANCH  17  29
ENDBRANCH   7   9
ENDBRANCH   6   7
ENDBRANCH   5   6
ENDBRANCH   4   5
ENDBRANCH   3   4
ENDBRANCH   2   3
ENDBRANCH   1   2
BRANCH   1  37
ATOM     37  O   UNL     1      -9.105   1.998   5.368  1.00  0.00    -0.376 OA
BRANCH  37  38
ATOM     38  C   UNL     1      -9.962   2.719   6.238  1.00  0.00     0.202 C 
BRANCH  38  39
ATOM     39  C   UNL     1     -10.090   4.240   6.138  1.00  0.00     0.261 C 
BRANCH  39  40
ATOM     40  O   UNL     1     -10.382   4.723   4.820  1.00  0.00    -0.460 OA
BRANCH  40  41
ATOM     41  C   UNL     1      -9.462   5.565   4.301  1.00  0.00     0.338 C 
ATOM     42  O   UNL     1      -8.425   5.961   4.821  1.00  0.00    -0.246 OA
BRANCH  41  43
ATOM     43  C   UNL     1      -9.811   5.866   2.909  1.00  0.00     0.060 A 
ATOM     44  C   UNL     1      -9.013   5.341   1.884  1.00  0.00     0.016 A 
ATOM     45  C   UNL     1     -10.867   6.732   2.624  1.00  0.00     0.016 A 
ATOM     46  C   UNL     1      -9.264   5.695   0.562  1.00  0.00     0.010 A 
ATOM     47  C   UNL     1     -11.093   7.115   1.301  1.00  0.00     0.010 A 
ATOM     48  C   UNL     1     -10.274   6.620   0.272  1.00  0.00    -0.014 A 
BRANCH  48  49
ATOM     49  C   UNL     1     -10.328   7.238  -1.070  1.00  0.00     0.031 A 
ATOM     50  C   UNL     1      -9.519   8.480  -1.311  1.00  0.00     0.074 A 
ATOM     51  C   UNL     1     -11.061   6.697  -2.057  1.00  0.00     0.049 A 
ATOM     52  N   UNL     1      -9.469   9.247  -2.368  1.00  0.00    -0.248 NA
ATOM     53  C   UNL     1      -8.639   8.910  -0.210  1.00  0.00     0.031 C 
ATOM     54  C   UNL     1     -11.816   5.450  -1.966  1.00  0.00     0.029 A 
ATOM     55  N   UNL     1     -11.290   7.141  -3.335  1.00  0.00    -0.354 N 
ATOM     56  C   UNL     1      -8.548  10.241  -2.066  1.00  0.00     0.074 A 
ATOM     57  C   UNL     1      -8.081   9.998  -0.719  1.00  0.00     0.031 C 
ATOM     58  C   UNL     1     -12.439   5.234  -3.138  1.00  0.00     0.029 A 
ATOM     59  C   UNL     1     -12.157   6.347  -4.043  1.00  0.00     0.049 A 
ATOM     60  H   UNL     1     -10.873   7.950  -3.708  1.00  0.00     0.167 HD
ATOM     61  C   UNL     1      -8.126  11.261  -2.846  1.00  0.00     0.037 A 
ATOM     62  C   UNL     1     -12.679   6.522  -5.273  1.00  0.00     0.037 A 
ATOM     63  C   UNL     1      -8.618  11.520  -4.172  1.00  0.00     0.049 A 
ATOM     64  C   UNL     1     -12.299   7.746  -6.068  1.00  0.00     0.074 A 
ATOM     65  C   UNL     1      -8.289  12.555  -5.028  1.00  0.00     0.029 A 
ATOM     66  N   UNL     1      -9.551  10.734  -4.831  1.00  0.00    -0.354 N 
ATOM     67  N   UNL     1     -11.448   8.698  -5.771  1.00  0.00    -0.248 NA
ATOM     68  C   UNL     1     -12.960   7.922  -7.370  1.00  0.00     0.031 C 
ATOM     69  C   UNL     1      -9.056  12.420  -6.189  1.00  0.00     0.029 A 
ATOM     70  C   UNL     1      -9.823  11.271  -6.078  1.00  0.00     0.049 A 
ATOM     71  H   UNL     1      -9.960   9.915  -4.467  1.00  0.00     0.167 HD
ATOM     72  C   UNL     1     -11.447   9.565  -6.856  1.00  0.00     0.074 A 
ATOM     73  C   UNL     1     -12.376   9.022  -7.825  1.00  0.00     0.031 C 
ATOM     74  C   UNL     1     -10.740  10.708  -7.036  1.00  0.00     0.037 A 
BRANCH  61  75
ATOM     75  C   UNL     1      -7.095  12.188  -2.277  1.00  0.00     0.064 A 
ATOM     76  C   UNL     1      -5.758  11.790  -2.132  1.00  0.00     0.173 A 
ATOM     77  C   UNL     1      -7.435  13.501  -1.920  1.00  0.00     0.173 A 
ATOM     78  F   UNL     1      -5.389  10.537  -2.440  1.00  0.00    -0.203 F 
ATOM     79  C   UNL     1      -4.799  12.671  -1.641  1.00  0.00     0.198 A 
ATOM     80  C   UNL     1      -6.468  14.387  -1.454  1.00  0.00     0.198 A 
ATOM     81  F   UNL     1      -8.701  13.928  -2.038  1.00  0.00    -0.203 F 
ATOM     82  F   UNL     1      -3.534  12.261  -1.480  1.00  0.00    -0.200 F 
ATOM     83  C   UNL     1      -5.153  13.972  -1.312  1.00  0.00     0.200 A 
ATOM     84  F   UNL     1      -6.810  15.646  -1.145  1.00  0.00    -0.200 F 
ATOM     85  F   UNL     1      -4.226  14.824  -0.855  1.00  0.00    -0.200 F 
ENDBRANCH  61  75
BRANCH  62  86
ATOM     86  C   UNL     1     -13.627   5.523  -5.831  1.00  0.00     0.064 A 
ATOM     87  C   UNL     1     -13.270   4.731  -6.931  1.00  0.00     0.173 A 
ATOM     88  C   UNL     1     -14.914   5.355  -5.298  1.00  0.00     0.173 A 
ATOM     89  F   UNL     1     -12.062   4.877  -7.496  1.00  0.00    -0.203 F 
ATOM     90  C   UNL     1     -14.166   3.819  -7.484  1.00  0.00     0.198 A 
ATOM     91  C   UNL     1     -15.800   4.423  -5.834  1.00  0.00     0.198 A 
ATOM     92  F   UNL     1     -15.309   6.095  -4.251  1.00  0.00    -0.203 F 
ATOM     93  F   UNL     1     -13.814   3.107  -8.563  1.00  0.00    -0.200 F 
ATOM     94  C   UNL     1     -15.428   3.661  -6.931  1.00  0.00     0.200 A 
ATOM     95  F   UNL     1     -17.016   4.269  -5.293  1.00  0.00    -0.200 F 
ATOM     96  F   UNL     1     -16.289   2.782  -7.462  1.00  0.00    -0.200 F 
ENDBRANCH  62  86
BRANCH  74  97
ATOM     97  C   UNL     1     -10.906  11.434  -8.340  1.00  0.00     0.064 A 
ATOM     98  C   UNL     1     -12.076  12.145  -8.642  1.00  0.00     0.173 A 
ATOM     99  C   UNL     1      -9.853  11.475  -9.267  1.00  0.00     0.173 A 
ATOM    100  F   UNL     1     -13.115  12.128  -7.794  1.00  0.00    -0.203 F 
ATOM    101  C   UNL     1     -12.193  12.855  -9.835  1.00  0.00     0.198 A 
ATOM    102  C   UNL     1      -9.962  12.210 -10.443  1.00  0.00     0.198 A 
ATOM    103  F   UNL     1      -8.709  10.820  -9.020  1.00  0.00    -0.203 F 
ATOM    104  F   UNL     1     -13.334  13.496 -10.121  1.00  0.00    -0.200 F 
ATOM    105  C   UNL     1     -11.133  12.895 -10.729  1.00  0.00     0.200 A 
ATOM    106  F   UNL     1      -8.930  12.262 -11.298  1.00  0.00    -0.200 F 
ATOM    107  F   UNL     1     -11.242  13.591 -11.868  1.00  0.00    -0.200 F 
ENDBRANCH  74  97
ENDBRANCH  48  49
ENDBRANCH  41  43
ENDBRANCH  40  41
ENDBRANCH  39  40
ENDBRANCH  38  39
ENDBRANCH  37  38
ENDBRANCH   1  37
TORSDOF 19
