REMARK SMILES CCCOc1ccccc1O[C@@H]1CC[C@@]([NH3+])(C(=O)OCCOCCOCCOC(=O)c2ccc(-c3c4nc(c(-c5c(F)c(F)c(F)c(F)c5F)c5ccc([nH]5)c(-c5c(F)c(F)c(F)c(F)c5F)c5nc(c(-c6c(F)c(F)c(F)c(F)c6F)c6ccc3[nH]6)C=C5)C=C4)cc2)C1
REMARK SMILES IDX 22 1 21 2 20 3 19 4 17 5 18 6 15 7 12 8 13 9 94 10 14 11
REMARK SMILES IDX 11 12 10 13 5 14 6 15 7 16 9 17 8 18 4 19 3 20 2 21 1 22
REMARK SMILES IDX 16 23 23 27 24 28 25 29 26 30 27 31 28 32 29 33 30 34 31 35
REMARK SMILES IDX 32 36 93 37 33 38 92 39 34 40 35 41 36 42 86 43 37 44 91 45
REMARK SMILES IDX 85 46 87 47 38 48 90 49 84 50 83 51 39 53 71 54 51 55 70 56
REMARK SMILES IDX 52 57 55 58 69 59 88 60 53 61 54 62 68 64 89 65 56 66 40 67
REMARK SMILES IDX 41 68 49 69 42 70 43 71 47 72 50 73 44 74 45 75 48 76 46 77
REMARK SMILES IDX 72 78 73 79 81 80 74 81 75 82 79 83 82 84 76 85 77 86 80 87
REMARK SMILES IDX 78 88 57 89 58 90 66 91 59 92 60 93 64 94 67 95 61 96 62 97
REMARK SMILES IDX 65 98 63 99
REMARK H PARENT 16 24 16 25 16 26 87 52 55 63
REMARK Flexibility Score: inf
ROOT
ATOM      1  O   UNL     1      -0.744   4.060   3.990  1.00  0.00    -0.376 OA
ENDROOT
BRANCH   1   2
ATOM      2  C   UNL     1      -0.623   5.397   3.530  1.00  0.00     0.202 C 
BRANCH   2   3
ATOM      3  C   UNL     1       0.350   5.811   2.379  1.00  0.00     0.261 C 
BRANCH   3   4
ATOM      4  O   UNL     1       0.411   5.014   1.165  1.00  0.00    -0.459 OA
BRANCH   4   5
ATOM      5  C   UNL     1       1.633   4.583   0.666  1.00  0.00     0.368 C 
ATOM      6  O   UNL     1       2.714   4.798   1.203  1.00  0.00    -0.245 OA
BRANCH   5   7
ATOM      7  C   UNL     1       1.484   3.726  -0.816  1.00  0.00     0.196 C 
ATOM      8  C   UNL     1       0.683   0.532  -0.986  1.00  0.00     0.180 C 
ATOM      9  C   UNL     1      -0.952   1.636  -1.451  1.00  0.00     0.052 C 
ATOM     10  C   UNL     1       2.249   1.844  -0.767  1.00  0.00     0.126 C 
ATOM     11  C   UNL     1      -0.457   3.559  -1.249  1.00  0.00     0.085 C 
BRANCH   8  12
ATOM     12  O   UNL     1       0.911  -0.808  -1.275  1.00  0.00    -0.486 OA
BRANCH  12  13
ATOM     13  C   UNL     1       1.203  -1.047  -2.548  1.00  0.00     0.161 A 
ATOM     14  C   UNL     1       1.174  -0.062  -3.503  1.00  0.00     0.161 A 
ATOM     15  C   UNL     1       1.451  -0.440  -4.813  1.00  0.00     0.050 A 
ATOM     16  C   UNL     1       1.744  -1.782  -5.125  1.00  0.00     0.004 A 
ATOM     17  C   UNL     1       1.449  -2.390  -2.837  1.00  0.00     0.050 A 
ATOM     18  C   UNL     1       1.719  -2.765  -4.138  1.00  0.00     0.004 A 
BRANCH  14  19
ATOM     19  O   UNL     1       0.597   1.143  -3.261  1.00  0.00    -0.490 OA
BRANCH  19  20
ATOM     20  C   UNL     1       0.871   2.165  -2.141  1.00  0.00     0.229 C 
BRANCH  20  21
ATOM     21  C   UNL     1       0.444   2.155  -0.000  1.00  0.00     0.038 C 
ATOM     22  C   UNL     1       1.311   1.367   1.357  1.00  0.00     0.007 C 
ENDBRANCH  20  21
ENDBRANCH  19  20
ENDBRANCH  14  19
ENDBRANCH  12  13
ENDBRANCH   8  12
BRANCH   7  23
ATOM     23  N   UNL     1       2.125   4.690  -1.747  1.00  0.00    -0.343 N 
ATOM     24  H   UNL     1       1.654   5.592  -1.679  1.00  0.00     0.345 HD
ATOM     25  H   UNL     1       2.053   4.339  -2.702  1.00  0.00     0.345 HD
ATOM     26  H   UNL     1       3.108   4.800  -1.498  1.00  0.00     0.345 HD
ENDBRANCH   7  23
ENDBRANCH   5   7
ENDBRANCH   4   5
ENDBRANCH   3   4
ENDBRANCH   2   3
ENDBRANCH   1   2
BRANCH   1  27
ATOM     27  C   UNL     1      -0.973   3.069   3.016  1.00  0.00     0.188 C 
BRANCH  27  28
ATOM     28  C   UNL     1      -2.090   3.254   1.983  1.00  0.00     0.188 C 
BRANCH  28  29
ATOM     29  O   UNL     1      -2.935   4.351   2.133  1.00  0.00    -0.376 OA
BRANCH  29  30
ATOM     30  C   UNL     1      -4.115   4.197   2.880  1.00  0.00     0.202 C 
BRANCH  30  31
ATOM     31  C   UNL     1      -4.537   2.899   3.611  1.00  0.00     0.261 C 
BRANCH  31  32
ATOM     32  O   UNL     1      -3.612   1.795   3.719  1.00  0.00    -0.460 OA
BRANCH  32  33
ATOM     33  C   UNL     1      -3.844   0.728   2.903  1.00  0.00     0.338 C 
ATOM     34  O   UNL     1      -4.729   0.639   2.067  1.00  0.00    -0.246 OA
BRANCH  33  35
ATOM     35  C   UNL     1      -2.737  -0.264   2.989  1.00  0.00     0.060 A 
ATOM     36  C   UNL     1      -2.011  -0.560   1.827  1.00  0.00     0.016 A 
ATOM     37  C   UNL     1      -2.456  -0.967   4.161  1.00  0.00     0.016 A 
ATOM     38  C   UNL     1      -1.004  -1.538   1.834  1.00  0.00     0.010 A 
ATOM     39  C   UNL     1      -1.462  -1.967   4.160  1.00  0.00     0.010 A 
ATOM     40  C   UNL     1      -0.726  -2.264   2.997  1.00  0.00    -0.014 A 
BRANCH  40  41
ATOM     41  C   UNL     1       0.198  -3.438   2.938  1.00  0.00     0.031 A 
ATOM     42  C   UNL     1      -0.382  -4.803   2.678  1.00  0.00     0.074 A 
ATOM     43  C   UNL     1       1.534  -3.317   3.063  1.00  0.00     0.049 A 
ATOM     44  N   UNL     1       0.199  -5.977   2.687  1.00  0.00    -0.248 NA
ATOM     45  C   UNL     1      -1.816  -4.843   2.358  1.00  0.00     0.031 C 
ATOM     46  C   UNL     1       2.258  -2.059   3.215  1.00  0.00     0.029 A 
ATOM     47  N   UNL     1       2.525  -4.276   3.087  1.00  0.00    -0.354 N 
ATOM     48  C   UNL     1      -0.801  -6.896   2.396  1.00  0.00     0.074 A 
ATOM     49  C   UNL     1      -2.026  -6.144   2.223  1.00  0.00     0.031 C 
ATOM     50  C   UNL     1       3.573  -2.321   3.325  1.00  0.00     0.029 A 
ATOM     51  C   UNL     1       3.784  -3.770   3.315  1.00  0.00     0.049 A 
ATOM     52  H   UNL     1       2.348  -5.236   2.953  1.00  0.00     0.167 HD
ATOM     53  C   UNL     1      -0.712  -8.245   2.294  1.00  0.00     0.037 A 
ATOM     54  C   UNL     1       4.960  -4.398   3.534  1.00  0.00     0.037 A 
ATOM     55  C   UNL     1       0.501  -9.001   2.476  1.00  0.00     0.049 A 
ATOM     56  C   UNL     1       5.011  -5.911   3.538  1.00  0.00     0.074 A 
ATOM     57  C   UNL     1       0.680 -10.372   2.406  1.00  0.00     0.029 A 
ATOM     58  N   UNL     1       1.740  -8.454   2.779  1.00  0.00    -0.354 N 
ATOM     59  N   UNL     1       4.058  -6.776   3.291  1.00  0.00    -0.248 NA
ATOM     60  C   UNL     1       6.305  -6.535   3.863  1.00  0.00     0.031 C 
ATOM     61  C   UNL     1       2.005 -10.661   2.745  1.00  0.00     0.029 A 
ATOM     62  C   UNL     1       2.677  -9.465   2.935  1.00  0.00     0.049 A 
ATOM     63  H   UNL     1       1.926  -7.492   2.870  1.00  0.00     0.167 HD
ATOM     64  C   UNL     1       4.642  -8.035   3.395  1.00  0.00     0.074 A 
ATOM     65  C   UNL     1       6.037  -7.824   3.713  1.00  0.00     0.031 C 
ATOM     66  C   UNL     1       4.071  -9.255   3.239  1.00  0.00     0.037 A 
BRANCH  53  67
ATOM     67  C   UNL     1      -1.984  -9.004   2.038  1.00  0.00     0.064 A 
ATOM     68  C   UNL     1      -2.664  -8.933   0.814  1.00  0.00     0.173 A 
ATOM     69  C   UNL     1      -2.517  -9.836   3.036  1.00  0.00     0.173 A 
ATOM     70  F   UNL     1      -2.205  -8.144  -0.170  1.00  0.00    -0.203 F 
ATOM     71  C   UNL     1      -3.850  -9.636   0.612  1.00  0.00     0.198 A 
ATOM     72  C   UNL     1      -3.679 -10.568   2.816  1.00  0.00     0.198 A 
ATOM     73  F   UNL     1      -1.903  -9.948   4.223  1.00  0.00    -0.203 F 
ATOM     74  F   UNL     1      -4.516  -9.503  -0.543  1.00  0.00    -0.200 F 
ATOM     75  C   UNL     1      -4.352 -10.458   1.609  1.00  0.00     0.200 A 
ATOM     76  F   UNL     1      -4.151 -11.377   3.775  1.00  0.00    -0.200 F 
ATOM     77  F   UNL     1      -5.489 -11.138   1.411  1.00  0.00    -0.200 F 
ENDBRANCH  53  67
BRANCH  54  78
ATOM     78  C   UNL     1       6.194  -3.614   3.835  1.00  0.00     0.064 A 
ATOM     79  C   UNL     1       7.320  -3.668   2.998  1.00  0.00     0.173 A 
ATOM     80  C   UNL     1       6.300  -2.847   5.006  1.00  0.00     0.173 A 
ATOM     81  F   UNL     1       7.293  -4.419   1.887  1.00  0.00    -0.203 F 
ATOM     82  C   UNL     1       8.503  -3.008   3.331  1.00  0.00     0.198 A 
ATOM     83  C   UNL     1       7.469  -2.155   5.318  1.00  0.00     0.198 A 
ATOM     84  F   UNL     1       5.266  -2.772   5.857  1.00  0.00    -0.203 F 
ATOM     85  F   UNL     1       9.584  -3.138   2.549  1.00  0.00    -0.200 F 
ATOM     86  C   UNL     1       8.574  -2.245   4.486  1.00  0.00     0.200 A 
ATOM     87  F   UNL     1       7.529  -1.412   6.432  1.00  0.00    -0.200 F 
ATOM     88  F   UNL     1       9.711  -1.613   4.807  1.00  0.00    -0.200 F 
ENDBRANCH  54  78
BRANCH  66  89
ATOM     89  C   UNL     1       4.957 -10.469   3.344  1.00  0.00     0.064 A 
ATOM     90  C   UNL     1       5.538 -10.870   4.556  1.00  0.00     0.173 A 
ATOM     91  C   UNL     1       5.186 -11.275   2.216  1.00  0.00     0.173 A 
ATOM     92  F   UNL     1       5.362 -10.136   5.665  1.00  0.00    -0.203 F 
ATOM     93  C   UNL     1       6.340 -12.008   4.628  1.00  0.00     0.198 A 
ATOM     94  C   UNL     1       5.954 -12.434   2.300  1.00  0.00     0.198 A 
ATOM     95  F   UNL     1       4.648 -10.949   1.030  1.00  0.00    -0.203 F 
ATOM     96  F   UNL     1       6.930 -12.338   5.785  1.00  0.00    -0.200 F 
ATOM     97  C   UNL     1       6.539 -12.794   3.503  1.00  0.00     0.200 A 
ATOM     98  F   UNL     1       6.125 -13.203   1.215  1.00  0.00    -0.200 F 
ATOM     99  F   UNL     1       7.300 -13.895   3.577  1.00  0.00    -0.200 F 
ENDBRANCH  66  89
ENDBRANCH  40  41
ENDBRANCH  33  35
ENDBRANCH  32  33
ENDBRANCH  31  32
ENDBRANCH  30  31
ENDBRANCH  29  30
ENDBRANCH  28  29
ENDBRANCH  27  28
ENDBRANCH   1  27
TORSDOF 23
