REMARK SMILES O=C(OCCOCCOCCOC(=O)c1ccc(Br)c(NC(=S)NC(=O)c2cccs2)c1)c1ccc(-c2c3nc(c(-c4c(F)c(F)c(F)c(F)c4F)c4ccc([nH]4)c(-c4c(F)c(F)c(F)c(F)c4F)c4nc(c(-c5c(F)c(F)c(F)c(F)c5F)c5ccc2[nH]5)C=C4)C=C3)cc1
REMARK SMILES IDX 8 1 7 2 6 3 5 4 4 5 3 6 2 7 1 8 33 9 34 10 95 11 35 12 94 13
REMARK SMILES IDX 36 14 37 15 38 16 88 17 39 18 93 19 87 20 89 21 40 22 92 23
REMARK SMILES IDX 86 24 85 25 41 27 73 28 53 29 72 30 54 31 57 32 71 33 90 34
REMARK SMILES IDX 55 35 56 36 70 38 91 39 58 40 42 41 43 42 51 43 44 44 45 45
REMARK SMILES IDX 49 46 52 47 46 48 47 49 50 50 48 51 74 52 75 53 83 54 76 55
REMARK SMILES IDX 77 56 81 57 84 58 78 59 79 60 82 61 80 62 59 63 60 64 68 65
REMARK SMILES IDX 61 66 62 67 66 68 69 69 63 70 64 71 67 72 65 73 9 74 10 75
REMARK SMILES IDX 11 76 12 77 13 78 14 79 15 80 16 81 32 82 17 83 20 84 18 85
REMARK SMILES IDX 19 86 21 87 22 89 23 90 24 91 25 92 26 94 27 95 28 96 31 97
REMARK SMILES IDX 29 98 30 99
REMARK H PARENT 89 26 57 37 21 88 24 93
REMARK Flexibility Score: inf
ROOT
ATOM      1  C   UNL     1       2.267  -2.275  -2.228  1.00  0.00     0.188 C 
ENDROOT
BRANCH   1   2
ATOM      2  C   UNL     1       2.856  -1.595  -0.990  1.00  0.00     0.188 C 
BRANCH   2   3
ATOM      3  O   UNL     1       4.174  -1.070  -1.152  1.00  0.00    -0.376 OA
BRANCH   3   4
ATOM      4  C   UNL     1       5.078  -1.308  -0.070  1.00  0.00     0.202 C 
BRANCH   4   5
ATOM      5  C   UNL     1       4.625  -0.885   1.341  1.00  0.00     0.261 C 
BRANCH   5   6
ATOM      6  O   UNL     1       3.258  -0.440   1.493  1.00  0.00    -0.460 OA
BRANCH   6   7
ATOM      7  C   UNL     1       2.623   0.720   1.223  1.00  0.00     0.338 C 
ATOM      8  O   UNL     1       1.433   0.829   1.516  1.00  0.00    -0.246 OA
BRANCH   7   9
ATOM      9  C   UNL     1       3.256   1.885   0.548  1.00  0.00     0.060 A 
ATOM     10  C   UNL     1       4.382   1.806  -0.261  1.00  0.00     0.016 A 
ATOM     11  C   UNL     1       2.603   3.126   0.637  1.00  0.00     0.016 A 
ATOM     12  C   UNL     1       4.918   2.906  -0.901  1.00  0.00     0.010 A 
ATOM     13  C   UNL     1       3.097   4.240  -0.049  1.00  0.00     0.010 A 
ATOM     14  C   UNL     1       4.283   4.130  -0.794  1.00  0.00    -0.014 A 
BRANCH  14  15
ATOM     15  C   UNL     1       5.017   5.311  -1.264  1.00  0.00     0.031 A 
ATOM     16  C   UNL     1       5.619   6.172  -0.208  1.00  0.00     0.074 A 
ATOM     17  C   UNL     1       5.286   5.510  -2.566  1.00  0.00     0.049 A 
ATOM     18  N   UNL     1       6.251   7.303  -0.327  1.00  0.00    -0.248 NA
ATOM     19  C   UNL     1       5.536   5.662   1.173  1.00  0.00     0.031 C 
ATOM     20  C   UNL     1       4.991   4.571  -3.644  1.00  0.00     0.029 A 
ATOM     21  N   UNL     1       5.869   6.567  -3.210  1.00  0.00    -0.354 N 
ATOM     22  C   UNL     1       6.637   7.637   0.960  1.00  0.00     0.074 A 
ATOM     23  C   UNL     1       6.122   6.628   1.854  1.00  0.00     0.031 C 
ATOM     24  C   UNL     1       5.293   5.134  -4.825  1.00  0.00     0.029 A 
ATOM     25  C   UNL     1       5.795   6.473  -4.579  1.00  0.00     0.049 A 
ATOM     26  H   UNL     1       6.298   7.319  -2.740  1.00  0.00     0.167 HD
ATOM     27  C   UNL     1       7.383   8.693   1.342  1.00  0.00     0.037 A 
ATOM     28  C   UNL     1       6.072   7.392  -5.520  1.00  0.00     0.037 A 
ATOM     29  C   UNL     1       7.860   9.677   0.414  1.00  0.00     0.049 A 
ATOM     30  C   UNL     1       6.677   8.680  -5.054  1.00  0.00     0.074 A 
ATOM     31  C   UNL     1       8.574  10.829   0.670  1.00  0.00     0.029 A 
ATOM     32  N   UNL     1       7.645   9.627  -0.960  1.00  0.00    -0.354 N 
ATOM     33  N   UNL     1       6.985   9.042  -3.832  1.00  0.00    -0.248 NA
ATOM     34  C   UNL     1       7.012   9.664  -6.085  1.00  0.00     0.031 C 
ATOM     35  C   UNL     1       8.710  11.522  -0.536  1.00  0.00     0.029 A 
ATOM     36  C   UNL     1       8.172  10.754  -1.561  1.00  0.00     0.049 A 
ATOM     37  H   UNL     1       7.186   8.896  -1.433  1.00  0.00     0.167 HD
ATOM     38  C   UNL     1       7.614  10.268  -3.947  1.00  0.00     0.074 A 
ATOM     39  C   UNL     1       7.624  10.592  -5.363  1.00  0.00     0.031 C 
ATOM     40  C   UNL     1       8.159  11.040  -2.976  1.00  0.00     0.037 A 
BRANCH  27  41
ATOM     41  C   UNL     1       7.614   8.856   2.813  1.00  0.00     0.064 A 
ATOM     42  C   UNL     1       8.380   7.946   3.560  1.00  0.00     0.173 A 
ATOM     43  C   UNL     1       6.984   9.902   3.500  1.00  0.00     0.173 A 
ATOM     44  F   UNL     1       8.968   6.900   2.958  1.00  0.00    -0.203 F 
ATOM     45  C   UNL     1       8.466   8.053   4.946  1.00  0.00     0.198 A 
ATOM     46  C   UNL     1       7.109  10.032   4.879  1.00  0.00     0.198 A 
ATOM     47  F   UNL     1       6.223  10.785   2.837  1.00  0.00    -0.203 F 
ATOM     48  F   UNL     1       9.123   7.120   5.649  1.00  0.00    -0.200 F 
ATOM     49  C   UNL     1       7.837   9.100   5.602  1.00  0.00     0.200 A 
ATOM     50  F   UNL     1       6.501  11.045   5.510  1.00  0.00    -0.200 F 
ATOM     51  F   UNL     1       7.913   9.198   6.936  1.00  0.00    -0.200 F 
ENDBRANCH  27  41
BRANCH  28  52
ATOM     52  C   UNL     1       5.749   7.145  -6.947  1.00  0.00     0.064 A 
ATOM     53  C   UNL     1       6.742   6.968  -7.917  1.00  0.00     0.173 A 
ATOM     54  C   UNL     1       4.414   7.106  -7.372  1.00  0.00     0.173 A 
ATOM     55  F   UNL     1       8.034   7.021  -7.567  1.00  0.00    -0.203 F 
ATOM     56  C   UNL     1       6.411   6.773  -9.259  1.00  0.00     0.198 A 
ATOM     57  C   UNL     1       4.081   6.882  -8.707  1.00  0.00     0.198 A 
ATOM     58  F   UNL     1       3.430   7.280  -6.480  1.00  0.00    -0.203 F 
ATOM     59  F   UNL     1       7.381   6.646 -10.174  1.00  0.00    -0.200 F 
ATOM     60  C   UNL     1       5.081   6.722  -9.652  1.00  0.00     0.200 A 
ATOM     61  F   UNL     1       2.794   6.808  -9.073  1.00  0.00    -0.200 F 
ATOM     62  F   UNL     1       4.764   6.522 -10.938  1.00  0.00    -0.200 F 
ENDBRANCH  28  52
BRANCH  40  63
ATOM     63  C   UNL     1       8.870  12.278  -3.423  1.00  0.00     0.064 A 
ATOM     64  C   UNL     1       8.186  13.376  -3.960  1.00  0.00     0.173 A 
ATOM     65  C   UNL     1      10.261  12.376  -3.260  1.00  0.00     0.173 A 
ATOM     66  F   UNL     1       6.859  13.319  -4.152  1.00  0.00    -0.203 F 
ATOM     67  C   UNL     1       8.875  14.520  -4.347  1.00  0.00     0.198 A 
ATOM     68  C   UNL     1      10.938  13.540  -3.600  1.00  0.00     0.198 A 
ATOM     69  F   UNL     1      10.957  11.351  -2.745  1.00  0.00    -0.203 F 
ATOM     70  F   UNL     1       8.213  15.534  -4.919  1.00  0.00    -0.200 F 
ATOM     71  C   UNL     1      10.246  14.606  -4.154  1.00  0.00     0.200 A 
ATOM     72  F   UNL     1      12.258  13.629  -3.389  1.00  0.00    -0.200 F 
ATOM     73  F   UNL     1      10.904  15.717  -4.509  1.00  0.00    -0.200 F 
ENDBRANCH  40  63
ENDBRANCH  14  15
ENDBRANCH   7   9
ENDBRANCH   6   7
ENDBRANCH   5   6
ENDBRANCH   4   5
ENDBRANCH   3   4
ENDBRANCH   2   3
ENDBRANCH   1   2
BRANCH   1  74
ATOM     74  O   UNL     1       3.042  -3.311  -2.808  1.00  0.00    -0.376 OA
BRANCH  74  75
ATOM     75  C   UNL     1       4.364  -2.942  -3.177  1.00  0.00     0.202 C 
BRANCH  75  76
ATOM     76  C   UNL     1       4.593  -1.738  -4.130  1.00  0.00     0.261 C 
BRANCH  76  77
ATOM     77  O   UNL     1       3.769  -0.544  -3.969  1.00  0.00    -0.460 OA
BRANCH  77  78
ATOM     78  C   UNL     1       3.087  -0.152  -5.085  1.00  0.00     0.338 C 
ATOM     79  O   UNL     1       3.179  -0.712  -6.174  1.00  0.00    -0.246 OA
BRANCH  78  80
ATOM     80  C   UNL     1       2.327   1.219  -5.019  1.00  0.00     0.062 A 
ATOM     81  C   UNL     1       3.183   2.236  -6.259  1.00  0.00     0.017 A 
ATOM     82  C   UNL     1       0.596   2.082  -4.301  1.00  0.00     0.043 A 
ATOM     83  C   UNL     1       2.447   3.804  -6.668  1.00  0.00     0.019 A 
ATOM     84  C   UNL     1       0.086   3.614  -4.654  1.00  0.00     0.055 A 
ATOM     85  C   UNL     1       0.976   4.449  -5.878  1.00  0.00     0.041 A 
ATOM     86  Br  UNL     1       0.472   6.235  -6.261  1.00  0.00    -0.049 Br
BRANCH  84  87
ATOM     87  N   UNL     1      -0.642   4.092  -3.538  1.00  0.00    -0.331 N 
ATOM     88  H   UNL     1      -1.016   4.996  -3.643  1.00  0.00     0.169 HD
BRANCH  87  89
ATOM     89  C   UNL     1      -0.913   3.480  -2.314  1.00  0.00     0.177 C 
ATOM     90  S   UNL     1      -1.740   4.420  -1.190  1.00  0.00    -0.040 S 
BRANCH  89  91
ATOM     91  N   UNL     1      -0.595   2.135  -1.880  1.00  0.00    -0.298 N 
ATOM     92  C   UNL     1       0.044   0.764  -2.071  1.00  0.00     0.267 C 
ATOM     93  H   UNL     1      -1.013   2.074  -0.991  1.00  0.00     0.172 HD
ATOM     94  O   UNL     1      -0.386  -0.185  -1.421  1.00  0.00    -0.268 OA
BRANCH  92  95
ATOM     95  C   UNL     1       1.190   0.626  -3.081  1.00  0.00     0.092 A 
ATOM     96  C   UNL     1       2.231   1.952  -3.042  1.00  0.00     0.025 A 
ATOM     97  S   UNL     1       0.361   0.084  -5.168  1.00  0.00    -0.139 S 
ATOM     98  C   UNL     1       2.152   3.021  -4.611  1.00  0.00     0.012 A 
ATOM     99  C   UNL     1       1.082   2.140  -6.033  1.00  0.00     0.065 A 
ENDBRANCH  92  95
ENDBRANCH  89  91
ENDBRANCH  87  89
ENDBRANCH  84  87
ENDBRANCH  78  80
ENDBRANCH  77  78
ENDBRANCH  76  77
ENDBRANCH  75  76
ENDBRANCH  74  75
ENDBRANCH   1  74
TORSDOF 21
