REMARK SMILES Cc1cs/c(=N\S(=O)(=O)c2ccc(/C=C/C(=O)OCCOCCOCCOC(=O)c3ccc(-c4c5nc(c(-c6c(F)c(F)c(F)c(F)c6F)c6ccc([nH]6)c(-c6c(F)c(F)c(F)c(F)c6F)c6nc(c(-c7c(F)c(F)c(F)c(F)c7F)c7ccc4[nH]7)C=C6)C=C5)cc3)cc2)[nH]1
REMARK SMILES IDX 22 1 21 2 20 3 19 4 18 5 16 6 17 7 15 8 14 9 13 10 10 11
REMARK SMILES IDX 11 12 94 13 12 14 93 15 7 16 8 17 9 18 6 19 1 20 2 21 3 22
REMARK SMILES IDX 95 23 4 24 5 25 23 27 24 28 25 29 26 30 27 31 28 32 29 33
REMARK SMILES IDX 30 34 31 35 92 36 32 37 91 38 33 39 34 40 35 41 85 42 36 43
REMARK SMILES IDX 90 44 84 45 86 46 37 47 89 48 83 49 82 50 38 52 70 53 50 54
REMARK SMILES IDX 69 55 51 56 54 57 68 58 87 59 52 60 53 61 67 63 88 64 55 65
REMARK SMILES IDX 39 66 40 67 48 68 41 69 42 70 46 71 49 72 43 73 44 74 47 75
REMARK SMILES IDX 45 76 71 77 72 78 80 79 73 80 74 81 78 82 81 83 75 84 76 85
REMARK SMILES IDX 79 86 77 87 56 88 57 89 65 90 58 91 59 92 63 93 66 94 60 95
REMARK SMILES IDX 61 96 64 97 62 98
REMARK H PARENT 95 26 86 51 54 62
REMARK Flexibility Score: inf
ROOT
ATOM      1  C   UNL     1     -11.011  -6.483   1.822  1.00  0.00     0.188 C 
ENDROOT
BRANCH   1   2
ATOM      2  O   UNL     1     -11.884  -7.544   1.472  1.00  0.00    -0.376 OA
BRANCH   2   3
ATOM      3  C   UNL     1     -11.428  -8.597   0.635  1.00  0.00     0.202 C 
BRANCH   3   4
ATOM      4  C   UNL     1     -10.560  -8.339  -0.610  1.00  0.00     0.261 C 
BRANCH   4   5
ATOM      5  O   UNL     1      -9.512  -7.368  -0.466  1.00  0.00    -0.460 OA
BRANCH   5   6
ATOM      6  C   UNL     1      -9.670  -6.238  -1.195  1.00  0.00     0.330 C 
ATOM      7  O   UNL     1     -10.598  -5.990  -1.952  1.00  0.00    -0.247 OA
BRANCH   6   8
ATOM      8  C   UNL     1      -8.650  -5.211  -0.898  1.00  0.00     0.094 C 
ATOM      9  C   UNL     1      -7.458  -5.394  -0.306  1.00  0.00     0.015 C 
BRANCH   9  10
ATOM     10  C   UNL     1      -6.508  -4.285  -0.094  1.00  0.00    -0.025 A 
ATOM     11  C   UNL     1      -4.657  -2.181   0.100  1.00  0.00     0.089 A 
ATOM     12  C   UNL     1      -6.021  -1.924   0.265  1.00  0.00     0.023 A 
ATOM     13  C   UNL     1      -4.202  -3.486  -0.090  1.00  0.00     0.023 A 
ATOM     14  C   UNL     1      -6.937  -2.975   0.179  1.00  0.00     0.009 A 
ATOM     15  C   UNL     1      -5.129  -4.533  -0.179  1.00  0.00     0.009 A 
BRANCH  11  16
ATOM     16  S   UNL     1      -3.542  -0.783   0.088  1.00  0.00     0.285 S 
ATOM     17  O   UNL     1      -3.763  -0.112   1.354  1.00  0.00    -0.199 OA
ATOM     18  O   UNL     1      -3.800  -0.121  -1.176  1.00  0.00    -0.199 OA
BRANCH  16  19
ATOM     19  N   UNL     1      -2.058  -1.419   0.072  1.00  0.00    -0.130 NA
ATOM     20  C   UNL     1       2.711  -0.545   0.002  1.00  0.00     0.065 C 
ATOM     21  C   UNL     1       1.274  -0.152   0.002  1.00  0.00     0.024 A 
ATOM     22  C   UNL     1       0.802   1.106  -0.012  1.00  0.00     0.089 A 
ATOM     23  N   UNL     1       0.276  -1.106   0.024  1.00  0.00    -0.334 N 
ATOM     24  S   UNL     1      -0.949   1.131   0.004  1.00  0.00    -0.104 S 
ATOM     25  C   UNL     1      -1.023  -0.654   0.037  1.00  0.00     0.199 A 
ATOM     26  H   UNL     1       0.484  -2.068   0.029  1.00  0.00     0.169 HD
ENDBRANCH  16  19
ENDBRANCH  11  16
ENDBRANCH   9  10
ENDBRANCH   6   8
ENDBRANCH   5   6
ENDBRANCH   4   5
ENDBRANCH   3   4
ENDBRANCH   2   3
ENDBRANCH   1   2
BRANCH   1  27
ATOM     27  C   UNL     1      -9.629  -6.786   2.435  1.00  0.00     0.188 C 
BRANCH  27  28
ATOM     28  O   UNL     1      -9.221  -8.130   2.388  1.00  0.00    -0.376 OA
BRANCH  28  29
ATOM     29  C   UNL     1      -9.507  -9.004   3.468  1.00  0.00     0.202 C 
BRANCH  29  30
ATOM     30  C   UNL     1     -10.504  -8.737   4.617  1.00  0.00     0.261 C 
BRANCH  30  31
ATOM     31  O   UNL     1     -11.194  -7.486   4.652  1.00  0.00    -0.460 OA
BRANCH  31  32
ATOM     32  C   UNL     1     -10.715  -6.568   5.524  1.00  0.00     0.338 C 
ATOM     33  O   UNL     1      -9.733  -6.665   6.241  1.00  0.00    -0.246 OA
BRANCH  32  34
ATOM     34  C   UNL     1     -11.483  -5.322   5.362  1.00  0.00     0.060 A 
ATOM     35  C   UNL     1     -10.854  -4.211   4.786  1.00  0.00     0.016 A 
ATOM     36  C   UNL     1     -12.803  -5.240   5.808  1.00  0.00     0.016 A 
ATOM     37  C   UNL     1     -11.543  -3.004   4.666  1.00  0.00     0.010 A 
ATOM     38  C   UNL     1     -13.485  -4.024   5.706  1.00  0.00     0.010 A 
ATOM     39  C   UNL     1     -12.851  -2.894   5.156  1.00  0.00    -0.014 A 
BRANCH  39  40
ATOM     40  C   UNL     1     -13.503  -1.564   5.231  1.00  0.00     0.031 A 
ATOM     41  C   UNL     1     -13.512  -0.835   6.545  1.00  0.00     0.074 A 
ATOM     42  C   UNL     1     -14.069  -1.007   4.146  1.00  0.00     0.049 A 
ATOM     43  N   UNL     1     -14.071   0.305   6.863  1.00  0.00    -0.248 NA
ATOM     44  C   UNL     1     -12.794  -1.483   7.654  1.00  0.00     0.031 C 
ATOM     45  C   UNL     1     -14.090  -1.595   2.809  1.00  0.00     0.029 A 
ATOM     46  N   UNL     1     -14.746   0.179   4.006  1.00  0.00    -0.354 N 
ATOM     47  C   UNL     1     -13.780   0.506   8.205  1.00  0.00     0.074 A 
ATOM     48  C   UNL     1     -13.022  -0.643   8.652  1.00  0.00     0.031 C 
ATOM     49  C   UNL     1     -14.761  -0.772   1.984  1.00  0.00     0.029 A 
ATOM     50  C   UNL     1     -15.247   0.379   2.743  1.00  0.00     0.049 A 
ATOM     51  H   UNL     1     -14.862   0.824   4.740  1.00  0.00     0.167 HD
ATOM     52  C   UNL     1     -14.109   1.559   8.992  1.00  0.00     0.037 A 
ATOM     53  C   UNL     1     -16.032   1.365   2.265  1.00  0.00     0.037 A 
ATOM     54  C   UNL     1     -14.867   2.698   8.545  1.00  0.00     0.049 A 
ATOM     55  C   UNL     1     -16.454   2.485   3.183  1.00  0.00     0.074 A 
ATOM     56  C   UNL     1     -15.235   3.824   9.260  1.00  0.00     0.029 A 
ATOM     57  N   UNL     1     -15.385   2.851   7.266  1.00  0.00    -0.354 N 
ATOM     58  N   UNL     1     -16.152   2.685   4.444  1.00  0.00    -0.248 NA
ATOM     59  C   UNL     1     -17.325   3.521   2.608  1.00  0.00     0.031 C 
ATOM     60  C   UNL     1     -16.029   4.627   8.435  1.00  0.00     0.029 A 
ATOM     61  C   UNL     1     -16.097   4.037   7.183  1.00  0.00     0.049 A 
ATOM     62  H   UNL     1     -15.264   2.211   6.528  1.00  0.00     0.167 HD
ATOM     63  C   UNL     1     -16.765   3.880   4.801  1.00  0.00     0.074 A 
ATOM     64  C   UNL     1     -17.446   4.368   3.620  1.00  0.00     0.031 C 
ATOM     65  C   UNL     1     -16.763   4.517   5.998  1.00  0.00     0.037 A 
BRANCH  52  66
ATOM     66  C   UNL     1     -13.678   1.512  10.430  1.00  0.00     0.064 A 
ATOM     67  C   UNL     1     -12.330   1.627  10.803  1.00  0.00     0.173 A 
ATOM     68  C   UNL     1     -14.632   1.384  11.451  1.00  0.00     0.173 A 
ATOM     69  F   UNL     1     -11.376   1.738   9.867  1.00  0.00    -0.203 F 
ATOM     70  C   UNL     1     -11.952   1.586  12.143  1.00  0.00     0.198 A 
ATOM     71  C   UNL     1     -14.253   1.377  12.791  1.00  0.00     0.198 A 
ATOM     72  F   UNL     1     -15.935   1.274  11.150  1.00  0.00    -0.203 F 
ATOM     73  F   UNL     1     -10.654   1.646  12.474  1.00  0.00    -0.200 F 
ATOM     74  C   UNL     1     -12.914   1.470  13.136  1.00  0.00     0.200 A 
ATOM     75  F   UNL     1     -15.186   1.280  13.748  1.00  0.00    -0.200 F 
ATOM     76  F   UNL     1     -12.549   1.440  14.425  1.00  0.00    -0.200 F 
ENDBRANCH  52  66
BRANCH  53  77
ATOM     77  C   UNL     1     -16.487   1.335   0.850  1.00  0.00     0.064 A 
ATOM     78  C   UNL     1     -16.056   2.300  -0.071  1.00  0.00     0.173 A 
ATOM     79  C   UNL     1     -17.385   0.358   0.395  1.00  0.00     0.173 A 
ATOM     80  F   UNL     1     -15.220   3.273   0.322  1.00  0.00    -0.203 F 
ATOM     81  C   UNL     1     -16.522   2.303  -1.384  1.00  0.00     0.198 A 
ATOM     82  C   UNL     1     -17.825   0.342  -0.927  1.00  0.00     0.198 A 
ATOM     83  F   UNL     1     -17.834  -0.586   1.236  1.00  0.00    -0.203 F 
ATOM     84  F   UNL     1     -16.137   3.271  -2.227  1.00  0.00    -0.200 F 
ATOM     85  C   UNL     1     -17.401   1.320  -1.813  1.00  0.00     0.200 A 
ATOM     86  F   UNL     1     -18.667  -0.616  -1.339  1.00  0.00    -0.200 F 
ATOM     87  F   UNL     1     -17.849   1.323  -3.076  1.00  0.00    -0.200 F 
ENDBRANCH  53  77
BRANCH  65  88
ATOM     88  C   UNL     1     -17.480   5.837   6.085  1.00  0.00     0.064 A 
ATOM     89  C   UNL     1     -18.879   5.926   6.027  1.00  0.00     0.173 A 
ATOM     90  C   UNL     1     -16.756   7.025   6.273  1.00  0.00     0.173 A 
ATOM     91  F   UNL     1     -19.619   4.824   5.837  1.00  0.00    -0.203 F 
ATOM     92  C   UNL     1     -19.523   7.158   6.122  1.00  0.00     0.198 A 
ATOM     93  C   UNL     1     -17.404   8.250   6.403  1.00  0.00     0.198 A 
ATOM     94  F   UNL     1     -15.416   6.997   6.345  1.00  0.00    -0.203 F 
ATOM     95  F   UNL     1     -20.857   7.225   6.010  1.00  0.00    -0.200 F 
ATOM     96  C   UNL     1     -18.786   8.317   6.319  1.00  0.00     0.200 A 
ATOM     97  F   UNL     1     -16.691   9.365   6.612  1.00  0.00    -0.200 F 
ATOM     98  F   UNL     1     -19.408   9.499   6.420  1.00  0.00    -0.200 F 
ENDBRANCH  65  88
ENDBRANCH  39  40
ENDBRANCH  32  34
ENDBRANCH  31  32
ENDBRANCH  30  31
ENDBRANCH  29  30
ENDBRANCH  28  29
ENDBRANCH  27  28
ENDBRANCH   1  27
TORSDOF 20
