REMARK SMILES CC(C)[NH2+][C@]1(C(=O)OCCOCCOCCOC(=O)c2ccc(-c3c4nc(c(-c5c(F)c(F)c(F)c(F)c5F)c5ccc([nH]5)c(-c5c(F)c(F)c(F)c(F)c5F)c5nc(c(-c6c(F)c(F)c(F)c(F)c6F)c6ccc3[nH]6)C=C5)C=C4)cc2)CC[C@H](Oc2cccc(CO)c2)C1
REMARK SMILES IDX 12 1 11 2 10 3 9 4 8 5 6 6 7 7 5 8 83 9 95 10 84 11 85 12
REMARK SMILES IDX 4 13 2 16 1 17 3 18 86 19 87 20 88 21 94 22 89 23 91 24
REMARK SMILES IDX 90 25 92 26 93 27 13 29 14 30 15 31 16 32 17 33 18 34 19 35
REMARK SMILES IDX 20 36 21 37 82 38 22 39 81 40 23 41 24 42 25 43 75 44 26 45
REMARK SMILES IDX 80 46 74 47 76 48 27 49 79 50 73 51 72 52 28 54 60 55 40 56
REMARK SMILES IDX 59 57 41 58 44 59 58 60 77 61 42 62 43 63 57 65 78 66 45 67
REMARK SMILES IDX 29 68 30 69 38 70 31 71 32 72 36 73 39 74 33 75 34 76 37 77
REMARK SMILES IDX 35 78 61 79 62 80 70 81 63 82 64 83 68 84 71 85 65 86 66 87
REMARK SMILES IDX 69 88 67 89 46 90 47 91 55 92 48 93 49 94 53 95 56 96 50 97
REMARK SMILES IDX 51 98 54 99 52 100
REMARK H PARENT 4 14 4 15 93 28 76 53 44 64
REMARK Flexibility Score: inf
ROOT
ATOM      1  C   UNL     1      -0.548  -0.011  -1.176  1.00  0.00     0.188 C 
ENDROOT
BRANCH   1   2
ATOM      2  O   UNL     1       0.858   0.077  -1.375  1.00  0.00    -0.376 OA
BRANCH   2   3
ATOM      3  C   UNL     1       1.682  -0.220  -0.253  1.00  0.00     0.202 C 
BRANCH   3   4
ATOM      4  C   UNL     1       1.748   0.821   0.877  1.00  0.00     0.261 C 
BRANCH   4   5
ATOM      5  O   UNL     1       0.541   1.548   1.139  1.00  0.00    -0.459 OA
BRANCH   5   6
ATOM      6  C   UNL     1       0.314   2.589   0.295  1.00  0.00     0.368 C 
ATOM      7  O   UNL     1       1.079   2.894  -0.620  1.00  0.00    -0.245 OA
BRANCH   6   8
ATOM      8  C   UNL     1      -0.985   3.383   0.563  1.00  0.00     0.198 C 
ATOM      9  C   UNL     1      -0.448   4.810   0.830  1.00  0.00     0.085 C 
ATOM     10  C   UNL     1      -1.828   3.587  -0.720  1.00  0.00     0.126 C 
ATOM     11  C   UNL     1      -1.561   5.740   0.425  1.00  0.00     0.052 C 
ATOM     12  C   UNL     1      -2.218   5.077  -0.789  1.00  0.00     0.180 C 
BRANCH   8  13
ATOM     13  N   UNL     1      -1.816   3.022   1.743  1.00  0.00    -0.330 N 
ATOM     14  H   UNL     1      -1.255   3.247   2.565  1.00  0.00     0.347 HD
ATOM     15  H   UNL     1      -2.673   3.546   1.567  1.00  0.00     0.347 HD
BRANCH  13  16
ATOM     16  C   UNL     1      -2.325   1.663   1.954  1.00  0.00     0.176 C 
ATOM     17  C   UNL     1      -2.784   1.612   3.421  1.00  0.00     0.075 C 
ATOM     18  C   UNL     1      -3.511   1.255   1.076  1.00  0.00     0.075 C 
ENDBRANCH  13  16
ENDBRANCH   8  13
BRANCH  12  19
ATOM     19  O   UNL     1      -3.649   5.200  -0.766  1.00  0.00    -0.490 OA
BRANCH  19  20
ATOM     20  C   UNL     1      -4.148   6.475  -0.666  1.00  0.00     0.120 A 
ATOM     21  C   UNL     1      -3.477   7.628  -1.078  1.00  0.00     0.046 A 
ATOM     22  C   UNL     1      -5.403   6.590  -0.062  1.00  0.00     0.052 A 
ATOM     23  C   UNL     1      -4.003   8.887  -0.793  1.00  0.00     0.004 A 
ATOM     24  C   UNL     1      -5.958   7.852   0.197  1.00  0.00    -0.019 A 
ATOM     25  C   UNL     1      -5.231   8.999  -0.146  1.00  0.00     0.006 A 
BRANCH  24  26
ATOM     26  C   UNL     1      -7.301   7.991   0.862  1.00  0.00     0.191 C 
BRANCH  26  27
ATOM     27  O   UNL     1      -7.157   8.466   2.194  1.00  0.00    -0.392 OA
ATOM     28  H   UNL     1      -6.626   7.835   2.706  1.00  0.00     0.211 HD
ENDBRANCH  26  27
ENDBRANCH  24  26
ENDBRANCH  19  20
ENDBRANCH  12  19
ENDBRANCH   6   8
ENDBRANCH   5   6
ENDBRANCH   4   5
ENDBRANCH   3   4
ENDBRANCH   2   3
ENDBRANCH   1   2
BRANCH   1  29
ATOM     29  C   UNL     1      -1.066  -1.374  -0.764  1.00  0.00     0.188 C 
BRANCH  29  30
ATOM     30  O   UNL     1      -0.620  -1.834   0.506  1.00  0.00    -0.376 OA
BRANCH  30  31
ATOM     31  C   UNL     1      -1.281  -3.024   0.955  1.00  0.00     0.202 C 
BRANCH  31  32
ATOM     32  C   UNL     1      -1.228  -4.243   0.005  1.00  0.00     0.261 C 
BRANCH  32  33
ATOM     33  O   UNL     1      -1.760  -4.045  -1.328  1.00  0.00    -0.460 OA
BRANCH  33  34
ATOM     34  C   UNL     1      -3.030  -3.591  -1.452  1.00  0.00     0.338 C 
ATOM     35  O   UNL     1      -3.860  -3.523  -0.560  1.00  0.00    -0.246 OA
BRANCH  34  36
ATOM     36  C   UNL     1      -3.179  -2.919  -2.780  1.00  0.00     0.060 A 
ATOM     37  C   UNL     1      -3.929  -1.734  -2.848  1.00  0.00     0.016 A 
ATOM     38  C   UNL     1      -2.540  -3.388  -3.933  1.00  0.00     0.016 A 
ATOM     39  C   UNL     1      -4.075  -1.046  -4.060  1.00  0.00     0.010 A 
ATOM     40  C   UNL     1      -2.700  -2.708  -5.151  1.00  0.00     0.010 A 
ATOM     41  C   UNL     1      -3.494  -1.548  -5.231  1.00  0.00    -0.014 A 
BRANCH  41  42
ATOM     42  C   UNL     1      -3.866  -0.980  -6.558  1.00  0.00     0.031 A 
ATOM     43  C   UNL     1      -4.954  -1.661  -7.349  1.00  0.00     0.074 A 
ATOM     44  C   UNL     1      -3.282   0.123  -7.063  1.00  0.00     0.049 A 
ATOM     45  N   UNL     1      -5.416  -1.388  -8.545  1.00  0.00    -0.248 NA
ATOM     46  C   UNL     1      -5.610  -2.806  -6.699  1.00  0.00     0.031 C 
ATOM     47  C   UNL     1      -2.252   0.917  -6.401  1.00  0.00     0.029 A 
ATOM     48  N   UNL     1      -3.475   0.760  -8.269  1.00  0.00    -0.354 N 
ATOM     49  C   UNL     1      -6.409  -2.327  -8.789  1.00  0.00     0.074 A 
ATOM     50  C   UNL     1      -6.467  -3.193  -7.631  1.00  0.00     0.031 C 
ATOM     51  C   UNL     1      -1.891   1.927  -7.214  1.00  0.00     0.029 A 
ATOM     52  C   UNL     1      -2.640   1.833  -8.468  1.00  0.00     0.049 A 
ATOM     53  H   UNL     1      -4.149   0.473  -8.927  1.00  0.00     0.167 HD
ATOM     54  C   UNL     1      -7.209  -2.457  -9.874  1.00  0.00     0.037 A 
ATOM     55  C   UNL     1      -2.480   2.630  -9.546  1.00  0.00     0.037 A 
ATOM     56  C   UNL     1      -7.165  -1.605 -11.034  1.00  0.00     0.049 A 
ATOM     57  C   UNL     1      -3.322   2.410 -10.781  1.00  0.00     0.074 A 
ATOM     58  C   UNL     1      -7.955  -1.655 -12.169  1.00  0.00     0.029 A 
ATOM     59  N   UNL     1      -6.276  -0.557 -11.212  1.00  0.00    -0.354 N 
ATOM     60  N   UNL     1      -4.277   1.537 -10.992  1.00  0.00    -0.248 NA
ATOM     61  C   UNL     1      -3.060   3.291 -11.931  1.00  0.00     0.031 C 
ATOM     62  C   UNL     1      -7.508  -0.673 -13.059  1.00  0.00     0.029 A 
ATOM     63  C   UNL     1      -6.477   0.026 -12.454  1.00  0.00     0.049 A 
ATOM     64  H   UNL     1      -5.601  -0.270 -10.555  1.00  0.00     0.167 HD
ATOM     65  C   UNL     1      -4.745   1.782 -12.278  1.00  0.00     0.074 A 
ATOM     66  C   UNL     1      -3.981   2.895 -12.798  1.00  0.00     0.031 C 
ATOM     67  C   UNL     1      -5.722   1.140 -12.966  1.00  0.00     0.037 A 
BRANCH  54  68
ATOM     68  C   UNL     1      -8.195  -3.588  -9.875  1.00  0.00     0.064 A 
ATOM     69  C   UNL     1      -9.338  -3.570  -9.062  1.00  0.00     0.173 A 
ATOM     70  C   UNL     1      -8.015  -4.682 -10.735  1.00  0.00     0.173 A 
ATOM     71  F   UNL     1      -9.546  -2.553  -8.212  1.00  0.00    -0.203 F 
ATOM     72  C   UNL     1     -10.254  -4.618  -9.094  1.00  0.00     0.198 A 
ATOM     73  C   UNL     1      -8.948  -5.713 -10.785  1.00  0.00     0.198 A 
ATOM     74  F   UNL     1      -6.941  -4.743 -11.536  1.00  0.00    -0.203 F 
ATOM     75  F   UNL     1     -11.316  -4.602  -8.278  1.00  0.00    -0.200 F 
ATOM     76  C   UNL     1     -10.062  -5.684  -9.961  1.00  0.00     0.200 A 
ATOM     77  F   UNL     1      -8.768  -6.736 -11.633  1.00  0.00    -0.200 F 
ATOM     78  F   UNL     1     -10.950  -6.687  -9.998  1.00  0.00    -0.200 F 
ENDBRANCH  54  68
BRANCH  55  79
ATOM     79  C   UNL     1      -1.452   3.707  -9.534  1.00  0.00     0.064 A 
ATOM     80  C   UNL     1      -1.816   5.061  -9.574  1.00  0.00     0.173 A 
ATOM     81  C   UNL     1      -0.083   3.402  -9.541  1.00  0.00     0.173 A 
ATOM     82  F   UNL     1      -3.112   5.404  -9.610  1.00  0.00    -0.203 F 
ATOM     83  C   UNL     1      -0.852   6.065  -9.642  1.00  0.00     0.198 A 
ATOM     84  C   UNL     1       0.881   4.408  -9.578  1.00  0.00     0.198 A 
ATOM     85  F   UNL     1       0.320   2.123  -9.520  1.00  0.00    -0.203 F 
ATOM     86  F   UNL     1      -1.229   7.347  -9.740  1.00  0.00    -0.200 F 
ATOM     87  C   UNL     1       0.495   5.738  -9.637  1.00  0.00     0.200 A 
ATOM     88  F   UNL     1       2.182   4.087  -9.571  1.00  0.00    -0.200 F 
ATOM     89  F   UNL     1       1.422   6.704  -9.707  1.00  0.00    -0.200 F 
ENDBRANCH  55  79
BRANCH  67  90
ATOM     90  C   UNL     1      -6.055   1.641 -14.344  1.00  0.00     0.064 A 
ATOM     91  C   UNL     1      -5.185   1.453 -15.429  1.00  0.00     0.173 A 
ATOM     92  C   UNL     1      -7.282   2.275 -14.593  1.00  0.00     0.173 A 
ATOM     93  F   UNL     1      -3.994   0.863 -15.245  1.00  0.00    -0.203 F 
ATOM     94  C   UNL     1      -5.521   1.902 -16.704  1.00  0.00     0.198 A 
ATOM     95  C   UNL     1      -7.628   2.696 -15.874  1.00  0.00     0.198 A 
ATOM     96  F   UNL     1      -8.156   2.473 -13.594  1.00  0.00    -0.203 F 
ATOM     97  F   UNL     1      -4.655   1.751 -17.716  1.00  0.00    -0.200 F 
ATOM     98  C   UNL     1      -6.745   2.516 -16.927  1.00  0.00     0.200 A 
ATOM     99  F   UNL     1      -8.818   3.275 -16.091  1.00  0.00    -0.200 F 
ATOM    100  F   UNL     1      -7.070   2.939 -18.157  1.00  0.00    -0.200 F 
ENDBRANCH  67  90
ENDBRANCH  41  42
ENDBRANCH  34  36
ENDBRANCH  33  34
ENDBRANCH  32  33
ENDBRANCH  31  32
ENDBRANCH  30  31
ENDBRANCH  29  30
ENDBRANCH   1  29
TORSDOF 23
