REMARK SMILES C[N@H+]1CCO[C@H](c2noc(-c3ccccc3C(=O)OCCOCCOCCOC(=O)c3ccc(-c4c5nc(c(-c6c(F)c(F)c(F)c(F)c6F)c6ccc([nH]6)c(-c6c(F)c(F)c(F)c(F)c6F)c6nc(c(-c7c(F)c(F)c(F)c(F)c7F)c7ccc4[nH]7)C=C6)C=C5)cc3)n2)C1
REMARK SMILES IDX 23 1 22 2 21 3 20 4 19 5 17 6 18 7 16 8 11 9 12 10 13 11
REMARK SMILES IDX 15 12 14 13 10 14 7 15 8 16 94 17 9 18 6 19 1 20 2 21 3 22
REMARK SMILES IDX 95 23 4 25 5 26 24 27 25 28 26 29 27 30 28 31 29 32 30 33
REMARK SMILES IDX 31 34 32 35 93 36 33 37 92 38 34 39 35 40 36 41 86 42 37 43
REMARK SMILES IDX 91 44 85 45 87 46 38 47 90 48 84 49 83 50 39 52 71 53 51 54
REMARK SMILES IDX 70 55 52 56 55 57 69 58 88 59 53 60 54 61 68 63 89 64 56 65
REMARK SMILES IDX 40 66 41 67 49 68 42 69 43 70 47 71 50 72 44 73 45 74 48 75
REMARK SMILES IDX 46 76 72 77 73 78 81 79 74 80 75 81 79 82 82 83 76 84 77 85
REMARK SMILES IDX 80 86 78 87 57 88 58 89 66 90 59 91 60 92 64 93 67 94 61 95
REMARK SMILES IDX 62 96 65 97 63 98
REMARK H PARENT 2 24 87 51 55 62
REMARK Flexibility Score: inf
ROOT
ATOM      1  C   UNL     1      -5.302  -0.230   5.443  1.00  0.00     0.188 C 
ENDROOT
BRANCH   1   2
ATOM      2  O   UNL     1      -4.346   0.784   5.698  1.00  0.00    -0.376 OA
BRANCH   2   3
ATOM      3  C   UNL     1      -3.117   0.772   4.985  1.00  0.00     0.202 C 
BRANCH   3   4
ATOM      4  C   UNL     1      -2.407  -0.544   4.641  1.00  0.00     0.261 C 
BRANCH   4   5
ATOM      5  O   UNL     1      -3.271  -1.563   4.126  1.00  0.00    -0.460 OA
BRANCH   5   6
ATOM      6  C   UNL     1      -3.190  -2.784   4.707  1.00  0.00     0.339 C 
ATOM      7  O   UNL     1      -2.463  -3.100   5.635  1.00  0.00    -0.246 OA
BRANCH   6   8
ATOM      8  C   UNL     1      -4.305  -3.654   4.245  1.00  0.00     0.072 A 
ATOM      9  C   UNL     1      -4.612  -3.918   2.896  1.00  0.00     0.054 A 
ATOM     10  C   UNL     1      -5.702  -4.767   2.617  1.00  0.00     0.015 A 
ATOM     11  C   UNL     1      -6.493  -5.294   3.642  1.00  0.00     0.001 A 
ATOM     12  C   UNL     1      -5.114  -4.181   5.271  1.00  0.00     0.016 A 
ATOM     13  C   UNL     1      -6.212  -4.984   4.968  1.00  0.00     0.001 A 
BRANCH   9  14
ATOM     14  C   UNL     1      -3.889  -3.284   1.804  1.00  0.00     0.258 A 
ATOM     15  C   UNL     1      -2.735  -1.966   0.668  1.00  0.00     0.206 A 
ATOM     16  N   UNL     1      -3.812  -2.160  -0.108  1.00  0.00    -0.059 NA
ATOM     17  N   UNL     1      -2.690  -2.757   1.790  1.00  0.00    -0.189 NA
ATOM     18  O   UNL     1      -4.597  -3.027   0.660  1.00  0.00    -0.334 OA
BRANCH  15  19
ATOM     19  C   UNL     1      -1.737  -0.874   0.427  1.00  0.00     0.245 C 
ATOM     20  C   UNL     1       1.268  -0.054  -0.197  1.00  0.00     0.332 C 
ATOM     21  N   UNL     1       0.608  -0.098   1.104  1.00  0.00    -0.333 N 
ATOM     22  C   UNL     1      -0.025   1.191   1.450  1.00  0.00     0.290 C 
ATOM     23  C   UNL     1      -0.412  -1.168   1.177  1.00  0.00     0.303 C 
ATOM     24  H   UNL     1       1.347  -0.298   1.778  1.00  0.00     0.348 HD
ATOM     25  C   UNL     1      -1.339   1.459   0.693  1.00  0.00     0.222 C 
ATOM     26  O   UNL     1      -2.275   0.397   0.873  1.00  0.00    -0.358 OA
ENDBRANCH  15  19
ENDBRANCH   9  14
ENDBRANCH   6   8
ENDBRANCH   5   6
ENDBRANCH   4   5
ENDBRANCH   3   4
ENDBRANCH   2   3
ENDBRANCH   1   2
BRANCH   1  27
ATOM     27  C   UNL     1      -5.891  -0.399   4.025  1.00  0.00     0.188 C 
BRANCH  27  28
ATOM     28  O   UNL     1      -5.279   0.296   2.970  1.00  0.00    -0.376 OA
BRANCH  28  29
ATOM     29  C   UNL     1      -5.561   1.667   2.749  1.00  0.00     0.202 C 
BRANCH  29  30
ATOM     30  C   UNL     1      -6.602   2.512   3.515  1.00  0.00     0.261 C 
BRANCH  30  31
ATOM     31  O   UNL     1      -7.145   1.990   4.733  1.00  0.00    -0.460 OA
BRANCH  31  32
ATOM     32  C   UNL     1      -8.427   1.542   4.673  1.00  0.00     0.338 C 
ATOM     33  O   UNL     1      -9.162   1.514   3.708  1.00  0.00    -0.246 OA
BRANCH  32  34
ATOM     34  C   UNL     1      -8.749   0.904   5.967  1.00  0.00     0.060 A 
ATOM     35  C   UNL     1      -8.847  -0.493   6.036  1.00  0.00     0.016 A 
ATOM     36  C   UNL     1      -8.933   1.684   7.108  1.00  0.00     0.016 A 
ATOM     37  C   UNL     1      -9.093  -1.119   7.260  1.00  0.00     0.010 A 
ATOM     38  C   UNL     1      -9.216   1.058   8.325  1.00  0.00     0.010 A 
ATOM     39  C   UNL     1      -9.296  -0.345   8.409  1.00  0.00    -0.014 A 
BRANCH  39  40
ATOM     40  C   UNL     1      -9.687  -0.977   9.692  1.00  0.00     0.031 A 
ATOM     41  C   UNL     1     -11.135  -0.986  10.087  1.00  0.00     0.074 A 
ATOM     42  C   UNL     1      -8.760  -1.505  10.512  1.00  0.00     0.049 A 
ATOM     43  N   UNL     1     -11.686  -1.331  11.222  1.00  0.00    -0.248 NA
ATOM     44  C   UNL     1     -12.093  -0.543   9.061  1.00  0.00     0.031 C 
ATOM     45  C   UNL     1      -7.331  -1.603  10.221  1.00  0.00     0.029 A 
ATOM     46  N   UNL     1      -8.883  -2.031  11.776  1.00  0.00    -0.354 N 
ATOM     47  C   UNL     1     -13.051  -1.145  11.050  1.00  0.00     0.074 A 
ATOM     48  C   UNL     1     -13.245  -0.634   9.710  1.00  0.00     0.031 C 
ATOM     49  C   UNL     1      -6.704  -2.122  11.291  1.00  0.00     0.029 A 
ATOM     50  C   UNL     1      -7.678  -2.347  12.357  1.00  0.00     0.049 A 
ATOM     51  H   UNL     1      -9.750  -2.169  12.222  1.00  0.00     0.167 HD
ATOM     52  C   UNL     1     -14.050  -1.386  11.931  1.00  0.00     0.037 A 
ATOM     53  C   UNL     1      -7.393  -2.722  13.621  1.00  0.00     0.037 A 
ATOM     54  C   UNL     1     -13.851  -1.881  13.269  1.00  0.00     0.049 A 
ATOM     55  C   UNL     1      -8.517  -2.868  14.620  1.00  0.00     0.074 A 
ATOM     56  C   UNL     1     -14.802  -2.159  14.235  1.00  0.00     0.029 A 
ATOM     57  N   UNL     1     -12.615  -2.160  13.832  1.00  0.00    -0.354 N 
ATOM     58  N   UNL     1      -9.807  -2.715  14.448  1.00  0.00    -0.248 NA
ATOM     59  C   UNL     1      -8.141  -3.232  15.996  1.00  0.00     0.031 C 
ATOM     60  C   UNL     1     -14.139  -2.553  15.401  1.00  0.00     0.029 A 
ATOM     61  C   UNL     1     -12.778  -2.576  15.143  1.00  0.00     0.049 A 
ATOM     62  H   UNL     1     -11.751  -2.076  13.368  1.00  0.00     0.167 HD
ATOM     63  C   UNL     1     -10.394  -2.984  15.678  1.00  0.00     0.074 A 
ATOM     64  C   UNL     1      -9.323  -3.337  16.584  1.00  0.00     0.031 C 
ATOM     65  C   UNL     1     -11.702  -2.935  16.031  1.00  0.00     0.037 A 
BRANCH  52  66
ATOM     66  C   UNL     1     -15.455  -1.104  11.490  1.00  0.00     0.064 A 
ATOM     67  C   UNL     1     -16.106  -1.919  10.552  1.00  0.00     0.173 A 
ATOM     68  C   UNL     1     -16.184  -0.050  12.063  1.00  0.00     0.173 A 
ATOM     69  F   UNL     1     -15.450  -2.931   9.966  1.00  0.00    -0.203 F 
ATOM     70  C   UNL     1     -17.431  -1.682  10.197  1.00  0.00     0.198 A 
ATOM     71  C   UNL     1     -17.517   0.165  11.727  1.00  0.00     0.198 A 
ATOM     72  F   UNL     1     -15.609   0.755  12.969  1.00  0.00    -0.203 F 
ATOM     73  F   UNL     1     -18.024  -2.454   9.275  1.00  0.00    -0.200 F 
ATOM     74  C   UNL     1     -18.139  -0.648  10.791  1.00  0.00     0.200 A 
ATOM     75  F   UNL     1     -18.203   1.155  12.315  1.00  0.00    -0.200 F 
ATOM     76  F   UNL     1     -19.420  -0.434  10.462  1.00  0.00    -0.200 F 
ENDBRANCH  52  66
BRANCH  53  77
ATOM     77  C   UNL     1      -5.981  -2.930  14.047  1.00  0.00     0.064 A 
ATOM     78  C   UNL     1      -5.529  -4.188  14.470  1.00  0.00     0.173 A 
ATOM     79  C   UNL     1      -5.074  -1.861  14.106  1.00  0.00     0.173 A 
ATOM     80  F   UNL     1      -6.365  -5.237  14.464  1.00  0.00    -0.203 F 
ATOM     81  C   UNL     1      -4.238  -4.360  14.969  1.00  0.00     0.198 A 
ATOM     82  C   UNL     1      -3.772  -2.042  14.568  1.00  0.00     0.198 A 
ATOM     83  F   UNL     1      -5.455  -0.634  13.722  1.00  0.00    -0.203 F 
ATOM     84  F   UNL     1      -3.858  -5.557  15.437  1.00  0.00    -0.200 F 
ATOM     85  C   UNL     1      -3.360  -3.288  15.013  1.00  0.00     0.200 A 
ATOM     86  F   UNL     1      -2.925  -1.005  14.601  1.00  0.00    -0.200 F 
ATOM     87  F   UNL     1      -2.123  -3.453  15.502  1.00  0.00    -0.200 F 
ENDBRANCH  53  77
BRANCH  65  88
ATOM     88  C   UNL     1     -12.057  -3.294  17.447  1.00  0.00     0.064 A 
ATOM     89  C   UNL     1     -11.742  -2.447  18.520  1.00  0.00     0.173 A 
ATOM     90  C   UNL     1     -12.773  -4.468  17.727  1.00  0.00     0.173 A 
ATOM     91  F   UNL     1     -11.046  -1.319  18.308  1.00  0.00    -0.203 F 
ATOM     92  C   UNL     1     -12.112  -2.772  19.822  1.00  0.00     0.198 A 
ATOM     93  C   UNL     1     -13.170  -4.773  19.026  1.00  0.00     0.198 A 
ATOM     94  F   UNL     1     -13.107  -5.310  16.738  1.00  0.00    -0.203 F 
ATOM     95  F   UNL     1     -11.762  -1.969  20.836  1.00  0.00    -0.200 F 
ATOM     96  C   UNL     1     -12.834  -3.929  20.073  1.00  0.00     0.200 A 
ATOM     97  F   UNL     1     -13.884  -5.883  19.264  1.00  0.00    -0.200 F 
ATOM     98  F   UNL     1     -13.203  -4.232  21.325  1.00  0.00    -0.200 F 
ENDBRANCH  65  88
ENDBRANCH  39  40
ENDBRANCH  32  34
ENDBRANCH  31  32
ENDBRANCH  30  31
ENDBRANCH  29  30
ENDBRANCH  28  29
ENDBRANCH  27  28
ENDBRANCH   1  27
TORSDOF 19
