REMARK SMILES Cc1cc(CNc2ccc(C(=O)OCCOCCOCCOC(=O)c3ccc(-c4c5nc(c(-c6c(F)c(F)c(F)c(F)c6F)c6ccc([nH]6)c(-c6c(F)c(F)c(F)c(F)c6F)c6nc(c(-c7c(F)c(F)c(F)c(F)c7F)c7ccc4[nH]7)C=C6)C=C5)cc3)c(F)c2F)sc1C
REMARK SMILES IDX 17 1 16 2 15 3 14 4 13 5 11 6 12 7 10 8 7 9 8 10 90 11 9 12
REMARK SMILES IDX 88 13 91 14 89 15 6 16 5 18 4 19 1 20 2 21 3 22 93 23 92 24
REMARK SMILES IDX 94 25 18 26 19 27 20 28 21 29 22 30 23 31 24 32 25 33 26 34
REMARK SMILES IDX 87 35 27 36 86 37 28 38 29 39 30 40 80 41 31 42 85 43 79 44
REMARK SMILES IDX 81 45 32 46 84 47 78 48 77 49 33 51 65 52 45 53 64 54 46 55
REMARK SMILES IDX 49 56 63 57 82 58 47 59 48 60 62 62 83 63 50 64 34 65 35 66
REMARK SMILES IDX 43 67 36 68 37 69 41 70 44 71 38 72 39 73 42 74 40 75 66 76
REMARK SMILES IDX 67 77 75 78 68 79 69 80 73 81 76 82 70 83 71 84 74 85 72 86
REMARK SMILES IDX 51 87 52 88 60 89 53 90 54 91 58 92 61 93 55 94 56 95 59 96
REMARK SMILES IDX 57 97
REMARK H PARENT 6 17 81 50 49 61
REMARK Flexibility Score: inf
ROOT
ATOM      1  C   UNL     1       0.206  -9.717  -1.176  1.00  0.00     0.188 C 
ENDROOT
BRANCH   1   2
ATOM      2  O   UNL     1       0.055 -11.097  -0.899  1.00  0.00    -0.376 OA
BRANCH   2   3
ATOM      3  C   UNL     1      -0.281 -11.519   0.414  1.00  0.00     0.202 C 
BRANCH   3   4
ATOM      4  C   UNL     1       0.526 -11.016   1.613  1.00  0.00     0.261 C 
BRANCH   4   5
ATOM      5  O   UNL     1       0.579  -9.585   1.702  1.00  0.00    -0.460 OA
BRANCH   5   6
ATOM      6  C   UNL     1       1.821  -9.051   1.736  1.00  0.00     0.341 C 
ATOM      7  O   UNL     1       2.885  -9.652   1.707  1.00  0.00    -0.246 OA
BRANCH   6   8
ATOM      8  C   UNL     1       1.754  -7.591   1.595  1.00  0.00     0.099 A 
ATOM      9  C   UNL     1       1.769  -4.788   1.307  1.00  0.00     0.074 A 
ATOM     10  C   UNL     1       2.552  -5.589   0.472  1.00  0.00     0.030 A 
ATOM     11  C   UNL     1       0.959  -5.433   2.264  1.00  0.00     0.182 A 
ATOM     12  C   UNL     1       2.560  -6.980   0.624  1.00  0.00     0.021 A 
ATOM     13  C   UNL     1       0.939  -6.817   2.405  1.00  0.00     0.175 A 
ATOM     14  F   UNL     1       0.177  -4.684   3.060  1.00  0.00    -0.201 F 
ATOM     15  F   UNL     1       0.153  -7.376   3.336  1.00  0.00    -0.203 F 
BRANCH   9  16
ATOM     16  N   UNL     1       1.745  -3.412   1.229  1.00  0.00    -0.378 N 
ATOM     17  H   UNL     1       1.541  -2.925   2.060  1.00  0.00     0.161 HD
BRANCH  16  18
ATOM     18  C   UNL     1       1.990  -2.607   0.043  1.00  0.00     0.160 C 
BRANCH  18  19
ATOM     19  C   UNL     1       0.962  -1.515  -0.070  1.00  0.00     0.024 A 
ATOM     20  C   UNL     1      -2.606  -0.343  -0.046  1.00  0.00     0.045 C 
ATOM     21  C   UNL     1      -1.116  -0.426  -0.083  1.00  0.00    -0.037 A 
ATOM     22  C   UNL     1      -0.409  -1.669  -0.097  1.00  0.00     0.021 A 
ATOM     23  C   UNL     1      -0.233   0.643  -0.086  1.00  0.00     0.005 A 
ATOM     24  S   UNL     1       1.402   0.131  -0.107  1.00  0.00    -0.144 S 
ATOM     25  C   UNL     1      -0.551   2.103  -0.059  1.00  0.00     0.056 C 
ENDBRANCH  18  19
ENDBRANCH  16  18
ENDBRANCH   9  16
ENDBRANCH   6   8
ENDBRANCH   5   6
ENDBRANCH   4   5
ENDBRANCH   3   4
ENDBRANCH   2   3
ENDBRANCH   1   2
BRANCH   1  26
ATOM     26  C   UNL     1      -0.902  -8.705  -0.814  1.00  0.00     0.188 C 
BRANCH  26  27
ATOM     27  O   UNL     1      -2.123  -9.124  -0.249  1.00  0.00    -0.376 OA
BRANCH  27  28
ATOM     28  C   UNL     1      -3.024  -9.961  -0.952  1.00  0.00     0.202 C 
BRANCH  28  29
ATOM     29  C   UNL     1      -3.203  -9.948  -2.475  1.00  0.00     0.261 C 
BRANCH  29  30
ATOM     30  O   UNL     1      -2.029  -9.709  -3.253  1.00  0.00    -0.460 OA
BRANCH  30  31
ATOM     31  C   UNL     1      -2.024  -8.530  -3.921  1.00  0.00     0.338 C 
ATOM     32  O   UNL     1      -2.873  -7.657  -3.908  1.00  0.00    -0.246 OA
BRANCH  31  33
ATOM     33  C   UNL     1      -0.722  -8.364  -4.583  1.00  0.00     0.060 A 
ATOM     34  C   UNL     1       0.099  -7.302  -4.183  1.00  0.00     0.016 A 
ATOM     35  C   UNL     1      -0.343  -9.212  -5.625  1.00  0.00     0.016 A 
ATOM     36  C   UNL     1       1.302  -7.070  -4.844  1.00  0.00     0.010 A 
ATOM     37  C   UNL     1       0.853  -8.965  -6.300  1.00  0.00     0.010 A 
ATOM     38  C   UNL     1       1.666  -7.878  -5.929  1.00  0.00    -0.014 A 
BRANCH  38  39
ATOM     39  C   UNL     1       2.814  -7.497  -6.781  1.00  0.00     0.031 A 
ATOM     40  C   UNL     1       2.552  -6.720  -8.039  1.00  0.00     0.074 A 
ATOM     41  C   UNL     1       4.068  -7.839  -6.442  1.00  0.00     0.049 A 
ATOM     42  N   UNL     1       3.387  -6.344  -8.972  1.00  0.00    -0.248 NA
ATOM     43  C   UNL     1       1.157  -6.314  -8.276  1.00  0.00     0.031 C 
ATOM     44  C   UNL     1       4.447  -8.556  -5.228  1.00  0.00     0.029 A 
ATOM     45  N   UNL     1       5.253  -7.636  -7.103  1.00  0.00    -0.354 N 
ATOM     46  C   UNL     1       2.621  -5.666  -9.909  1.00  0.00     0.074 A 
ATOM     47  C   UNL     1       1.251  -5.701  -9.447  1.00  0.00     0.031 C 
ATOM     48  C   UNL     1       5.777  -8.749  -5.237  1.00  0.00     0.029 A 
ATOM     49  C   UNL     1       6.334  -8.199  -6.473  1.00  0.00     0.049 A 
ATOM     50  H   UNL     1       5.322  -7.135  -7.948  1.00  0.00     0.167 HD
ATOM     51  C   UNL     1       3.029  -5.064 -11.051  1.00  0.00     0.037 A 
ATOM     52  C   UNL     1       7.620  -8.284  -6.864  1.00  0.00     0.037 A 
ATOM     53  C   UNL     1       4.393  -5.035 -11.507  1.00  0.00     0.049 A 
ATOM     54  C   UNL     1       8.040  -7.671  -8.175  1.00  0.00     0.074 A 
ATOM     55  C   UNL     1       4.909  -4.428 -12.638  1.00  0.00     0.029 A 
ATOM     56  N   UNL     1       5.456  -5.647 -10.860  1.00  0.00    -0.354 N 
ATOM     57  N   UNL     1       7.316  -7.014  -9.049  1.00  0.00    -0.248 NA
ATOM     58  C   UNL     1       9.453  -7.814  -8.556  1.00  0.00     0.031 C 
ATOM     59  C   UNL     1       6.274  -4.720 -12.705  1.00  0.00     0.029 A 
ATOM     60  C   UNL     1       6.621  -5.459 -11.586  1.00  0.00     0.049 A 
ATOM     61  H   UNL     1       5.392  -6.142 -10.011  1.00  0.00     0.167 HD
ATOM     62  C   UNL     1       8.184  -6.649 -10.070  1.00  0.00     0.074 A 
ATOM     63  C   UNL     1       9.493  -7.148  -9.702  1.00  0.00     0.031 C 
ATOM     64  C   UNL     1       7.919  -5.963 -11.209  1.00  0.00     0.037 A 
BRANCH  51  65
ATOM     65  C   UNL     1       1.983  -4.408 -11.902  1.00  0.00     0.064 A 
ATOM     66  C   UNL     1       1.637  -4.957 -13.147  1.00  0.00     0.173 A 
ATOM     67  C   UNL     1       1.358  -3.215 -11.513  1.00  0.00     0.173 A 
ATOM     68  F   UNL     1       2.207  -6.096 -13.566  1.00  0.00    -0.203 F 
ATOM     69  C   UNL     1       0.712  -4.327 -13.974  1.00  0.00     0.198 A 
ATOM     70  C   UNL     1       0.412  -2.603 -12.331  1.00  0.00     0.198 A 
ATOM     71  F   UNL     1       1.643  -2.659 -10.325  1.00  0.00    -0.203 F 
ATOM     72  F   UNL     1       0.417  -4.855 -15.170  1.00  0.00    -0.200 F 
ATOM     73  C   UNL     1       0.096  -3.154 -13.564  1.00  0.00     0.200 A 
ATOM     74  F   UNL     1      -0.201  -1.484 -11.922  1.00  0.00    -0.200 F 
ATOM     75  F   UNL     1      -0.805  -2.557 -14.355  1.00  0.00    -0.200 F 
ENDBRANCH  51  65
BRANCH  52  76
ATOM     76  C   UNL     1       8.601  -8.984  -5.995  1.00  0.00     0.064 A 
ATOM     77  C   UNL     1       8.552 -10.374  -5.816  1.00  0.00     0.173 A 
ATOM     78  C   UNL     1       9.585  -8.270  -5.300  1.00  0.00     0.173 A 
ATOM     79  F   UNL     1       7.630 -11.102  -6.463  1.00  0.00    -0.203 F 
ATOM     80  C   UNL     1       9.433 -11.020  -4.952  1.00  0.00     0.198 A 
ATOM     81  C   UNL     1      10.483  -8.920  -4.455  1.00  0.00     0.198 A 
ATOM     82  F   UNL     1       9.688  -6.942  -5.460  1.00  0.00    -0.203 F 
ATOM     83  F   UNL     1       9.342 -12.345  -4.771  1.00  0.00    -0.200 F 
ATOM     84  C   UNL     1      10.399 -10.293  -4.274  1.00  0.00     0.200 A 
ATOM     85  F   UNL     1      11.431  -8.217  -3.821  1.00  0.00    -0.200 F 
ATOM     86  F   UNL     1      11.252 -10.914  -3.447  1.00  0.00    -0.200 F 
ENDBRANCH  52  76
BRANCH  64  87
ATOM     87  C   UNL     1       9.060  -5.687 -12.145  1.00  0.00     0.064 A 
ATOM     88  C   UNL     1       9.538  -4.378 -12.319  1.00  0.00     0.173 A 
ATOM     89  C   UNL     1       9.620  -6.700 -12.937  1.00  0.00     0.173 A 
ATOM     90  F   UNL     1       9.029  -3.371 -11.593  1.00  0.00    -0.203 F 
ATOM     91  C   UNL     1      10.518  -4.092 -13.264  1.00  0.00     0.198 A 
ATOM     92  C   UNL     1      10.622  -6.415 -13.861  1.00  0.00     0.198 A 
ATOM     93  F   UNL     1       9.206  -7.969 -12.801  1.00  0.00    -0.203 F 
ATOM     94  F   UNL     1      10.929  -2.828 -13.441  1.00  0.00    -0.200 F 
ATOM     95  C   UNL     1      11.062  -5.110 -14.032  1.00  0.00     0.200 A 
ATOM     96  F   UNL     1      11.162  -7.403 -14.588  1.00  0.00    -0.200 F 
ATOM     97  F   UNL     1      12.010  -4.835 -14.938  1.00  0.00    -0.200 F 
ENDBRANCH  64  87
ENDBRANCH  38  39
ENDBRANCH  31  33
ENDBRANCH  30  31
ENDBRANCH  29  30
ENDBRANCH  28  29
ENDBRANCH  27  28
ENDBRANCH  26  27
ENDBRANCH   1  26
TORSDOF 20
