REMARK SMILES C#CC[N@H+](CC(=O)OCCOCCOCCOC(=O)c1ccc(-c2c3nc(c(-c4c(F)c(F)c(F)c(F)c4F)c4ccc([nH]4)c(-c4c(F)c(F)c(F)c(F)c4F)c4nc(c(-c5c(F)c(F)c(F)c(F)c5F)c5ccc2[nH]5)C=C4)C=C3)cc1)[C@H](C)C(=O)NCCC
REMARK SMILES IDX 11 1 10 2 9 3 8 4 6 5 7 6 5 7 4 8 3 10 2 11 1 12 83 13 84 14
REMARK SMILES IDX 85 15 86 16 87 17 88 19 89 20 90 21 12 22 13 23 14 24 15 25
REMARK SMILES IDX 16 26 17 27 18 28 19 29 20 30 21 31 82 32 22 33 81 34 23 35
REMARK SMILES IDX 24 36 25 37 75 38 26 39 80 40 74 41 76 42 27 43 79 44 73 45
REMARK SMILES IDX 72 46 28 48 60 49 40 50 59 51 41 52 44 53 58 54 77 55 42 56
REMARK SMILES IDX 43 57 57 59 78 60 45 61 29 62 30 63 38 64 31 65 32 66 36 67
REMARK SMILES IDX 39 68 33 69 34 70 37 71 35 72 61 73 62 74 70 75 63 76 64 77
REMARK SMILES IDX 68 78 71 79 65 80 66 81 69 82 67 83 46 84 47 85 55 86 48 87
REMARK SMILES IDX 49 88 53 89 56 90 50 91 51 92 54 93 52 94
REMARK H PARENT 4 9 87 18 76 47 44 58
REMARK Flexibility Score: inf
ROOT
ATOM      1  O   UNL     1      -5.284   6.402   1.173  1.00  0.00    -0.376 OA
ENDROOT
BRANCH   1   2
ATOM      2  C   UNL     1      -5.226   5.752   2.441  1.00  0.00     0.202 C 
BRANCH   2   3
ATOM      3  C   UNL     1      -5.423   4.228   2.491  1.00  0.00     0.261 C 
BRANCH   3   4
ATOM      4  O   UNL     1      -4.549   3.488   1.617  1.00  0.00    -0.459 OA
BRANCH   4   5
ATOM      5  C   UNL     1      -5.109   2.739   0.643  1.00  0.00     0.361 C 
ATOM      6  O   UNL     1      -6.325   2.618   0.502  1.00  0.00    -0.245 OA
BRANCH   5   7
ATOM      7  C   UNL     1      -4.153   1.998  -0.299  1.00  0.00     0.387 C 
BRANCH   7   8
ATOM      8  N   UNL     1      -2.673   2.224  -0.328  1.00  0.00    -0.306 N 
ATOM      9  H   UNL     1      -2.509   3.188  -0.619  1.00  0.00     0.350 HD
BRANCH   8  10
ATOM     10  C   UNL     1      -2.011   2.269   0.974  1.00  0.00     0.355 C 
BRANCH  10  11
ATOM     11  C   UNL     1      -0.679   2.909   0.915  1.00  0.00    -0.047 C 
ATOM     12  C   UNL     1       0.420   3.402   0.857  1.00  0.00     0.010 C 
ENDBRANCH  10  11
ENDBRANCH   8  10
BRANCH   8  13
ATOM     13  C   UNL     1      -2.043   1.344  -1.389  1.00  0.00     0.272 C 
ATOM     14  C   UNL     1      -2.635  -0.057  -1.623  1.00  0.00     0.086 C 
BRANCH  13  15
ATOM     15  C   UNL     1      -0.495   1.274  -1.458  1.00  0.00     0.278 C 
ATOM     16  O   UNL     1       0.128   1.937  -2.296  1.00  0.00    -0.268 OA
ATOM     17  N   UNL     1       0.230   0.418  -0.665  1.00  0.00    -0.351 N 
ATOM     18  H   UNL     1       1.145   0.225  -0.973  1.00  0.00     0.163 HD
BRANCH  17  19
ATOM     19  C   UNL     1      -0.171  -0.237   0.563  1.00  0.00     0.116 C 
BRANCH  19  20
ATOM     20  C   UNL     1       0.637  -1.463   0.942  1.00  0.00     0.018 C 
ATOM     21  C   UNL     1       2.041  -1.099   1.399  1.00  0.00     0.006 C 
ENDBRANCH  19  20
ENDBRANCH  17  19
ENDBRANCH  13  15
ENDBRANCH   8  13
ENDBRANCH   7   8
ENDBRANCH   5   7
ENDBRANCH   4   5
ENDBRANCH   3   4
ENDBRANCH   2   3
ENDBRANCH   1   2
BRANCH   1  22
ATOM     22  C   UNL     1      -4.458   5.922   0.117  1.00  0.00     0.188 C 
BRANCH  22  23
ATOM     23  C   UNL     1      -2.994   5.570   0.411  1.00  0.00     0.188 C 
BRANCH  23  24
ATOM     24  O   UNL     1      -2.630   5.701   1.766  1.00  0.00    -0.376 OA
BRANCH  24  25
ATOM     25  C   UNL     1      -1.431   6.387   2.075  1.00  0.00     0.202 C 
BRANCH  25  26
ATOM     26  C   UNL     1      -1.316   7.864   1.654  1.00  0.00     0.261 C 
BRANCH  26  27
ATOM     27  O   UNL     1      -1.777   8.202   0.333  1.00  0.00    -0.460 OA
BRANCH  27  28
ATOM     28  C   UNL     1      -0.985   7.862  -0.716  1.00  0.00     0.338 C 
ATOM     29  O   UNL     1       0.115   7.345  -0.666  1.00  0.00    -0.246 OA
BRANCH  28  30
ATOM     30  C   UNL     1      -1.809   8.004  -1.947  1.00  0.00     0.060 A 
ATOM     31  C   UNL     1      -2.075   6.875  -2.741  1.00  0.00     0.016 A 
ATOM     32  C   UNL     1      -2.367   9.238  -2.280  1.00  0.00     0.016 A 
ATOM     33  C   UNL     1      -2.897   6.983  -3.871  1.00  0.00     0.010 A 
ATOM     34  C   UNL     1      -3.163   9.349  -3.424  1.00  0.00     0.010 A 
ATOM     35  C   UNL     1      -3.419   8.229  -4.238  1.00  0.00    -0.014 A 
BRANCH  35  36
ATOM     36  C   UNL     1      -4.088   8.431  -5.551  1.00  0.00     0.031 A 
ATOM     37  C   UNL     1      -3.298   9.067  -6.661  1.00  0.00     0.074 A 
ATOM     38  C   UNL     1      -5.380   8.112  -5.748  1.00  0.00     0.049 A 
ATOM     39  N   UNL     1      -3.697   9.502  -7.830  1.00  0.00    -0.248 NA
ATOM     40  C   UNL     1      -1.860   9.250  -6.409  1.00  0.00     0.031 C 
ATOM     41  C   UNL     1      -6.247   7.452  -4.777  1.00  0.00     0.029 A 
ATOM     42  N   UNL     1      -6.196   8.332  -6.834  1.00  0.00    -0.354 N 
ATOM     43  C   UNL     1      -2.566  10.027  -8.441  1.00  0.00     0.074 A 
ATOM     44  C   UNL     1      -1.471   9.881  -7.506  1.00  0.00     0.031 C 
ATOM     45  C   UNL     1      -7.482   7.343  -5.299  1.00  0.00     0.029 A 
ATOM     46  C   UNL     1      -7.504   7.970  -6.622  1.00  0.00     0.049 A 
ATOM     47  H   UNL     1      -5.872   8.713  -7.683  1.00  0.00     0.167 HD
ATOM     48  C   UNL     1      -2.451  10.579  -9.672  1.00  0.00     0.037 A 
ATOM     49  C   UNL     1      -8.598   8.160  -7.388  1.00  0.00     0.037 A 
ATOM     50  C   UNL     1      -3.542  10.723 -10.601  1.00  0.00     0.049 A 
ATOM     51  C   UNL     1      -8.462   8.860  -8.720  1.00  0.00     0.074 A 
ATOM     52  C   UNL     1      -3.518  11.242 -11.883  1.00  0.00     0.029 A 
ATOM     53  N   UNL     1      -4.855  10.362 -10.340  1.00  0.00    -0.354 N 
ATOM     54  N   UNL     1      -7.387   9.327  -9.308  1.00  0.00    -0.248 NA
ATOM     55  C   UNL     1      -9.697   9.062  -9.496  1.00  0.00     0.031 C 
ATOM     56  C   UNL     1      -4.827  11.264 -12.370  1.00  0.00     0.029 A 
ATOM     57  C   UNL     1      -5.657  10.685 -11.423  1.00  0.00     0.049 A 
ATOM     58  H   UNL     1      -5.171   9.938  -9.509  1.00  0.00     0.167 HD
ATOM     59  C   UNL     1      -7.808   9.845 -10.528  1.00  0.00     0.074 A 
ATOM     60  C   UNL     1      -9.235   9.622 -10.605  1.00  0.00     0.031 C 
ATOM     61  C   UNL     1      -7.077  10.450 -11.497  1.00  0.00     0.037 A 
BRANCH  48  62
ATOM     62  C   UNL     1      -1.103  11.104 -10.078  1.00  0.00     0.064 A 
ATOM     63  C   UNL     1      -0.017  10.252 -10.327  1.00  0.00     0.173 A 
ATOM     64  C   UNL     1      -0.909  12.483 -10.263  1.00  0.00     0.173 A 
ATOM     65  F   UNL     1      -0.144   8.928 -10.156  1.00  0.00    -0.203 F 
ATOM     66  C   UNL     1       1.220  10.762 -10.716  1.00  0.00     0.198 A 
ATOM     67  C   UNL     1       0.317  12.985 -10.688  1.00  0.00     0.198 A 
ATOM     68  F   UNL     1      -1.916  13.343 -10.047  1.00  0.00    -0.203 F 
ATOM     69  F   UNL     1       2.257   9.933 -10.897  1.00  0.00    -0.200 F 
ATOM     70  C   UNL     1       1.383  12.126 -10.905  1.00  0.00     0.200 A 
ATOM     71  F   UNL     1       0.466  14.302 -10.890  1.00  0.00    -0.200 F 
ATOM     72  F   UNL     1       2.570  12.613 -11.293  1.00  0.00    -0.200 F 
ENDBRANCH  48  62
BRANCH  49  73
ATOM     73  C   UNL     1      -9.935   7.712  -6.908  1.00  0.00     0.064 A 
ATOM     74  C   UNL     1     -10.642   6.700  -7.574  1.00  0.00     0.173 A 
ATOM     75  C   UNL     1     -10.553   8.312  -5.800  1.00  0.00     0.173 A 
ATOM     76  F   UNL     1     -10.112   6.117  -8.659  1.00  0.00    -0.203 F 
ATOM     77  C   UNL     1     -11.920   6.323  -7.165  1.00  0.00     0.198 A 
ATOM     78  C   UNL     1     -11.816   7.909  -5.370  1.00  0.00     0.198 A 
ATOM     79  F   UNL     1      -9.929   9.293  -5.132  1.00  0.00    -0.203 F 
ATOM     80  F   UNL     1     -12.596   5.397  -7.859  1.00  0.00    -0.200 F 
ATOM     81  C   UNL     1     -12.503   6.922  -6.059  1.00  0.00     0.200 A 
ATOM     82  F   UNL     1     -12.371   8.484  -4.295  1.00  0.00    -0.200 F 
ATOM     83  F   UNL     1     -13.732   6.558  -5.667  1.00  0.00    -0.200 F 
ENDBRANCH  49  73
BRANCH  61  84
ATOM     84  C   UNL     1      -7.789  10.880 -12.750  1.00  0.00     0.064 A 
ATOM     85  C   UNL     1      -8.694  11.952 -12.759  1.00  0.00     0.173 A 
ATOM     86  C   UNL     1      -7.510  10.251 -13.975  1.00  0.00     0.173 A 
ATOM     87  F   UNL     1      -9.006  12.582 -11.616  1.00  0.00    -0.203 F 
ATOM     88  C   UNL     1      -9.309  12.362 -13.940  1.00  0.00     0.198 A 
ATOM     89  C   UNL     1      -8.098  10.688 -15.159  1.00  0.00     0.198 A 
ATOM     90  F   UNL     1      -6.646   9.226 -14.028  1.00  0.00    -0.203 F 
ATOM     91  F   UNL     1     -10.205  13.359 -13.915  1.00  0.00    -0.200 F 
ATOM     92  C   UNL     1      -9.002  11.738 -15.140  1.00  0.00     0.200 A 
ATOM     93  F   UNL     1      -7.784  10.096 -16.320  1.00  0.00    -0.200 F 
ATOM     94  F   UNL     1      -9.581  12.146 -16.277  1.00  0.00    -0.200 F 
ENDBRANCH  61  84
ENDBRANCH  35  36
ENDBRANCH  28  30
ENDBRANCH  27  28
ENDBRANCH  26  27
ENDBRANCH  25  26
ENDBRANCH  24  25
ENDBRANCH  23  24
ENDBRANCH  22  23
ENDBRANCH   1  22
TORSDOF 24
