REMARK SMILES CC[C@H](Oc1cccc(/C=C2\SC(=S)N(NC(=O)c3cccc(O)c3)C2=O)c1)C(=O)OCCOCCOCCOC(=O)c1ccc(-c2c3nc(c(-c4c(F)c(F)c(F)c(F)c4F)c4ccc([nH]4)c(-c4c(F)c(F)c(F)c(F)c4F)c4nc(c(-c5c(F)c(F)c(F)c(F)c5F)c5ccc2[nH]5)C=C4)C=C3)cc1
REMARK SMILES IDX 33 1 32 2 31 3 29 4 30 5 3 6 2 7 1 8 4 9 5 10 6 11 28 12
REMARK SMILES IDX 7 13 9 14 8 15 10 16 11 17 12 18 26 19 13 20 15 21 27 22
REMARK SMILES IDX 14 23 16 24 17 25 18 27 19 28 20 29 25 30 21 31 23 32 22 33
REMARK SMILES IDX 24 34 34 36 35 37 36 38 37 39 38 40 39 41 40 42 41 43 42 44
REMARK SMILES IDX 43 45 44 46 105 47 45 48 104 49 46 50 47 51 48 52 98 53
REMARK SMILES IDX 49 54 103 55 97 56 99 57 50 58 102 59 96 60 95 61 51 63
REMARK SMILES IDX 83 64 63 65 82 66 64 67 67 68 81 69 100 70 65 71 66 72 80 74
REMARK SMILES IDX 101 75 68 76 52 77 53 78 61 79 54 80 55 81 59 82 62 83 56 84
REMARK SMILES IDX 57 85 60 86 58 87 84 88 85 89 93 90 86 91 87 92 91 93 94 94
REMARK SMILES IDX 88 95 89 96 92 97 90 98 69 99 70 100 78 101 71 102 72 103
REMARK SMILES IDX 76 104 79 105 73 106 74 107 77 108 75 109
REMARK H PARENT 16 26 24 35 99 62 67 73
REMARK Flexibility Score: inf
ROOT
ATOM      1  C   UNL     1      -0.764   5.045   3.581  1.00  0.00     0.202 C 
ENDROOT
BRANCH   1   2
ATOM      2  C   UNL     1      -1.122   5.107   2.088  1.00  0.00     0.261 C 
BRANCH   2   3
ATOM      3  O   UNL     1      -0.827   3.941   1.306  1.00  0.00    -0.461 OA
BRANCH   3   4
ATOM      4  C   UNL     1       0.221   4.069   0.448  1.00  0.00     0.347 C 
ATOM      5  O   UNL     1       0.925   5.075   0.388  1.00  0.00    -0.248 OA
BRANCH   4   6
ATOM      6  C   UNL     1       0.513   2.793  -0.383  1.00  0.00     0.282 C 
BRANCH   6   7
ATOM      7  C   UNL     1       0.866   3.309  -1.795  1.00  0.00     0.054 C 
ATOM      8  C   UNL     1       2.080   2.598  -2.384  1.00  0.00     0.008 C 
ENDBRANCH   6   7
BRANCH   6   9
ATOM      9  O   UNL     1      -0.574   1.843  -0.316  1.00  0.00    -0.479 OA
BRANCH   9  10
ATOM     10  C   UNL     1      -0.437   0.624  -0.936  1.00  0.00     0.121 A 
ATOM     11  C   UNL     1      -0.365   0.535  -2.327  1.00  0.00     0.046 A 
ATOM     12  C   UNL     1      -0.637  -0.557  -0.199  1.00  0.00     0.054 A 
ATOM     13  C   UNL     1      -0.329  -0.688  -2.982  1.00  0.00     0.004 A 
ATOM     14  C   UNL     1      -0.734  -1.794  -0.869  1.00  0.00    -0.021 A 
ATOM     15  C   UNL     1      -0.500  -1.848  -2.253  1.00  0.00     0.008 A 
BRANCH  14  16
ATOM     16  C   UNL     1      -1.231  -3.075  -0.344  1.00  0.00     0.029 C 
ATOM     17  C   UNL     1      -2.351  -3.276   0.361  1.00  0.00     0.082 C 
ATOM     18  S   UNL     1      -3.290  -2.208   1.314  1.00  0.00    -0.052 SA
ATOM     19  C   UNL     1      -3.017  -4.606   0.309  1.00  0.00     0.285 C 
ATOM     20  C   UNL     1      -4.214  -3.539   2.016  1.00  0.00     0.168 C 
ATOM     21  N   UNL     1      -3.848  -4.726   1.405  1.00  0.00    -0.198 N 
ATOM     22  O   UNL     1      -2.909  -5.367  -0.642  1.00  0.00    -0.266 OA
ATOM     23  S   UNL     1      -5.358  -3.329   3.212  1.00  0.00    -0.050 S 
BRANCH  21  24
ATOM     24  N   UNL     1      -4.508  -5.927   1.729  1.00  0.00    -0.255 N 
ATOM     25  C   UNL     1      -3.993  -7.210   1.749  1.00  0.00     0.270 C 
ATOM     26  H   UNL     1      -5.457  -5.843   1.974  1.00  0.00     0.192 HD
ATOM     27  O   UNL     1      -4.688  -8.135   2.168  1.00  0.00    -0.267 OA
BRANCH  25  28
ATOM     28  C   UNL     1      -2.658  -7.527   1.201  1.00  0.00     0.045 A 
ATOM     29  C   UNL     1      -2.607  -8.465   0.158  1.00  0.00     0.014 A 
ATOM     30  C   UNL     1      -1.496  -6.874   1.627  1.00  0.00     0.060 A 
ATOM     31  C   UNL     1      -1.408  -8.690  -0.517  1.00  0.00     0.005 A 
ATOM     32  C   UNL     1      -0.316  -7.086   0.918  1.00  0.00     0.116 A 
ATOM     33  C   UNL     1      -0.266  -7.981  -0.149  1.00  0.00     0.046 A 
BRANCH  32  34
ATOM     34  O   UNL     1       0.823  -6.395   1.209  1.00  0.00    -0.508 OA
ATOM     35  H   UNL     1       1.606  -6.554   0.719  1.00  0.00     0.293 HD
ENDBRANCH  32  34
ENDBRANCH  25  28
ENDBRANCH  21  24
ENDBRANCH  14  16
ENDBRANCH   9  10
ENDBRANCH   6   9
ENDBRANCH   4   6
ENDBRANCH   3   4
ENDBRANCH   2   3
ENDBRANCH   1   2
BRANCH   1  36
ATOM     36  O   UNL     1       0.468   4.534   4.064  1.00  0.00    -0.376 OA
BRANCH  36  37
ATOM     37  C   UNL     1       1.082   3.419   3.450  1.00  0.00     0.188 C 
BRANCH  37  38
ATOM     38  C   UNL     1       0.308   2.098   3.275  1.00  0.00     0.188 C 
BRANCH  38  39
ATOM     39  O   UNL     1      -1.063   2.094   3.579  1.00  0.00    -0.376 OA
BRANCH  39  40
ATOM     40  C   UNL     1      -1.520   1.987   4.915  1.00  0.00     0.202 C 
BRANCH  40  41
ATOM     41  C   UNL     1      -0.642   1.825   6.173  1.00  0.00     0.261 C 
BRANCH  41  42
ATOM     42  O   UNL     1       0.774   1.954   6.042  1.00  0.00    -0.460 OA
BRANCH  42  43
ATOM     43  C   UNL     1       1.471   0.794   6.011  1.00  0.00     0.338 C 
ATOM     44  O   UNL     1       1.026  -0.343   6.035  1.00  0.00    -0.246 OA
BRANCH  43  45
ATOM     45  C   UNL     1       2.885   1.107   5.741  1.00  0.00     0.060 A 
ATOM     46  C   UNL     1       3.445   0.693   4.525  1.00  0.00     0.016 A 
ATOM     47  C   UNL     1       3.658   1.781   6.687  1.00  0.00     0.016 A 
ATOM     48  C   UNL     1       4.791   0.937   4.257  1.00  0.00     0.010 A 
ATOM     49  C   UNL     1       5.013   2.001   6.428  1.00  0.00     0.010 A 
ATOM     50  C   UNL     1       5.592   1.557   5.225  1.00  0.00    -0.014 A 
BRANCH  50  51
ATOM     51  C   UNL     1       7.065   1.576   5.061  1.00  0.00     0.031 A 
ATOM     52  C   UNL     1       7.875   0.517   5.756  1.00  0.00     0.074 A 
ATOM     53  C   UNL     1       7.674   2.507   4.308  1.00  0.00     0.049 A 
ATOM     54  N   UNL     1       9.173   0.371   5.825  1.00  0.00    -0.248 NA
ATOM     55  C   UNL     1       7.112  -0.518   6.474  1.00  0.00     0.031 C 
ATOM     56  C   UNL     1       6.998   3.554   3.546  1.00  0.00     0.029 A 
ATOM     57  N   UNL     1       9.009   2.726   4.073  1.00  0.00    -0.354 N 
ATOM     58  C   UNL     1       9.383  -0.759   6.604  1.00  0.00     0.074 A 
ATOM     59  C   UNL     1       8.081  -1.248   7.004  1.00  0.00     0.031 C 
ATOM     60  C   UNL     1       7.924   4.316   2.939  1.00  0.00     0.029 A 
ATOM     61  C   UNL     1       9.256   3.833   3.300  1.00  0.00     0.049 A 
ATOM     62  H   UNL     1       9.721   2.144   4.425  1.00  0.00     0.167 HD
ATOM     63  C   UNL     1      10.556  -1.339   6.950  1.00  0.00     0.037 A 
ATOM     64  C   UNL     1      10.427   4.404   2.952  1.00  0.00     0.037 A 
ATOM     65  C   UNL     1      11.849  -0.850   6.551  1.00  0.00     0.049 A 
ATOM     66  C   UNL     1      11.721   3.786   3.421  1.00  0.00     0.074 A 
ATOM     67  C   UNL     1      13.096  -1.381   6.831  1.00  0.00     0.029 A 
ATOM     68  N   UNL     1      12.062   0.295   5.797  1.00  0.00    -0.354 N 
ATOM     69  N   UNL     1      11.915   2.702   4.132  1.00  0.00    -0.248 NA
ATOM     70  C   UNL     1      12.962   4.475   3.035  1.00  0.00     0.031 C 
ATOM     71  C   UNL     1      14.065  -0.524   6.299  1.00  0.00     0.029 A 
ATOM     72  C   UNL     1      13.421   0.504   5.629  1.00  0.00     0.049 A 
ATOM     73  H   UNL     1      11.352   0.872   5.434  1.00  0.00     0.167 HD
ATOM     74  C   UNL     1      13.293   2.559   4.248  1.00  0.00     0.074 A 
ATOM     75  C   UNL     1      13.888   3.663   3.524  1.00  0.00     0.031 C 
ATOM     76  C   UNL     1      14.001   1.600   4.894  1.00  0.00     0.037 A 
BRANCH  63  77
ATOM     77  C   UNL     1      10.496  -2.549   7.837  1.00  0.00     0.064 A 
ATOM     78  C   UNL     1      10.010  -3.782   7.377  1.00  0.00     0.173 A 
ATOM     79  C   UNL     1      10.962  -2.480   9.159  1.00  0.00     0.173 A 
ATOM     80  F   UNL     1       9.537  -3.898   6.126  1.00  0.00    -0.203 F 
ATOM     81  C   UNL     1       9.966  -4.893   8.216  1.00  0.00     0.198 A 
ATOM     82  C   UNL     1      10.947  -3.600   9.984  1.00  0.00     0.198 A 
ATOM     83  F   UNL     1      11.440  -1.326   9.648  1.00  0.00    -0.203 F 
ATOM     84  F   UNL     1       9.450  -6.047   7.771  1.00  0.00    -0.200 F 
ATOM     85  C   UNL     1      10.443  -4.803   9.515  1.00  0.00     0.200 A 
ATOM     86  F   UNL     1      11.420  -3.515  11.235  1.00  0.00    -0.200 F 
ATOM     87  F   UNL     1      10.408  -5.875  10.319  1.00  0.00    -0.200 F 
ENDBRANCH  63  77
BRANCH  64  88
ATOM     88  C   UNL     1      10.438   5.640   2.124  1.00  0.00     0.064 A 
ATOM     89  C   UNL     1      10.951   5.631   0.820  1.00  0.00     0.173 A 
ATOM     90  C   UNL     1       9.969   6.861   2.631  1.00  0.00     0.173 A 
ATOM     91  F   UNL     1      11.438   4.495   0.300  1.00  0.00    -0.203 F 
ATOM     92  C   UNL     1      11.014   6.799   0.062  1.00  0.00     0.198 A 
ATOM     93  C   UNL     1      10.004   8.022   1.861  1.00  0.00     0.198 A 
ATOM     94  F   UNL     1       9.475   6.927   3.876  1.00  0.00    -0.203 F 
ATOM     95  F   UNL     1      11.560   6.772  -1.162  1.00  0.00    -0.200 F 
ATOM     96  C   UNL     1      10.535   7.992   0.581  1.00  0.00     0.200 A 
ATOM     97  F   UNL     1       9.532   9.171   2.363  1.00  0.00    -0.200 F 
ATOM     98  F   UNL     1      10.597   9.115  -0.148  1.00  0.00    -0.200 F 
ENDBRANCH  64  88
BRANCH  76  99
ATOM     99  C   UNL     1      15.501   1.665   4.808  1.00  0.00     0.064 A 
ATOM    100  C   UNL     1      16.239   2.657   5.470  1.00  0.00     0.173 A 
ATOM    101  C   UNL     1      16.211   0.691   4.088  1.00  0.00     0.173 A 
ATOM    102  F   UNL     1      15.610   3.620   6.160  1.00  0.00    -0.203 F 
ATOM    103  C   UNL     1      17.630   2.687   5.391  1.00  0.00     0.198 A 
ATOM    104  C   UNL     1      17.602   0.704   4.041  1.00  0.00     0.198 A 
ATOM    105  F   UNL     1      15.555  -0.286   3.444  1.00  0.00    -0.203 F 
ATOM    106  F   UNL     1      18.312   3.674   5.989  1.00  0.00    -0.200 F 
ATOM    107  C   UNL     1      18.310   1.707   4.684  1.00  0.00     0.200 A 
ATOM    108  F   UNL     1      18.257  -0.255   3.372  1.00  0.00    -0.200 F 
ATOM    109  F   UNL     1      19.648   1.732   4.618  1.00  0.00    -0.200 F 
ENDBRANCH  76  99
ENDBRANCH  50  51
ENDBRANCH  43  45
ENDBRANCH  42  43
ENDBRANCH  41  42
ENDBRANCH  40  41
ENDBRANCH  39  40
ENDBRANCH  38  39
ENDBRANCH  37  38
ENDBRANCH  36  37
ENDBRANCH   1  36
TORSDOF 24
