REMARK SMILES Cc1cccc(CC(=O)N2CCC3(CCC(=O)N([C@H](C)C(=O)OCCOCCOCCOC(=O)c4ccc(-c5c6nc(c(-c7c(F)c(F)c(F)c(F)c7F)c7ccc([nH]7)c(-c7c(F)c(F)c(F)c(F)c7F)c7nc(c(-c8c(F)c(F)c(F)c(F)c8F)c8ccc5[nH]8)C=C7)C=C6)cc4)C3)CC2)c1
REMARK SMILES IDX 27 1 26 2 25 3 24 4 23 5 21 6 22 7 19 8 20 9 18 10 8 11 9 12
REMARK SMILES IDX 10 13 11 14 100 15 12 16 99 17 13 18 14 19 98 20 15 21 16 22
REMARK SMILES IDX 17 23 7 24 6 25 1 26 2 27 3 28 101 29 4 30 5 31 28 32 29 33
REMARK SMILES IDX 30 34 31 35 32 36 33 37 34 38 35 39 36 40 97 41 37 42 96 43
REMARK SMILES IDX 38 44 39 45 40 46 90 47 41 48 95 49 89 50 91 51 42 52 94 53
REMARK SMILES IDX 88 54 87 55 43 57 75 58 55 59 74 60 56 61 59 62 73 63 92 64
REMARK SMILES IDX 57 65 58 66 72 68 93 69 60 70 44 71 45 72 53 73 46 74 47 75
REMARK SMILES IDX 51 76 54 77 48 78 49 79 52 80 50 81 76 82 77 83 85 84 78 85
REMARK SMILES IDX 79 86 83 87 86 88 80 89 81 90 84 91 82 92 61 93 62 94 70 95
REMARK SMILES IDX 63 96 64 97 68 98 71 99 65 100 66 101 69 102 67 103
REMARK H PARENT 91 56 59 67
REMARK Flexibility Score: inf
ROOT
ATOM      1  C   UNL     1      -5.452   6.429  -7.221  1.00  0.00     0.188 C 
ENDROOT
BRANCH   1   2
ATOM      2  O   UNL     1      -4.869   7.507  -7.985  1.00  0.00    -0.376 OA
BRANCH   2   3
ATOM      3  C   UNL     1      -3.917   7.354  -9.055  1.00  0.00     0.202 C 
BRANCH   3   4
ATOM      4  C   UNL     1      -2.653   8.513  -9.290  1.00  0.00     0.261 C 
BRANCH   4   5
ATOM      5  O   UNL     1      -1.335   8.943  -8.179  1.00  0.00    -0.462 OA
BRANCH   5   6
ATOM      6  C   UNL     1      -0.115   8.897  -7.431  1.00  0.00     0.328 C 
ATOM      7  O   UNL     1       0.051   9.730  -6.524  1.00  0.00    -0.250 OA
BRANCH   6   8
ATOM      8  C   UNL     1       1.254   7.899  -7.443  1.00  0.00     0.192 C 
ATOM      9  C   UNL     1       1.298   6.423  -7.002  1.00  0.00     0.044 C 
BRANCH   8  10
ATOM     10  N   UNL     1       2.518   8.211  -8.191  1.00  0.00    -0.329 N 
ATOM     11  C   UNL     1       8.360   5.215  -6.844  1.00  0.00     0.226 C 
ATOM     12  O   UNL     1       8.493   4.041  -6.473  1.00  0.00    -0.275 OA
ATOM     13  N   UNL     1       7.319   5.563  -7.688  1.00  0.00    -0.342 N 
ATOM     14  C   UNL     1       6.100   4.764  -7.698  1.00  0.00     0.120 C 
ATOM     15  C   UNL     1       7.277   6.689  -8.602  1.00  0.00     0.120 C 
ATOM     16  C   UNL     1       4.885   5.659  -7.356  1.00  0.00     0.030 C 
ATOM     17  C   UNL     1       6.214   7.657  -8.128  1.00  0.00     0.030 C 
ATOM     18  C   UNL     1       4.812   6.997  -8.173  1.00  0.00    -0.008 C 
ATOM     19  C   UNL     1       4.492   6.667  -9.662  1.00  0.00     0.019 C 
ATOM     20  C   UNL     1       3.818   8.050  -7.528  1.00  0.00     0.127 C 
ATOM     21  C   UNL     1       3.017   6.710  -9.972  1.00  0.00     0.101 C 
ATOM     22  C   UNL     1       2.599   8.083  -9.554  1.00  0.00     0.223 C 
ATOM     23  O   UNL     1       2.706   9.059 -10.292  1.00  0.00    -0.275 OA
BRANCH  11  24
ATOM     24  C   UNL     1       9.193   6.291  -6.141  1.00  0.00     0.135 C 
BRANCH  24  25
ATOM     25  C   UNL     1       9.683   7.481  -6.923  1.00  0.00    -0.038 A 
ATOM     26  C   UNL     1       8.818  11.185  -7.251  1.00  0.00     0.044 C 
ATOM     27  C   UNL     1       9.449   9.844  -7.488  1.00  0.00    -0.051 A 
ATOM     28  C   UNL     1      10.305   9.651  -8.577  1.00  0.00     0.003 A 
ATOM     29  C   UNL     1       9.162   8.759  -6.652  1.00  0.00     0.007 A 
ATOM     30  C   UNL     1      10.882   8.401  -8.814  1.00  0.00     0.001 A 
ATOM     31  C   UNL     1      10.585   7.321  -7.983  1.00  0.00     0.004 A 
ENDBRANCH  24  25
ENDBRANCH  11  24
ENDBRANCH   8  10
ENDBRANCH   6   8
ENDBRANCH   5   6
ENDBRANCH   4   5
ENDBRANCH   3   4
ENDBRANCH   2   3
ENDBRANCH   1   2
BRANCH   1  32
ATOM     32  C   UNL     1      -4.614   5.200  -6.826  1.00  0.00     0.188 C 
BRANCH  32  33
ATOM     33  O   UNL     1      -5.226   3.932  -7.043  1.00  0.00    -0.376 OA
BRANCH  33  34
ATOM     34  C   UNL     1      -6.041   3.370  -6.012  1.00  0.00     0.202 C 
BRANCH  34  35
ATOM     35  C   UNL     1      -5.403   3.126  -4.627  1.00  0.00     0.261 C 
BRANCH  35  36
ATOM     36  O   UNL     1      -4.121   2.495  -4.751  1.00  0.00    -0.460 OA
BRANCH  36  37
ATOM     37  C   UNL     1      -3.263   2.759  -3.726  1.00  0.00     0.338 C 
ATOM     38  O   UNL     1      -3.565   2.866  -2.540  1.00  0.00    -0.246 OA
BRANCH  37  39
ATOM     39  C   UNL     1      -2.049   3.348  -4.342  1.00  0.00     0.060 A 
ATOM     40  C   UNL     1      -1.584   4.535  -3.786  1.00  0.00     0.016 A 
ATOM     41  C   UNL     1      -1.773   3.056  -5.675  1.00  0.00     0.016 A 
ATOM     42  C   UNL     1      -1.206   5.554  -4.651  1.00  0.00     0.010 A 
ATOM     43  C   UNL     1      -1.462   4.106  -6.527  1.00  0.00     0.010 A 
ATOM     44  C   UNL     1      -1.398   5.412  -6.037  1.00  0.00    -0.014 A 
BRANCH  44  45
ATOM     45  C   UNL     1      -1.751   6.586  -6.943  1.00  0.00     0.031 A 
ATOM     46  C   UNL     1      -1.191   6.411  -8.589  1.00  0.00     0.074 A 
ATOM     47  C   UNL     1      -2.444   7.663  -6.294  1.00  0.00     0.049 A 
ATOM     48  N   UNL     1      -0.356   7.262  -9.156  1.00  0.00    -0.248 NA
ATOM     49  C   UNL     1      -1.430   5.367  -9.618  1.00  0.00     0.031 C 
ATOM     50  C   UNL     1      -3.253   8.824  -6.770  1.00  0.00     0.029 A 
ATOM     51  N   UNL     1      -2.486   8.029  -4.905  1.00  0.00    -0.354 N 
ATOM     52  C   UNL     1      -0.295   7.196 -10.516  1.00  0.00     0.074 A 
ATOM     53  C   UNL     1      -0.826   5.856 -10.738  1.00  0.00     0.031 C 
ATOM     54  C   UNL     1      -3.584   9.747  -5.893  1.00  0.00     0.029 A 
ATOM     55  C   UNL     1      -2.832   9.411  -4.775  1.00  0.00     0.049 A 
ATOM     56  H   UNL     1      -2.303   7.419  -4.154  1.00  0.00     0.167 HD
ATOM     57  C   UNL     1      -0.046   8.305 -11.330  1.00  0.00     0.037 A 
ATOM     58  C   UNL     1      -2.153  10.416  -4.178  1.00  0.00     0.037 A 
ATOM     59  C   UNL     1      -0.309   9.708 -10.756  1.00  0.00     0.049 A 
ATOM     60  C   UNL     1      -1.526  11.504  -5.086  1.00  0.00     0.074 A 
ATOM     61  C   UNL     1      -1.379  10.587 -10.964  1.00  0.00     0.029 A 
ATOM     62  N   UNL     1       0.456  10.399  -9.790  1.00  0.00    -0.354 N 
ATOM     63  N   UNL     1      -1.582  11.594  -6.411  1.00  0.00    -0.248 NA
ATOM     64  C   UNL     1      -0.674  12.547  -4.517  1.00  0.00     0.031 C 
ATOM     65  C   UNL     1      -1.389  11.607  -9.967  1.00  0.00     0.029 A 
ATOM     66  C   UNL     1      -0.273  11.453  -9.171  1.00  0.00     0.049 A 
ATOM     67  H   UNL     1       1.390  10.177  -9.571  1.00  0.00     0.167 HD
ATOM     68  C   UNL     1      -0.487  12.360  -6.832  1.00  0.00     0.074 A 
ATOM     69  C   UNL     1      -0.131  13.090  -5.618  1.00  0.00     0.031 C 
ATOM     70  C   UNL     1       0.236  12.242  -8.020  1.00  0.00     0.037 A 
BRANCH  57  71
ATOM     71  C   UNL     1       0.163   8.129 -12.833  1.00  0.00     0.064 A 
ATOM     72  C   UNL     1      -0.240   9.080 -13.798  1.00  0.00     0.173 A 
ATOM     73  C   UNL     1       0.897   7.043 -13.352  1.00  0.00     0.173 A 
ATOM     74  F   UNL     1      -0.951  10.164 -13.474  1.00  0.00    -0.203 F 
ATOM     75  C   UNL     1       0.052   8.947 -15.160  1.00  0.00     0.198 A 
ATOM     76  C   UNL     1       1.189   6.911 -14.715  1.00  0.00     0.198 A 
ATOM     77  F   UNL     1       1.348   6.071 -12.547  1.00  0.00    -0.203 F 
ATOM     78  F   UNL     1      -0.374   9.880 -16.025  1.00  0.00    -0.200 F 
ATOM     79  C   UNL     1       0.767   7.864 -15.620  1.00  0.00     0.200 A 
ATOM     80  F   UNL     1       1.883   5.847 -15.145  1.00  0.00    -0.200 F 
ATOM     81  F   UNL     1       1.040   7.734 -16.925  1.00  0.00    -0.200 F 
ENDBRANCH  57  71
BRANCH  58  82
ATOM     82  C   UNL     1      -2.165  10.126  -2.719  1.00  0.00     0.064 A 
ATOM     83  C   UNL     1      -3.489  10.046  -2.197  1.00  0.00     0.173 A 
ATOM     84  C   UNL     1      -1.240   9.181  -2.260  1.00  0.00     0.173 A 
ATOM     85  F   UNL     1      -4.420  10.924  -2.612  1.00  0.00    -0.203 F 
ATOM     86  C   UNL     1      -3.929   8.888  -1.555  1.00  0.00     0.198 A 
ATOM     87  C   UNL     1      -1.681   8.046  -1.573  1.00  0.00     0.198 A 
ATOM     88  F   UNL     1       0.029   9.226  -2.691  1.00  0.00    -0.203 F 
ATOM     89  F   UNL     1      -5.242   8.689  -1.358  1.00  0.00    -0.200 F 
ATOM     90  C   UNL     1      -3.030   7.870  -1.286  1.00  0.00     0.200 A 
ATOM     91  F   UNL     1      -0.824   7.043  -1.331  1.00  0.00    -0.200 F 
ATOM     92  F   UNL     1      -3.474   6.686  -0.840  1.00  0.00    -0.200 F 
ENDBRANCH  58  82
BRANCH  70  93
ATOM     93  C   UNL     1       1.583  12.934  -8.195  1.00  0.00     0.064 A 
ATOM     94  C   UNL     1       2.556  13.034  -7.181  1.00  0.00     0.173 A 
ATOM     95  C   UNL     1       1.966  13.448  -9.454  1.00  0.00     0.173 A 
ATOM     96  F   UNL     1       2.381  12.455  -5.985  1.00  0.00    -0.203 F 
ATOM     97  C   UNL     1       3.760  13.717  -7.372  1.00  0.00     0.198 A 
ATOM     98  C   UNL     1       3.202  14.066  -9.661  1.00  0.00     0.198 A 
ATOM     99  F   UNL     1       1.149  13.362 -10.514  1.00  0.00    -0.203 F 
ATOM    100  F   UNL     1       4.610  13.868  -6.345  1.00  0.00    -0.200 F 
ATOM    101  C   UNL     1       4.085  14.231  -8.611  1.00  0.00     0.200 A 
ATOM    102  F   UNL     1       3.534  14.507 -10.883  1.00  0.00    -0.200 F 
ATOM    103  F   UNL     1       5.249  14.868  -8.796  1.00  0.00    -0.200 F 
ENDBRANCH  70  93
ENDBRANCH  44  45
ENDBRANCH  37  39
ENDBRANCH  36  37
ENDBRANCH  35  36
ENDBRANCH  34  35
ENDBRANCH  33  34
ENDBRANCH  32  33
ENDBRANCH   1  32
TORSDOF 20
