REMARK SMILES COc1cc(/C=N/NC(=O)c2cccnc2)ccc1OCC(=O)OCCOCCOCCOC(=O)c1ccc(-c2c3nc(c(-c4c(F)c(F)c(F)c(F)c4F)c4ccc([nH]4)c(-c4c(F)c(F)c(F)c(F)c4F)c4nc(c(-c5c(F)c(F)c(F)c(F)c5F)c5ccc2[nH]5)C=C4)C=C3)cc1
REMARK SMILES IDX 27 1 26 2 25 3 24 4 22 5 23 6 21 7 20 8 19 9 3 10 4 11 5 12
REMARK SMILES IDX 18 13 17 14 2 15 1 16 6 17 7 18 8 19 9 20 10 22 11 23 12 24
REMARK SMILES IDX 16 25 13 26 15 27 14 28 28 29 29 30 30 31 31 32 32 33 33 34
REMARK SMILES IDX 34 35 35 36 36 37 37 38 98 39 38 40 97 41 39 42 40 43 41 44
REMARK SMILES IDX 91 45 42 46 96 47 90 48 92 49 43 50 95 51 89 52 88 53 44 55
REMARK SMILES IDX 76 56 56 57 75 58 57 59 60 60 74 61 93 62 58 63 59 64 73 66
REMARK SMILES IDX 94 67 61 68 45 69 46 70 54 71 47 72 48 73 52 74 55 75 49 76
REMARK SMILES IDX 50 77 53 78 51 79 77 80 78 81 86 82 79 83 80 84 84 85 87 86
REMARK SMILES IDX 81 87 82 88 85 89 83 90 62 91 63 92 71 93 64 94 65 95 69 96
REMARK SMILES IDX 72 97 66 98 67 99 70 100 68 101
REMARK H PARENT 8 21 92 54 60 65
REMARK Flexibility Score: inf
ROOT
ATOM      1  O   UNL     1      -0.469   2.805  -0.143  1.00  0.00    -0.376 OA
ENDROOT
BRANCH   1   2
ATOM      2  C   UNL     1       0.628   3.707  -0.046  1.00  0.00     0.202 C 
BRANCH   2   3
ATOM      3  C   UNL     1       1.808   3.179   0.769  1.00  0.00     0.261 C 
BRANCH   3   4
ATOM      4  O   UNL     1       2.612   2.233   0.029  1.00  0.00    -0.461 OA
BRANCH   4   5
ATOM      5  C   UNL     1       2.802   1.009   0.601  1.00  0.00     0.344 C 
ATOM      6  O   UNL     1       2.229   0.615   1.610  1.00  0.00    -0.248 OA
BRANCH   5   7
ATOM      7  C   UNL     1       3.908   0.213  -0.098  1.00  0.00     0.352 C 
BRANCH   7   8
ATOM      8  O   UNL     1       4.003   0.230  -1.508  1.00  0.00    -0.478 OA
BRANCH   8   9
ATOM      9  C   UNL     1       3.130  -0.469  -2.292  1.00  0.00     0.162 A 
ATOM     10  C   UNL     1       2.289  -1.536  -1.948  1.00  0.00     0.161 A 
ATOM     11  C   UNL     1       1.407  -2.074  -2.906  1.00  0.00     0.060 A 
ATOM     12  C   UNL     1       1.319  -1.496  -4.179  1.00  0.00    -0.002 A 
ATOM     13  C   UNL     1       3.113   0.005  -3.611  1.00  0.00     0.051 A 
ATOM     14  C   UNL     1       2.203  -0.486  -4.546  1.00  0.00     0.014 A 
BRANCH  10  15
ATOM     15  O   UNL     1       2.402  -2.114  -0.714  1.00  0.00    -0.493 OA
ATOM     16  C   UNL     1       1.189  -2.155   0.034  1.00  0.00     0.278 C 
ENDBRANCH  10  15
BRANCH  12  17
ATOM     17  C   UNL     1       0.235  -1.807  -5.135  1.00  0.00     0.141 C 
ATOM     18  N   UNL     1      -0.577  -2.808  -5.003  1.00  0.00    -0.180 NA
BRANCH  18  19
ATOM     19  N   UNL     1      -1.575  -2.918  -5.939  1.00  0.00    -0.243 N 
ATOM     20  C   UNL     1      -1.539  -2.828  -7.318  1.00  0.00     0.272 C 
ATOM     21  H   UNL     1      -2.469  -3.090  -5.565  1.00  0.00     0.194 HD
ATOM     22  O   UNL     1      -2.577  -2.894  -7.974  1.00  0.00    -0.267 OA
BRANCH  20  23
ATOM     23  C   UNL     1      -0.265  -2.650  -8.026  1.00  0.00     0.059 A 
ATOM     24  C   UNL     1       0.884  -3.378  -7.718  1.00  0.00     0.017 A 
ATOM     25  C   UNL     1      -0.193  -1.678  -9.014  1.00  0.00     0.124 A 
ATOM     26  C   UNL     1       2.075  -3.058  -8.362  1.00  0.00     0.021 A 
ATOM     27  N   UNL     1       0.956  -1.346  -9.650  1.00  0.00    -0.264 NA
ATOM     28  C   UNL     1       2.063  -2.040  -9.304  1.00  0.00     0.111 A 
ENDBRANCH  20  23
ENDBRANCH  18  19
ENDBRANCH  12  17
ENDBRANCH   8   9
ENDBRANCH   7   8
ENDBRANCH   5   7
ENDBRANCH   4   5
ENDBRANCH   3   4
ENDBRANCH   2   3
ENDBRANCH   1   2
BRANCH   1  29
ATOM     29  C   UNL     1      -0.281   1.644  -0.942  1.00  0.00     0.188 C 
BRANCH  29  30
ATOM     30  C   UNL     1       0.366   1.844  -2.320  1.00  0.00     0.188 C 
BRANCH  30  31
ATOM     31  O   UNL     1       0.004   3.011  -3.051  1.00  0.00    -0.376 OA
BRANCH  31  32
ATOM     32  C   UNL     1      -1.388   3.272  -3.194  1.00  0.00     0.202 C 
BRANCH  32  33
ATOM     33  C   UNL     1      -2.115   2.233  -4.040  1.00  0.00     0.261 C 
BRANCH  33  34
ATOM     34  O   UNL     1      -2.312   1.023  -3.286  1.00  0.00    -0.460 OA
BRANCH  34  35
ATOM     35  C   UNL     1      -2.904   0.041  -4.004  1.00  0.00     0.338 C 
ATOM     36  O   UNL     1      -3.261   0.116  -5.167  1.00  0.00    -0.246 OA
BRANCH  35  37
ATOM     37  C   UNL     1      -3.077  -1.187  -3.195  1.00  0.00     0.060 A 
ATOM     38  C   UNL     1      -2.065  -1.674  -2.366  1.00  0.00     0.016 A 
ATOM     39  C   UNL     1      -4.218  -1.958  -3.420  1.00  0.00     0.016 A 
ATOM     40  C   UNL     1      -2.138  -2.984  -1.870  1.00  0.00     0.010 A 
ATOM     41  C   UNL     1      -4.317  -3.238  -2.868  1.00  0.00     0.010 A 
ATOM     42  C   UNL     1      -3.252  -3.792  -2.138  1.00  0.00    -0.014 A 
BRANCH  42  43
ATOM     43  C   UNL     1      -3.289  -5.245  -1.792  1.00  0.00     0.031 A 
ATOM     44  C   UNL     1      -3.466  -6.258  -2.895  1.00  0.00     0.074 A 
ATOM     45  C   UNL     1      -3.179  -5.694  -0.528  1.00  0.00     0.049 A 
ATOM     46  N   UNL     1      -3.899  -7.492  -2.851  1.00  0.00    -0.248 NA
ATOM     47  C   UNL     1      -3.113  -5.800  -4.243  1.00  0.00     0.031 C 
ATOM     48  C   UNL     1      -2.890  -4.880   0.649  1.00  0.00     0.029 A 
ATOM     49  N   UNL     1      -3.322  -6.968  -0.030  1.00  0.00    -0.354 N 
ATOM     50  C   UNL     1      -3.957  -7.917  -4.175  1.00  0.00     0.074 A 
ATOM     51  C   UNL     1      -3.498  -6.819  -4.996  1.00  0.00     0.031 C 
ATOM     52  C   UNL     1      -2.876  -5.673   1.733  1.00  0.00     0.029 A 
ATOM     53  C   UNL     1      -3.252  -7.029   1.339  1.00  0.00     0.049 A 
ATOM     54  H   UNL     1      -3.462  -7.758  -0.600  1.00  0.00     0.167 HD
ATOM     55  C   UNL     1      -4.358  -9.117  -4.659  1.00  0.00     0.037 A 
ATOM     56  C   UNL     1      -3.527  -8.041   2.183  1.00  0.00     0.037 A 
ATOM     57  C   UNL     1      -4.713 -10.240  -3.835  1.00  0.00     0.049 A 
ATOM     58  C   UNL     1      -4.019  -9.357   1.637  1.00  0.00     0.074 A 
ATOM     59  C   UNL     1      -5.140 -11.499  -4.221  1.00  0.00     0.029 A 
ATOM     60  N   UNL     1      -4.643 -10.248  -2.451  1.00  0.00    -0.354 N 
ATOM     61  N   UNL     1      -4.208  -9.722   0.392  1.00  0.00    -0.248 NA
ATOM     62  C   UNL     1      -4.364 -10.394   2.622  1.00  0.00     0.031 C 
ATOM     63  C   UNL     1      -5.348 -12.263  -3.067  1.00  0.00     0.029 A 
ATOM     64  C   UNL     1      -5.016 -11.489  -1.967  1.00  0.00     0.049 A 
ATOM     65  H   UNL     1      -4.367  -9.483  -1.895  1.00  0.00     0.167 HD
ATOM     66  C   UNL     1      -4.676 -11.029   0.444  1.00  0.00     0.074 A 
ATOM     67  C   UNL     1      -4.726 -11.402   1.841  1.00  0.00     0.031 C 
ATOM     68  C   UNL     1      -5.040 -11.847  -0.574  1.00  0.00     0.037 A 
BRANCH  55  69
ATOM     69  C   UNL     1      -4.475  -9.270  -6.147  1.00  0.00     0.064 A 
ATOM     70  C   UNL     1      -3.353  -9.404  -6.976  1.00  0.00     0.173 A 
ATOM     71  C   UNL     1      -5.745  -9.338  -6.743  1.00  0.00     0.173 A 
ATOM     72  F   UNL     1      -2.118  -9.332  -6.457  1.00  0.00    -0.203 F 
ATOM     73  C   UNL     1      -3.497  -9.584  -8.350  1.00  0.00     0.198 A 
ATOM     74  C   UNL     1      -5.886  -9.544  -8.112  1.00  0.00     0.198 A 
ATOM     75  F   UNL     1      -6.851  -9.223  -5.992  1.00  0.00    -0.203 F 
ATOM     76  F   UNL     1      -2.411  -9.679  -9.129  1.00  0.00    -0.200 F 
ATOM     77  C   UNL     1      -4.762  -9.663  -8.915  1.00  0.00     0.200 A 
ATOM     78  F   UNL     1      -7.109  -9.636  -8.653  1.00  0.00    -0.200 F 
ATOM     79  F   UNL     1      -4.898  -9.854 -10.235  1.00  0.00    -0.200 F 
ENDBRANCH  55  69
BRANCH  56  80
ATOM     80  C   UNL     1      -3.414  -7.832   3.650  1.00  0.00     0.064 A 
ATOM     81  C   UNL     1      -2.437  -8.498   4.400  1.00  0.00     0.173 A 
ATOM     82  C   UNL     1      -4.292  -6.976   4.334  1.00  0.00     0.173 A 
ATOM     83  F   UNL     1      -1.596  -9.351   3.796  1.00  0.00    -0.203 F 
ATOM     84  C   UNL     1      -2.349  -8.327   5.780  1.00  0.00     0.198 A 
ATOM     85  C   UNL     1      -4.182  -6.781   5.708  1.00  0.00     0.198 A 
ATOM     86  F   UNL     1      -5.249  -6.320   3.662  1.00  0.00    -0.203 F 
ATOM     87  F   UNL     1      -1.435  -9.013   6.481  1.00  0.00    -0.200 F 
ATOM     88  C   UNL     1      -3.216  -7.463   6.431  1.00  0.00     0.200 A 
ATOM     89  F   UNL     1      -5.014  -5.935   6.330  1.00  0.00    -0.200 F 
ATOM     90  F   UNL     1      -3.127  -7.294   7.757  1.00  0.00    -0.200 F 
ENDBRANCH  56  80
BRANCH  68  91
ATOM     91  C   UNL     1      -5.481 -13.236  -0.219  1.00  0.00     0.064 A 
ATOM     92  C   UNL     1      -6.739 -13.485   0.346  1.00  0.00     0.173 A 
ATOM     93  C   UNL     1      -4.647 -14.333  -0.485  1.00  0.00     0.173 A 
ATOM     94  F   UNL     1      -7.564 -12.466   0.631  1.00  0.00    -0.203 F 
ATOM     95  C   UNL     1      -7.139 -14.782   0.654  1.00  0.00     0.198 A 
ATOM     96  C   UNL     1      -5.061 -15.631  -0.198  1.00  0.00     0.198 A 
ATOM     97  F   UNL     1      -3.437 -14.146  -1.032  1.00  0.00    -0.203 F 
ATOM     98  F   UNL     1      -8.329 -14.995   1.232  1.00  0.00    -0.200 F 
ATOM     99  C   UNL     1      -6.303 -15.854   0.377  1.00  0.00     0.200 A 
ATOM    100  F   UNL     1      -4.255 -16.666  -0.475  1.00  0.00    -0.200 F 
ATOM    101  F   UNL     1      -6.691 -17.102   0.671  1.00  0.00    -0.200 F 
ENDBRANCH  68  91
ENDBRANCH  42  43
ENDBRANCH  35  37
ENDBRANCH  34  35
ENDBRANCH  33  34
ENDBRANCH  32  33
ENDBRANCH  31  32
ENDBRANCH  30  31
ENDBRANCH  29  30
ENDBRANCH   1  29
TORSDOF 23
