REMARK SMILES O=C(COc1ccccc1/C=N\N1CC[NH+](Cc2ccc(Cl)cc2)CC1)OCCOCCOCCOC(=O)c1ccc(-c2c3nc(c(-c4c(F)c(F)c(F)c(F)c4F)c4ccc([nH]4)c(-c4c(F)c(F)c(F)c(F)c4F)c4nc(c(-c5c(F)c(F)c(F)c(F)c5F)c5ccc2[nH]5)C=C4)C=C3)cc1
REMARK SMILES IDX 29 1 28 2 27 3 2 4 1 5 3 6 4 7 5 8 6 9 10 10 7 11 9 12 8 13
REMARK SMILES IDX 11 14 12 15 13 16 14 17 26 18 15 19 25 20 16 21 17 23 18 24
REMARK SMILES IDX 19 25 24 26 20 27 23 28 21 29 22 30 30 31 31 32 32 33 33 34
REMARK SMILES IDX 34 35 35 36 36 37 37 38 38 39 39 40 40 41 101 42 41 43
REMARK SMILES IDX 100 44 42 45 43 46 44 47 94 48 45 49 99 50 93 51 95 52 46 53
REMARK SMILES IDX 98 54 92 55 91 56 47 58 79 59 59 60 78 61 60 62 63 63 77 64
REMARK SMILES IDX 96 65 61 66 62 67 76 69 97 70 64 71 48 72 49 73 57 74 50 75
REMARK SMILES IDX 51 76 55 77 58 78 52 79 53 80 56 81 54 82 80 83 81 84 89 85
REMARK SMILES IDX 82 86 83 87 87 88 90 89 84 90 85 91 88 92 86 93 65 94 66 95
REMARK SMILES IDX 74 96 67 97 68 98 72 99 75 100 69 101 70 102 73 103 71 104
REMARK H PARENT 16 22 95 57 63 68
REMARK Flexibility Score: inf
ROOT
ATOM      1  C   UNL     1       5.336   0.084   0.650  1.00  0.00     0.202 C 
ENDROOT
BRANCH   1   2
ATOM      2  C   UNL     1       4.477   0.748  -0.419  1.00  0.00     0.261 C 
BRANCH   2   3
ATOM      3  O   UNL     1       3.036   0.633  -0.320  1.00  0.00    -0.461 OA
BRANCH   3   4
ATOM      4  C   UNL     1       2.189  -0.403  -0.480  1.00  0.00     0.344 C 
ATOM      5  O   UNL     1       0.988  -0.262  -0.239  1.00  0.00    -0.248 OA
BRANCH   4   6
ATOM      6  C   UNL     1       2.727  -1.790  -0.769  1.00  0.00     0.352 C 
BRANCH   6   7
ATOM      7  O   UNL     1       3.939  -1.879  -1.494  1.00  0.00    -0.481 OA
BRANCH   7   8
ATOM      8  C   UNL     1       3.691  -2.238  -2.789  1.00  0.00     0.129 A 
ATOM      9  C   UNL     1       3.922  -3.566  -3.138  1.00  0.00     0.047 A 
ATOM     10  C   UNL     1       3.285  -1.318  -3.759  1.00  0.00     0.037 A 
ATOM     11  C   UNL     1       3.731  -3.969  -4.458  1.00  0.00     0.004 A 
ATOM     12  C   UNL     1       3.160  -1.706  -5.085  1.00  0.00     0.013 A 
ATOM     13  C   UNL     1       3.351  -3.040  -5.429  1.00  0.00     0.001 A 
BRANCH  10  14
ATOM     14  C   UNL     1       3.223   0.102  -3.464  1.00  0.00     0.145 C 
ATOM     15  N   UNL     1       2.282   0.982  -3.532  1.00  0.00    -0.185 NA
BRANCH  15  16
ATOM     16  N   UNL     1       1.004   0.810  -3.885  1.00  0.00    -0.286 NA
ATOM     17  C   UNL     1       0.468   1.936  -4.650  1.00  0.00     0.200 C 
ATOM     18  C   UNL     1       0.216  -0.398  -4.135  1.00  0.00     0.200 C 
ATOM     19  C   UNL     1       0.492   1.609  -6.150  1.00  0.00     0.286 C 
ATOM     20  C   UNL     1      -0.053  -0.714  -5.637  1.00  0.00     0.286 C 
ATOM     21  N   UNL     1      -0.271   0.419  -6.553  1.00  0.00    -0.328 N 
ATOM     22  H   UNL     1       0.123   0.115  -7.444  1.00  0.00     0.348 HD
BRANCH  21  23
ATOM     23  C   UNL     1      -1.665   0.680  -6.935  1.00  0.00     0.299 C 
BRANCH  23  24
ATOM     24  C   UNL     1      -2.626   0.928  -5.796  1.00  0.00     0.006 A 
ATOM     25  C   UNL     1      -3.299  -0.147  -5.197  1.00  0.00     0.011 A 
ATOM     26  C   UNL     1      -2.779   2.211  -5.253  1.00  0.00     0.011 A 
ATOM     27  C   UNL     1      -4.003   0.035  -4.007  1.00  0.00     0.021 A 
ATOM     28  C   UNL     1      -3.462   2.390  -4.049  1.00  0.00     0.021 A 
ATOM     29  C   UNL     1      -4.051   1.296  -3.420  1.00  0.00     0.041 A 
ATOM     30  Cl  UNL     1      -4.815   1.497  -1.893  1.00  0.00    -0.084 Cl
ENDBRANCH  23  24
ENDBRANCH  21  23
ENDBRANCH  15  16
ENDBRANCH  10  14
ENDBRANCH   7   8
ENDBRANCH   6   7
ENDBRANCH   4   6
ENDBRANCH   3   4
ENDBRANCH   2   3
ENDBRANCH   1   2
BRANCH   1  31
ATOM     31  O   UNL     1       4.963   0.319   1.987  1.00  0.00    -0.376 OA
BRANCH  31  32
ATOM     32  C   UNL     1       3.659  -0.083   2.348  1.00  0.00     0.188 C 
BRANCH  32  33
ATOM     33  C   UNL     1       2.684   1.087   2.596  1.00  0.00     0.188 C 
BRANCH  33  34
ATOM     34  O   UNL     1       3.186   2.397   2.818  1.00  0.00    -0.376 OA
BRANCH  34  35
ATOM     35  C   UNL     1       4.414   2.567   3.504  1.00  0.00     0.202 C 
BRANCH  35  36
ATOM     36  C   UNL     1       4.562   1.968   4.916  1.00  0.00     0.261 C 
BRANCH  36  37
ATOM     37  O   UNL     1       4.234   0.569   5.057  1.00  0.00    -0.460 OA
BRANCH  37  38
ATOM     38  C   UNL     1       3.051   0.276   5.654  1.00  0.00     0.338 C 
ATOM     39  O   UNL     1       2.271   1.073   6.160  1.00  0.00    -0.246 OA
BRANCH  38  40
ATOM     40  C   UNL     1       2.697  -1.157   5.460  1.00  0.00     0.060 A 
ATOM     41  C   UNL     1       1.468  -1.472   4.853  1.00  0.00     0.016 A 
ATOM     42  C   UNL     1       3.532  -2.187   5.897  1.00  0.00     0.016 A 
ATOM     43  C   UNL     1       1.040  -2.800   4.746  1.00  0.00     0.010 A 
ATOM     44  C   UNL     1       3.089  -3.518   5.818  1.00  0.00     0.010 A 
ATOM     45  C   UNL     1       1.817  -3.827   5.294  1.00  0.00    -0.014 A 
BRANCH  45  46
ATOM     46  C   UNL     1       1.185  -5.144   5.598  1.00  0.00     0.031 A 
ATOM     47  C   UNL     1       0.666  -5.364   6.998  1.00  0.00     0.074 A 
ATOM     48  C   UNL     1       1.035  -6.118   4.683  1.00  0.00     0.049 A 
ATOM     49  N   UNL     1       0.132  -6.429   7.541  1.00  0.00    -0.248 NA
ATOM     50  C   UNL     1       0.776  -4.216   7.913  1.00  0.00     0.031 C 
ATOM     51  C   UNL     1       1.425  -6.033   3.280  1.00  0.00     0.029 A 
ATOM     52  N   UNL     1       0.512  -7.385   4.812  1.00  0.00    -0.354 N 
ATOM     53  C   UNL     1      -0.135  -6.085   8.861  1.00  0.00     0.074 A 
ATOM     54  C   UNL     1       0.329  -4.728   9.047  1.00  0.00     0.031 C 
ATOM     55  C   UNL     1       1.138  -7.202   2.677  1.00  0.00     0.029 A 
ATOM     56  C   UNL     1       0.573  -8.130   3.659  1.00  0.00     0.049 A 
ATOM     57  H   UNL     1       0.129  -7.726   5.652  1.00  0.00     0.167 HD
ATOM     58  C   UNL     1      -0.721  -6.825   9.834  1.00  0.00     0.037 A 
ATOM     59  C   UNL     1       0.228  -9.414   3.430  1.00  0.00     0.037 A 
ATOM     60  C   UNL     1      -1.187  -8.175   9.659  1.00  0.00     0.049 A 
ATOM     61  C   UNL     1      -0.347 -10.251   4.549  1.00  0.00     0.074 A 
ATOM     62  C   UNL     1      -1.811  -8.998  10.579  1.00  0.00     0.029 A 
ATOM     63  N   UNL     1      -1.069  -8.905   8.485  1.00  0.00    -0.354 N 
ATOM     64  N   UNL     1      -0.613  -9.915   5.788  1.00  0.00    -0.248 NA
ATOM     65  C   UNL     1      -0.675 -11.649   4.230  1.00  0.00     0.031 C 
ATOM     66  C   UNL     1      -2.008 -10.249   9.984  1.00  0.00     0.029 A 
ATOM     67  C   UNL     1      -1.579 -10.181   8.668  1.00  0.00     0.049 A 
ATOM     68  H   UNL     1      -0.680  -8.567   7.646  1.00  0.00     0.167 HD
ATOM     69  C   UNL     1      -1.179 -11.039   6.380  1.00  0.00     0.074 A 
ATOM     70  C   UNL     1      -1.220 -12.068   5.363  1.00  0.00     0.031 C 
ATOM     71  C   UNL     1      -1.632 -11.199   7.649  1.00  0.00     0.037 A 
BRANCH  58  72
ATOM     72  C   UNL     1      -0.843  -6.195  11.195  1.00  0.00     0.064 A 
ATOM     73  C   UNL     1      -1.688  -5.101  11.438  1.00  0.00     0.173 A 
ATOM     74  C   UNL     1      -0.093  -6.693  12.272  1.00  0.00     0.173 A 
ATOM     75  F   UNL     1      -2.417  -4.576  10.441  1.00  0.00    -0.203 F 
ATOM     76  C   UNL     1      -1.740  -4.499  12.693  1.00  0.00     0.198 A 
ATOM     77  C   UNL     1      -0.178  -6.115  13.535  1.00  0.00     0.198 A 
ATOM     78  F   UNL     1       0.726  -7.741  12.099  1.00  0.00    -0.203 F 
ATOM     79  F   UNL     1      -2.497  -3.410  12.881  1.00  0.00    -0.200 F 
ATOM     80  C   UNL     1      -0.989  -5.010  13.741  1.00  0.00     0.200 A 
ATOM     81  F   UNL     1       0.535  -6.621  14.550  1.00  0.00    -0.200 F 
ATOM     82  F   UNL     1      -1.039  -4.430  14.948  1.00  0.00    -0.200 F 
ENDBRANCH  58  72
BRANCH  59  83
ATOM     83  C   UNL     1       0.408 -10.002   2.074  1.00  0.00     0.064 A 
ATOM     84  C   UNL     1      -0.699 -10.363   1.291  1.00  0.00     0.173 A 
ATOM     85  C   UNL     1       1.684 -10.237   1.542  1.00  0.00     0.173 A 
ATOM     86  F   UNL     1      -1.940 -10.190   1.767  1.00  0.00    -0.203 F 
ATOM     87  C   UNL     1      -0.535 -10.945   0.035  1.00  0.00     0.198 A 
ATOM     88  C   UNL     1       1.846 -10.791   0.273  1.00  0.00     0.198 A 
ATOM     89  F   UNL     1       2.777  -9.919   2.251  1.00  0.00    -0.203 F 
ATOM     90  F   UNL     1      -1.610 -11.321  -0.672  1.00  0.00    -0.200 F 
ATOM     91  C   UNL     1       0.737 -11.151  -0.476  1.00  0.00     0.200 A 
ATOM     92  F   UNL     1       3.077 -10.978  -0.222  1.00  0.00    -0.200 F 
ATOM     93  F   UNL     1       0.893 -11.702  -1.688  1.00  0.00    -0.200 F 
ENDBRANCH  59  83
BRANCH  71  94
ATOM     94  C   UNL     1      -2.278 -12.512   8.004  1.00  0.00     0.064 A 
ATOM     95  C   UNL     1      -1.546 -13.706   8.097  1.00  0.00     0.173 A 
ATOM     96  C   UNL     1      -3.651 -12.566   8.294  1.00  0.00     0.173 A 
ATOM     97  F   UNL     1      -0.233 -13.717   7.822  1.00  0.00    -0.203 F 
ATOM     98  C   UNL     1      -2.171 -14.906   8.432  1.00  0.00     0.198 A 
ATOM     99  C   UNL     1      -4.264 -13.760   8.665  1.00  0.00     0.198 A 
ATOM    100  F   UNL     1      -4.400 -11.454   8.232  1.00  0.00    -0.203 F 
ATOM    101  F   UNL     1      -1.461 -16.044   8.457  1.00  0.00    -0.200 F 
ATOM    102  C   UNL     1      -3.526 -14.931   8.723  1.00  0.00     0.200 A 
ATOM    103  F   UNL     1      -5.571 -13.776   8.965  1.00  0.00    -0.200 F 
ATOM    104  F   UNL     1      -4.123 -16.085   9.052  1.00  0.00    -0.200 F 
ENDBRANCH  71  94
ENDBRANCH  45  46
ENDBRANCH  38  40
ENDBRANCH  37  38
ENDBRANCH  36  37
ENDBRANCH  35  36
ENDBRANCH  34  35
ENDBRANCH  33  34
ENDBRANCH  32  33
ENDBRANCH  31  32
ENDBRANCH   1  31
TORSDOF 23
