REMARK SMILES O=C(CCNC(=O)c1cc(S(=O)(=O)N2CCCCC2)cs1)OCCOCCOCCOC(=O)c1ccc(-c2c3nc(c(-c4c(F)c(F)c(F)c(F)c4F)c4ccc([nH]4)c(-c4c(F)c(F)c(F)c(F)c4F)c4nc(c(-c5c(F)c(F)c(F)c(F)c5F)c5ccc2[nH]5)C=C4)C=C3)cc1
REMARK SMILES IDX 25 1 24 2 23 3 22 4 2 5 1 6 3 7 4 8 5 9 6 10 7 12 8 13 9 14
REMARK SMILES IDX 21 15 10 16 20 17 11 18 12 19 13 20 14 21 15 22 19 23 16 24
REMARK SMILES IDX 18 25 17 26 26 27 27 28 28 29 29 30 30 31 31 32 32 33 33 34
REMARK SMILES IDX 34 35 35 36 96 37 36 38 95 39 37 40 38 41 39 42 89 43 40 44
REMARK SMILES IDX 94 45 88 46 90 47 41 48 93 49 87 50 86 51 42 53 74 54 54 55
REMARK SMILES IDX 73 56 55 57 58 58 72 59 91 60 56 61 57 62 71 64 92 65 59 66
REMARK SMILES IDX 43 67 44 68 52 69 45 70 46 71 50 72 53 73 47 74 48 75 51 76
REMARK SMILES IDX 49 77 75 78 76 79 84 80 77 81 78 82 82 83 85 84 79 85 80 86
REMARK SMILES IDX 83 87 81 88 60 89 61 90 69 91 62 92 63 93 67 94 70 95 64 96
REMARK SMILES IDX 65 97 68 98 66 99
REMARK H PARENT 5 11 90 52 58 63
REMARK Flexibility Score: inf
ROOT
ATOM      1  O   UNL     1       3.993   1.570  -0.971  1.00  0.00    -0.376 OA
ENDROOT
BRANCH   1   2
ATOM      2  C   UNL     1       4.818   0.424  -0.770  1.00  0.00     0.202 C 
BRANCH   2   3
ATOM      3  C   UNL     1       4.341  -0.961  -1.212  1.00  0.00     0.261 C 
BRANCH   3   4
ATOM      4  O   UNL     1       3.194  -1.600  -0.575  1.00  0.00    -0.463 OA
BRANCH   4   5
ATOM      5  C   UNL     1       2.595  -1.484   0.621  1.00  0.00     0.307 C 
ATOM      6  O   UNL     1       1.551  -2.094   0.847  1.00  0.00    -0.252 OA
BRANCH   5   7
ATOM      7  C   UNL     1       3.203  -0.645   1.696  1.00  0.00     0.144 C 
BRANCH   7   8
ATOM      8  C   UNL     1       4.258  -1.414   2.468  1.00  0.00     0.128 C 
BRANCH   8   9
ATOM      9  N   UNL     1       5.457  -1.733   1.704  1.00  0.00    -0.351 N 
ATOM     10  C   UNL     1       6.713  -1.156   1.700  1.00  0.00     0.261 C 
ATOM     11  H   UNL     1       5.356  -2.491   1.085  1.00  0.00     0.163 HD
ATOM     12  O   UNL     1       7.432  -1.409   0.735  1.00  0.00    -0.268 OA
BRANCH  10  13
ATOM     13  C   UNL     1       7.095  -0.297   2.802  1.00  0.00     0.093 A 
ATOM     14  C   UNL     1       6.793  -0.449   4.138  1.00  0.00     0.047 A 
ATOM     15  S   UNL     1       8.100   1.065   2.560  1.00  0.00    -0.137 S 
ATOM     16  C   UNL     1       7.196   0.656   4.933  1.00  0.00     0.094 A 
ATOM     17  C   UNL     1       7.974   1.535   4.209  1.00  0.00     0.087 A 
BRANCH  16  18
ATOM     18  S   UNL     1       6.750   0.876   6.603  1.00  0.00     0.243 S 
ATOM     19  O   UNL     1       7.818   0.230   7.327  1.00  0.00    -0.207 OA
ATOM     20  O   UNL     1       6.495   2.299   6.685  1.00  0.00    -0.207 OA
BRANCH  18  21
ATOM     21  N   UNL     1       5.272   0.052   6.916  1.00  0.00    -0.198 NA
ATOM     22  C   UNL     1       4.108   0.585   6.169  1.00  0.00     0.102 C 
ATOM     23  C   UNL     1       5.394  -1.413   7.128  1.00  0.00     0.102 C 
ATOM     24  C   UNL     1       2.821  -0.177   6.441  1.00  0.00     0.017 C 
ATOM     25  C   UNL     1       4.062  -2.137   7.275  1.00  0.00     0.017 C 
ATOM     26  C   UNL     1       3.026  -1.670   6.269  1.00  0.00     0.003 C 
ENDBRANCH  18  21
ENDBRANCH  16  18
ENDBRANCH  10  13
ENDBRANCH   8   9
ENDBRANCH   7   8
ENDBRANCH   5   7
ENDBRANCH   4   5
ENDBRANCH   3   4
ENDBRANCH   2   3
ENDBRANCH   1   2
BRANCH   1  27
ATOM     27  C   UNL     1       2.611   1.409  -1.228  1.00  0.00     0.188 C 
BRANCH  27  28
ATOM     28  C   UNL     1       2.171   1.764  -2.654  1.00  0.00     0.188 C 
BRANCH  28  29
ATOM     29  O   UNL     1       3.030   1.383  -3.716  1.00  0.00    -0.376 OA
BRANCH  29  30
ATOM     30  C   UNL     1       4.307   2.019  -3.806  1.00  0.00     0.202 C 
BRANCH  30  31
ATOM     31  C   UNL     1       4.391   3.550  -3.690  1.00  0.00     0.261 C 
BRANCH  31  32
ATOM     32  O   UNL     1       4.027   4.058  -2.387  1.00  0.00    -0.460 OA
BRANCH  32  33
ATOM     33  C   UNL     1       3.069   5.014  -2.389  1.00  0.00     0.338 C 
ATOM     34  O   UNL     1       2.517   5.505  -3.360  1.00  0.00    -0.246 OA
BRANCH  33  35
ATOM     35  C   UNL     1       2.623   5.332  -1.020  1.00  0.00     0.060 A 
ATOM     36  C   UNL     1       1.312   4.993  -0.662  1.00  0.00     0.016 A 
ATOM     37  C   UNL     1       3.397   6.139  -0.183  1.00  0.00     0.016 A 
ATOM     38  C   UNL     1       0.751   5.507   0.507  1.00  0.00     0.010 A 
ATOM     39  C   UNL     1       2.827   6.664   0.986  1.00  0.00     0.010 A 
ATOM     40  C   UNL     1       1.486   6.388   1.312  1.00  0.00    -0.014 A 
BRANCH  40  41
ATOM     41  C   UNL     1       0.780   7.144   2.380  1.00  0.00     0.031 A 
ATOM     42  C   UNL     1       0.285   8.538   2.090  1.00  0.00     0.074 A 
ATOM     43  C   UNL     1       0.513   6.578   3.570  1.00  0.00     0.049 A 
ATOM     44  N   UNL     1      -0.404   9.352   2.851  1.00  0.00    -0.248 NA
ATOM     45  C   UNL     1       0.607   9.085   0.763  1.00  0.00     0.031 C 
ATOM     46  C   UNL     1       0.913   5.231   3.971  1.00  0.00     0.029 A 
ATOM     47  N   UNL     1      -0.162   7.069   4.660  1.00  0.00    -0.354 N 
ATOM     48  C   UNL     1      -0.611  10.496   2.091  1.00  0.00     0.074 A 
ATOM     49  C   UNL     1       0.062  10.291   0.826  1.00  0.00     0.031 C 
ATOM     50  C   UNL     1       0.482   5.006   5.224  1.00  0.00     0.029 A 
ATOM     51  C   UNL     1      -0.210   6.196   5.718  1.00  0.00     0.049 A 
ATOM     52  H   UNL     1      -0.574   7.964   4.680  1.00  0.00     0.167 HD
ATOM     53  C   UNL     1      -1.314  11.611   2.408  1.00  0.00     0.037 A 
ATOM     54  C   UNL     1      -0.743   6.345   6.946  1.00  0.00     0.037 A 
ATOM     55  C   UNL     1      -1.975  11.831   3.668  1.00  0.00     0.049 A 
ATOM     56  C   UNL     1      -1.471   7.618   7.295  1.00  0.00     0.074 A 
ATOM     57  C   UNL     1      -2.706  12.932   4.081  1.00  0.00     0.029 A 
ATOM     58  N   UNL     1      -1.978  10.932   4.724  1.00  0.00    -0.354 N 
ATOM     59  N   UNL     1      -1.690   8.679   6.557  1.00  0.00    -0.248 NA
ATOM     60  C   UNL     1      -2.041   7.705   8.648  1.00  0.00     0.031 C 
ATOM     61  C   UNL     1      -3.118  12.716   5.401  1.00  0.00     0.029 A 
ATOM     62  C   UNL     1      -2.685  11.461   5.793  1.00  0.00     0.049 A 
ATOM     63  H   UNL     1      -1.543  10.049   4.715  1.00  0.00     0.167 HD
ATOM     64  C   UNL     1      -2.437   9.546   7.344  1.00  0.00     0.074 A 
ATOM     65  C   UNL     1      -2.657   8.878   8.609  1.00  0.00     0.031 C 
ATOM     66  C   UNL     1      -2.897  10.787   7.048  1.00  0.00     0.037 A 
BRANCH  53  67
ATOM     67  C   UNL     1      -1.400  12.691   1.369  1.00  0.00     0.064 A 
ATOM     68  C   UNL     1      -2.191  12.539   0.220  1.00  0.00     0.173 A 
ATOM     69  C   UNL     1      -0.721  13.906   1.543  1.00  0.00     0.173 A 
ATOM     70  F   UNL     1      -2.850  11.390   0.002  1.00  0.00    -0.203 F 
ATOM     71  C   UNL     1      -2.282  13.555  -0.727  1.00  0.00     0.198 A 
ATOM     72  C   UNL     1      -0.836  14.931   0.607  1.00  0.00     0.198 A 
ATOM     73  F   UNL     1       0.044  14.104   2.627  1.00  0.00    -0.203 F 
ATOM     74  F   UNL     1      -3.012  13.373  -1.836  1.00  0.00    -0.200 F 
ATOM     75  C   UNL     1      -1.611  14.753  -0.530  1.00  0.00     0.200 A 
ATOM     76  F   UNL     1      -0.196  16.092   0.805  1.00  0.00    -0.200 F 
ATOM     77  F   UNL     1      -1.706  15.734  -1.437  1.00  0.00    -0.200 F 
ENDBRANCH  53  67
BRANCH  54  78
ATOM     78  C   UNL     1      -0.607   5.257   7.950  1.00  0.00     0.064 A 
ATOM     79  C   UNL     1      -1.719   4.523   8.384  1.00  0.00     0.173 A 
ATOM     80  C   UNL     1       0.639   4.952   8.518  1.00  0.00     0.173 A 
ATOM     81  F   UNL     1      -2.935   4.794   7.888  1.00  0.00    -0.203 F 
ATOM     82  C   UNL     1      -1.595   3.541   9.364  1.00  0.00     0.198 A 
ATOM     83  C   UNL     1       0.767   3.950   9.477  1.00  0.00     0.198 A 
ATOM     84  F   UNL     1       1.733   5.626   8.136  1.00  0.00    -0.203 F 
ATOM     85  F   UNL     1      -2.682   2.887   9.797  1.00  0.00    -0.200 F 
ATOM     86  C   UNL     1      -0.351   3.251   9.906  1.00  0.00     0.200 A 
ATOM     87  F   UNL     1       1.972   3.663   9.986  1.00  0.00    -0.200 F 
ATOM     88  F   UNL     1      -0.232   2.304  10.846  1.00  0.00    -0.200 F 
ENDBRANCH  54  78
BRANCH  66  89
ATOM     89  C   UNL     1      -3.704  11.491   8.103  1.00  0.00     0.064 A 
ATOM     90  C   UNL     1      -3.113  11.979   9.278  1.00  0.00     0.173 A 
ATOM     91  C   UNL     1      -5.082  11.693   7.929  1.00  0.00     0.173 A 
ATOM     92  F   UNL     1      -1.802  11.800   9.499  1.00  0.00    -0.203 F 
ATOM     93  C   UNL     1      -3.878  12.610  10.257  1.00  0.00     0.198 A 
ATOM     94  C   UNL     1      -5.838  12.351   8.896  1.00  0.00     0.198 A 
ATOM     95  F   UNL     1      -5.696  11.254   6.821  1.00  0.00    -0.203 F 
ATOM     96  F   UNL     1      -3.301  13.015  11.397  1.00  0.00    -0.200 F 
ATOM     97  C   UNL     1      -5.238  12.799  10.063  1.00  0.00     0.200 A 
ATOM     98  F   UNL     1      -7.150  12.544   8.702  1.00  0.00    -0.200 F 
ATOM     99  F   UNL     1      -5.973  13.403  11.007  1.00  0.00    -0.200 F 
ENDBRANCH  66  89
ENDBRANCH  40  41
ENDBRANCH  33  35
ENDBRANCH  32  33
ENDBRANCH  31  32
ENDBRANCH  30  31
ENDBRANCH  29  30
ENDBRANCH  28  29
ENDBRANCH  27  28
ENDBRANCH   1  27
TORSDOF 22
