REMARK SMILES O=C(Nc1ccc(Br)cc1)Nc1ccc(CC(=O)OCCOCCOCCOC(=O)c2ccc(-c3c4nc(c(-c5c(F)c(F)c(F)c(F)c5F)c5ccc([nH]5)c(-c5c(F)c(F)c(F)c(F)c5F)c5nc(c(-c6c(F)c(F)c(F)c(F)c6F)c6ccc3[nH]6)C=C5)C=C4)cc2)cc1
REMARK SMILES IDX 23 1 22 2 21 3 20 4 19 5 17 6 18 7 16 8 15 9 12 10 13 11
REMARK SMILES IDX 95 12 14 13 94 14 11 15 1 16 2 17 3 18 4 21 5 22 10 23 6 24
REMARK SMILES IDX 9 25 7 26 8 27 24 28 25 29 26 30 27 31 28 32 29 33 30 34
REMARK SMILES IDX 31 35 32 36 93 37 33 38 92 39 34 40 35 41 36 42 86 43 37 44
REMARK SMILES IDX 91 45 85 46 87 47 38 48 90 49 84 50 83 51 39 53 71 54 51 55
REMARK SMILES IDX 70 56 52 57 55 58 69 59 88 60 53 61 54 62 68 64 89 65 56 66
REMARK SMILES IDX 40 67 41 68 49 69 42 70 43 71 47 72 50 73 44 74 45 75 48 76
REMARK SMILES IDX 46 77 72 78 73 79 81 80 74 81 75 82 79 83 82 84 76 85 77 86
REMARK SMILES IDX 80 87 78 88 57 89 58 90 66 91 59 92 60 93 64 94 67 95 61 96
REMARK SMILES IDX 62 97 65 98 63 99
REMARK H PARENT 3 19 11 20 87 52 55 63
REMARK Flexibility Score: inf
ROOT
ATOM      1  C   UNL     1       3.047  -6.134   5.436  1.00  0.00     0.188 C 
ENDROOT
BRANCH   1   2
ATOM      2  O   UNL     1       2.917  -7.549   5.547  1.00  0.00    -0.376 OA
BRANCH   2   3
ATOM      3  C   UNL     1       2.841  -8.316   4.354  1.00  0.00     0.202 C 
BRANCH   3   4
ATOM      4  C   UNL     1       1.504  -8.251   3.613  1.00  0.00     0.261 C 
BRANCH   4   5
ATOM      5  O   UNL     1       1.078  -6.909   3.287  1.00  0.00    -0.463 OA
BRANCH   5   6
ATOM      6  C   UNL     1      -0.036  -6.472   3.924  1.00  0.00     0.310 C 
ATOM      7  O   UNL     1      -0.682  -7.149   4.722  1.00  0.00    -0.252 OA
BRANCH   6   8
ATOM      8  C   UNL     1      -0.497  -5.081   3.558  1.00  0.00     0.158 C 
BRANCH   8   9
ATOM      9  C   UNL     1       0.413  -4.104   2.841  1.00  0.00    -0.037 A 
ATOM     10  C   UNL     1       1.834  -2.026   1.533  1.00  0.00     0.042 A 
ATOM     11  C   UNL     1       1.989  -2.240   2.904  1.00  0.00     0.026 A 
ATOM     12  C   UNL     1       0.999  -2.880   0.811  1.00  0.00     0.026 A 
ATOM     13  C   UNL     1       1.258  -3.245   3.557  1.00  0.00     0.006 A 
ATOM     14  C   UNL     1       0.315  -3.924   1.454  1.00  0.00     0.006 A 
BRANCH  10  15
ATOM     15  N   UNL     1       2.528  -0.951   0.942  1.00  0.00    -0.308 N 
ATOM     16  O   UNL     1       0.997  -0.291  -0.661  1.00  0.00    -0.248 OA
ATOM     17  C   UNL     1       2.113  -0.228  -0.152  1.00  0.00     0.323 C 
ATOM     18  N   UNL     1       2.986   0.743  -0.579  1.00  0.00    -0.308 N 
ATOM     19  H   UNL     1       2.561   1.559  -0.928  1.00  0.00     0.171 HD
ATOM     20  H   UNL     1       3.387  -0.694   1.350  1.00  0.00     0.171 HD
BRANCH  18  21
ATOM     21  C   UNL     1       4.391   0.751  -0.593  1.00  0.00     0.042 A 
ATOM     22  C   UNL     1       5.150  -0.421  -0.522  1.00  0.00     0.027 A 
ATOM     23  C   UNL     1       5.039   1.975  -0.796  1.00  0.00     0.027 A 
ATOM     24  C   UNL     1       6.543  -0.368  -0.642  1.00  0.00     0.018 A 
ATOM     25  C   UNL     1       6.433   2.033  -0.891  1.00  0.00     0.018 A 
ATOM     26  C   UNL     1       7.178   0.858  -0.819  1.00  0.00     0.018 A 
ATOM     27  Br  UNL     1       9.060   0.926  -0.985  1.00  0.00    -0.051 Br
ENDBRANCH  18  21
ENDBRANCH  10  15
ENDBRANCH   8   9
ENDBRANCH   6   8
ENDBRANCH   5   6
ENDBRANCH   4   5
ENDBRANCH   3   4
ENDBRANCH   2   3
ENDBRANCH   1   2
BRANCH   1  28
ATOM     28  C   UNL     1       3.658  -5.529   4.163  1.00  0.00     0.188 C 
BRANCH  28  29
ATOM     29  O   UNL     1       4.861  -6.192   3.792  1.00  0.00    -0.376 OA
BRANCH  29  30
ATOM     30  C   UNL     1       5.929  -5.314   3.464  1.00  0.00     0.202 C 
BRANCH  30  31
ATOM     31  C   UNL     1       6.837  -5.166   4.686  1.00  0.00     0.261 C 
BRANCH  31  32
ATOM     32  O   UNL     1       6.168  -4.632   5.848  1.00  0.00    -0.460 OA
BRANCH  32  33
ATOM     33  C   UNL     1       5.736  -3.360   5.755  1.00  0.00     0.338 C 
ATOM     34  O   UNL     1       5.863  -2.606   4.797  1.00  0.00    -0.246 OA
BRANCH  33  35
ATOM     35  C   UNL     1       4.925  -3.026   6.942  1.00  0.00     0.060 A 
ATOM     36  C   UNL     1       3.685  -2.409   6.744  1.00  0.00     0.016 A 
ATOM     37  C   UNL     1       5.398  -3.253   8.238  1.00  0.00     0.016 A 
ATOM     38  C   UNL     1       2.937  -1.971   7.836  1.00  0.00     0.010 A 
ATOM     39  C   UNL     1       4.650  -2.806   9.332  1.00  0.00     0.010 A 
ATOM     40  C   UNL     1       3.434  -2.127   9.137  1.00  0.00    -0.014 A 
BRANCH  40  41
ATOM     41  C   UNL     1       2.756  -1.436  10.264  1.00  0.00     0.031 A 
ATOM     42  C   UNL     1       3.324  -0.137  10.772  1.00  0.00     0.074 A 
ATOM     43  C   UNL     1       1.619  -1.919  10.795  1.00  0.00     0.049 A 
ATOM     44  N   UNL     1       2.889   0.647  11.727  1.00  0.00    -0.248 NA
ATOM     45  C   UNL     1       4.549   0.342  10.114  1.00  0.00     0.031 C 
ATOM     46  C   UNL     1       0.946  -3.147  10.378  1.00  0.00     0.029 A 
ATOM     47  N   UNL     1       0.828  -1.425  11.804  1.00  0.00    -0.354 N 
ATOM     48  C   UNL     1       3.784   1.707  11.784  1.00  0.00     0.074 A 
ATOM     49  C   UNL     1       4.808   1.449  10.794  1.00  0.00     0.031 C 
ATOM     50  C   UNL     1      -0.161  -3.310  11.123  1.00  0.00     0.029 A 
ATOM     51  C   UNL     1      -0.260  -2.213  12.086  1.00  0.00     0.049 A 
ATOM     52  H   UNL     1       1.023  -0.586  12.280  1.00  0.00     0.167 HD
ATOM     53  C   UNL     1       3.753   2.803  12.580  1.00  0.00     0.037 A 
ATOM     54  C   UNL     1      -1.220  -2.070  13.021  1.00  0.00     0.037 A 
ATOM     55  C   UNL     1       2.739   3.067  13.567  1.00  0.00     0.049 A 
ATOM     56  C   UNL     1      -1.201  -0.868  13.932  1.00  0.00     0.074 A 
ATOM     57  C   UNL     1       2.619   4.158  14.411  1.00  0.00     0.029 A 
ATOM     58  N   UNL     1       1.671   2.228  13.847  1.00  0.00    -0.354 N 
ATOM     59  N   UNL     1      -0.365   0.141  13.961  1.00  0.00    -0.248 NA
ATOM     60  C   UNL     1      -2.271  -0.786  14.938  1.00  0.00     0.031 C 
ATOM     61  C   UNL     1       1.506   3.955  15.235  1.00  0.00     0.029 A 
ATOM     62  C   UNL     1       0.900   2.766  14.867  1.00  0.00     0.049 A 
ATOM     63  H   UNL     1       1.488   1.375  13.390  1.00  0.00     0.167 HD
ATOM     64  C   UNL     1      -0.821   0.988  14.964  1.00  0.00     0.074 A 
ATOM     65  C   UNL     1      -2.020   0.385  15.506  1.00  0.00     0.031 C 
ATOM     66  C   UNL     1      -0.293   2.159  15.400  1.00  0.00     0.037 A 
BRANCH  53  67
ATOM     67  C   UNL     1       4.869   3.796  12.428  1.00  0.00     0.064 A 
ATOM     68  C   UNL     1       4.974   4.619  11.297  1.00  0.00     0.173 A 
ATOM     69  C   UNL     1       5.830   3.943  13.440  1.00  0.00     0.173 A 
ATOM     70  F   UNL     1       4.091   4.506  10.294  1.00  0.00    -0.203 F 
ATOM     71  C   UNL     1       6.016   5.535  11.173  1.00  0.00     0.198 A 
ATOM     72  C   UNL     1       6.853   4.881  13.326  1.00  0.00     0.198 A 
ATOM     73  F   UNL     1       5.773   3.183  14.543  1.00  0.00    -0.203 F 
ATOM     74  F   UNL     1       6.125   6.277  10.062  1.00  0.00    -0.200 F 
ATOM     75  C   UNL     1       6.950   5.670  12.190  1.00  0.00     0.200 A 
ATOM     76  F   UNL     1       7.747   5.018  14.314  1.00  0.00    -0.200 F 
ATOM     77  F   UNL     1       7.949   6.556  12.071  1.00  0.00    -0.200 F 
ENDBRANCH  53  67
BRANCH  54  78
ATOM     78  C   UNL     1      -2.291  -3.093  13.152  1.00  0.00     0.064 A 
ATOM     79  C   UNL     1      -3.623  -2.792  12.835  1.00  0.00     0.173 A 
ATOM     80  C   UNL     1      -2.010  -4.380  13.632  1.00  0.00     0.173 A 
ATOM     81  F   UNL     1      -3.947  -1.565  12.402  1.00  0.00    -0.203 F 
ATOM     82  C   UNL     1      -4.636  -3.732  13.015  1.00  0.00     0.198 A 
ATOM     83  C   UNL     1      -3.019  -5.329  13.783  1.00  0.00     0.198 A 
ATOM     84  F   UNL     1      -0.753  -4.716  13.957  1.00  0.00    -0.203 F 
ATOM     85  F   UNL     1      -5.908  -3.399  12.758  1.00  0.00    -0.200 F 
ATOM     86  C   UNL     1      -4.332  -5.001  13.483  1.00  0.00     0.200 A 
ATOM     87  F   UNL     1      -2.720  -6.556  14.230  1.00  0.00    -0.200 F 
ATOM     88  F   UNL     1      -5.307  -5.904  13.659  1.00  0.00    -0.200 F 
ENDBRANCH  54  78
BRANCH  66  89
ATOM     89  C   UNL     1      -1.029   2.882  16.493  1.00  0.00     0.064 A 
ATOM     90  C   UNL     1      -1.073   2.388  17.806  1.00  0.00     0.173 A 
ATOM     91  C   UNL     1      -1.691   4.090  16.227  1.00  0.00     0.173 A 
ATOM     92  F   UNL     1      -0.467   1.231  18.113  1.00  0.00    -0.203 F 
ATOM     93  C   UNL     1      -1.786   3.055  18.800  1.00  0.00     0.198 A 
ATOM     94  C   UNL     1      -2.375   4.772  17.231  1.00  0.00     0.198 A 
ATOM     95  F   UNL     1      -1.673   4.614  14.992  1.00  0.00    -0.203 F 
ATOM     96  F   UNL     1      -1.865   2.531  20.031  1.00  0.00    -0.200 F 
ATOM     97  C   UNL     1      -2.432   4.248  18.513  1.00  0.00     0.200 A 
ATOM     98  F   UNL     1      -2.987   5.932  16.954  1.00  0.00    -0.200 F 
ATOM     99  F   UNL     1      -3.120   4.886  19.470  1.00  0.00    -0.200 F 
ENDBRANCH  66  89
ENDBRANCH  40  41
ENDBRANCH  33  35
ENDBRANCH  32  33
ENDBRANCH  31  32
ENDBRANCH  30  31
ENDBRANCH  29  30
ENDBRANCH  28  29
ENDBRANCH   1  28
TORSDOF 20
