REMARK SMILES CCn1nc(-c2cccnc2)c2cc(C(=O)OCCOCCOCCOC(=O)c3ccc(-c4c5nc(c(-c6c(F)c(F)c(F)c(F)c6F)c6ccc([nH]6)c(-c6c(F)c(F)c(F)c(F)c6F)c6nc(c(-c7c(F)c(F)c(F)c(F)c7F)c7ccc4[nH]7)C=C6)C=C5)cc3)sc21
REMARK SMILES IDX 22 1 21 2 20 3 19 4 18 5 17 6 15 7 16 8 14 9 3 10 4 11 93 12
REMARK SMILES IDX 5 13 12 14 92 15 13 16 2 17 1 18 6 19 7 20 11 21 8 22 10 23
REMARK SMILES IDX 9 24 23 25 24 26 25 27 26 28 27 29 28 30 29 31 30 32 91 33
REMARK SMILES IDX 31 34 90 35 32 36 33 37 34 38 84 39 35 40 89 41 83 42 85 43
REMARK SMILES IDX 36 44 88 45 82 46 81 47 37 49 69 50 49 51 68 52 50 53 53 54
REMARK SMILES IDX 67 55 86 56 51 57 52 58 66 60 87 61 54 62 38 63 39 64 47 65
REMARK SMILES IDX 40 66 41 67 45 68 48 69 42 70 43 71 46 72 44 73 70 74 71 75
REMARK SMILES IDX 79 76 72 77 73 78 77 79 80 80 74 81 75 82 78 83 76 84 55 85
REMARK SMILES IDX 56 86 64 87 57 88 58 89 62 90 65 91 59 92 60 93 63 94 61 95
REMARK H PARENT 85 48 53 59
REMARK Flexibility Score: inf
ROOT
ATOM      1  C   UNL     1       5.043  -2.452   5.256  1.00  0.00     0.188 C 
ENDROOT
BRANCH   1   2
ATOM      2  C   UNL     1       4.979  -2.262   6.788  1.00  0.00     0.188 C 
BRANCH   2   3
ATOM      3  O   UNL     1       5.137  -3.359   7.674  1.00  0.00    -0.376 OA
BRANCH   3   4
ATOM      4  C   UNL     1       4.434  -4.575   7.468  1.00  0.00     0.202 C 
BRANCH   4   5
ATOM      5  C   UNL     1       2.945  -4.629   7.070  1.00  0.00     0.261 C 
BRANCH   5   6
ATOM      6  O   UNL     1       2.490  -3.650   6.132  1.00  0.00    -0.459 OA
BRANCH   6   7
ATOM      7  C   UNL     1       1.794  -2.592   6.622  1.00  0.00     0.348 C 
ATOM      8  O   UNL     1       1.507  -2.436   7.814  1.00  0.00    -0.245 OA
BRANCH   7   9
ATOM      9  C   UNL     1       1.584  -1.596   5.590  1.00  0.00     0.115 A 
ATOM     10  N   UNL     1       0.875   0.213   2.381  1.00  0.00    -0.254 N 
ATOM     11  N   UNL     1       0.898   1.554   2.631  1.00  0.00    -0.171 NA
ATOM     12  C   UNL     1       1.171  -0.500   3.489  1.00  0.00     0.122 A 
ATOM     13  C   UNL     1       1.227   1.661   3.943  1.00  0.00     0.103 A 
ATOM     14  C   UNL     1       1.379   0.378   4.473  1.00  0.00     0.040 A 
ATOM     15  S   UNL     1       1.248  -2.091   3.947  1.00  0.00    -0.109 S 
ATOM     16  C   UNL     1       1.613  -0.199   5.721  1.00  0.00     0.040 A 
BRANCH  10  17
ATOM     17  C   UNL     1       0.386  -0.291   1.115  1.00  0.00     0.142 C 
ATOM     18  C   UNL     1       1.125   0.252  -0.094  1.00  0.00     0.029 C 
ENDBRANCH  10  17
BRANCH  13  19
ATOM     19  C   UNL     1       1.285   2.964   4.578  1.00  0.00     0.021 A 
ATOM     20  C   UNL     1       0.131   3.744   4.688  1.00  0.00     0.013 A 
ATOM     21  C   UNL     1       2.476   3.510   5.037  1.00  0.00     0.121 A 
ATOM     22  C   UNL     1       0.207   5.018   5.245  1.00  0.00     0.021 A 
ATOM     23  N   UNL     1       2.580   4.746   5.593  1.00  0.00    -0.264 NA
ATOM     24  C   UNL     1       1.443   5.472   5.675  1.00  0.00     0.111 A 
ENDBRANCH  13  19
ENDBRANCH   7   9
ENDBRANCH   6   7
ENDBRANCH   5   6
ENDBRANCH   4   5
ENDBRANCH   3   4
ENDBRANCH   2   3
ENDBRANCH   1   2
BRANCH   1  25
ATOM     25  O   UNL     1       4.906  -3.781   4.805  1.00  0.00    -0.376 OA
BRANCH  25  26
ATOM     26  C   UNL     1       6.021  -4.581   4.447  1.00  0.00     0.202 C 
BRANCH  26  27
ATOM     27  C   UNL     1       7.432  -4.420   5.012  1.00  0.00     0.261 C 
BRANCH  27  28
ATOM     28  O   UNL     1       7.633  -3.331   5.884  1.00  0.00    -0.460 OA
BRANCH  28  29
ATOM     29  C   UNL     1       8.076  -2.219   5.270  1.00  0.00     0.338 C 
ATOM     30  O   UNL     1       8.108  -1.997   4.067  1.00  0.00    -0.246 OA
BRANCH  29  31
ATOM     31  C   UNL     1       8.630  -1.319   6.276  1.00  0.00     0.060 A 
ATOM     32  C   UNL     1       8.948  -0.033   5.841  1.00  0.00     0.016 A 
ATOM     33  C   UNL     1       9.157  -1.878   7.449  1.00  0.00     0.016 A 
ATOM     34  C   UNL     1      10.022   0.584   6.427  1.00  0.00     0.010 A 
ATOM     35  C   UNL     1      10.240  -1.269   8.022  1.00  0.00     0.010 A 
ATOM     36  C   UNL     1      10.717  -0.105   7.429  1.00  0.00    -0.014 A 
BRANCH  36  37
ATOM     37  C   UNL     1      11.950   0.477   7.896  1.00  0.00     0.031 A 
ATOM     38  C   UNL     1      11.698   1.638   8.763  1.00  0.00     0.074 A 
ATOM     39  C   UNL     1      13.150  -0.055   7.594  1.00  0.00     0.049 A 
ATOM     40  N   UNL     1      11.900   2.878   8.478  1.00  0.00    -0.248 NA
ATOM     41  C   UNL     1      10.932   1.418  10.001  1.00  0.00     0.031 C 
ATOM     42  C   UNL     1      13.408  -1.361   6.977  1.00  0.00     0.029 A 
ATOM     43  N   UNL     1      14.401   0.410   7.873  1.00  0.00    -0.354 N 
ATOM     44  C   UNL     1      11.531   3.570   9.625  1.00  0.00     0.074 A 
ATOM     45  C   UNL     1      10.729   2.672  10.407  1.00  0.00     0.031 C 
ATOM     46  C   UNL     1      14.709  -1.685   7.148  1.00  0.00     0.029 A 
ATOM     47  C   UNL     1      15.395  -0.554   7.748  1.00  0.00     0.049 A 
ATOM     48  H   UNL     1      14.584   1.341   8.138  1.00  0.00     0.167 HD
ATOM     49  C   UNL     1      12.249   4.663   9.996  1.00  0.00     0.037 A 
ATOM     50  C   UNL     1      16.671  -0.440   8.188  1.00  0.00     0.037 A 
ATOM     51  C   UNL     1      13.033   5.155   8.890  1.00  0.00     0.049 A 
ATOM     52  C   UNL     1      16.971   1.006   8.326  1.00  0.00     0.074 A 
ATOM     53  C   UNL     1      12.811   5.897   7.753  1.00  0.00     0.029 A 
ATOM     54  N   UNL     1      14.217   4.489   8.720  1.00  0.00    -0.354 N 
ATOM     55  N   UNL     1      17.041   1.823   7.310  1.00  0.00    -0.248 NA
ATOM     56  C   UNL     1      16.829   1.645   9.632  1.00  0.00     0.031 C 
ATOM     57  C   UNL     1      13.874   5.585   6.854  1.00  0.00     0.029 A 
ATOM     58  C   UNL     1      14.738   4.685   7.472  1.00  0.00     0.049 A 
ATOM     59  H   UNL     1      14.642   3.935   9.414  1.00  0.00     0.167 HD
ATOM     60  C   UNL     1      16.536   3.013   7.793  1.00  0.00     0.074 A 
ATOM     61  C   UNL     1      16.587   2.901   9.244  1.00  0.00     0.031 C 
ATOM     62  C   UNL     1      15.803   3.836   6.991  1.00  0.00     0.037 A 
BRANCH  49  63
ATOM     63  C   UNL     1      12.684   4.939  11.421  1.00  0.00     0.064 A 
ATOM     64  C   UNL     1      13.372   6.139  11.689  1.00  0.00     0.173 A 
ATOM     65  C   UNL     1      12.755   3.961  12.440  1.00  0.00     0.173 A 
ATOM     66  F   UNL     1      13.392   7.130  10.785  1.00  0.00    -0.203 F 
ATOM     67  C   UNL     1      14.132   6.312  12.850  1.00  0.00     0.198 A 
ATOM     68  C   UNL     1      13.471   4.158  13.618  1.00  0.00     0.198 A 
ATOM     69  F   UNL     1      12.241   2.735  12.303  1.00  0.00    -0.203 F 
ATOM     70  F   UNL     1      14.867   7.420  13.004  1.00  0.00    -0.200 F 
ATOM     71  C   UNL     1      14.185   5.319  13.810  1.00  0.00     0.200 A 
ATOM     72  F   UNL     1      13.530   3.170  14.523  1.00  0.00    -0.200 F 
ATOM     73  F   UNL     1      14.959   5.457  14.894  1.00  0.00    -0.200 F 
ENDBRANCH  49  63
BRANCH  50  74
ATOM     74  C   UNL     1      17.524  -1.496   8.779  1.00  0.00     0.064 A 
ATOM     75  C   UNL     1      18.918  -1.357   8.851  1.00  0.00     0.173 A 
ATOM     76  C   UNL     1      16.958  -2.545   9.531  1.00  0.00     0.173 A 
ATOM     77  F   UNL     1      19.529  -0.355   8.204  1.00  0.00    -0.203 F 
ATOM     78  C   UNL     1      19.698  -2.205   9.645  1.00  0.00     0.198 A 
ATOM     79  C   UNL     1      17.737  -3.393  10.319  1.00  0.00     0.198 A 
ATOM     80  F   UNL     1      15.628  -2.706   9.591  1.00  0.00    -0.203 F 
ATOM     81  F   UNL     1      21.021  -2.008   9.736  1.00  0.00    -0.200 F 
ATOM     82  C   UNL     1      19.106  -3.216  10.386  1.00  0.00     0.200 A 
ATOM     83  F   UNL     1      17.145  -4.340  11.060  1.00  0.00    -0.200 F 
ATOM     84  F   UNL     1      19.845  -3.989  11.193  1.00  0.00    -0.200 F 
ENDBRANCH  50  74
BRANCH  62  85
ATOM     85  C   UNL     1      16.012   3.737   5.516  1.00  0.00     0.064 A 
ATOM     86  C   UNL     1      15.633   2.638   4.731  1.00  0.00     0.173 A 
ATOM     87  C   UNL     1      16.540   4.858   4.860  1.00  0.00     0.173 A 
ATOM     88  F   UNL     1      15.059   1.561   5.285  1.00  0.00    -0.203 F 
ATOM     89  C   UNL     1      15.802   2.657   3.346  1.00  0.00     0.198 A 
ATOM     90  C   UNL     1      16.673   4.888   3.478  1.00  0.00     0.198 A 
ATOM     91  F   UNL     1      16.884   5.947   5.565  1.00  0.00    -0.203 F 
ATOM     92  F   UNL     1      15.445   1.594   2.610  1.00  0.00    -0.200 F 
ATOM     93  C   UNL     1      16.312   3.785   2.721  1.00  0.00     0.200 A 
ATOM     94  F   UNL     1      17.128   5.997   2.878  1.00  0.00    -0.200 F 
ATOM     95  F   UNL     1      16.437   3.820   1.387  1.00  0.00    -0.200 F 
ENDBRANCH  62  85
ENDBRANCH  36  37
ENDBRANCH  29  31
ENDBRANCH  28  29
ENDBRANCH  27  28
ENDBRANCH  26  27
ENDBRANCH  25  26
ENDBRANCH   1  25
TORSDOF 19
