REMARK SMILES O=C(OCCOCCOCCOC(=O)c1ccc(-c2c3nc(c(-c4c(F)c(F)c(F)c(F)c4F)c4ccc([nH]4)c(-c4c(F)c(F)c(F)c(F)c4F)c4nc(c(-c5c(F)c(F)c(F)c(F)c5F)c5ccc2[nH]5)C=C4)C=C3)cc1)C1=Cc2c(ccc(Cl)c2Oc2ccccc2)O[C@H]1C(F)(F)F
REMARK SMILES IDX 7 1 6 2 5 3 4 4 3 5 2 6 1 7 78 8 79 9 95 10 80 11 94 12
REMARK SMILES IDX 81 13 86 14 82 15 84 16 83 17 85 18 96 19 97 20 98 21 99 22
REMARK SMILES IDX 87 23 88 24 89 25 93 26 90 27 92 28 91 29 8 30 9 31 10 32
REMARK SMILES IDX 11 33 12 34 13 35 14 36 15 37 16 38 77 39 17 40 76 41 18 42
REMARK SMILES IDX 19 43 20 44 70 45 21 46 75 47 69 48 71 49 22 50 74 51 68 52
REMARK SMILES IDX 67 53 23 55 55 56 35 57 54 58 36 59 39 60 53 61 72 62 37 63
REMARK SMILES IDX 38 64 52 66 73 67 40 68 24 69 25 70 33 71 26 72 27 73 31 74
REMARK SMILES IDX 34 75 28 76 29 77 32 78 30 79 56 80 57 81 65 82 58 83 59 84
REMARK SMILES IDX 63 85 66 86 60 87 61 88 64 89 62 90 41 91 42 92 50 93 43 94
REMARK SMILES IDX 44 95 48 96 51 97 45 98 46 99 49 100 47 101
REMARK H PARENT 71 54 39 65
REMARK Flexibility Score: inf
ROOT
ATOM      1  C   UNL     1       3.458  -2.087   2.096  1.00  0.00     0.188 C 
ENDROOT
BRANCH   1   2
ATOM      2  O   UNL     1       4.634  -1.628   1.619  1.00  0.00    -0.376 OA
BRANCH   2   3
ATOM      3  C   UNL     1       4.259  -0.357   1.113  1.00  0.00     0.202 C 
BRANCH   3   4
ATOM      4  C   UNL     1       2.914   0.431  -0.232  1.00  0.00     0.261 C 
BRANCH   4   5
ATOM      5  O   UNL     1       2.087  -0.198  -1.186  1.00  0.00    -0.460 OA
BRANCH   5   6
ATOM      6  C   UNL     1       2.561  -0.232  -2.439  1.00  0.00     0.338 C 
ATOM      7  O   UNL     1       1.935  -0.129  -3.425  1.00  0.00    -0.246 OA
BRANCH   6   8
ATOM      8  C   UNL     1       3.936  -0.663  -2.249  1.00  0.00     0.088 C 
ATOM      9  C   UNL     1       4.567  -0.646  -1.095  1.00  0.00     0.031 C 
ATOM     10  C   UNL     1       4.896  -1.175  -3.134  1.00  0.00     0.316 C 
ATOM     11  C   UNL     1       5.018   0.859  -0.747  1.00  0.00     0.062 A 
ATOM     12  O   UNL     1       6.288  -0.318  -2.562  1.00  0.00    -0.475 OA
ATOM     13  C   UNL     1       6.183   0.739  -1.484  1.00  0.00     0.131 A 
ATOM     14  C   UNL     1       4.402   1.776   0.665  1.00  0.00     0.156 A 
ATOM     15  C   UNL     1       7.136   1.364  -0.684  1.00  0.00     0.049 A 
ATOM     16  C   UNL     1       5.487   2.314   1.351  1.00  0.00     0.084 A 
ATOM     17  C   UNL     1       6.796   2.092   0.673  1.00  0.00     0.028 A 
ATOM     18  Cl  UNL     1       5.464   2.846   2.989  1.00  0.00    -0.080 Cl
BRANCH  10  19
ATOM     19  C   UNL     1       4.507  -2.773  -2.901  1.00  0.00     0.430 C 
ATOM     20  F   UNL     1       4.063  -3.104  -1.643  1.00  0.00    -0.167 F 
ATOM     21  F   UNL     1       3.447  -3.131  -3.697  1.00  0.00    -0.167 F 
ATOM     22  F   UNL     1       5.506  -3.626  -3.174  1.00  0.00    -0.167 F 
ENDBRANCH  10  19
BRANCH  14  23
ATOM     23  O   UNL     1       2.893   1.326   1.665  1.00  0.00    -0.455 OA
BRANCH  23  24
ATOM     24  C   UNL     1       1.418   0.288   1.398  1.00  0.00     0.127 A 
ATOM     25  C   UNL     1       0.287   0.683   0.665  1.00  0.00     0.047 A 
ATOM     26  C   UNL     1       1.421  -1.174   1.118  1.00  0.00     0.047 A 
ATOM     27  C   UNL     1      -0.469  -0.293  -0.275  1.00  0.00     0.004 A 
ATOM     28  C   UNL     1       0.972  -2.063   0.055  1.00  0.00     0.004 A 
ATOM     29  C   UNL     1      -0.056  -1.597  -0.665  1.00  0.00     0.000 A 
ENDBRANCH  23  24
ENDBRANCH  14  23
ENDBRANCH   6   8
ENDBRANCH   5   6
ENDBRANCH   4   5
ENDBRANCH   3   4
ENDBRANCH   2   3
ENDBRANCH   1   2
BRANCH   1  30
ATOM     30  C   UNL     1       2.725  -1.354   3.386  1.00  0.00     0.188 C 
BRANCH  30  31
ATOM     31  O   UNL     1       3.419  -0.456   4.198  1.00  0.00    -0.376 OA
BRANCH  31  32
ATOM     32  C   UNL     1       4.695  -0.937   4.486  1.00  0.00     0.202 C 
BRANCH  32  33
ATOM     33  C   UNL     1       4.881  -2.486   4.702  1.00  0.00     0.261 C 
BRANCH  33  34
ATOM     34  O   UNL     1       4.209  -3.568   3.909  1.00  0.00    -0.460 OA
BRANCH  34  35
ATOM     35  C   UNL     1       2.973  -4.163   4.107  1.00  0.00     0.338 C 
ATOM     36  O   UNL     1       2.220  -3.971   5.046  1.00  0.00    -0.246 OA
BRANCH  35  37
ATOM     37  C   UNL     1       2.531  -4.960   2.880  1.00  0.00     0.060 A 
ATOM     38  C   UNL     1       1.308  -4.774   2.171  1.00  0.00     0.016 A 
ATOM     39  C   UNL     1       3.432  -5.900   2.400  1.00  0.00     0.016 A 
ATOM     40  C   UNL     1       0.994  -5.559   1.034  1.00  0.00     0.010 A 
ATOM     41  C   UNL     1       3.089  -6.726   1.329  1.00  0.00     0.010 A 
ATOM     42  C   UNL     1       1.865  -6.583   0.653  1.00  0.00    -0.014 A 
BRANCH  42  43
ATOM     43  C   UNL     1       1.429  -7.721  -0.198  1.00  0.00     0.031 A 
ATOM     44  C   UNL     1       0.905  -8.928   0.517  1.00  0.00     0.074 A 
ATOM     45  C   UNL     1       1.614  -7.757  -1.528  1.00  0.00     0.049 A 
ATOM     46  N   UNL     1       0.664 -10.125   0.058  1.00  0.00    -0.248 NA
ATOM     47  C   UNL     1       0.659  -8.765   1.958  1.00  0.00     0.031 C 
ATOM     48  C   UNL     1       2.092  -6.640  -2.330  1.00  0.00     0.029 A 
ATOM     49  N   UNL     1       1.449  -8.782  -2.432  1.00  0.00    -0.354 N 
ATOM     50  C   UNL     1       0.259 -10.864   1.158  1.00  0.00     0.074 A 
ATOM     51  C   UNL     1       0.333  -9.995   2.311  1.00  0.00     0.031 C 
ATOM     52  C   UNL     1       2.187  -7.035  -3.611  1.00  0.00     0.029 A 
ATOM     53  C   UNL     1       1.842  -8.454  -3.708  1.00  0.00     0.049 A 
ATOM     54  H   UNL     1       1.085  -9.664  -2.189  1.00  0.00     0.167 HD
ATOM     55  C   UNL     1      -0.133 -12.156   1.194  1.00  0.00     0.037 A 
ATOM     56  C   UNL     1       1.955  -9.217  -4.816  1.00  0.00     0.037 A 
ATOM     57  C   UNL     1      -0.146 -13.015   0.044  1.00  0.00     0.049 A 
ATOM     58  C   UNL     1       1.613 -10.681  -4.742  1.00  0.00     0.074 A 
ATOM     59  C   UNL     1      -0.541 -14.336  -0.028  1.00  0.00     0.029 A 
ATOM     60  N   UNL     1       0.294 -12.653  -1.222  1.00  0.00    -0.354 N 
ATOM     61  N   UNL     1       1.213 -11.373  -3.704  1.00  0.00    -0.248 NA
ATOM     62  C   UNL     1       1.743 -11.472  -5.975  1.00  0.00     0.031 C 
ATOM     63  C   UNL     1      -0.231 -14.809  -1.302  1.00  0.00     0.029 A 
ATOM     64  C   UNL     1       0.226 -13.747  -2.067  1.00  0.00     0.049 A 
ATOM     65  H   UNL     1       0.606 -11.756  -1.479  1.00  0.00     0.167 HD
ATOM     66  C   UNL     1       1.000 -12.665  -4.162  1.00  0.00     0.074 A 
ATOM     67  C   UNL     1       1.327 -12.666  -5.573  1.00  0.00     0.031 C 
ATOM     68  C   UNL     1       0.553 -13.741  -3.471  1.00  0.00     0.037 A 
BRANCH  55  69
ATOM     69  C   UNL     1      -0.488 -12.723   2.536  1.00  0.00     0.064 A 
ATOM     70  C   UNL     1      -1.544 -12.212   3.307  1.00  0.00     0.173 A 
ATOM     71  C   UNL     1       0.273 -13.770   3.079  1.00  0.00     0.173 A 
ATOM     72  F   UNL     1      -2.311 -11.217   2.832  1.00  0.00    -0.203 F 
ATOM     73  C   UNL     1      -1.759 -12.659   4.606  1.00  0.00     0.198 A 
ATOM     74  C   UNL     1       0.005 -14.265   4.349  1.00  0.00     0.198 A 
ATOM     75  F   UNL     1       1.285 -14.308   2.382  1.00  0.00    -0.203 F 
ATOM     76  F   UNL     1      -2.681 -12.060   5.372  1.00  0.00    -0.200 F 
ATOM     77  C   UNL     1      -0.989 -13.689   5.123  1.00  0.00     0.200 A 
ATOM     78  F   UNL     1       0.728 -15.285   4.832  1.00  0.00    -0.200 F 
ATOM     79  F   UNL     1      -1.195 -14.117   6.375  1.00  0.00    -0.200 F 
ENDBRANCH  55  69
BRANCH  56  80
ATOM     80  C   UNL     1       2.450  -8.610  -6.080  1.00  0.00     0.064 A 
ATOM     81  C   UNL     1       1.627  -8.489  -7.208  1.00  0.00     0.173 A 
ATOM     82  C   UNL     1       3.761  -8.119  -6.175  1.00  0.00     0.173 A 
ATOM     83  F   UNL     1       0.373  -8.963  -7.179  1.00  0.00    -0.203 F 
ATOM     84  C   UNL     1       2.100  -7.906  -8.383  1.00  0.00     0.198 A 
ATOM     85  C   UNL     1       4.215  -7.492  -7.331  1.00  0.00     0.198 A 
ATOM     86  F   UNL     1       4.594  -8.222  -5.128  1.00  0.00    -0.203 F 
ATOM     87  F   UNL     1       1.312  -7.851  -9.466  1.00  0.00    -0.200 F 
ATOM     88  C   UNL     1       3.388  -7.393  -8.438  1.00  0.00     0.200 A 
ATOM     89  F   UNL     1       5.452  -6.978  -7.368  1.00  0.00    -0.200 F 
ATOM     90  F   UNL     1       3.832  -6.806  -9.557  1.00  0.00    -0.200 F 
ENDBRANCH  56  80
BRANCH  68  91
ATOM     91  C   UNL     1       0.294 -15.008  -4.232  1.00  0.00     0.064 A 
ATOM     92  C   UNL     1       1.322 -15.774  -4.798  1.00  0.00     0.173 A 
ATOM     93  C   UNL     1      -1.019 -15.503  -4.318  1.00  0.00     0.173 A 
ATOM     94  F   UNL     1       2.594 -15.353  -4.735  1.00  0.00    -0.203 F 
ATOM     95  C   UNL     1       1.038 -16.966  -5.459  1.00  0.00     0.198 A 
ATOM     96  C   UNL     1      -1.289 -16.723  -4.922  1.00  0.00     0.198 A 
ATOM     97  F   UNL     1      -2.038 -14.817  -3.776  1.00  0.00    -0.203 F 
ATOM     98  F   UNL     1       2.025 -17.646  -6.059  1.00  0.00    -0.200 F 
ATOM     99  C   UNL     1      -0.263 -17.447  -5.506  1.00  0.00     0.200 A 
ATOM    100  F   UNL     1      -2.541 -17.202  -4.928  1.00  0.00    -0.200 F 
ATOM    101  F   UNL     1      -0.528 -18.608  -6.119  1.00  0.00    -0.200 F 
ENDBRANCH  68  91
ENDBRANCH  42  43
ENDBRANCH  35  37
ENDBRANCH  34  35
ENDBRANCH  33  34
ENDBRANCH  32  33
ENDBRANCH  31  32
ENDBRANCH  30  31
ENDBRANCH   1  30
TORSDOF 20
