REMARK SMILES Cc1ccc(-c2csc(NC(=O)[C@H]3[C@@H](C(=O)OCCOCCOCCOC(=O)c4ccc(-c5c6nc(c(-c7c(F)c(F)c(F)c(F)c7F)c7ccc([nH]7)c(-c7c(F)c(F)c(F)c(F)c7F)c7nc(c(-c8c(F)c(F)c(F)c(F)c8F)c8ccc5[nH]8)C=C7)C=C6)cc4)[C@H]4C=C[C@@H]3C4)c2C(=O)NC2CC2)cc1
REMARK SMILES IDX 21 1 20 2 19 3 18 4 17 5 15 6 16 7 14 8 13 9 95 10 92 11
REMARK SMILES IDX 94 12 96 13 93 14 11 15 10 16 12 18 9 19 6 20 7 21 97 22
REMARK SMILES IDX 8 23 5 24 1 25 2 26 3 27 105 28 4 29 104 30 98 31 99 32
REMARK SMILES IDX 100 33 101 35 102 36 103 37 22 38 23 39 24 40 25 41 26 42
REMARK SMILES IDX 27 43 28 44 29 45 30 46 91 47 31 48 90 49 32 50 33 51 34 52
REMARK SMILES IDX 84 53 35 54 89 55 83 56 85 57 36 58 88 59 82 60 81 61 37 63
REMARK SMILES IDX 69 64 49 65 68 66 50 67 53 68 67 69 86 70 51 71 52 72 66 74
REMARK SMILES IDX 87 75 54 76 38 77 39 78 47 79 40 80 41 81 45 82 48 83 42 84
REMARK SMILES IDX 43 85 46 86 44 87 70 88 71 89 79 90 72 91 73 92 77 93 80 94
REMARK SMILES IDX 74 95 75 96 78 97 76 98 55 99 56 100 64 101 57 102 58 103
REMARK SMILES IDX 62 104 65 105 59 106 60 107 63 108 61 109
REMARK H PARENT 10 17 100 34 85 62 53 73
REMARK Flexibility Score: inf
ROOT
ATOM      1  C   UNL     1      -4.719  -0.434  -3.841  1.00  0.00     0.188 C 
ENDROOT
BRANCH   1   2
ATOM      2  O   UNL     1      -3.836   0.680  -3.586  1.00  0.00    -0.376 OA
BRANCH   2   3
ATOM      3  C   UNL     1      -2.929   0.770  -2.446  1.00  0.00     0.202 C 
BRANCH   3   4
ATOM      4  C   UNL     1      -3.040   1.889  -1.154  1.00  0.00     0.261 C 
BRANCH   4   5
ATOM      5  O   UNL     1      -3.870   1.642   0.315  1.00  0.00    -0.463 OA
BRANCH   5   6
ATOM      6  C   UNL     1      -5.128   1.128   0.063  1.00  0.00     0.310 C 
ATOM      7  O   UNL     1      -4.903   0.825  -1.091  1.00  0.00    -0.252 OA
BRANCH   6   8
ATOM      8  C   UNL     1      -6.931   1.331   0.872  1.00  0.00     0.119 C 
ATOM      9  C   UNL     1      -8.577   0.534   0.676  1.00  0.00     0.100 C 
ATOM     10  C   UNL     1      -9.640   1.661   0.969  1.00  0.00     0.025 C 
ATOM     11  C   UNL     1      -7.804   2.859   1.070  1.00  0.00     0.027 C 
ATOM     12  C   UNL     1      -9.731   2.613  -0.191  1.00  0.00    -0.027 C 
ATOM     13  C   UNL     1      -8.971   2.522   1.977  1.00  0.00     0.017 C 
ATOM     14  C   UNL     1      -8.610   3.327  -0.153  1.00  0.00    -0.027 C 
BRANCH   9  15
ATOM     15  C   UNL     1      -9.437  -0.112  -0.507  1.00  0.00     0.229 C 
ATOM     16  N   UNL     1     -10.084  -1.319  -0.224  1.00  0.00    -0.317 N 
ATOM     17  H   UNL     1      -9.565  -2.156  -0.227  1.00  0.00     0.170 HD
ATOM     18  O   UNL     1      -9.482   0.291  -1.669  1.00  0.00    -0.274 OA
BRANCH  16  19
ATOM     19  C   UNL     1     -11.438  -1.364   0.061  1.00  0.00     0.108 A 
ATOM     20  C   UNL     1     -13.714  -1.651  -0.052  1.00  0.00     0.007 A 
ATOM     21  C   UNL     1     -13.548  -0.929   1.120  1.00  0.00     0.076 A 
ATOM     22  C   UNL     1     -12.441  -2.025  -0.655  1.00  0.00     0.082 A 
ATOM     23  S   UNL     1     -11.928  -0.771   1.559  1.00  0.00    -0.125 S 
BRANCH  20  24
ATOM     24  C   UNL     1     -15.088  -2.019  -0.329  1.00  0.00    -0.017 A 
ATOM     25  C   UNL     1     -18.980  -3.450  -1.384  1.00  0.00     0.044 C 
ATOM     26  C   UNL     1     -17.701  -2.851  -0.879  1.00  0.00    -0.051 A 
ATOM     27  C   UNL     1     -16.897  -3.593  -0.008  1.00  0.00     0.004 A 
ATOM     28  C   UNL     1     -17.230  -1.626  -1.375  1.00  0.00     0.004 A 
ATOM     29  C   UNL     1     -15.609  -3.162   0.289  1.00  0.00     0.009 A 
ATOM     30  C   UNL     1     -15.925  -1.204  -1.097  1.00  0.00     0.009 A 
ENDBRANCH  20  24
BRANCH  22  31
ATOM     31  C   UNL     1     -12.021  -2.868  -1.806  1.00  0.00     0.255 C 
ATOM     32  O   UNL     1     -10.854  -3.272  -1.886  1.00  0.00    -0.269 OA
ATOM     33  N   UNL     1     -12.812  -3.034  -2.924  1.00  0.00    -0.349 N 
ATOM     34  H   UNL     1     -12.822  -2.313  -3.594  1.00  0.00     0.164 HD
BRANCH  33  35
ATOM     35  C   UNL     1     -13.626  -4.201  -3.172  1.00  0.00     0.082 C 
ATOM     36  C   UNL     1     -14.344  -4.939  -2.093  1.00  0.00     0.027 C 
ATOM     37  C   UNL     1     -15.108  -4.058  -3.046  1.00  0.00     0.027 C 
ENDBRANCH  33  35
ENDBRANCH  22  31
ENDBRANCH  16  19
ENDBRANCH   9  15
ENDBRANCH   6   8
ENDBRANCH   5   6
ENDBRANCH   4   5
ENDBRANCH   3   4
ENDBRANCH   2   3
ENDBRANCH   1   2
BRANCH   1  38
ATOM     38  C   UNL     1      -4.296  -1.909  -3.759  1.00  0.00     0.188 C 
BRANCH  38  39
ATOM     39  O   UNL     1      -3.553  -2.171  -2.583  1.00  0.00    -0.376 OA
BRANCH  39  40
ATOM     40  C   UNL     1      -2.759  -3.347  -2.604  1.00  0.00     0.202 C 
BRANCH  40  41
ATOM     41  C   UNL     1      -3.549  -4.657  -2.465  1.00  0.00     0.261 C 
BRANCH  41  42
ATOM     42  O   UNL     1      -4.071  -4.830  -1.130  1.00  0.00    -0.460 OA
BRANCH  42  43
ATOM     43  C   UNL     1      -5.442  -4.873  -1.074  1.00  0.00     0.338 C 
ATOM     44  O   UNL     1      -6.116  -5.828  -1.326  1.00  0.00    -0.246 OA
BRANCH  43  45
ATOM     45  C   UNL     1      -5.953  -3.502  -0.815  1.00  0.00     0.060 A 
ATOM     46  C   UNL     1      -7.167  -3.038  -1.292  1.00  0.00     0.016 A 
ATOM     47  C   UNL     1      -5.145  -2.584  -0.234  1.00  0.00     0.016 A 
ATOM     48  C   UNL     1      -7.468  -1.597  -1.289  1.00  0.00     0.010 A 
ATOM     49  C   UNL     1      -5.426  -1.227  -0.491  1.00  0.00     0.010 A 
ATOM     50  C   UNL     1      -6.589  -0.506  -1.173  1.00  0.00    -0.014 A 
BRANCH  50  51
ATOM     51  C   UNL     1      -6.803   1.329  -1.676  1.00  0.00     0.031 A 
ATOM     52  C   UNL     1      -6.013   2.956  -1.012  1.00  0.00     0.074 A 
ATOM     53  C   UNL     1      -6.990   1.647  -2.983  1.00  0.00     0.049 A 
ATOM     54  N   UNL     1      -5.731   4.096  -1.647  1.00  0.00    -0.248 NA
ATOM     55  C   UNL     1      -5.513   3.380   0.477  1.00  0.00     0.031 C 
ATOM     56  C   UNL     1      -6.105   2.573  -3.706  1.00  0.00     0.029 A 
ATOM     57  N   UNL     1      -7.833   1.218  -3.981  1.00  0.00    -0.354 N 
ATOM     58  C   UNL     1      -4.846   4.898  -0.873  1.00  0.00     0.074 A 
ATOM     59  C   UNL     1      -4.969   4.564   0.474  1.00  0.00     0.031 C 
ATOM     60  C   UNL     1      -6.587   2.848  -4.912  1.00  0.00     0.029 A 
ATOM     61  C   UNL     1      -7.849   2.183  -5.013  1.00  0.00     0.049 A 
ATOM     62  H   UNL     1      -8.343   0.376  -3.977  1.00  0.00     0.167 HD
ATOM     63  C   UNL     1      -3.908   5.759  -1.343  1.00  0.00     0.037 A 
ATOM     64  C   UNL     1      -8.988   2.803  -5.437  1.00  0.00     0.037 A 
ATOM     65  C   UNL     1      -4.346   6.262  -2.600  1.00  0.00     0.049 A 
ATOM     66  C   UNL     1      -9.060   4.272  -5.065  1.00  0.00     0.074 A 
ATOM     67  C   UNL     1      -4.073   6.045  -3.925  1.00  0.00     0.029 A 
ATOM     68  N   UNL     1      -5.540   6.941  -2.540  1.00  0.00    -0.354 N 
ATOM     69  N   UNL     1      -8.035   5.065  -4.888  1.00  0.00    -0.248 NA
ATOM     70  C   UNL     1     -10.328   4.935  -4.750  1.00  0.00     0.031 C 
ATOM     71  C   UNL     1      -5.266   6.407  -4.637  1.00  0.00     0.029 A 
ATOM     72  C   UNL     1      -6.213   6.874  -3.732  1.00  0.00     0.049 A 
ATOM     73  H   UNL     1      -5.870   7.414  -1.742  1.00  0.00     0.167 HD
ATOM     74  C   UNL     1      -8.468   6.212  -4.262  1.00  0.00     0.074 A 
ATOM     75  C   UNL     1      -9.913   6.103  -4.239  1.00  0.00     0.031 C 
ATOM     76  C   UNL     1      -7.642   7.150  -3.707  1.00  0.00     0.037 A 
BRANCH  63  77
ATOM     77  C   UNL     1      -2.675   6.212  -0.567  1.00  0.00     0.064 A 
ATOM     78  C   UNL     1      -2.031   7.417  -0.895  1.00  0.00     0.173 A 
ATOM     79  C   UNL     1      -2.013   5.443   0.431  1.00  0.00     0.173 A 
ATOM     80  F   UNL     1      -2.553   8.236  -1.819  1.00  0.00    -0.203 F 
ATOM     81  C   UNL     1      -0.831   7.818  -0.288  1.00  0.00     0.198 A 
ATOM     82  C   UNL     1      -0.845   5.872   1.076  1.00  0.00     0.198 A 
ATOM     83  F   UNL     1      -2.454   4.231   0.797  1.00  0.00    -0.203 F 
ATOM     84  F   UNL     1      -0.235   8.953  -0.680  1.00  0.00    -0.200 F 
ATOM     85  C   UNL     1      -0.243   7.052   0.702  1.00  0.00     0.200 A 
ATOM     86  F   UNL     1      -0.299   5.120   2.045  1.00  0.00    -0.200 F 
ATOM     87  F   UNL     1       0.904   7.440   1.278  1.00  0.00    -0.200 F 
ENDBRANCH  63  77
BRANCH  64  88
ATOM     88  C   UNL     1     -10.077   1.805  -5.552  1.00  0.00     0.064 A 
ATOM     89  C   UNL     1      -9.807   0.793  -6.500  1.00  0.00     0.173 A 
ATOM     90  C   UNL     1     -10.869   1.482  -4.447  1.00  0.00     0.173 A 
ATOM     91  F   UNL     1      -9.101   1.081  -7.606  1.00  0.00    -0.203 F 
ATOM     92  C   UNL     1     -10.039  -0.537  -6.188  1.00  0.00     0.198 A 
ATOM     93  C   UNL     1     -11.164   0.149  -4.178  1.00  0.00     0.198 A 
ATOM     94  F   UNL     1     -11.226   2.423  -3.562  1.00  0.00    -0.203 F 
ATOM     95  F   UNL     1      -9.549  -1.506  -6.974  1.00  0.00    -0.200 F 
ATOM     96  C   UNL     1     -10.673  -0.858  -5.001  1.00  0.00     0.200 A 
ATOM     97  F   UNL     1     -11.849  -0.171  -3.074  1.00  0.00    -0.200 F 
ATOM     98  F   UNL     1     -10.785  -2.144  -4.639  1.00  0.00    -0.200 F 
ENDBRANCH  64  88
BRANCH  76  99
ATOM     99  C   UNL     1      -8.191   8.394  -3.037  1.00  0.00     0.064 A 
ATOM    100  C   UNL     1      -9.072   9.236  -3.732  1.00  0.00     0.173 A 
ATOM    101  C   UNL     1      -7.779   8.857  -1.766  1.00  0.00     0.173 A 
ATOM    102  F   UNL     1      -9.523   8.889  -4.947  1.00  0.00    -0.203 F 
ATOM    103  C   UNL     1      -9.503  10.454  -3.202  1.00  0.00     0.198 A 
ATOM    104  C   UNL     1      -8.154  10.106  -1.268  1.00  0.00     0.198 A 
ATOM    105  F   UNL     1      -7.016   8.107  -0.957  1.00  0.00    -0.203 F 
ATOM    106  F   UNL     1     -10.384  11.199  -3.884  1.00  0.00    -0.200 F 
ATOM    107  C   UNL     1      -9.022  10.903  -1.985  1.00  0.00     0.200 A 
ATOM    108  F   UNL     1      -7.665  10.530  -0.093  1.00  0.00    -0.200 F 
ATOM    109  F   UNL     1      -9.400  12.094  -1.501  1.00  0.00    -0.200 F 
ENDBRANCH  76  99
ENDBRANCH  50  51
ENDBRANCH  43  45
ENDBRANCH  42  43
ENDBRANCH  41  42
ENDBRANCH  40  41
ENDBRANCH  39  40
ENDBRANCH  38  39
ENDBRANCH   1  38
TORSDOF 22
