REMARK SMILES O=C(OCCOCCOCCOC(=O)C1CCN(S(=O)(=O)c2ccc3nc(O)sc3c2)CC1)c1ccc(-c2c3nc(c(-c4c(F)c(F)c(F)c(F)c4F)c4ccc([nH]4)c(-c4c(F)c(F)c(F)c(F)c4F)c4nc(c(-c5c(F)c(F)c(F)c(F)c5F)c5ccc2[nH]5)C=C4)C=C3)cc1
REMARK SMILES IDX 8 1 7 2 6 3 5 4 4 5 3 6 2 7 1 8 34 9 35 10 96 11 36 12 95 13
REMARK SMILES IDX 37 14 38 15 39 16 89 17 40 18 94 19 88 20 90 21 41 22 93 23
REMARK SMILES IDX 87 24 86 25 42 27 74 28 54 29 73 30 55 31 58 32 72 33 91 34
REMARK SMILES IDX 56 35 57 36 71 38 92 39 59 40 43 41 44 42 52 43 45 44 46 45
REMARK SMILES IDX 50 46 53 47 47 48 48 49 51 50 49 51 75 52 76 53 84 54 77 55
REMARK SMILES IDX 78 56 82 57 85 58 79 59 80 60 83 61 81 62 60 63 61 64 69 65
REMARK SMILES IDX 62 66 63 67 67 68 70 69 64 70 65 71 68 72 66 73 9 74 10 75
REMARK SMILES IDX 11 76 12 77 13 78 14 79 15 80 16 81 33 82 17 83 32 84 18 85
REMARK SMILES IDX 19 86 20 87 21 88 22 89 23 90 31 91 24 92 30 93 25 94 29 95
REMARK SMILES IDX 26 96 27 97 28 98
REMARK H PARENT 90 26 58 37 28 99
REMARK Flexibility Score: inf
ROOT
ATOM      1  C   UNL     1       2.492   0.807  -2.924  1.00  0.00     0.188 C 
ENDROOT
BRANCH   1   2
ATOM      2  C   UNL     1       2.710   0.557  -1.427  1.00  0.00     0.188 C 
BRANCH   2   3
ATOM      3  O   UNL     1       4.031   0.788  -0.963  1.00  0.00    -0.376 OA
BRANCH   3   4
ATOM      4  C   UNL     1       4.774  -0.405  -0.683  1.00  0.00     0.202 C 
BRANCH   4   5
ATOM      5  C   UNL     1       4.270  -1.188   0.538  1.00  0.00     0.261 C 
BRANCH   5   6
ATOM      6  O   UNL     1       4.130  -0.290   1.648  1.00  0.00    -0.460 OA
BRANCH   6   7
ATOM      7  C   UNL     1       2.867   0.157   1.874  1.00  0.00     0.338 C 
ATOM      8  O   UNL     1       1.834  -0.475   1.731  1.00  0.00    -0.246 OA
BRANCH   7   9
ATOM      9  C   UNL     1       2.904   1.617   2.131  1.00  0.00     0.060 A 
ATOM     10  C   UNL     1       1.808   2.280   2.696  1.00  0.00     0.016 A 
ATOM     11  C   UNL     1       3.973   2.358   1.635  1.00  0.00     0.016 A 
ATOM     12  C   UNL     1       1.791   3.683   2.757  1.00  0.00     0.010 A 
ATOM     13  C   UNL     1       3.926   3.738   1.646  1.00  0.00     0.010 A 
ATOM     14  C   UNL     1       2.850   4.428   2.217  1.00  0.00    -0.014 A 
BRANCH  14  15
ATOM     15  C   UNL     1       2.986   5.885   2.457  1.00  0.00     0.031 A 
ATOM     16  C   UNL     1       4.434   6.328   2.606  1.00  0.00     0.074 A 
ATOM     17  C   UNL     1       2.000   6.792   2.267  1.00  0.00     0.049 A 
ATOM     18  N   UNL     1       5.225   6.633   1.606  1.00  0.00    -0.248 NA
ATOM     19  C   UNL     1       5.160   6.050   3.849  1.00  0.00     0.031 C 
ATOM     20  C   UNL     1       1.115   6.840   1.097  1.00  0.00     0.029 A 
ATOM     21  N   UNL     1       1.843   8.035   2.845  1.00  0.00    -0.354 N 
ATOM     22  C   UNL     1       6.537   6.571   2.076  1.00  0.00     0.074 A 
ATOM     23  C   UNL     1       6.439   6.178   3.464  1.00  0.00     0.031 C 
ATOM     24  C   UNL     1       0.790   8.121   0.838  1.00  0.00     0.029 A 
ATOM     25  C   UNL     1       1.188   8.916   1.972  1.00  0.00     0.049 A 
ATOM     26  H   UNL     1       2.150   8.272   3.750  1.00  0.00     0.167 HD
ATOM     27  C   UNL     1       7.641   6.856   1.327  1.00  0.00     0.037 A 
ATOM     28  C   UNL     1       1.395  10.255   1.982  1.00  0.00     0.037 A 
ATOM     29  C   UNL     1       7.405   7.325  -0.004  1.00  0.00     0.049 A 
ATOM     30  C   UNL     1       2.777  10.303   1.366  1.00  0.00     0.074 A 
ATOM     31  C   UNL     1       7.698   6.981  -1.300  1.00  0.00     0.029 A 
ATOM     32  N   UNL     1       6.984   8.625  -0.129  1.00  0.00    -0.354 N 
ATOM     33  N   UNL     1       3.050  10.194   0.091  1.00  0.00    -0.248 NA
ATOM     34  C   UNL     1       3.933  10.099   2.222  1.00  0.00     0.031 C 
ATOM     35  C   UNL     1       7.025   7.958  -2.108  1.00  0.00     0.029 A 
ATOM     36  C   UNL     1       6.236   8.747  -1.269  1.00  0.00     0.049 A 
ATOM     37  H   UNL     1       7.188   9.354   0.501  1.00  0.00     0.167 HD
ATOM     38  C   UNL     1       4.391   9.841  -0.063  1.00  0.00     0.074 A 
ATOM     39  C   UNL     1       4.830   9.704   1.323  1.00  0.00     0.031 C 
ATOM     40  C   UNL     1       5.026   9.571  -1.276  1.00  0.00     0.037 A 
BRANCH  27  41
ATOM     41  C   UNL     1       9.027   7.049   1.835  1.00  0.00     0.064 A 
ATOM     42  C   UNL     1       9.426   8.384   2.039  1.00  0.00     0.173 A 
ATOM     43  C   UNL     1      10.027   6.074   1.785  1.00  0.00     0.173 A 
ATOM     44  F   UNL     1       8.502   9.360   2.060  1.00  0.00    -0.203 F 
ATOM     45  C   UNL     1      10.765   8.742   2.117  1.00  0.00     0.198 A 
ATOM     46  C   UNL     1      11.376   6.433   1.902  1.00  0.00     0.198 A 
ATOM     47  F   UNL     1       9.716   4.790   1.553  1.00  0.00    -0.203 F 
ATOM     48  F   UNL     1      11.101  10.036   2.205  1.00  0.00    -0.200 F 
ATOM     49  C   UNL     1      11.743   7.767   2.043  1.00  0.00     0.200 A 
ATOM     50  F   UNL     1      12.331   5.495   1.826  1.00  0.00    -0.200 F 
ATOM     51  F   UNL     1      13.037   8.116   2.085  1.00  0.00    -0.200 F 
ENDBRANCH  27  41
BRANCH  28  52
ATOM     52  C   UNL     1       0.951  10.801   3.311  1.00  0.00     0.064 A 
ATOM     53  C   UNL     1      -0.371  10.472   3.716  1.00  0.00     0.173 A 
ATOM     54  C   UNL     1       1.732  11.463   4.261  1.00  0.00     0.173 A 
ATOM     55  F   UNL     1      -1.226   9.921   2.838  1.00  0.00    -0.203 F 
ATOM     56  C   UNL     1      -0.803  10.607   5.032  1.00  0.00     0.198 A 
ATOM     57  C   UNL     1       1.293  11.609   5.585  1.00  0.00     0.198 A 
ATOM     58  F   UNL     1       2.945  11.938   3.951  1.00  0.00    -0.203 F 
ATOM     59  F   UNL     1      -2.012  10.150   5.389  1.00  0.00    -0.200 F 
ATOM     60  C   UNL     1       0.046  11.144   5.977  1.00  0.00     0.200 A 
ATOM     61  F   UNL     1       2.108  12.153   6.499  1.00  0.00    -0.200 F 
ATOM     62  F   UNL     1      -0.327  11.197   7.263  1.00  0.00    -0.200 F 
ENDBRANCH  28  52
BRANCH  40  63
ATOM     63  C   UNL     1       4.277   9.931  -2.603  1.00  0.00     0.064 A 
ATOM     64  C   UNL     1       2.791  10.855  -2.384  1.00  0.00     0.173 A 
ATOM     65  C   UNL     1       4.634   9.154  -4.190  1.00  0.00     0.173 A 
ATOM     66  F   UNL     1       2.719  11.852  -1.483  1.00  0.00    -0.203 F 
ATOM     67  C   UNL     1       1.561  10.893  -3.661  1.00  0.00     0.198 A 
ATOM     68  C   UNL     1       3.553   9.165  -5.588  1.00  0.00     0.198 A 
ATOM     69  F   UNL     1       5.579   8.220  -4.299  1.00  0.00    -0.203 F 
ATOM     70  F   UNL     1       0.478  11.611  -3.237  1.00  0.00    -0.200 F 
ATOM     71  C   UNL     1       1.977   9.992  -5.429  1.00  0.00     0.200 A 
ATOM     72  F   UNL     1       3.821   8.410  -6.662  1.00  0.00    -0.200 F 
ATOM     73  F   UNL     1       1.240   9.873  -6.570  1.00  0.00    -0.200 F 
ENDBRANCH  40  63
ENDBRANCH  14  15
ENDBRANCH   7   9
ENDBRANCH   6   7
ENDBRANCH   5   6
ENDBRANCH   4   5
ENDBRANCH   3   4
ENDBRANCH   2   3
ENDBRANCH   1   2
BRANCH   1  74
ATOM     74  O   UNL     1       3.507   0.460  -3.853  1.00  0.00    -0.376 OA
BRANCH  74  75
ATOM     75  C   UNL     1       4.801   1.060  -3.791  1.00  0.00     0.202 C 
BRANCH  75  76
ATOM     76  C   UNL     1       4.963   2.582  -3.807  1.00  0.00     0.261 C 
BRANCH  76  77
ATOM     77  O   UNL     1       4.395   3.182  -2.645  1.00  0.00    -0.463 OA
BRANCH  77  78
ATOM     78  C   UNL     1       3.224   3.828  -2.860  1.00  0.00     0.309 C 
ATOM     79  O   UNL     1       2.714   4.031  -3.950  1.00  0.00    -0.252 OA
BRANCH  78  80
ATOM     80  C   UNL     1       2.631   4.258  -1.545  1.00  0.00     0.102 C 
ATOM     81  C   UNL     1       1.116   4.112  -1.464  1.00  0.00     0.032 C 
ATOM     82  C   UNL     1       3.057   5.681  -1.354  1.00  0.00     0.032 C 
ATOM     83  C   UNL     1       0.353   5.026  -2.416  1.00  0.00     0.103 C 
ATOM     84  C   UNL     1       2.294   6.597  -2.276  1.00  0.00     0.103 C 
ATOM     85  N   UNL     1       0.822   6.457  -2.414  1.00  0.00    -0.198 NA
BRANCH  85  86
ATOM     86  S   UNL     1       0.148   7.249  -3.862  1.00  0.00     0.243 S 
ATOM     87  O   UNL     1       0.705   6.572  -5.013  1.00  0.00    -0.207 OA
ATOM     88  O   UNL     1      -1.282   7.330  -3.660  1.00  0.00    -0.207 OA
BRANCH  86  89
ATOM     89  C   UNL     1       0.749   8.925  -4.003  1.00  0.00     0.084 A 
ATOM     90  C   UNL     1       2.458   9.238  -3.765  1.00  0.00     0.024 A 
ATOM     91  C   UNL     1      -0.181  10.155  -4.846  1.00  0.00     0.043 A 
ATOM     92  C   UNL     1       3.281  10.947  -4.446  1.00  0.00     0.031 A 
ATOM     93  C   UNL     1       0.522  11.704  -5.435  1.00  0.00     0.059 A 
ATOM     94  C   UNL     1       2.185  12.131  -5.261  1.00  0.00     0.085 A 
ATOM     95  S   UNL     1      -0.155  13.151  -6.084  1.00  0.00    -0.077 S 
ATOM     96  N   UNL     1       2.454  13.426  -5.558  1.00  0.00    -0.203 NA
ATOM     97  C   UNL     1       1.314  14.014  -5.832  1.00  0.00     0.271 A 
BRANCH  97  98
ATOM     98  O   UNL     1       1.337  15.336  -5.849  1.00  0.00    -0.486 OA
ATOM     99  H   UNL     1       2.143  15.792  -5.710  1.00  0.00     0.296 HD
ENDBRANCH  97  98
ENDBRANCH  86  89
ENDBRANCH  85  86
ENDBRANCH  78  80
ENDBRANCH  77  78
ENDBRANCH  76  77
ENDBRANCH  75  76
ENDBRANCH  74  75
ENDBRANCH   1  74
TORSDOF 20
