REMARK SMILES COc1ccc(-c2ccc(CCC(=O)OCCOCCOCCOC(=O)c3ccc(-c4c5nc(c(-c6c(F)c(F)c(F)c(F)c6F)c6ccc([nH]6)c(-c6c(F)c(F)c(F)c(F)c6F)c6nc(c(-c7c(F)c(F)c(F)c(F)c7F)c7ccc4[nH]7)C=C6)C=C5)cc3)n2-c2ccc(C(C)=O)cc2)cc1
REMARK SMILES IDX 19 1 18 2 17 3 16 4 15 5 13 6 14 7 12 8 11 9 10 10 7 11 8 12
REMARK SMILES IDX 90 13 9 14 6 15 3 16 4 17 101 18 5 19 100 20 2 21 1 22 91 23
REMARK SMILES IDX 92 24 99 25 93 26 98 27 94 28 95 29 96 30 97 31 20 32 21 33
REMARK SMILES IDX 22 34 23 35 24 36 25 37 26 38 27 39 28 40 89 41 29 42 88 43
REMARK SMILES IDX 30 44 31 45 32 46 82 47 33 48 87 49 81 50 83 51 34 52 86 53
REMARK SMILES IDX 80 54 79 55 35 57 67 58 47 59 66 60 48 61 51 62 65 63 84 64
REMARK SMILES IDX 49 65 50 66 64 68 85 69 52 70 36 71 37 72 45 73 38 74 39 75
REMARK SMILES IDX 43 76 46 77 40 78 41 79 44 80 42 81 68 82 69 83 77 84 70 85
REMARK SMILES IDX 71 86 75 87 78 88 72 89 73 90 76 91 74 92 53 93 54 94 62 95
REMARK SMILES IDX 55 96 56 97 60 98 63 99 57 100 58 101 61 102 59 103
REMARK H PARENT 83 56 51 67
REMARK Flexibility Score: inf
ROOT
ATOM      1  C   UNL     1       5.200  10.385  -5.965  1.00  0.00     0.188 C 
ENDROOT
BRANCH   1   2
ATOM      2  O   UNL     1       6.560  10.065  -6.250  1.00  0.00    -0.376 OA
BRANCH   2   3
ATOM      3  C   UNL     1       6.904   8.683  -6.199  1.00  0.00     0.202 C 
BRANCH   3   4
ATOM      4  C   UNL     1       7.032   8.105  -4.788  1.00  0.00     0.261 C 
BRANCH   4   5
ATOM      5  O   UNL     1       5.772   8.117  -4.095  1.00  0.00    -0.463 OA
BRANCH   5   6
ATOM      6  C   UNL     1       5.663   8.866  -2.976  1.00  0.00     0.306 C 
ATOM      7  O   UNL     1       6.593   9.476  -2.461  1.00  0.00    -0.252 OA
BRANCH   6   8
ATOM      8  C   UNL     1       4.262   8.895  -2.387  1.00  0.00     0.129 C 
BRANCH   8   9
ATOM      9  C   UNL     1       3.046   8.586  -3.270  1.00  0.00     0.066 C 
BRANCH   9  10
ATOM     10  C   UNL     1       2.847   7.127  -3.582  1.00  0.00     0.024 A 
ATOM     11  C   UNL     1       2.222   4.975  -3.345  1.00  0.00     0.053 A 
ATOM     12  C   UNL     1       3.142   5.030  -4.372  1.00  0.00     0.029 A 
ATOM     13  N   UNL     1       1.931   6.282  -2.961  1.00  0.00    -0.314 N 
ATOM     14  C   UNL     1       3.542   6.358  -4.495  1.00  0.00     0.024 A 
BRANCH  11  15
ATOM     15  C   UNL     1       1.682   3.751  -2.781  1.00  0.00    -0.001 A 
ATOM     16  C   UNL     1       0.800   1.325  -1.732  1.00  0.00     0.118 A 
ATOM     17  C   UNL     1      -0.092   2.163  -2.406  1.00  0.00     0.047 A 
ATOM     18  C   UNL     1       2.145   1.672  -1.631  1.00  0.00     0.047 A 
ATOM     19  C   UNL     1       0.345   3.382  -2.928  1.00  0.00     0.014 A 
ATOM     20  C   UNL     1       2.582   2.883  -2.150  1.00  0.00     0.014 A 
BRANCH  16  21
ATOM     21  O   UNL     1       0.288   0.157  -1.236  1.00  0.00    -0.497 OA
ATOM     22  C   UNL     1       0.794  -0.169   0.058  1.00  0.00     0.278 C 
ENDBRANCH  16  21
ENDBRANCH  11  15
BRANCH  13  23
ATOM     23  C   UNL     1       0.919   6.686  -2.056  1.00  0.00     0.046 A 
ATOM     24  C   UNL     1      -0.052   7.602  -2.475  1.00  0.00     0.027 A 
ATOM     25  C   UNL     1       0.901   6.176  -0.760  1.00  0.00     0.027 A 
ATOM     26  C   UNL     1      -1.045   8.024  -1.581  1.00  0.00     0.014 A 
ATOM     27  C   UNL     1      -0.075   6.621   0.133  1.00  0.00     0.014 A 
ATOM     28  C   UNL     1      -1.055   7.549  -0.264  1.00  0.00     0.017 A 
BRANCH  28  29
ATOM     29  C   UNL     1      -2.046   7.985   0.771  1.00  0.00     0.159 C 
ATOM     30  C   UNL     1      -3.213   8.871   0.417  1.00  0.00     0.093 C 
ATOM     31  O   UNL     1      -1.907   7.600   1.933  1.00  0.00    -0.295 OA
ENDBRANCH  28  29
ENDBRANCH  13  23
ENDBRANCH   9  10
ENDBRANCH   8   9
ENDBRANCH   6   8
ENDBRANCH   5   6
ENDBRANCH   4   5
ENDBRANCH   3   4
ENDBRANCH   2   3
ENDBRANCH   1   2
BRANCH   1  32
ATOM     32  C   UNL     1       4.197   9.791  -6.950  1.00  0.00     0.188 C 
BRANCH  32  33
ATOM     33  O   UNL     1       3.832   8.447  -6.672  1.00  0.00    -0.376 OA
BRANCH  33  34
ATOM     34  C   UNL     1       3.843   7.399  -7.650  1.00  0.00     0.202 C 
BRANCH  34  35
ATOM     35  C   UNL     1       3.601   7.617  -9.142  1.00  0.00     0.261 C 
BRANCH  35  36
ATOM     36  O   UNL     1       3.259   8.935  -9.474  1.00  0.00    -0.460 OA
BRANCH  36  37
ATOM     37  C   UNL     1       2.109   9.343  -8.920  1.00  0.00     0.338 C 
ATOM     38  O   UNL     1       1.299   8.692  -8.270  1.00  0.00    -0.246 OA
BRANCH  37  39
ATOM     39  C   UNL     1       1.955  10.749  -9.258  1.00  0.00     0.060 A 
ATOM     40  C   UNL     1       0.945  11.427  -8.578  1.00  0.00     0.016 A 
ATOM     41  C   UNL     1       2.499  11.171 -10.477  1.00  0.00     0.016 A 
ATOM     42  C   UNL     1       0.243  12.358  -9.287  1.00  0.00     0.010 A 
ATOM     43  C   UNL     1       1.752  12.034 -11.217  1.00  0.00     0.010 A 
ATOM     44  C   UNL     1       0.600  12.560 -10.625  1.00  0.00    -0.014 A 
BRANCH  44  45
ATOM     45  C   UNL     1      -0.193  13.492 -11.396  1.00  0.00     0.031 A 
ATOM     46  C   UNL     1       0.416  14.895 -11.234  1.00  0.00     0.074 A 
ATOM     47  C   UNL     1      -1.254  12.906 -12.034  1.00  0.00     0.049 A 
ATOM     48  N   UNL     1      -0.098  16.052 -11.487  1.00  0.00    -0.248 NA
ATOM     49  C   UNL     1       1.800  15.050 -10.675  1.00  0.00     0.031 C 
ATOM     50  C   UNL     1      -1.584  11.452 -12.034  1.00  0.00     0.029 A 
ATOM     51  N   UNL     1      -2.281  13.397 -12.800  1.00  0.00    -0.354 N 
ATOM     52  C   UNL     1       0.928  17.010 -11.357  1.00  0.00     0.074 A 
ATOM     53  C   UNL     1       2.043  16.357 -10.757  1.00  0.00     0.031 C 
ATOM     54  C   UNL     1      -2.762  11.216 -12.657  1.00  0.00     0.029 A 
ATOM     55  C   UNL     1      -3.299  12.466 -13.152  1.00  0.00     0.049 A 
ATOM     56  H   UNL     1      -2.313  14.338 -13.088  1.00  0.00     0.167 HD
ATOM     57  C   UNL     1       0.822  18.260 -11.885  1.00  0.00     0.037 A 
ATOM     58  C   UNL     1      -4.504  12.727 -13.752  1.00  0.00     0.037 A 
ATOM     59  C   UNL     1      -0.490  18.450 -12.402  1.00  0.00     0.049 A 
ATOM     60  C   UNL     1      -4.396  14.142 -14.130  1.00  0.00     0.074 A 
ATOM     61  C   UNL     1      -1.685  18.595 -11.745  1.00  0.00     0.029 A 
ATOM     62  N   UNL     1      -0.725  18.028 -13.689  1.00  0.00    -0.354 N 
ATOM     63  N   UNL     1      -3.644  14.589 -15.091  1.00  0.00    -0.248 NA
ATOM     64  C   UNL     1      -5.050  15.143 -13.280  1.00  0.00     0.031 C 
ATOM     65  C   UNL     1      -2.552  17.769 -12.486  1.00  0.00     0.029 A 
ATOM     66  C   UNL     1      -1.951  17.408 -13.698  1.00  0.00     0.049 A 
ATOM     67  H   UNL     1      -0.125  18.148 -14.461  1.00  0.00     0.167 HD
ATOM     68  C   UNL     1      -3.480  15.906 -14.738  1.00  0.00     0.074 A 
ATOM     69  C   UNL     1      -4.583  16.242 -13.863  1.00  0.00     0.031 C 
ATOM     70  C   UNL     1      -2.239  16.457 -14.743  1.00  0.00     0.037 A 
BRANCH  57  71
ATOM     71  C   UNL     1       1.850  19.304 -12.174  1.00  0.00     0.064 A 
ATOM     72  C   UNL     1       1.405  20.632 -12.368  1.00  0.00     0.173 A 
ATOM     73  C   UNL     1       3.142  19.002 -12.622  1.00  0.00     0.173 A 
ATOM     74  F   UNL     1       0.201  21.024 -11.923  1.00  0.00    -0.203 F 
ATOM     75  C   UNL     1       2.145  21.553 -13.101  1.00  0.00     0.198 A 
ATOM     76  C   UNL     1       3.903  19.947 -13.315  1.00  0.00     0.198 A 
ATOM     77  F   UNL     1       3.651  17.769 -12.495  1.00  0.00    -0.203 F 
ATOM     78  F   UNL     1       1.619  22.752 -13.390  1.00  0.00    -0.200 F 
ATOM     79  C   UNL     1       3.387  21.202 -13.593  1.00  0.00     0.200 A 
ATOM     80  F   UNL     1       5.111  19.607 -13.787  1.00  0.00    -0.200 F 
ATOM     81  F   UNL     1       4.070  22.059 -14.364  1.00  0.00    -0.200 F 
ENDBRANCH  57  71
BRANCH  58  82
ATOM     82  C   UNL     1      -5.838  12.065 -14.027  1.00  0.00     0.064 A 
ATOM     83  C   UNL     1      -6.156  10.715 -13.842  1.00  0.00     0.173 A 
ATOM     84  C   UNL     1      -6.951  12.871 -14.419  1.00  0.00     0.173 A 
ATOM     85  F   UNL     1      -5.199   9.812 -13.597  1.00  0.00    -0.203 F 
ATOM     86  C   UNL     1      -7.486  10.245 -13.917  1.00  0.00     0.198 A 
ATOM     87  C   UNL     1      -8.271  12.424 -14.430  1.00  0.00     0.198 A 
ATOM     88  F   UNL     1      -6.800  14.145 -14.803  1.00  0.00    -0.203 F 
ATOM     89  F   UNL     1      -7.745   8.944 -13.729  1.00  0.00    -0.200 F 
ATOM     90  C   UNL     1      -8.544  11.108 -14.159  1.00  0.00     0.200 A 
ATOM     91  F   UNL     1      -9.263  13.291 -14.679  1.00  0.00    -0.200 F 
ATOM     92  F   UNL     1      -9.812  10.674 -14.146  1.00  0.00    -0.200 F 
ENDBRANCH  58  82
BRANCH  70  93
ATOM     93  C   UNL     1      -1.233  15.736 -15.624  1.00  0.00     0.064 A 
ATOM     94  C   UNL     1      -1.470  15.637 -17.004  1.00  0.00     0.173 A 
ATOM     95  C   UNL     1      -0.105  15.041 -15.150  1.00  0.00     0.173 A 
ATOM     96  F   UNL     1      -2.506  16.291 -17.550  1.00  0.00    -0.203 F 
ATOM     97  C   UNL     1      -0.652  14.875 -17.844  1.00  0.00     0.198 A 
ATOM     98  C   UNL     1       0.715  14.275 -15.985  1.00  0.00     0.198 A 
ATOM     99  F   UNL     1       0.241  15.097 -13.866  1.00  0.00    -0.203 F 
ATOM    100  F   UNL     1      -0.917  14.813 -19.156  1.00  0.00    -0.200 F 
ATOM    101  C   UNL     1       0.438  14.189 -17.334  1.00  0.00     0.200 A 
ATOM    102  F   UNL     1       1.778  13.632 -15.476  1.00  0.00    -0.200 F 
ATOM    103  F   UNL     1       1.228  13.468 -18.141  1.00  0.00    -0.200 F 
ENDBRANCH  70  93
ENDBRANCH  44  45
ENDBRANCH  37  39
ENDBRANCH  36  37
ENDBRANCH  35  36
ENDBRANCH  34  35
ENDBRANCH  33  34
ENDBRANCH  32  33
ENDBRANCH   1  32
TORSDOF 23
