REMARK SMILES C[C@@H]([NH3+])CCC(=O)N[C@H]1C=C[C@@H](C(=O)OCCOCCOCCOC(=O)c2ccc(-c3c4nc(c(-c5c(F)c(F)c(F)c(F)c5F)c5ccc([nH]5)c(-c5c(F)c(F)c(F)c(F)c5F)c5nc(c(-c6c(F)c(F)c(F)c(F)c6F)c6ccc3[nH]6)C=C5)C=C4)cc2)C1
REMARK SMILES IDX 18 1 17 2 16 3 15 4 13 5 14 6 12 7 9 8 10 9 90 10 11 11 8 12
REMARK SMILES IDX 6 13 7 14 5 16 4 17 2 18 1 19 3 20 19 24 20 25 21 26 22 27
REMARK SMILES IDX 23 28 24 29 25 30 26 31 27 32 28 33 89 34 29 35 88 36 30 37
REMARK SMILES IDX 31 38 32 39 82 40 33 41 87 42 81 43 83 44 34 45 86 46 80 47
REMARK SMILES IDX 79 48 35 50 67 51 47 52 66 53 48 54 51 55 65 56 84 57 49 58
REMARK SMILES IDX 50 59 64 61 85 62 52 63 36 64 37 65 45 66 38 67 39 68 43 69
REMARK SMILES IDX 46 70 40 71 41 72 44 73 42 74 68 75 69 76 77 77 70 78 71 79
REMARK SMILES IDX 75 80 78 81 72 82 73 83 76 84 74 85 53 86 54 87 62 88 55 89
REMARK SMILES IDX 56 90 60 91 63 92 57 93 58 94 61 95 59 96
REMARK H PARENT 8 15 3 21 3 22 3 23 83 49 51 60
REMARK Flexibility Score: inf
ROOT
ATOM      1  O   UNL     1       6.284  -1.294   6.082  1.00  0.00    -0.376 OA
ENDROOT
BRANCH   1   2
ATOM      2  C   UNL     1       5.059  -0.958   6.736  1.00  0.00     0.202 C 
BRANCH   2   3
ATOM      3  C   UNL     1       4.016  -0.067   6.017  1.00  0.00     0.261 C 
BRANCH   3   4
ATOM      4  O   UNL     1       3.598  -0.569   4.728  1.00  0.00    -0.463 OA
BRANCH   4   5
ATOM      5  C   UNL     1       3.411   0.324   3.715  1.00  0.00     0.312 C 
ATOM      6  O   UNL     1       3.373   1.538   3.876  1.00  0.00    -0.252 OA
BRANCH   5   7
ATOM      7  C   UNL     1       3.528  -0.353   2.326  1.00  0.00     0.124 C 
ATOM      8  C   UNL     1       1.751  -1.665   1.117  1.00  0.00     0.106 C 
ATOM      9  C   UNL     1       1.987  -0.313   0.554  1.00  0.00    -0.006 C 
ATOM     10  C   UNL     1       2.930  -1.760   2.100  1.00  0.00     0.048 C 
ATOM     11  C   UNL     1       2.899   0.413   1.214  1.00  0.00    -0.014 C 
BRANCH   8  12
ATOM     12  N   UNL     1       0.530  -1.899   1.893  1.00  0.00    -0.350 N 
ATOM     13  C   UNL     1      -0.792  -2.041   1.668  1.00  0.00     0.220 C 
ATOM     14  O   UNL     1      -1.363  -2.873   2.384  1.00  0.00    -0.275 OA
ATOM     15  H   UNL     1       0.733  -1.975   2.853  1.00  0.00     0.164 HD
BRANCH  13  16
ATOM     16  C   UNL     1      -1.605  -1.218   0.705  1.00  0.00     0.106 C 
BRANCH  16  17
ATOM     17  C   UNL     1      -1.891   0.192   1.244  1.00  0.00     0.074 C 
BRANCH  17  18
ATOM     18  C   UNL     1      -0.772   1.178   0.920  1.00  0.00     0.178 C 
ATOM     19  C   UNL     1      -0.636   1.417  -0.585  1.00  0.00     0.075 C 
BRANCH  18  20
ATOM     20  N   UNL     1      -0.926   2.464   1.596  1.00  0.00    -0.355 N 
ATOM     21  H   UNL     1      -1.771   2.925   1.261  1.00  0.00     0.344 HD
ATOM     22  H   UNL     1      -0.116   3.051   1.397  1.00  0.00     0.344 HD
ATOM     23  H   UNL     1      -0.997   2.313   2.602  1.00  0.00     0.344 HD
ENDBRANCH  18  20
ENDBRANCH  17  18
ENDBRANCH  16  17
ENDBRANCH  13  16
ENDBRANCH   8  12
ENDBRANCH   5   7
ENDBRANCH   4   5
ENDBRANCH   3   4
ENDBRANCH   2   3
ENDBRANCH   1   2
BRANCH   1  24
ATOM     24  C   UNL     1       6.253  -1.702   4.724  1.00  0.00     0.188 C 
BRANCH  24  25
ATOM     25  C   UNL     1       5.216  -2.743   4.302  1.00  0.00     0.188 C 
BRANCH  25  26
ATOM     26  O   UNL     1       4.384  -3.226   5.320  1.00  0.00    -0.376 OA
BRANCH  26  27
ATOM     27  C   UNL     1       4.574  -4.548   5.784  1.00  0.00     0.202 C 
BRANCH  27  28
ATOM     28  C   UNL     1       5.971  -5.198   5.844  1.00  0.00     0.261 C 
BRANCH  28  29
ATOM     29  O   UNL     1       6.941  -4.833   4.844  1.00  0.00    -0.460 OA
BRANCH  29  30
ATOM     30  C   UNL     1       6.824  -5.388   3.610  1.00  0.00     0.338 C 
ATOM     31  O   UNL     1       5.988  -6.188   3.246  1.00  0.00    -0.246 OA
BRANCH  30  32
ATOM     32  C   UNL     1       7.730  -4.636   2.695  1.00  0.00     0.060 A 
ATOM     33  C   UNL     1       7.189  -3.990   1.571  1.00  0.00     0.016 A 
ATOM     34  C   UNL     1       9.096  -4.542   2.960  1.00  0.00     0.016 A 
ATOM     35  C   UNL     1       8.017  -3.276   0.695  1.00  0.00     0.010 A 
ATOM     36  C   UNL     1       9.927  -3.851   2.070  1.00  0.00     0.010 A 
ATOM     37  C   UNL     1       9.400  -3.241   0.915  1.00  0.00    -0.014 A 
BRANCH  37  38
ATOM     38  C   UNL     1      10.329  -2.771  -0.148  1.00  0.00     0.031 A 
ATOM     39  C   UNL     1      10.988  -3.808  -1.019  1.00  0.00     0.074 A 
ATOM     40  C   UNL     1      10.610  -1.468  -0.337  1.00  0.00     0.049 A 
ATOM     41  N   UNL     1      11.937  -3.673  -1.910  1.00  0.00    -0.248 NA
ATOM     42  C   UNL     1      10.511  -5.190  -0.851  1.00  0.00     0.031 C 
ATOM     43  C   UNL     1      10.011  -0.356   0.392  1.00  0.00     0.029 A 
ATOM     44  N   UNL     1      11.502  -0.868  -1.196  1.00  0.00    -0.354 N 
ATOM     45  C   UNL     1      12.178  -4.952  -2.398  1.00  0.00     0.074 A 
ATOM     46  C   UNL     1      11.299  -5.851  -1.683  1.00  0.00     0.031 C 
ATOM     47  C   UNL     1      10.573   0.793  -0.027  1.00  0.00     0.029 A 
ATOM     48  C   UNL     1      11.601   0.492  -1.024  1.00  0.00     0.049 A 
ATOM     49  H   UNL     1      12.020  -1.365  -1.869  1.00  0.00     0.167 HD
ATOM     50  C   UNL     1      13.047  -5.342  -3.360  1.00  0.00     0.037 A 
ATOM     51  C   UNL     1      12.450   1.382  -1.578  1.00  0.00     0.037 A 
ATOM     52  C   UNL     1      13.930  -4.452  -4.066  1.00  0.00     0.049 A 
ATOM     53  C   UNL     1      13.479   0.911  -2.580  1.00  0.00     0.074 A 
ATOM     54  C   UNL     1      14.848  -4.755  -5.057  1.00  0.00     0.029 A 
ATOM     55  N   UNL     1      14.012  -3.085  -3.849  1.00  0.00    -0.354 N 
ATOM     56  N   UNL     1      13.694  -0.295  -3.046  1.00  0.00    -0.248 NA
ATOM     57  C   UNL     1      14.384   1.931  -3.135  1.00  0.00     0.031 C 
ATOM     58  C   UNL     1      15.524  -3.580  -5.401  1.00  0.00     0.029 A 
ATOM     59  C   UNL     1      14.982  -2.534  -4.672  1.00  0.00     0.049 A 
ATOM     60  H   UNL     1      13.463  -2.581  -3.207  1.00  0.00     0.167 HD
ATOM     61  C   UNL     1      14.728  -0.174  -3.968  1.00  0.00     0.074 A 
ATOM     62  C   UNL     1      15.091   1.226  -4.007  1.00  0.00     0.031 C 
ATOM     63  C   UNL     1      15.323  -1.135  -4.717  1.00  0.00     0.037 A 
BRANCH  50  64
ATOM     64  C   UNL     1      13.104  -6.806  -3.687  1.00  0.00     0.064 A 
ATOM     65  C   UNL     1      12.049  -7.457  -4.345  1.00  0.00     0.173 A 
ATOM     66  C   UNL     1      14.242  -7.563  -3.366  1.00  0.00     0.173 A 
ATOM     67  F   UNL     1      10.932  -6.783  -4.659  1.00  0.00    -0.203 F 
ATOM     68  C   UNL     1      12.120  -8.815  -4.643  1.00  0.00     0.198 A 
ATOM     69  C   UNL     1      14.323  -8.912  -3.696  1.00  0.00     0.198 A 
ATOM     70  F   UNL     1      15.281  -6.990  -2.739  1.00  0.00    -0.203 F 
ATOM     71  F   UNL     1      11.078  -9.426  -5.224  1.00  0.00    -0.200 F 
ATOM     72  C   UNL     1      13.259  -9.539  -4.327  1.00  0.00     0.200 A 
ATOM     73  F   UNL     1      15.431  -9.607  -3.402  1.00  0.00    -0.200 F 
ATOM     74  F   UNL     1      13.329 -10.844  -4.622  1.00  0.00    -0.200 F 
ENDBRANCH  50  64
BRANCH  51  75
ATOM     75  C   UNL     1      12.399   2.816  -1.178  1.00  0.00     0.064 A 
ATOM     76  C   UNL     1      12.032   3.813  -2.094  1.00  0.00     0.173 A 
ATOM     77  C   UNL     1      12.765   3.225   0.113  1.00  0.00     0.173 A 
ATOM     78  F   UNL     1      11.705   3.479  -3.351  1.00  0.00    -0.203 F 
ATOM     79  C   UNL     1      12.057   5.162  -1.742  1.00  0.00     0.198 A 
ATOM     80  C   UNL     1      12.757   4.571   0.475  1.00  0.00     0.198 A 
ATOM     81  F   UNL     1      13.133   2.315   1.027  1.00  0.00    -0.203 F 
ATOM     82  F   UNL     1      11.761   6.096  -2.656  1.00  0.00    -0.200 F 
ATOM     83  C   UNL     1      12.414   5.539  -0.456  1.00  0.00     0.200 A 
ATOM     84  F   UNL     1      13.092   4.930   1.721  1.00  0.00    -0.200 F 
ATOM     85  F   UNL     1      12.439   6.836  -0.118  1.00  0.00    -0.200 F 
ENDBRANCH  51  75
BRANCH  63  86
ATOM     86  C   UNL     1      16.390  -0.709  -5.687  1.00  0.00     0.064 A 
ATOM     87  C   UNL     1      17.652  -0.272  -5.259  1.00  0.00     0.173 A 
ATOM     88  C   UNL     1      16.162  -0.793  -7.071  1.00  0.00     0.173 A 
ATOM     89  F   UNL     1      17.920  -0.162  -3.949  1.00  0.00    -0.203 F 
ATOM     90  C   UNL     1      18.636   0.090  -6.178  1.00  0.00     0.198 A 
ATOM     91  C   UNL     1      17.159  -0.463  -7.986  1.00  0.00     0.198 A 
ATOM     92  F   UNL     1      14.977  -1.215  -7.536  1.00  0.00    -0.203 F 
ATOM     93  F   UNL     1      19.817   0.550  -5.744  1.00  0.00    -0.200 F 
ATOM     94  C   UNL     1      18.392  -0.015  -7.539  1.00  0.00     0.200 A 
ATOM     95  F   UNL     1      16.926  -0.583  -9.300  1.00  0.00    -0.200 F 
ATOM     96  F   UNL     1      19.343   0.322  -8.420  1.00  0.00    -0.200 F 
ENDBRANCH  63  86
ENDBRANCH  37  38
ENDBRANCH  30  32
ENDBRANCH  29  30
ENDBRANCH  28  29
ENDBRANCH  27  28
ENDBRANCH  26  27
ENDBRANCH  25  26
ENDBRANCH  24  25
ENDBRANCH   1  24
TORSDOF 22
