REMARK SMILES COc1ccc2c(c1)c(CC(=O)OCCOCCOCCOC(=O)c1ccc(-c3c4nc(c(-c5c(F)c(F)c(F)c(F)c5F)c5ccc([nH]5)c(-c5c(F)c(F)c(F)c(F)c5F)c5nc(c(-c6c(F)c(F)c(F)c(F)c6F)c6ccc3[nH]6)C=C5)C=C4)cc1)c(C(F)(F)F)n2C(=O)c1ccc(Cl)cc1
REMARK SMILES IDX 17 1 16 2 15 3 14 4 13 5 11 6 12 7 10 8 9 9 3 10 4 11 8 12
REMARK SMILES IDX 5 13 7 14 6 15 93 16 88 17 2 18 1 19 94 20 95 21 96 22 97 23
REMARK SMILES IDX 102 24 98 25 101 26 99 27 100 28 89 29 90 30 91 31 92 32
REMARK SMILES IDX 18 33 19 34 20 35 21 36 22 37 23 38 24 39 25 40 26 41 87 42
REMARK SMILES IDX 27 43 86 44 28 45 29 46 30 47 80 48 31 49 85 50 79 51 81 52
REMARK SMILES IDX 32 53 84 54 78 55 77 56 33 58 65 59 45 60 64 61 46 62 49 63
REMARK SMILES IDX 63 64 82 65 47 66 48 67 62 69 83 70 50 71 34 72 35 73 43 74
REMARK SMILES IDX 36 75 37 76 41 77 44 78 38 79 39 80 42 81 40 82 66 83 67 84
REMARK SMILES IDX 75 85 68 86 69 87 73 88 76 89 70 90 71 91 74 92 72 93 51 94
REMARK SMILES IDX 52 95 60 96 53 97 54 98 58 99 61 100 55 101 56 102 59 103
REMARK SMILES IDX 57 104
REMARK H PARENT 81 57 49 68
REMARK Flexibility Score: inf
ROOT
ATOM      1  C   UNL     1      -2.451  -5.074  -1.610  1.00  0.00     0.188 C 
ENDROOT
BRANCH   1   2
ATOM      2  O   UNL     1      -2.878  -6.402  -1.413  1.00  0.00    -0.376 OA
BRANCH   2   3
ATOM      3  C   UNL     1      -2.250  -7.419  -2.173  1.00  0.00     0.202 C 
BRANCH   3   4
ATOM      4  C   UNL     1      -2.194  -7.202  -3.691  1.00  0.00     0.261 C 
BRANCH   4   5
ATOM      5  O   UNL     1      -1.241  -6.169  -4.074  1.00  0.00    -0.463 OA
BRANCH   5   6
ATOM      6  C   UNL     1      -1.681  -5.283  -5.002  1.00  0.00     0.310 C 
ATOM      7  O   UNL     1      -2.712  -5.474  -5.648  1.00  0.00    -0.252 OA
BRANCH   6   8
ATOM      8  C   UNL     1      -1.020  -3.905  -5.001  1.00  0.00     0.161 C 
BRANCH   8   9
ATOM      9  C   UNL     1       0.440  -3.556  -5.154  1.00  0.00     0.002 A 
ATOM     10  C   UNL     1       1.981  -1.290  -2.390  1.00  0.00     0.119 A 
ATOM     11  C   UNL     1       2.913  -0.688  -3.197  1.00  0.00     0.048 A 
ATOM     12  C   UNL     1       1.157  -2.295  -2.926  1.00  0.00     0.057 A 
ATOM     13  C   UNL     1       3.059  -1.130  -4.515  1.00  0.00     0.031 A 
ATOM     14  C   UNL     1       1.242  -2.749  -4.262  1.00  0.00     0.008 A 
ATOM     15  C   UNL     1       2.271  -2.201  -5.018  1.00  0.00     0.057 A 
ATOM     16  N   UNL     1       2.329  -2.936  -6.211  1.00  0.00    -0.271 N 
ATOM     17  C   UNL     1       1.085  -3.521  -6.399  1.00  0.00     0.135 A 
BRANCH  10  18
ATOM     18  O   UNL     1       1.826  -1.010  -1.060  1.00  0.00    -0.497 OA
ATOM     19  C   UNL     1       1.879   0.371  -0.691  1.00  0.00     0.278 C 
ENDBRANCH  10  18
BRANCH  16  20
ATOM     20  C   UNL     1       3.497  -3.054  -6.998  1.00  0.00     0.262 C 
ATOM     21  O   UNL     1       3.428  -3.502  -8.135  1.00  0.00    -0.268 OA
BRANCH  20  22
ATOM     22  C   UNL     1       4.823  -2.705  -6.463  1.00  0.00     0.040 A 
ATOM     23  C   UNL     1       5.305  -3.401  -5.346  1.00  0.00     0.015 A 
ATOM     24  C   UNL     1       5.454  -1.550  -6.933  1.00  0.00     0.015 A 
ATOM     25  C   UNL     1       6.394  -2.891  -4.646  1.00  0.00     0.021 A 
ATOM     26  C   UNL     1       6.535  -1.039  -6.216  1.00  0.00     0.021 A 
ATOM     27  C   UNL     1       6.989  -1.701  -5.070  1.00  0.00     0.041 A 
ATOM     28  Cl  UNL     1       8.258  -1.011  -4.138  1.00  0.00    -0.084 Cl
ENDBRANCH  20  22
ENDBRANCH  16  20
BRANCH  17  29
ATOM     29  C   UNL     1       0.487  -3.907  -7.716  1.00  0.00     0.432 C 
ATOM     30  F   UNL     1      -0.307  -5.002  -7.560  1.00  0.00    -0.165 F 
ATOM     31  F   UNL     1      -0.338  -2.916  -8.153  1.00  0.00    -0.165 F 
ATOM     32  F   UNL     1       1.316  -4.199  -8.730  1.00  0.00    -0.165 F 
ENDBRANCH  17  29
ENDBRANCH   8   9
ENDBRANCH   6   8
ENDBRANCH   5   6
ENDBRANCH   4   5
ENDBRANCH   3   4
ENDBRANCH   2   3
ENDBRANCH   1   2
BRANCH   1  33
ATOM     33  C   UNL     1      -0.957  -4.752  -1.706  1.00  0.00     0.188 C 
BRANCH  33  34
ATOM     34  O   UNL     1       0.026  -5.649  -1.266  1.00  0.00    -0.376 OA
BRANCH  34  35
ATOM     35  C   UNL     1       0.235  -5.740   0.132  1.00  0.00     0.202 C 
BRANCH  35  36
ATOM     36  C   UNL     1       0.029  -4.483   1.019  1.00  0.00     0.261 C 
BRANCH  36  37
ATOM     37  O   UNL     1      -1.256  -3.821   0.834  1.00  0.00    -0.460 OA
BRANCH  37  38
ATOM     38  C   UNL     1      -1.234  -2.450   0.855  1.00  0.00     0.338 C 
ATOM     39  O   UNL     1      -0.394  -1.772   1.425  1.00  0.00    -0.246 OA
BRANCH  38  40
ATOM     40  C   UNL     1      -2.114  -1.895  -0.236  1.00  0.00     0.060 A 
ATOM     41  C   UNL     1      -3.470  -2.151  -0.416  1.00  0.00     0.016 A 
ATOM     42  C   UNL     1      -1.455  -1.192  -1.247  1.00  0.00     0.016 A 
ATOM     43  C   UNL     1      -4.089  -1.829  -1.653  1.00  0.00     0.010 A 
ATOM     44  C   UNL     1      -2.035  -0.938  -2.495  1.00  0.00     0.010 A 
ATOM     45  C   UNL     1      -3.358  -1.290  -2.735  1.00  0.00    -0.014 A 
BRANCH  45  46
ATOM     46  C   UNL     1      -4.011  -0.743  -3.948  1.00  0.00     0.031 A 
ATOM     47  C   UNL     1      -4.668   0.532  -3.669  1.00  0.00     0.074 A 
ATOM     48  C   UNL     1      -4.083  -1.146  -5.238  1.00  0.00     0.049 A 
ATOM     49  N   UNL     1      -5.906   0.613  -3.330  1.00  0.00    -0.248 NA
ATOM     50  C   UNL     1      -3.920   1.783  -3.611  1.00  0.00     0.031 C 
ATOM     51  C   UNL     1      -3.530  -2.346  -5.805  1.00  0.00     0.029 A 
ATOM     52  N   UNL     1      -4.688  -0.578  -6.341  1.00  0.00    -0.354 N 
ATOM     53  C   UNL     1      -6.175   1.958  -3.249  1.00  0.00     0.074 A 
ATOM     54  C   UNL     1      -4.889   2.615  -3.212  1.00  0.00     0.031 C 
ATOM     55  C   UNL     1      -3.561  -2.333  -7.157  1.00  0.00     0.029 A 
ATOM     56  C   UNL     1      -4.396  -1.213  -7.554  1.00  0.00     0.049 A 
ATOM     57  H   UNL     1      -5.277   0.208  -6.280  1.00  0.00     0.167 HD
ATOM     58  C   UNL     1      -7.439   2.390  -3.496  1.00  0.00     0.037 A 
ATOM     59  C   UNL     1      -5.019  -1.141  -8.761  1.00  0.00     0.037 A 
ATOM     60  C   UNL     1      -8.382   1.284  -3.498  1.00  0.00     0.049 A 
ATOM     61  C   UNL     1      -6.432  -0.818  -8.485  1.00  0.00     0.074 A 
ATOM     62  C   UNL     1      -8.713   0.294  -2.588  1.00  0.00     0.029 A 
ATOM     63  N   UNL     1      -8.856   0.829  -4.707  1.00  0.00    -0.354 N 
ATOM     64  N   UNL     1      -7.268  -1.642  -7.917  1.00  0.00    -0.248 NA
ATOM     65  C   UNL     1      -6.798   0.584  -8.438  1.00  0.00     0.031 C 
ATOM     66  C   UNL     1      -8.930  -0.885  -3.366  1.00  0.00     0.029 A 
ATOM     67  C   UNL     1      -8.790  -0.545  -4.711  1.00  0.00     0.049 A 
ATOM     68  H   UNL     1      -9.187   1.391  -5.444  1.00  0.00     0.167 HD
ATOM     69  C   UNL     1      -7.990  -0.844  -7.045  1.00  0.00     0.074 A 
ATOM     70  C   UNL     1      -7.730   0.524  -7.485  1.00  0.00     0.031 C 
ATOM     71  C   UNL     1      -8.512  -1.347  -5.888  1.00  0.00     0.037 A 
BRANCH  58  72
ATOM     72  C   UNL     1      -7.757   3.742  -4.064  1.00  0.00     0.064 A 
ATOM     73  C   UNL     1      -9.095   4.172  -4.085  1.00  0.00     0.173 A 
ATOM     74  C   UNL     1      -6.849   4.536  -4.799  1.00  0.00     0.173 A 
ATOM     75  F   UNL     1     -10.047   3.471  -3.451  1.00  0.00    -0.203 F 
ATOM     76  C   UNL     1      -9.500   5.284  -4.825  1.00  0.00     0.198 A 
ATOM     77  C   UNL     1      -7.245   5.681  -5.484  1.00  0.00     0.198 A 
ATOM     78  F   UNL     1      -5.571   4.183  -4.981  1.00  0.00    -0.203 F 
ATOM     79  F   UNL     1     -10.802   5.585  -4.909  1.00  0.00    -0.200 F 
ATOM     80  C   UNL     1      -8.574   6.040  -5.521  1.00  0.00     0.200 A 
ATOM     81  F   UNL     1      -6.333   6.387  -6.169  1.00  0.00    -0.200 F 
ATOM     82  F   UNL     1      -8.966   7.079  -6.267  1.00  0.00    -0.200 F 
ENDBRANCH  58  72
BRANCH  59  83
ATOM     83  C   UNL     1      -4.452  -1.224 -10.133  1.00  0.00     0.064 A 
ATOM     84  C   UNL     1      -5.255  -1.426 -11.271  1.00  0.00     0.173 A 
ATOM     85  C   UNL     1      -3.125  -0.819 -10.377  1.00  0.00     0.173 A 
ATOM     86  F   UNL     1      -6.543  -1.775 -11.137  1.00  0.00    -0.203 F 
ATOM     87  C   UNL     1      -4.771  -1.204 -12.568  1.00  0.00     0.198 A 
ATOM     88  C   UNL     1      -2.644  -0.595 -11.672  1.00  0.00     0.198 A 
ATOM     89  F   UNL     1      -2.302  -0.540  -9.356  1.00  0.00    -0.203 F 
ATOM     90  F   UNL     1      -5.587  -1.349 -13.623  1.00  0.00    -0.200 F 
ATOM     91  C   UNL     1      -3.471  -0.774 -12.766  1.00  0.00     0.200 A 
ATOM     92  F   UNL     1      -1.396  -0.138 -11.849  1.00  0.00    -0.200 F 
ATOM     93  F   UNL     1      -3.030  -0.490 -14.000  1.00  0.00    -0.200 F 
ENDBRANCH  59  83
BRANCH  71  94
ATOM     94  C   UNL     1      -8.590  -2.849  -5.727  1.00  0.00     0.064 A 
ATOM     95  C   UNL     1      -7.476  -3.707  -5.698  1.00  0.00     0.173 A 
ATOM     96  C   UNL     1      -9.835  -3.423  -5.429  1.00  0.00     0.173 A 
ATOM     97  F   UNL     1      -6.243  -3.237  -5.901  1.00  0.00    -0.203 F 
ATOM     98  C   UNL     1      -7.604  -5.065  -5.395  1.00  0.00     0.198 A 
ATOM     99  C   UNL     1      -9.958  -4.772  -5.095  1.00  0.00     0.198 A 
ATOM    100  F   UNL     1     -10.938  -2.658  -5.406  1.00  0.00    -0.203 F 
ATOM    101  F   UNL     1      -6.519  -5.854  -5.364  1.00  0.00    -0.200 F 
ATOM    102  C   UNL     1      -8.843  -5.593  -5.080  1.00  0.00     0.200 A 
ATOM    103  F   UNL     1     -11.155  -5.268  -4.752  1.00  0.00    -0.200 F 
ATOM    104  F   UNL     1      -8.960  -6.883  -4.733  1.00  0.00    -0.200 F 
ENDBRANCH  71  94
ENDBRANCH  45  46
ENDBRANCH  38  40
ENDBRANCH  37  38
ENDBRANCH  36  37
ENDBRANCH  35  36
ENDBRANCH  34  35
ENDBRANCH  33  34
ENDBRANCH   1  33
TORSDOF 22
