REMARK SMILES CC(C)(C)n1ccnc(N(CC(=O)OCCOCCOCCOC(=O)c2ccc(-c3c4nc(c(-c5c(F)c(F)c(F)c(F)c5F)c5ccc([nH]5)c(-c5c(F)c(F)c(F)c(F)c5F)c5nc(c(-c6c(F)c(F)c(F)c(F)c6F)c6ccc3[nH]6)C=C5)C=C4)cc2)CC(F)(F)F)c1=O
REMARK SMILES IDX 18 1 17 2 16 3 15 4 14 5 12 6 13 7 11 8 10 9 9 10 5 11 6 12
REMARK SMILES IDX 94 13 7 14 95 15 8 16 2 17 1 18 3 19 4 20 89 21 90 22 91 23
REMARK SMILES IDX 92 24 93 25 19 26 20 27 21 28 22 29 23 30 24 31 25 32 26 33
REMARK SMILES IDX 27 34 88 35 28 36 87 37 29 38 30 39 31 40 81 41 32 42 86 43
REMARK SMILES IDX 80 44 82 45 33 46 85 47 79 48 78 49 34 51 66 52 46 53 65 54
REMARK SMILES IDX 47 55 50 56 64 57 83 58 48 59 49 60 63 62 84 63 51 64 35 65
REMARK SMILES IDX 36 66 44 67 37 68 38 69 42 70 45 71 39 72 40 73 43 74 41 75
REMARK SMILES IDX 67 76 68 77 76 78 69 79 70 80 74 81 77 82 71 83 72 84 75 85
REMARK SMILES IDX 73 86 52 87 53 88 61 89 54 90 55 91 59 92 62 93 56 94 57 95
REMARK SMILES IDX 60 96 58 97
REMARK H PARENT 82 50 50 61
REMARK Flexibility Score: inf
ROOT
ATOM      1  C   UNL     1       7.976   4.675  -3.200  1.00  0.00     0.188 C 
ENDROOT
BRANCH   1   2
ATOM      2  O   UNL     1       8.385   5.820  -2.461  1.00  0.00    -0.376 OA
BRANCH   2   3
ATOM      3  C   UNL     1       7.847   6.024  -1.159  1.00  0.00     0.202 C 
BRANCH   3   4
ATOM      4  C   UNL     1       6.362   6.423  -1.099  1.00  0.00     0.261 C 
BRANCH   4   5
ATOM      5  O   UNL     1       5.434   5.474  -1.698  1.00  0.00    -0.462 OA
BRANCH   5   6
ATOM      6  C   UNL     1       4.654   5.939  -2.711  1.00  0.00     0.325 C 
ATOM      7  O   UNL     1       4.690   7.110  -3.092  1.00  0.00    -0.250 OA
BRANCH   6   8
ATOM      8  C   UNL     1       3.876   4.896  -3.530  1.00  0.00     0.241 C 
BRANCH   8   9
ATOM      9  N   UNL     1       3.416   3.615  -2.945  1.00  0.00    -0.332 N 
BRANCH   9  10
ATOM     10  C   UNL     1       2.087   3.478  -2.510  1.00  0.00     0.196 A 
ATOM     11  N   UNL     1       0.346   1.840  -1.762  1.00  0.00    -0.306 N 
ATOM     12  C   UNL     1      -0.234   2.950  -1.168  1.00  0.00     0.110 A 
ATOM     13  C   UNL     1       1.351   2.096  -2.688  1.00  0.00     0.294 A 
ATOM     14  C   UNL     1       0.256   4.184  -1.357  1.00  0.00     0.131 A 
ATOM     15  O   UNL     1       1.702   1.359  -3.601  1.00  0.00    -0.265 OA
ATOM     16  N   UNL     1       1.456   4.477  -1.955  1.00  0.00    -0.233 NA
BRANCH  11  17
ATOM     17  C   UNL     1      -0.040   0.443  -1.359  1.00  0.00     0.039 C 
ATOM     18  C   UNL     1       0.591   0.153   0.022  1.00  0.00     0.034 C 
ATOM     19  C   UNL     1       0.458  -0.671  -2.316  1.00  0.00     0.034 C 
ATOM     20  C   UNL     1      -1.570   0.265  -1.266  1.00  0.00     0.034 C 
ENDBRANCH  11  17
ENDBRANCH   9  10
BRANCH   9  21
ATOM     21  C   UNL     1       4.223   2.401  -3.219  1.00  0.00     0.234 C 
BRANCH  21  22
ATOM     22  C   UNL     1       4.458   1.488  -1.999  1.00  0.00     0.405 C 
ATOM     23  F   UNL     1       3.425   0.676  -1.713  1.00  0.00    -0.169 F 
ATOM     24  F   UNL     1       5.525   0.694  -2.226  1.00  0.00    -0.169 F 
ATOM     25  F   UNL     1       4.725   2.207  -0.884  1.00  0.00    -0.169 F 
ENDBRANCH  21  22
ENDBRANCH   9  21
ENDBRANCH   8   9
ENDBRANCH   6   8
ENDBRANCH   5   6
ENDBRANCH   4   5
ENDBRANCH   3   4
ENDBRANCH   2   3
ENDBRANCH   1   2
BRANCH   1  26
ATOM     26  C   UNL     1       7.405   3.479  -2.442  1.00  0.00     0.188 C 
BRANCH  26  27
ATOM     27  O   UNL     1       8.158   3.197  -1.278  1.00  0.00    -0.376 OA
BRANCH  27  28
ATOM     28  C   UNL     1       8.088   1.856  -0.831  1.00  0.00     0.202 C 
BRANCH  28  29
ATOM     29  C   UNL     1       9.182   1.038  -1.512  1.00  0.00     0.261 C 
BRANCH  29  30
ATOM     30  O   UNL     1       9.284   1.265  -2.934  1.00  0.00    -0.460 OA
BRANCH  30  31
ATOM     31  C   UNL     1       8.466   0.567  -3.749  1.00  0.00     0.338 C 
ATOM     32  O   UNL     1       7.654  -0.289  -3.431  1.00  0.00    -0.246 OA
BRANCH  31  33
ATOM     33  C   UNL     1       8.582   1.139  -5.108  1.00  0.00     0.060 A 
ATOM     34  C   UNL     1       9.836   1.242  -5.711  1.00  0.00     0.016 A 
ATOM     35  C   UNL     1       7.435   1.576  -5.788  1.00  0.00     0.016 A 
ATOM     36  C   UNL     1       9.940   1.757  -7.003  1.00  0.00     0.010 A 
ATOM     37  C   UNL     1       7.542   2.101  -7.080  1.00  0.00     0.010 A 
ATOM     38  C   UNL     1       8.794   2.172  -7.706  1.00  0.00    -0.014 A 
BRANCH  38  39
ATOM     39  C   UNL     1       8.913   2.527  -9.143  1.00  0.00     0.031 A 
ATOM     40  C   UNL     1       8.861   3.949  -9.614  1.00  0.00     0.074 A 
ATOM     41  C   UNL     1       9.091   1.526 -10.025  1.00  0.00     0.049 A 
ATOM     42  N   UNL     1       9.052   4.421 -10.821  1.00  0.00    -0.248 NA
ATOM     43  C   UNL     1       8.550   4.974  -8.609  1.00  0.00     0.031 C 
ATOM     44  C   UNL     1       9.116   0.103  -9.679  1.00  0.00     0.029 A 
ATOM     45  N   UNL     1       9.299   1.542 -11.381  1.00  0.00    -0.354 N 
ATOM     46  C   UNL     1       8.908   5.798 -10.719  1.00  0.00     0.074 A 
ATOM     47  C   UNL     1       8.561   6.082  -9.342  1.00  0.00     0.031 C 
ATOM     48  C   UNL     1       9.362  -0.614 -10.785  1.00  0.00     0.029 A 
ATOM     49  C   UNL     1       9.483   0.292 -11.922  1.00  0.00     0.049 A 
ATOM     50  H   UNL     1       9.314   2.369 -11.915  1.00  0.00     0.167 HD
ATOM     51  C   UNL     1       9.075   6.732 -11.686  1.00  0.00     0.037 A 
ATOM     52  C   UNL     1       9.730  -0.081 -13.192  1.00  0.00     0.037 A 
ATOM     53  C   UNL     1       9.411   6.434 -13.057  1.00  0.00     0.049 A 
ATOM     54  C   UNL     1       9.877   0.979 -14.248  1.00  0.00     0.074 A 
ATOM     55  C   UNL     1       9.636   7.315 -14.101  1.00  0.00     0.029 A 
ATOM     56  N   UNL     1       9.560   5.156 -13.579  1.00  0.00    -0.354 N 
ATOM     57  N   UNL     1       9.819   2.283 -14.124  1.00  0.00    -0.248 NA
ATOM     58  C   UNL     1      10.135   0.518 -15.619  1.00  0.00     0.031 C 
ATOM     59  C   UNL     1       9.862   6.572 -15.263  1.00  0.00     0.029 A 
ATOM     60  C   UNL     1       9.844   5.227 -14.935  1.00  0.00     0.049 A 
ATOM     61  H   UNL     1       9.476   4.322 -13.062  1.00  0.00     0.167 HD
ATOM     62  C   UNL     1      10.053   2.798 -15.391  1.00  0.00     0.074 A 
ATOM     63  C   UNL     1      10.283   1.666 -16.265  1.00  0.00     0.031 C 
ATOM     64  C   UNL     1      10.068   4.092 -15.795  1.00  0.00     0.037 A 
BRANCH  51  65
ATOM     65  C   UNL     1       8.917   8.179 -11.309  1.00  0.00     0.064 A 
ATOM     66  C   UNL     1       9.873   8.835 -10.519  1.00  0.00     0.173 A 
ATOM     67  C   UNL     1       7.864   8.945 -11.833  1.00  0.00     0.173 A 
ATOM     68  F   UNL     1      10.898   8.149  -9.992  1.00  0.00    -0.203 F 
ATOM     69  C   UNL     1       9.777  10.200 -10.262  1.00  0.00     0.198 A 
ATOM     70  C   UNL     1       7.787  10.316 -11.597  1.00  0.00     0.198 A 
ATOM     71  F   UNL     1       6.928   8.371 -12.605  1.00  0.00    -0.203 F 
ATOM     72  F   UNL     1      10.692  10.800  -9.488  1.00  0.00    -0.200 F 
ATOM     73  C   UNL     1       8.742  10.942 -10.811  1.00  0.00     0.200 A 
ATOM     74  F   UNL     1       6.797  11.034 -12.146  1.00  0.00    -0.200 F 
ATOM     75  F   UNL     1       8.667  12.261 -10.586  1.00  0.00    -0.200 F 
ENDBRANCH  51  65
BRANCH  52  76
ATOM     76  C   UNL     1       9.881  -1.523 -13.522  1.00  0.00     0.064 A 
ATOM     77  C   UNL     1      11.114  -2.047 -13.933  1.00  0.00     0.173 A 
ATOM     78  C   UNL     1       8.798  -2.410 -13.423  1.00  0.00     0.173 A 
ATOM     79  F   UNL     1      12.176  -1.238 -14.061  1.00  0.00    -0.203 F 
ATOM     80  C   UNL     1      11.255  -3.397 -14.249  1.00  0.00     0.198 A 
ATOM     81  C   UNL     1       8.947  -3.766 -13.706  1.00  0.00     0.198 A 
ATOM     82  F   UNL     1       7.597  -1.962 -13.029  1.00  0.00    -0.203 F 
ATOM     83  F   UNL     1      12.434  -3.862 -14.683  1.00  0.00    -0.200 F 
ATOM     84  C   UNL     1      10.173  -4.257 -14.127  1.00  0.00     0.200 A 
ATOM     85  F   UNL     1       7.904  -4.595 -13.569  1.00  0.00    -0.200 F 
ATOM     86  F   UNL     1      10.311  -5.557 -14.421  1.00  0.00    -0.200 F 
ENDBRANCH  52  76
BRANCH  64  87
ATOM     87  C   UNL     1      10.353   4.359 -17.247  1.00  0.00     0.064 A 
ATOM     88  C   UNL     1       9.433   4.023 -18.251  1.00  0.00     0.173 A 
ATOM     89  C   UNL     1      11.540   5.001 -17.635  1.00  0.00     0.173 A 
ATOM     90  F   UNL     1       8.289   3.396 -17.936  1.00  0.00    -0.203 F 
ATOM     91  C   UNL     1       9.701   4.293 -19.590  1.00  0.00     0.198 A 
ATOM     92  C   UNL     1      11.788   5.303 -18.971  1.00  0.00     0.198 A 
ATOM     93  F   UNL     1      12.451   5.353 -16.716  1.00  0.00    -0.203 F 
ATOM     94  F   UNL     1       8.830   3.915 -20.536  1.00  0.00    -0.200 F 
ATOM     95  C   UNL     1      10.874   4.941 -19.948  1.00  0.00     0.200 A 
ATOM     96  F   UNL     1      12.913   5.947 -19.313  1.00  0.00    -0.200 F 
ATOM     97  F   UNL     1      11.125   5.212 -21.236  1.00  0.00    -0.200 F 
ENDBRANCH  64  87
ENDBRANCH  38  39
ENDBRANCH  31  33
ENDBRANCH  30  31
ENDBRANCH  29  30
ENDBRANCH  28  29
ENDBRANCH  27  28
ENDBRANCH  26  27
ENDBRANCH   1  26
TORSDOF 22
