REMARK SMILES O=C(COc1ccc(NC(=O)c2ccc(Br)cc2)cc1-c1nc2ccccc2o1)OCCOCCOCCOC(=O)c1ccc(-c2c3nc(c(-c4c(F)c(F)c(F)c(F)c4F)c4ccc([nH]4)c(-c4c(F)c(F)c(F)c(F)c4F)c4nc(c(-c5c(F)c(F)c(F)c(F)c5F)c5ccc2[nH]5)C=C4)C=C3)cc1
REMARK SMILES IDX 34 1 33 2 32 3 31 4 30 5 2 6 1 7 3 8 4 9 5 10 6 11 20 12
REMARK SMILES IDX 7 13 19 14 8 15 21 16 22 17 29 18 23 19 28 20 24 21 27 22
REMARK SMILES IDX 25 23 26 24 9 25 10 26 11 28 12 29 13 30 18 31 14 32 17 33
REMARK SMILES IDX 15 34 16 35 35 36 36 37 37 38 38 39 39 40 40 41 41 42 42 43
REMARK SMILES IDX 43 44 104 45 44 46 103 47 45 48 46 49 47 50 97 51 48 52
REMARK SMILES IDX 102 53 96 54 98 55 49 56 101 57 95 58 94 59 50 61 82 62
REMARK SMILES IDX 62 63 81 64 63 65 66 66 80 67 99 68 64 69 65 70 79 72 100 73
REMARK SMILES IDX 67 74 51 75 52 76 60 77 53 78 54 79 58 80 61 81 55 82 56 83
REMARK SMILES IDX 59 84 57 85 83 86 84 87 92 88 85 89 86 90 90 91 93 92 87 93
REMARK SMILES IDX 88 94 91 95 89 96 68 97 69 98 77 99 70 100 71 101 75 102
REMARK SMILES IDX 78 103 72 104 73 105 76 106 74 107
REMARK H PARENT 9 27 98 60 66 71
REMARK Flexibility Score: inf
ROOT
ATOM      1  C   UNL     1       4.147   0.778   2.534  1.00  0.00     0.188 C 
ENDROOT
BRANCH   1   2
ATOM      2  O   UNL     1       5.412   0.803   1.880  1.00  0.00    -0.376 OA
BRANCH   2   3
ATOM      3  C   UNL     1       5.531  -0.012   0.725  1.00  0.00     0.202 C 
BRANCH   3   4
ATOM      4  C   UNL     1       4.577   0.417  -0.372  1.00  0.00     0.261 C 
BRANCH   4   5
ATOM      5  O   UNL     1       3.174   0.242  -0.009  1.00  0.00    -0.461 OA
BRANCH   5   6
ATOM      6  C   UNL     1       2.498  -0.832   0.451  1.00  0.00     0.344 C 
ATOM      7  O   UNL     1       1.445  -0.703   1.074  1.00  0.00    -0.248 OA
BRANCH   6   8
ATOM      8  C   UNL     1       3.104  -2.171   0.201  1.00  0.00     0.352 C 
BRANCH   8   9
ATOM      9  O   UNL     1       3.969  -2.076  -0.924  1.00  0.00    -0.481 OA
BRANCH   9  10
ATOM     10  C   UNL     1       3.351  -2.508  -2.058  1.00  0.00     0.133 A 
ATOM     11  C   UNL     1       3.922  -3.688  -2.496  1.00  0.00     0.049 A 
ATOM     12  C   UNL     1       2.233  -1.928  -2.698  1.00  0.00     0.081 A 
ATOM     13  C   UNL     1       3.258  -4.427  -3.439  1.00  0.00     0.030 A 
ATOM     14  C   UNL     1       1.502  -2.770  -3.546  1.00  0.00     0.043 A 
ATOM     15  C   UNL     1       1.971  -4.069  -3.827  1.00  0.00     0.042 A 
BRANCH  12  16
ATOM     16  C   UNL     1       1.917  -0.491  -2.588  1.00  0.00     0.231 A 
ATOM     17  N   UNL     1       2.702   0.531  -2.891  1.00  0.00    -0.209 NA
ATOM     18  O   UNL     1       0.750  -0.132  -1.946  1.00  0.00    -0.436 OA
ATOM     19  C   UNL     1       2.109   1.610  -2.270  1.00  0.00     0.110 A 
ATOM     20  C   UNL     1       0.911   1.215  -1.691  1.00  0.00     0.155 A 
ATOM     21  C   UNL     1       2.591   2.909  -2.031  1.00  0.00     0.032 A 
ATOM     22  C   UNL     1       0.128   2.043  -0.886  1.00  0.00     0.049 A 
ATOM     23  C   UNL     1       1.863   3.745  -1.171  1.00  0.00     0.003 A 
ATOM     24  C   UNL     1       0.651   3.320  -0.616  1.00  0.00     0.004 A 
ENDBRANCH  12  16
BRANCH  15  25
ATOM     25  N   UNL     1       1.131  -4.982  -4.486  1.00  0.00    -0.322 N 
ATOM     26  C   UNL     1       1.221  -6.362  -4.591  1.00  0.00     0.255 C 
ATOM     27  H   UNL     1       0.358  -4.580  -4.945  1.00  0.00     0.170 HD
ATOM     28  O   UNL     1       0.484  -6.970  -5.364  1.00  0.00    -0.269 OA
BRANCH  26  29
ATOM     29  C   UNL     1       2.172  -7.153  -3.765  1.00  0.00     0.040 A 
ATOM     30  C   UNL     1       3.152  -7.911  -4.421  1.00  0.00     0.015 A 
ATOM     31  C   UNL     1       2.154  -7.094  -2.362  1.00  0.00     0.015 A 
ATOM     32  C   UNL     1       4.150  -8.553  -3.681  1.00  0.00     0.016 A 
ATOM     33  C   UNL     1       3.157  -7.736  -1.625  1.00  0.00     0.016 A 
ATOM     34  C   UNL     1       4.155  -8.452  -2.289  1.00  0.00     0.018 A 
ATOM     35  Br  UNL     1       5.539  -9.274  -1.296  1.00  0.00    -0.051 Br
ENDBRANCH  26  29
ENDBRANCH  15  25
ENDBRANCH   9  10
ENDBRANCH   8   9
ENDBRANCH   6   8
ENDBRANCH   5   6
ENDBRANCH   4   5
ENDBRANCH   3   4
ENDBRANCH   2   3
ENDBRANCH   1   2
BRANCH   1  36
ATOM     36  C   UNL     1       3.170   1.943   2.185  1.00  0.00     0.188 C 
BRANCH  36  37
ATOM     37  O   UNL     1       3.588   3.303   2.188  1.00  0.00    -0.376 OA
BRANCH  37  38
ATOM     38  C   UNL     1       4.901   3.606   2.599  1.00  0.00     0.202 C 
BRANCH  38  39
ATOM     39  C   UNL     1       5.078   3.668   4.122  1.00  0.00     0.261 C 
BRANCH  39  40
ATOM     40  O   UNL     1       4.553   2.538   4.850  1.00  0.00    -0.460 OA
BRANCH  40  41
ATOM     41  C   UNL     1       3.236   2.588   5.192  1.00  0.00     0.338 C 
ATOM     42  O   UNL     1       2.490   3.537   5.079  1.00  0.00    -0.246 OA
BRANCH  41  43
ATOM     43  C   UNL     1       2.761   1.226   5.596  1.00  0.00     0.060 A 
ATOM     44  C   UNL     1       1.493   0.797   5.168  1.00  0.00     0.016 A 
ATOM     45  C   UNL     1       3.534   0.385   6.402  1.00  0.00     0.016 A 
ATOM     46  C   UNL     1       0.960  -0.416   5.615  1.00  0.00     0.010 A 
ATOM     47  C   UNL     1       2.991  -0.820   6.871  1.00  0.00     0.010 A 
ATOM     48  C   UNL     1       1.673  -1.189   6.538  1.00  0.00    -0.014 A 
BRANCH  48  49
ATOM     49  C   UNL     1       0.929  -2.146   7.406  1.00  0.00     0.031 A 
ATOM     50  C   UNL     1       0.477  -1.641   8.756  1.00  0.00     0.074 A 
ATOM     51  C   UNL     1       0.613  -3.396   7.022  1.00  0.00     0.049 A 
ATOM     52  N   UNL     1      -0.155  -2.263   9.719  1.00  0.00    -0.248 NA
ATOM     53  C   UNL     1       0.793  -0.235   9.062  1.00  0.00     0.031 C 
ATOM     54  C   UNL     1       0.932  -3.996   5.731  1.00  0.00     0.029 A 
ATOM     55  N   UNL     1      -0.056  -4.389   7.700  1.00  0.00    -0.354 N 
ATOM     56  C   UNL     1      -0.293  -1.331  10.742  1.00  0.00     0.074 A 
ATOM     57  C   UNL     1       0.354  -0.117  10.303  1.00  0.00     0.031 C 
ATOM     58  C   UNL     1       0.466  -5.259   5.712  1.00  0.00     0.029 A 
ATOM     59  C   UNL     1      -0.161  -5.564   6.998  1.00  0.00     0.049 A 
ATOM     60  H   UNL     1      -0.424  -4.268   8.605  1.00  0.00     0.167 HD
ATOM     61  C   UNL     1      -0.915  -1.464  11.937  1.00  0.00     0.037 A 
ATOM     62  C   UNL     1      -0.693  -6.750   7.362  1.00  0.00     0.037 A 
ATOM     63  C   UNL     1      -1.571  -2.666  12.375  1.00  0.00     0.049 A 
ATOM     64  C   UNL     1      -1.323  -6.897   8.728  1.00  0.00     0.074 A 
ATOM     65  C   UNL     1      -2.246  -2.897  13.561  1.00  0.00     0.029 A 
ATOM     66  N   UNL     1      -1.629  -3.843  11.645  1.00  0.00    -0.354 N 
ATOM     67  N   UNL     1      -1.469  -6.006   9.679  1.00  0.00    -0.248 NA
ATOM     68  C   UNL     1      -1.875  -8.218   9.063  1.00  0.00     0.031 C 
ATOM     69  C   UNL     1      -2.655  -4.234  13.575  1.00  0.00     0.029 A 
ATOM     70  C   UNL     1      -2.306  -4.813  12.366  1.00  0.00     0.049 A 
ATOM     71  H   UNL     1      -1.246  -3.970  10.747  1.00  0.00     0.167 HD
ATOM     72  C   UNL     1      -2.170  -6.641  10.699  1.00  0.00     0.074 A 
ATOM     73  C   UNL     1      -2.425  -7.992  10.247  1.00  0.00     0.031 C 
ATOM     74  C   UNL     1      -2.573  -6.149  11.897  1.00  0.00     0.037 A 
BRANCH  61  75
ATOM     75  C   UNL     1      -0.879  -0.287  12.871  1.00  0.00     0.064 A 
ATOM     76  C   UNL     1      -1.576   0.901  12.599  1.00  0.00     0.173 A 
ATOM     77  C   UNL     1      -0.143  -0.356  14.063  1.00  0.00     0.173 A 
ATOM     78  F   UNL     1      -2.280   1.028  11.464  1.00  0.00    -0.203 F 
ATOM     79  C   UNL     1      -1.508   1.987  13.470  1.00  0.00     0.198 A 
ATOM     80  C   UNL     1      -0.109   0.717  14.949  1.00  0.00     0.198 A 
ATOM     81  F   UNL     1       0.540  -1.468  14.373  1.00  0.00    -0.203 F 
ATOM     82  F   UNL     1      -2.130   3.132  13.159  1.00  0.00    -0.200 F 
ATOM     83  C   UNL     1      -0.782   1.891  14.647  1.00  0.00     0.200 A 
ATOM     84  F   UNL     1       0.582   0.617  16.093  1.00  0.00    -0.200 F 
ATOM     85  F   UNL     1      -0.723   2.933  15.487  1.00  0.00    -0.200 F 
ENDBRANCH  61  75
BRANCH  62  86
ATOM     86  C   UNL     1      -0.665  -7.907   6.423  1.00  0.00     0.064 A 
ATOM     87  C   UNL     1      -1.850  -8.440   5.893  1.00  0.00     0.173 A 
ATOM     88  C   UNL     1       0.540  -8.533   6.073  1.00  0.00     0.173 A 
ATOM     89  F   UNL     1      -3.033  -7.898   6.220  1.00  0.00    -0.203 F 
ATOM     90  C   UNL     1      -1.833  -9.567   5.072  1.00  0.00     0.198 A 
ATOM     91  C   UNL     1       0.559  -9.639   5.225  1.00  0.00     0.198 A 
ATOM     92  F   UNL     1       1.703  -8.070   6.554  1.00  0.00    -0.203 F 
ATOM     93  F   UNL     1      -2.985 -10.089   4.630  1.00  0.00    -0.200 F 
ATOM     94  C   UNL     1      -0.627 -10.162   4.734  1.00  0.00     0.200 A 
ATOM     95  F   UNL     1       1.728 -10.204   4.890  1.00  0.00    -0.200 F 
ATOM     96  F   UNL     1      -0.610 -11.244   3.944  1.00  0.00    -0.200 F 
ENDBRANCH  62  86
BRANCH  74  97
ATOM     97  C   UNL     1      -3.399  -7.046  12.778  1.00  0.00     0.064 A 
ATOM     98  C   UNL     1      -2.867  -8.189  13.394  1.00  0.00     0.173 A 
ATOM     99  C   UNL     1      -4.746  -6.736  13.031  1.00  0.00     0.173 A 
ATOM    100  F   UNL     1      -1.589  -8.537  13.182  1.00  0.00    -0.203 F 
ATOM    101  C   UNL     1      -3.662  -9.010  14.191  1.00  0.00     0.198 A 
ATOM    102  C   UNL     1      -5.526  -7.537  13.861  1.00  0.00     0.198 A 
ATOM    103  F   UNL     1      -5.305  -5.648  12.481  1.00  0.00    -0.203 F 
ATOM    104  F   UNL     1      -3.149 -10.133  14.713  1.00  0.00    -0.200 F 
ATOM    105  C   UNL     1      -4.988  -8.681  14.429  1.00  0.00     0.200 A 
ATOM    106  F   UNL     1      -6.801  -7.204  14.106  1.00  0.00    -0.200 F 
ATOM    107  F   UNL     1      -5.749  -9.470  15.198  1.00  0.00    -0.200 F 
ENDBRANCH  74  97
ENDBRANCH  48  49
ENDBRANCH  41  43
ENDBRANCH  40  41
ENDBRANCH  39  40
ENDBRANCH  38  39
ENDBRANCH  37  38
ENDBRANCH  36  37
ENDBRANCH   1  36
TORSDOF 22
